REMARK  6 active torsions:
REMARK  status: ('A' for Active; 'I' for Inactive)
REMARK    1  A    between atoms: O1_2  and  C2_3 
REMARK    2  A    between atoms: C6_7  and  O2_8 
REMARK    3  A    between atoms: C7_10  and  O3_11 
REMARK    4  A    between atoms: C12_16  and  O4_17 
REMARK    5  A    between atoms: C14_19  and  O5_20 
REMARK    6  A    between atoms: C16_22  and  O6_23 
ROOT
HETATM    1  C2  UNL     1      -3.376  -0.281   0.228  1.00  0.00     0.104 A 
HETATM    2  C3  UNL     1      -2.739   0.880   0.584  1.00  0.00     0.050 A 
HETATM    3  C4  UNL     1      -1.376   0.957   0.586  1.00  0.00    -0.007 A 
HETATM    4  C5  UNL     1      -0.587  -0.157   0.222  1.00  0.00     0.025 A 
HETATM    5  C6  UNL     1      -1.205  -1.320  -0.142  1.00  0.00     0.113 A 
HETATM    6  C7  UNL     1      -2.616  -1.350  -0.125  1.00  0.00     0.135 A 
HETATM    7  C9  UNL     1       0.835   0.016  -0.036  1.00  0.00     0.047 A 
HETATM    8  C10 UNL     1       1.318   1.333   0.037  1.00  0.00     0.087 A 
HETATM    9  C11 UNL     1       2.658   1.550  -0.148  1.00  0.00     0.077 A 
HETATM   10  C12 UNL     1       3.515   0.508  -0.400  1.00  0.00     0.107 A 
HETATM   11  C14 UNL     1       3.022  -0.771  -0.459  1.00  0.00     0.136 A 
HETATM   12  C16 UNL     1       1.646  -1.029  -0.265  1.00  0.00     0.118 A 
HETATM   13  O7  UNL     1       0.471   2.427   0.291  1.00  0.00    -0.335 OA
HETATM   14  C18 UNL     1      -0.716   2.242   1.022  1.00  0.00     0.088 C 
HETATM   15  C19 UNL     1      -1.660   3.356   0.602  1.00  0.00     0.051 C 
HETATM   16  C20 UNL     1      -0.535   2.295   2.506  1.00  0.00     0.051 C 
ENDROOT
BRANCH   1  17
HETATM   17  O1  UNL     1      -4.758  -0.407   0.216  1.00  0.00    -0.353 OA
HETATM   18  C1  UNL     1      -5.462   0.758   0.604  1.00  0.00     0.210 C 
ENDBRANCH   1  17
BRANCH   6  19
HETATM   19  O3  UNL     1      -3.265  -2.526  -0.485  1.00  0.00    -0.351 OA
HETATM   20  C8  UNL     1      -3.663  -2.848  -1.783  1.00  0.00     0.210 C 
ENDBRANCH   6  19
BRANCH   5  21
HETATM   21  O2  UNL     1      -0.609  -2.447  -0.544  1.00  0.00    -0.357 OA
ATOM     22  H2  UNL     1      -1.039  -3.256  -0.797  1.00  0.00     0.217 HD
ENDBRANCH   5  21
BRANCH  12  23
HETATM   23  O6  UNL     1       1.326  -2.363  -0.292  1.00  0.00    -0.352 OA
HETATM   24  C17 UNL     1       1.726  -3.121   0.941  1.00  0.00     0.210 C 
ENDBRANCH  12  23
BRANCH  11  25
HETATM   25  O5  UNL     1       3.877  -1.801  -0.709  1.00  0.00    -0.351 OA
HETATM   26  C15 UNL     1       4.209  -2.298  -1.984  1.00  0.00     0.210 C 
ENDBRANCH  11  25
BRANCH  10  27
HETATM   27  O4  UNL     1       4.863   0.774  -0.590  1.00  0.00    -0.353 OA
HETATM   28  C13 UNL     1       5.289   2.118  -0.518  1.00  0.00     0.210 C 
ENDBRANCH  10  27
TORSDOF 6
