REMARK  5 active torsions:
REMARK  status: ('A' for Active; 'I' for Inactive)
REMARK    1  A    between atoms: C1_2  and  C2_4 
REMARK    2  A    between atoms: C3_5  and  C4_6 
REMARK    3  A    between atoms: C12_21  and  C13_22 
REMARK    4  A    between atoms: C16_25  and  C17_26 
REMARK    5  A    between atoms: N4_27  and  O4_29 
ROOT
HETATM    1  C2  UNL     1      -1.184  -0.258  -0.123  1.00  0.00     0.079 A 
HETATM    2  C3  UNL     1      -2.505  -0.468  -0.329  1.00  0.00     0.104 A 
HETATM    3  O2  UNL     1      -2.614  -1.565  -1.065  1.00  0.00    -0.290 OA
HETATM    4  C10 UNL     1      -1.485  -2.095  -1.360  1.00  0.00     0.175 A 
HETATM    5  N2  UNL     1      -1.182  -3.193  -2.080  1.00  0.00    -0.276 N 
ATOM      6  H2  UNL     1      -1.927  -3.756  -2.491  1.00  0.00     0.189 HD
HETATM    7  N3  UNL     1       0.075  -3.537  -2.252  1.00  0.00    -0.264 N 
ATOM      8  H3  UNL     1       0.294  -4.370  -2.798  1.00  0.00     0.190 HD
HETATM    9  C11 UNL     1       1.065  -2.825  -1.731  1.00  0.00     0.272 A 
HETATM   10  O3  UNL     1       2.290  -3.143  -1.890  1.00  0.00    -0.266 OA
HETATM   11  C12 UNL     1       0.784  -1.672  -0.972  1.00  0.00     0.059 A 
HETATM   12  C20 UNL     1      -0.497  -1.292  -0.776  1.00  0.00     0.051 A 
ENDROOT
BRANCH  11  13
HETATM   13  C13 UNL     1       1.907  -0.910  -0.457  1.00  0.00    -0.019 A 
HETATM   14  C14 UNL     1       2.330   0.242  -1.047  1.00  0.00     0.013 A 
HETATM   15  C15 UNL     1       3.446   0.882  -0.561  1.00  0.00     0.014 A 
HETATM   16  C16 UNL     1       4.164   0.397   0.513  1.00  0.00    -0.019 A 
HETATM   17  C18 UNL     1       3.743  -0.764   1.111  1.00  0.00     0.014 A 
HETATM   18  C19 UNL     1       2.605  -1.424   0.623  1.00  0.00     0.013 A 
BRANCH  16  19
HETATM   19  C17 UNL     1       5.349   1.133   0.998  1.00  0.00     0.125 C 
HETATM   20  N4  UNL     1       5.696   2.223   0.432  1.00  0.00    -0.280 N 
ATOM     21  H4  UNL     1       5.139   2.564  -0.351  1.00  0.00     0.193 HD
BRANCH  20  22
HETATM   22  O4  UNL     1       6.768   2.944   0.825  1.00  0.00    -0.290 OA
ATOM     23  H4  UNL     1       7.026   3.755   0.404  1.00  0.00     0.244 HD
ENDBRANCH  20  22
ENDBRANCH  16  19
ENDBRANCH  11  13
BRANCH   1  24
HETATM   24  C1  UNL     1      -0.562   0.858   0.553  1.00  0.00     0.268 C 
HETATM   25  N1  UNL     1       0.082   0.812   1.816  1.00  0.00    -0.057 NA
HETATM   26  O1  UNL     1      -0.570   2.036   0.009  1.00  0.00    -0.271 OA
ENDBRANCH   1  24
BRANCH   2  27
HETATM   27  C4  UNL     1      -3.668   0.275   0.101  1.00  0.00    -0.001 A 
HETATM   28  C5  UNL     1      -4.919  -0.037  -0.488  1.00  0.00     0.017 A 
HETATM   29  C6  UNL     1      -6.097   0.552  -0.167  1.00  0.00     0.043 A 
HETATM   30  C7  UNL     1      -6.062   1.529   0.811  1.00  0.00     0.116 A 
HETATM   31  F1  UNL     1      -7.236   2.121   1.136  1.00  0.00    -0.206 F 
HETATM   32  C8  UNL     1      -4.875   1.856   1.402  1.00  0.00     0.043 A 
HETATM   33  C9  UNL     1      -3.674   1.241   1.061  1.00  0.00     0.017 A 
ENDBRANCH   2  27
TORSDOF 5
