REMARK  5 active torsions:
REMARK  status: ('A' for Active; 'I' for Inactive)
REMARK    1  A    between atoms: C3_6  and  N2_7 
REMARK    2  A    between atoms: N2_7  and  S1_9 
REMARK    3  A    between atoms: S1_9  and  C4_12 
REMARK    4  A    between atoms: C7_15  and  N3_16 
REMARK    5  A    between atoms: N4_18  and  C8_20 
ROOT
HETATM    1  C4  UNL     1      -1.336  -1.680   0.133  1.00  0.00     0.080 A 
HETATM    2  C5  UNL     1      -0.554  -1.714  -1.005  1.00  0.00     0.027 A 
HETATM    3  C6  UNL     1       0.680  -1.106  -1.037  1.00  0.00     0.032 A 
HETATM    4  C7  UNL     1       1.198  -0.438   0.052  1.00  0.00     0.048 A 
HETATM    5  C14 UNL     1       0.428  -0.397   1.194  1.00  0.00     0.032 A 
HETATM    6  C15 UNL     1      -0.809  -1.004   1.229  1.00  0.00     0.027 A 
ENDROOT
BRANCH   1   7
HETATM    7  S1  UNL     1      -2.870  -2.484   0.152  1.00  0.00     0.263 S 
HETATM    8  O2  UNL     1      -2.743  -3.859  -0.472  1.00  0.00    -0.200 OA
HETATM    9  O3  UNL     1      -3.217  -2.682   1.629  1.00  0.00    -0.200 OA
BRANCH   7  10
HETATM   10  N2  UNL     1      -4.085  -1.572  -0.616  1.00  0.00    -0.274 N 
ATOM     11  H2  UNL     1      -4.529  -1.989  -1.434  1.00  0.00     0.179 HD
BRANCH  10  12
HETATM   12  C3  UNL     1      -4.530  -0.308  -0.231  1.00  0.00     0.126 A 
HETATM   13  C2  UNL     1      -3.704   0.780  -0.188  1.00  0.00     0.128 A 
HETATM   14  N1  UNL     1      -4.197   2.006   0.173  1.00  0.00    -0.316 N 
HETATM   15  C1  UNL     1      -5.502   2.152   0.488  1.00  0.00     0.327 A 
ATOM     16  H1  UNL     1      -3.575   2.814   0.204  1.00  0.00     0.170 HD
HETATM   17  O1  UNL     1      -5.946   3.299   0.822  1.00  0.00    -0.247 OA
HETATM   18  N5  UNL     1      -6.341   1.097   0.453  1.00  0.00    -0.274 N 
HETATM   19  C16 UNL     1      -5.862  -0.124   0.097  1.00  0.00     0.278 A 
ATOM     20  H5  UNL     1      -7.326   1.214   0.691  1.00  0.00     0.173 HD
HETATM   21  O4  UNL     1      -6.687  -1.076   0.080  1.00  0.00    -0.265 OA
ENDBRANCH  10  12
ENDBRANCH   7  10
ENDBRANCH   1   7
BRANCH   4  22
HETATM   22  N3  UNL     1       2.478   0.188   0.009  1.00  0.00    -0.300 N 
HETATM   23  N4  UNL     1       3.532  -0.469  -0.127  1.00  0.00    -0.300 N 
ATOM     24  H4  UNL     1       3.495  -1.485  -0.212  1.00  0.00     0.187 HD
ATOM     25  H3  UNL     1       2.535   1.203   0.092  1.00  0.00     0.187 HD
BRANCH  23  26
HETATM   26  C8  UNL     1       4.783   0.206  -0.163  1.00  0.00     0.048 A 
HETATM   27  C9  UNL     1       5.942  -0.445   0.174  1.00  0.00     0.034 A 
HETATM   28  C10 UNL     1       7.179   0.186   0.148  1.00  0.00     0.044 A 
HETATM   29  C11 UNL     1       7.214   1.516  -0.234  1.00  0.00     0.116 A 
HETATM   30  F1  UNL     1       8.423   2.158  -0.267  1.00  0.00    -0.206 F 
HETATM   31  C12 UNL     1       6.047   2.175  -0.575  1.00  0.00     0.044 A 
HETATM   32  C13 UNL     1       4.811   1.531  -0.545  1.00  0.00     0.034 A 
ENDBRANCH  23  26
ENDBRANCH   4  22
TORSDOF 5
