REMARK  7 active torsions:
REMARK  status: ('A' for Active; 'I' for Inactive)
REMARK    1  A    between atoms: C2_2  and  C5_5 
REMARK    2  A    between atoms: C5_5  and  S1_6 
REMARK    3  A    between atoms: C5_5  and  C15_25 
REMARK    4  A    between atoms: S1_6  and  C6_7 
REMARK       I    between atoms: N3_13  and  C8_15 
REMARK    5  A    between atoms: C8_15  and  C9_17 
REMARK    6  A    between atoms: C15_25  and  O2_26 
REMARK    7  A    between atoms: N4_28  and  O3_30 
ROOT
HETATM    1  C6  UNL     1      -0.350   0.880   0.055  1.00  0.00     0.130 A 
HETATM    2  N1  UNL     1       0.019   1.351   1.236  1.00  0.00    -0.286 N 
ATOM      3  H1  UNL     1      -0.640   1.896   1.793  1.00  0.00     0.188 HD
HETATM    4  N2  UNL     1       1.188   1.129   1.680  1.00  0.00    -0.278 N 
ATOM      5  H2  UNL     1       1.478   1.488   2.589  1.00  0.00     0.189 HD
HETATM    6  C7  UNL     1       2.031   0.412   0.926  1.00  0.00     0.168 A 
HETATM    7  N3  UNL     1       3.271   0.079   1.206  1.00  0.00    -0.302 N 
ATOM      8  H3  UNL     1       3.702   0.368   2.084  1.00  0.00     0.171 HD
HETATM    9  C8  UNL     1       3.992  -0.685   0.270  1.00  0.00     0.257 C 
HETATM   10  O1  UNL     1       3.454  -1.601  -0.394  1.00  0.00    -0.267 OA
HETATM   11  S2  UNL     1       1.072   0.072  -0.444  1.00  0.00    -0.026 SA
ENDROOT
BRANCH   1  12
HETATM   12  S1  UNL     1      -1.952   1.075  -0.763  1.00  0.00    -0.089 SA
BRANCH  12  13
HETATM   13  C5  UNL     1      -3.061  -0.283  -0.300  1.00  0.00     0.138 C 
BRANCH  13  14
HETATM   14  C2  UNL     1      -4.374  -0.059  -1.018  1.00  0.00    -0.031 C 
HETATM   15  C1  UNL     1      -5.378  -1.145  -0.699  1.00  0.00     0.016 C 
HETATM   16  C3  UNL     1      -4.919   1.306  -0.633  1.00  0.00     0.016 C 
HETATM   17  C4  UNL     1      -4.170  -0.050  -2.527  1.00  0.00     0.016 C 
ENDBRANCH  13  14
BRANCH  13  18
HETATM   18  C15 UNL     1      -3.306  -0.289   1.151  1.00  0.00     0.150 C 
HETATM   19  N4  UNL     1      -4.468  -0.107   1.642  1.00  0.00    -0.250 N 
ATOM     20  H4  UNL     1      -5.240   0.046   0.993  1.00  0.00     0.196 HD
BRANCH  18  21
HETATM   21  O2  UNL     1      -2.230  -0.500   2.001  1.00  0.00    -0.347 OA
ATOM     22  H2  UNL     1      -2.388  -0.504   2.938  1.00  0.00     0.219 HD
ENDBRANCH  18  21
BRANCH  19  23
HETATM   23  O3  UNL     1      -4.749  -0.103   2.980  1.00  0.00    -0.288 OA
ATOM     24  H3  UNL     1      -5.615   0.033   3.346  1.00  0.00     0.244 HD
ENDBRANCH  19  23
ENDBRANCH  13  18
ENDBRANCH  12  13
ENDBRANCH   1  12
BRANCH   9  25
HETATM   25  C9  UNL     1       5.418  -0.411   0.057  1.00  0.00     0.032 A 
HETATM   26  C10 UNL     1       6.107  -1.163  -0.857  1.00  0.00     0.020 A 
HETATM   27  C11 UNL     1       7.444  -0.905  -1.056  1.00  0.00     0.043 A 
HETATM   28  C12 UNL     1       8.106   0.081  -0.367  1.00  0.00     0.116 A 
HETATM   29  F1  UNL     1       9.409   0.326  -0.567  1.00  0.00    -0.206 F 
HETATM   30  C13 UNL     1       7.383   0.821   0.546  1.00  0.00     0.043 A 
HETATM   31  C14 UNL     1       6.051   0.595   0.773  1.00  0.00     0.020 A 
ENDBRANCH   9  25
TORSDOF 7
