REMARK  8 active torsions:
REMARK  status: ('A' for Active; 'I' for Inactive)
REMARK    1  A    between atoms: C2_2  and  C3_3 
REMARK    2  A    between atoms: C4_4  and  N1_5 
REMARK    3  A    between atoms: N1_5  and  C5_7 
REMARK    4  A    between atoms: C5_7  and  C6_12 
REMARK    5  A    between atoms: N2_8  and  O1_10 
REMARK    6  A    between atoms: C8_15  and  C9_16 
REMARK    7  A    between atoms: C13_22  and  O2_23 
REMARK    8  A    between atoms: O2_23  and  C14_24 
REMARK       I    between atoms: C14_24  and  N4_26 
ROOT
HETATM    1  N1  UNL     1       0.412   0.194  -1.284  1.00  0.00    -0.365 N 
ATOM      2  H1  UNL     1       0.447   0.042  -2.292  1.00  0.00     0.161 HD
ENDROOT
BRANCH   1   3
HETATM    3  C4  UNL     1       1.361  -0.495  -0.461  1.00  0.00     0.123 C 
HETATM    4  C3  UNL     1       2.176  -1.542  -1.282  1.00  0.00     0.053 C 
HETATM    5  C16 UNL     1       3.187  -1.364  -0.148  1.00  0.00     0.134 C 
HETATM    6  C13 UNL     1       2.709   0.133  -0.251  1.00  0.00     0.196 C 
HETATM    7  C17 UNL     1       4.623  -1.485  -0.519  1.00  0.00     0.055 C 
HETATM    8  F1  UNL     1       2.798  -1.804   1.077  1.00  0.00    -0.240 F 
BRANCH   4   9
HETATM    9  C2  UNL     1       1.580  -2.870  -1.419  1.00  0.00     0.006 C 
HETATM   10  C1  UNL     1       1.328  -3.659  -0.184  1.00  0.00     0.006 C 
ENDBRANCH   4   9
BRANCH   6  11
HETATM   11  O2  UNL     1       2.976   0.817   0.937  1.00  0.00    -0.293 OA
BRANCH  11  12
HETATM   12  C14 UNL     1       3.881   1.899   0.933  1.00  0.00     0.360 C 
HETATM   13  O3  UNL     1       4.401   2.193  -0.167  1.00  0.00    -0.239 OA
HETATM   14  N4  UNL     1       4.228   2.646   2.070  1.00  0.00    -0.341 N 
HETATM   15  C15 UNL     1       5.177   3.734   1.980  1.00  0.00     0.151 C 
ATOM     16  H4  UNL     1       3.806   2.419   2.970  1.00  0.00     0.164 HD
ENDBRANCH  11  12
ENDBRANCH   6  11
ENDBRANCH   1   3
BRANCH   1  17
HETATM   17  C5  UNL     1      -0.554   1.059  -0.783  1.00  0.00     0.149 C 
HETATM   18  N2  UNL     1      -0.624   2.308  -1.105  1.00  0.00    -0.251 N 
ATOM     19  H2  UNL     1      -1.357   2.892  -0.704  1.00  0.00     0.196 HD
BRANCH  18  20
HETATM   20  O1  UNL     1       0.277   2.856  -1.980  1.00  0.00    -0.288 OA
ATOM     21  H1  UNL     1       0.226   3.775  -2.217  1.00  0.00     0.244 HD
ENDBRANCH  18  20
BRANCH  17  22
HETATM   22  C6  UNL     1      -1.656   0.641   0.133  1.00  0.00     0.085 A 
HETATM   23  C7  UNL     1      -1.396   0.213   1.404  1.00  0.00     0.085 A 
HETATM   24  S1  UNL     1      -2.981  -0.182   1.951  1.00  0.00    -0.085 SA
HETATM   25  C8  UNL     1      -3.845   0.223   0.530  1.00  0.00     0.059 A 
HETATM   26  N3  UNL     1      -2.890   0.635  -0.275  1.00  0.00    -0.350 N 
ATOM     27  H3  UNL     1      -3.117   0.949  -1.218  1.00  0.00     0.166 HD
BRANCH  25  28
HETATM   28  C9  UNL     1      -5.322   0.122   0.241  1.00  0.00    -0.002 C 
HETATM   29  C10 UNL     1      -5.607  -1.068  -0.644  1.00  0.00     0.021 C 
HETATM   30  C11 UNL     1      -5.742   1.370  -0.463  1.00  0.00     0.021 C 
HETATM   31  C12 UNL     1      -6.009  -0.080   1.573  1.00  0.00     0.021 C 
ENDBRANCH  25  28
ENDBRANCH  17  22
ENDBRANCH   1  17
TORSDOF 8
