REMARK  9 active torsions:
REMARK  status: ('A' for Active; 'I' for Inactive)
REMARK    1  A    between atoms: N1_1  and  C1_4 
REMARK    2  A    between atoms: C5_10  and  C6_11 
REMARK    3  A    between atoms: C6_11  and  N3_12 
REMARK    4  A    between atoms: N3_12  and  C7_14 
REMARK    5  A    between atoms: C10_21  and  C11_22 
REMARK    6  A    between atoms: C19_30  and  N6_31 
REMARK    7  A    between atoms: N6_31  and  C20_33 
REMARK    8  A    between atoms: C20_33  and  C21_34 
REMARK    9  A    between atoms: C21_34  and  C22_35 
ROOT
HETATM    1  C7  UNL     1      -2.153   0.347  -0.166  1.00  0.00     0.116 A 
HETATM    2  N4  UNL     1      -2.722   1.612  -0.111  1.00  0.00    -0.338 N 
ATOM      3  H4  UNL     1      -3.728   1.733  -0.230  1.00  0.00     0.168 HD
HETATM    4  C8  UNL     1      -1.915   2.690   0.104  1.00  0.00     0.181 A 
HETATM    5  N5  UNL     1      -0.621   2.525   0.262  1.00  0.00    -0.361 N 
ATOM      6  H5  UNL     1      -0.027   3.339   0.423  1.00  0.00     0.166 HD
HETATM    7  C9  UNL     1      -0.066   1.300   0.215  1.00  0.00     0.106 A 
HETATM    8  C10 UNL     1      -0.802   0.153  -0.002  1.00  0.00     0.050 A 
ENDROOT
BRANCH   8   9
HETATM    9  C11 UNL     1      -0.142  -1.160   0.022  1.00  0.00     0.050 A 
HETATM   10  C12 UNL     1      -0.717  -2.384  -0.107  1.00  0.00     0.043 A 
HETATM   11  C13 UNL     1       0.039  -3.527  -0.044  1.00  0.00    -0.020 A 
HETATM   12  C14 UNL     1      -0.562  -4.756  -0.182  1.00  0.00     0.012 A 
HETATM   13  C18 UNL     1       1.424  -3.432   0.155  1.00  0.00     0.018 A 
HETATM   14  C15 UNL     1       0.216  -5.896  -0.125  1.00  0.00     0.001 A 
HETATM   15  C16 UNL     1       1.599  -5.789   0.073  1.00  0.00     0.001 A 
HETATM   16  C17 UNL     1       2.181  -4.552   0.207  1.00  0.00     0.016 A 
HETATM   17  C19 UNL     1       1.998  -2.199   0.286  1.00  0.00     0.112 A 
HETATM   18  N7  UNL     1       1.224  -1.113   0.219  1.00  0.00    -0.341 N 
ATOM     19  H7  UNL     1       1.666  -0.199   0.319  1.00  0.00     0.167 HD
BRANCH  17  20
HETATM   20  N6  UNL     1       3.251  -2.087   0.454  1.00  0.00    -0.375 N 
ATOM     21  H6  UNL     1       3.806  -2.943   0.478  1.00  0.00     0.161 HD
BRANCH  20  22
HETATM   22  C20 UNL     1       3.941  -0.837   0.613  1.00  0.00     0.126 C 
BRANCH  22  23
HETATM   23  C21 UNL     1       4.232  -0.057  -0.655  1.00  0.00     0.058 C 
BRANCH  23  24
HETATM   24  C22 UNL     1       4.810   1.266  -0.263  1.00  0.00    -0.057 A 
HETATM   25  C23 UNL     1       5.971   1.371   0.456  1.00  0.00     0.007 A 
HETATM   26  C24 UNL     1       6.511   2.592   0.778  1.00  0.00     0.001 A 
HETATM   27  C25 UNL     1       5.858   3.752   0.358  1.00  0.00     0.000 A 
HETATM   28  C26 UNL     1       4.708   3.671  -0.354  1.00  0.00     0.001 A 
HETATM   29  C27 UNL     1       4.184   2.418  -0.664  1.00  0.00     0.007 A 
ENDBRANCH  23  24
ENDBRANCH  22  23
ENDBRANCH  20  22
ENDBRANCH  17  20
ENDBRANCH   8   9
BRANCH   1  30
HETATM   30  N3  UNL     1      -2.950  -0.684  -0.196  1.00  0.00    -0.371 N 
ATOM     31  H3  UNL     1      -2.516  -1.605  -0.265  1.00  0.00     0.161 HD
BRANCH  30  32
HETATM   32  C6  UNL     1      -4.375  -0.640  -0.141  1.00  0.00     0.163 C 
BRANCH  32  33
HETATM   33  C5  UNL     1      -5.078   0.618  -0.419  1.00  0.00     0.003 A 
HETATM   34  C1  UNL     1      -5.760   1.156   0.699  1.00  0.00     0.106 A 
HETATM   35  N2  UNL     1      -6.540   2.215   0.659  1.00  0.00    -0.352 N 
HETATM   36  C2  UNL     1      -6.721   2.861  -0.530  1.00  0.00     0.089 A 
ATOM     37  H2  UNL     1      -7.003   2.549   1.504  1.00  0.00     0.166 HD
HETATM   38  C3  UNL     1      -6.094   2.402  -1.664  1.00  0.00     0.018 A 
HETATM   39  C4  UNL     1      -5.269   1.275  -1.599  1.00  0.00     0.014 A 
BRANCH  34  40
HETATM   40  N1  UNL     1      -5.531   0.592   1.894  1.00  0.00    -0.385 N 
ATOM     41  H12 UNL     1      -6.022   0.980   2.699  1.00  0.00     0.157 HD
ATOM     42  H11 UNL     1      -4.926  -0.229   1.925  1.00  0.00     0.157 HD
ENDBRANCH  34  40
ENDBRANCH  32  33
ENDBRANCH  30  32
ENDBRANCH   1  30
TORSDOF 9
