REMARK  8 active torsions:
REMARK  status: ('A' for Active; 'I' for Inactive)
REMARK    1  A    between atoms: C4_4  and  C5_5 
REMARK    2  A    between atoms: C7_7  and  N1_8 
REMARK    3  A    between atoms: N1_8  and  C8_10 
REMARK    4  A    between atoms: C10_12  and  N2_13 
REMARK    5  A    between atoms: C11_15  and  C12_16 
REMARK    6  A    between atoms: C12_16  and  N3_17 
REMARK    7  A    between atoms: N3_17  and  C13_19 
REMARK    8  A    between atoms: C18_32  and  C19_33 
ROOT
HETATM    1  C8  UNL     1       0.800   1.103   1.025  1.00  0.00     0.107 A 
HETATM    2  C9  UNL     1       1.678   0.882   0.016  1.00  0.00     0.078 A 
HETATM    3  C10 UNL     1       2.823   0.045   0.241  1.00  0.00     0.036 A 
HETATM    4  C15 UNL     1       2.930  -0.477   1.508  1.00  0.00     0.046 A 
HETATM    5  C16 UNL     1       2.009  -0.233   2.530  1.00  0.00     0.092 A 
HETATM    6  N7  UNL     1       0.963   0.558   2.249  1.00  0.00    -0.352 N 
ATOM      7  H7  UNL     1       0.275   0.752   2.977  1.00  0.00     0.166 HD
ENDROOT
BRANCH   1   8
HETATM    8  N1  UNL     1      -0.329   1.937   0.777  1.00  0.00    -0.342 N 
ATOM      9  H1  UNL     1      -0.224   2.949   0.846  1.00  0.00     0.167 HD
BRANCH   8  10
HETATM   10  C7  UNL     1      -1.485   1.443   0.466  1.00  0.00     0.037 A 
HETATM   11  C6  UNL     1      -2.570   2.258   0.228  1.00  0.00     0.059 A 
HETATM   12  C5  UNL     1      -3.808   1.750  -0.105  1.00  0.00     0.045 A 
HETATM   13  N8  UNL     1      -3.904   0.416  -0.186  1.00  0.00    -0.355 N 
HETATM   14  C18 UNL     1      -2.872  -0.425   0.037  1.00  0.00     0.045 A 
ATOM     15  H8  UNL     1      -4.809   0.013  -0.430  1.00  0.00     0.166 HD
HETATM   16  C17 UNL     1      -1.626   0.073   0.371  1.00  0.00     0.059 A 
BRANCH  12  17
HETATM   17  C4  UNL     1      -4.947   2.632  -0.353  1.00  0.00    -0.009 A 
HETATM   18  C3  UNL     1      -6.199   2.166  -0.688  1.00  0.00     0.013 A 
HETATM   19  C2  UNL     1      -7.286   3.025  -0.924  1.00  0.00     0.001 A 
HETATM   20  C1  UNL     1      -7.112   4.382  -0.822  1.00  0.00     0.000 A 
HETATM   21  C26 UNL     1      -5.880   4.878  -0.491  1.00  0.00     0.001 A 
HETATM   22  C25 UNL     1      -4.811   4.002  -0.260  1.00  0.00     0.013 A 
ENDBRANCH  12  17
BRANCH  14  23
HETATM   23  C19 UNL     1      -3.099  -1.855  -0.082  1.00  0.00    -0.009 A 
HETATM   24  C20 UNL     1      -4.305  -2.403  -0.409  1.00  0.00     0.013 A 
HETATM   25  C21 UNL     1      -4.499  -3.786  -0.517  1.00  0.00     0.001 A 
HETATM   26  C22 UNL     1      -3.454  -4.635  -0.290  1.00  0.00     0.000 A 
HETATM   27  C23 UNL     1      -2.227  -4.119   0.041  1.00  0.00     0.001 A 
HETATM   28  C24 UNL     1      -2.060  -2.725   0.143  1.00  0.00     0.013 A 
ENDBRANCH  14  23
ENDBRANCH   8  10
ENDBRANCH   1   8
BRANCH   3  29
HETATM   29  N2  UNL     1       3.603  -0.136  -0.694  1.00  0.00    -0.368 N 
HETATM   30  C11 UNL     1       4.753  -0.773  -1.041  1.00  0.00     0.080 C 
ATOM     31  H2  UNL     1       3.262   0.381  -1.505  1.00  0.00     0.165 HD
BRANCH  30  32
HETATM   32  C12 UNL     1       5.484  -1.647  -0.046  1.00  0.00     0.165 C 
BRANCH  32  33
HETATM   33  N3  UNL     1       6.669  -2.165  -0.761  1.00  0.00    -0.369 N 
ATOM     34  H3  UNL     1       6.679  -3.092  -1.186  1.00  0.00     0.161 HD
BRANCH  33  35
HETATM   35  C13 UNL     1       7.689  -1.380  -0.818  1.00  0.00     0.134 A 
HETATM   36  C14 UNL     1       8.891  -1.700  -1.451  1.00  0.00     0.158 A 
HETATM   37  N4  UNL     1       9.686  -0.644  -1.291  1.00  0.00    -0.294 N 
HETATM   38  N5  UNL     1       9.082   0.309  -0.613  1.00  0.00    -0.241 N 
ATOM     39  H4  UNL     1      10.640  -0.582  -1.648  1.00  0.00     0.187 HD
HETATM   40  N6  UNL     1       7.872  -0.145  -0.329  1.00  0.00    -0.270 N 
ATOM     41  H5  UNL     1       9.470   1.217  -0.357  1.00  0.00     0.208 HD
ATOM     42  H6  UNL     1       7.169   0.377   0.194  1.00  0.00     0.190 HD
ENDBRANCH  33  35
ENDBRANCH  32  33
ENDBRANCH  30  32
ENDBRANCH   3  29
TORSDOF 8
