REMARK  9 active torsions:
REMARK  status: ('A' for Active; 'I' for Inactive)
REMARK    1  A    between atoms: C7_7  and  N1_8 
REMARK    2  A    between atoms: N1_8  and  C8_10 
REMARK    3  A    between atoms: C9_13  and  N3_14 
REMARK    4  A    between atoms: N3_14  and  C10_16 
REMARK    5  A    between atoms: C10_16  and  C11_17 
REMARK    6  A    between atoms: C11_17  and  C12_18 
REMARK    7  A    between atoms: C20_30  and  N6_31 
REMARK    8  A    between atoms: N7_34  and  C21_35 
REMARK    9  A    between atoms: C21_35  and  C22_36 
ROOT
HETATM    1  C8  UNL     1      -1.921  -1.753  -0.019  1.00  0.00     0.152 A 
HETATM    2  N2  UNL     1      -0.662  -1.929   0.382  1.00  0.00    -0.174 N 
ATOM      3  H2  UNL     1      -0.377  -2.789   0.851  1.00  0.00     0.186 HD
HETATM    4  C9  UNL     1       0.233  -0.932   0.149  1.00  0.00     0.681 A 
HETATM    5  N4  UNL     1      -0.123   0.209  -0.467  1.00  0.00    -0.173 N 
ATOM      6  H4  UNL     1       0.589   0.924  -0.616  1.00  0.00     0.186 HD
HETATM    7  C18 UNL     1      -1.375   0.451  -0.896  1.00  0.00     0.170 A 
HETATM    8  C19 UNL     1      -2.288  -0.575  -0.655  1.00  0.00     0.139 A 
HETATM    9  N5  UNL     1      -3.447  -0.121  -1.159  1.00  0.00    -0.184 N 
ATOM     10  H5  UNL     1      -4.325  -0.641  -1.142  1.00  0.00     0.184 HD
HETATM   11  C20 UNL     1      -3.302   1.106  -1.688  1.00  0.00     0.680 A 
HETATM   12  N7  UNL     1      -2.020   1.463  -1.527  1.00  0.00    -0.161 N 
ENDROOT
BRANCH   4  13
HETATM   13  N3  UNL     1       1.438  -1.147   0.554  1.00  0.00    -0.226 N 
ATOM     14  H3  UNL     1       1.647  -2.032   1.015  1.00  0.00     0.177 HD
BRANCH  13  15
HETATM   15  C10 UNL     1       2.494  -0.197   0.384  1.00  0.00     0.142 C 
BRANCH  15  16
HETATM   16  C11 UNL     1       3.682  -0.500   1.287  1.00  0.00     0.058 C 
BRANCH  16  17
HETATM   17  C12 UNL     1       4.763   0.503   1.087  1.00  0.00    -0.057 A 
HETATM   18  C13 UNL     1       4.782   1.639   1.846  1.00  0.00     0.007 A 
HETATM   19  C14 UNL     1       5.784   2.573   1.661  1.00  0.00     0.001 A 
HETATM   20  C15 UNL     1       6.779   2.384   0.717  1.00  0.00     0.000 A 
HETATM   21  C16 UNL     1       6.733   1.230  -0.033  1.00  0.00     0.001 A 
HETATM   22  C17 UNL     1       5.742   0.279   0.131  1.00  0.00     0.007 A 
ENDBRANCH  16  17
ENDBRANCH  15  16
ENDBRANCH  13  15
ENDBRANCH   4  13
BRANCH   1  23
HETATM   23  N1  UNL     1      -2.842  -2.636   0.155  1.00  0.00    -0.340 N 
ATOM     24  H1  UNL     1      -3.781  -2.424  -0.181  1.00  0.00     0.167 HD
BRANCH  23  25
HETATM   25  C7  UNL     1      -2.625  -3.881   0.785  1.00  0.00     0.039 A 
HETATM   26  C2  UNL     1      -2.525  -5.046   0.069  1.00  0.00    -0.035 A 
HETATM   27  C1  UNL     1      -2.652  -4.990  -1.426  1.00  0.00     0.050 C 
HETATM   28  C3  UNL     1      -2.312  -6.258   0.705  1.00  0.00     0.009 A 
HETATM   29  C4  UNL     1      -2.201  -6.268   2.083  1.00  0.00     0.001 A 
HETATM   30  C5  UNL     1      -2.301  -5.095   2.795  1.00  0.00     0.002 A 
HETATM   31  C6  UNL     1      -2.511  -3.913   2.152  1.00  0.00     0.030 A 
ENDBRANCH  23  25
ENDBRANCH   1  23
BRANCH  12  32
HETATM   32  C21 UNL     1      -1.400   2.701  -1.939  1.00  0.00     0.188 C 
BRANCH  32  33
HETATM   33  C22 UNL     1      -1.439   3.769  -0.938  1.00  0.00    -0.039 A 
HETATM   34  C23 UNL     1      -2.483   4.666  -0.898  1.00  0.00     0.009 A 
HETATM   35  C24 UNL     1      -2.490   5.659   0.056  1.00  0.00     0.001 A 
HETATM   36  C25 UNL     1      -1.487   5.800   0.987  1.00  0.00     0.000 A 
HETATM   37  C26 UNL     1      -0.436   4.911   0.959  1.00  0.00     0.001 A 
HETATM   38  C27 UNL     1      -0.441   3.921  -0.002  1.00  0.00     0.009 A 
ENDBRANCH  32  33
ENDBRANCH  12  32
BRANCH  11  39
HETATM   39  N6  UNL     1      -4.223   1.836  -2.262  1.00  0.00    -0.234 N 
ATOM     40  H62 UNL     1      -5.198   1.564  -2.385  1.00  0.00     0.174 HD
ATOM     41  H61 UNL     1      -4.113   2.767  -2.663  1.00  0.00     0.174 HD
ENDBRANCH  11  39
TORSDOF 9
