REMARK  8 active torsions:
REMARK  status: ('A' for Active; 'I' for Inactive)
REMARK    1  A    between atoms: N1_2  and  C2_4 
REMARK    2  A    between atoms: C5_11  and  C6_12 
REMARK    3  A    between atoms: C9_15  and  C10_16 
REMARK    4  A    between atoms: N5_22  and  C14_24 
REMARK    5  A    between atoms: C14_24  and  C15_25 
REMARK    6  A    between atoms: C15_25  and  N6_26 
REMARK    7  A    between atoms: C15_25  and  C16_30 
REMARK    8  A    between atoms: C16_30  and  C17_31 
ROOT
HETATM    1  C10 UNL     1      -1.229   0.617   1.863  1.00  0.00    -0.021 A 
HETATM    2  C11 UNL     1      -1.017   1.333   3.021  1.00  0.00     0.029 A 
HETATM    3  C12 UNL     1       0.191   1.305   3.685  1.00  0.00     0.090 A 
HETATM    4  N4  UNL     1       1.194   0.559   3.193  1.00  0.00    -0.353 N 
ATOM      5  H4  UNL     1       2.088   0.538   3.684  1.00  0.00     0.166 HD
HETATM    6  C13 UNL     1       1.045  -0.167   2.058  1.00  0.00     0.101 A 
HETATM    7  N5  UNL     1       2.059  -0.841   1.685  1.00  0.00    -0.374 N 
ATOM      8  H5  UNL     1       2.886  -0.770   2.277  1.00  0.00     0.161 HD
HETATM    9  C25 UNL     1      -0.166  -0.131   1.403  1.00  0.00     0.060 A 
ENDROOT
BRANCH   7  10
HETATM   10  C14 UNL     1       2.179  -1.680   0.544  1.00  0.00     0.154 C 
BRANCH  10  11
HETATM   11  C15 UNL     1       3.572  -1.568  -0.057  1.00  0.00     0.205 C 
BRANCH  11  12
HETATM   12  N6  UNL     1       4.561  -1.957   0.907  1.00  0.00    -0.073 N 
ATOM     13  H63 UNL     1       4.477  -1.427   1.774  1.00  0.00     0.274 HD
ATOM     14  H62 UNL     1       4.382  -2.888   1.282  1.00  0.00     0.274 HD
ATOM     15  H61 UNL     1       5.495  -1.882   0.504  1.00  0.00     0.274 HD
ENDBRANCH  11  12
BRANCH  11  16
HETATM   16  C16 UNL     1       3.804  -0.251  -0.705  1.00  0.00     0.075 C 
BRANCH  16  17
HETATM   17  C17 UNL     1       5.143  -0.076  -1.299  1.00  0.00    -0.028 A 
HETATM   18  C18 UNL     1       5.439  -0.289  -2.643  1.00  0.00     0.096 A 
HETATM   19  N7  UNL     1       6.744  -0.081  -2.852  1.00  0.00    -0.365 N 
HETATM   20  C19 UNL     1       7.340   0.266  -1.692  1.00  0.00     0.042 A 
ATOM     21  H7  UNL     1       7.217  -0.171  -3.751  1.00  0.00     0.165 HD
HETATM   22  C20 UNL     1       8.645   0.586  -1.387  1.00  0.00     0.030 A 
HETATM   23  C24 UNL     1       6.342   0.272  -0.715  1.00  0.00    -0.002 A 
HETATM   24  C21 UNL     1       8.972   0.922  -0.076  1.00  0.00     0.002 A 
HETATM   25  C22 UNL     1       7.990   0.930   0.892  1.00  0.00     0.001 A 
HETATM   26  C23 UNL     1       6.690   0.605   0.557  1.00  0.00     0.014 A 
ENDBRANCH  16  17
ENDBRANCH  11  16
ENDBRANCH  10  11
ENDBRANCH   7  10
BRANCH   1  27
HETATM   27  C9  UNL     1      -2.497   0.632   1.147  1.00  0.00    -0.026 A 
HETATM   28  C8  UNL     1      -2.957  -0.450   0.428  1.00  0.00     0.013 A 
HETATM   29  C7  UNL     1      -4.167  -0.406  -0.245  1.00  0.00     0.014 A 
HETATM   30  C6  UNL     1      -4.983   0.707  -0.243  1.00  0.00    -0.006 A 
HETATM   31  C27 UNL     1      -4.517   1.812   0.488  1.00  0.00     0.014 A 
HETATM   32  C26 UNL     1      -3.320   1.744   1.144  1.00  0.00     0.013 A 
BRANCH  30  33
HETATM   33  C5  UNL     1      -6.243   0.784  -0.918  1.00  0.00     0.086 A 
HETATM   34  C2  UNL     1      -7.187  -0.191  -0.789  1.00  0.00     0.128 A 
HETATM   35  N2  UNL     1      -8.389  -0.104  -1.428  1.00  0.00    -0.349 N 
HETATM   36  C3  UNL     1      -8.661   0.964  -2.205  1.00  0.00     0.106 A 
ATOM     37  H2  UNL     1      -9.081  -0.845  -1.318  1.00  0.00     0.167 HD
HETATM   38  C4  UNL     1      -7.717   1.952  -2.341  1.00  0.00     0.105 A 
HETATM   39  N3  UNL     1      -6.532   1.840  -1.696  1.00  0.00    -0.361 N 
ATOM     40  H3  UNL     1      -5.838   2.580  -1.804  1.00  0.00     0.165 HD
BRANCH  34  41
HETATM   41  N1  UNL     1      -6.919  -1.195  -0.038  1.00  0.00    -0.379 N 
HETATM   42  C1  UNL     1      -7.918  -2.234   0.117  1.00  0.00     0.147 C 
ATOM     43  H1  UNL     1      -6.021  -1.261   0.441  1.00  0.00     0.160 HD
ENDBRANCH  34  41
ENDBRANCH  30  33
ENDBRANCH   1  27
TORSDOF 8
