REMARK  10 active torsions:
REMARK  status: ('A' for Active; 'I' for Inactive)
REMARK    1  A    between atoms: C4_7  and  N3_8 
REMARK    2  A    between atoms: N3_8  and  C5_10 
REMARK    3  A    between atoms: C5_10  and  C6_11 
REMARK    4  A    between atoms: C12_19  and  N5_20 
REMARK    5  A    between atoms: N5_20  and  C13_21 
REMARK    6  A    between atoms: C13_21  and  N6_22 
REMARK    7  A    between atoms: C13_21  and  C14_26 
REMARK    8  A    between atoms: C14_26  and  C15_27 
REMARK    9  A    between atoms: C18_30  and  C19_31 
REMARK   10  A    between atoms: C28_40  and  O1_41 
ROOT
HETATM    1  C1  UNL     1      -2.154  -5.624   2.317  1.00  0.00     0.158 C 
HETATM    2  N1  UNL     1      -2.081  -4.335   1.663  1.00  0.00    -0.339 N 
HETATM    3  C2  UNL     1      -2.883  -3.289   1.928  1.00  0.00     0.123 A 
HETATM    4  C3  UNL     1      -2.521  -2.218   1.108  1.00  0.00     0.084 A 
HETATM    5  N2  UNL     1      -2.984  -0.968   0.966  1.00  0.00    -0.189 N 
ATOM      6  H2  UNL     1      -3.764  -0.648   1.541  1.00  0.00     0.184 HD
HETATM    7  C4  UNL     1      -2.427  -0.132   0.070  1.00  0.00     0.681 A 
HETATM    8  N4  UNL     1      -1.419  -0.566  -0.663  1.00  0.00    -0.164 N 
ATOM      9  H4  UNL     1      -1.010   0.082  -1.337  1.00  0.00     0.187 HD
HETATM   10  C12 UNL     1      -0.879  -1.834  -0.583  1.00  0.00     0.206 A 
HETATM   11  C27 UNL     1      -1.472  -2.686   0.353  1.00  0.00     0.102 A 
HETATM   12  C28 UNL     1      -1.195  -3.991   0.690  1.00  0.00     0.159 A 
ENDROOT
BRANCH  10  13
HETATM   13  N5  UNL     1       0.028  -2.198  -1.257  1.00  0.00    -0.395 NA
BRANCH  13  14
HETATM   14  C13 UNL     1       1.020  -2.796  -1.902  1.00  0.00     0.364 C 
BRANCH  14  15
HETATM   15  N6  UNL     1       0.594  -3.720  -2.994  1.00  0.00    -0.046 N 
ATOM     16  H63 UNL     1      -0.061  -4.414  -2.633  1.00  0.00     0.278 HD
ATOM     17  H62 UNL     1      -0.011  -3.231  -3.654  1.00  0.00     0.278 HD
ATOM     18  H61 UNL     1       1.357  -4.180  -3.490  1.00  0.00     0.278 HD
ENDBRANCH  14  15
BRANCH  14  19
HETATM   19  C14 UNL     1       2.011  -1.863  -2.642  1.00  0.00     0.107 C 
BRANCH  19  20
HETATM   20  C15 UNL     1       2.690  -0.938  -1.727  1.00  0.00    -0.053 A 
HETATM   21  C16 UNL     1       2.160   0.301  -1.487  1.00  0.00     0.008 A 
HETATM   22  C17 UNL     1       2.788   1.199  -0.615  1.00  0.00     0.013 A 
HETATM   23  C18 UNL     1       3.960   0.852   0.021  1.00  0.00    -0.026 A 
HETATM   24  C25 UNL     1       4.503  -0.395  -0.214  1.00  0.00     0.013 A 
HETATM   25  C26 UNL     1       3.864  -1.261  -1.077  1.00  0.00     0.008 A 
BRANCH  23  26
HETATM   26  C19 UNL     1       4.659   1.744   0.938  1.00  0.00    -0.026 A 
HETATM   27  C20 UNL     1       4.608   3.110   0.745  1.00  0.00     0.012 A 
HETATM   28  C21 UNL     1       5.276   3.954   1.621  1.00  0.00     0.001 A 
HETATM   29  C22 UNL     1       5.998   3.472   2.692  1.00  0.00     0.000 A 
HETATM   30  C23 UNL     1       6.040   2.116   2.873  1.00  0.00     0.001 A 
HETATM   31  C24 UNL     1       5.385   1.245   2.017  1.00  0.00     0.012 A 
ENDBRANCH  23  26
ENDBRANCH  19  20
ENDBRANCH  14  19
ENDBRANCH  13  14
ENDBRANCH  10  13
BRANCH   7  32
HETATM   32  N3  UNL     1      -2.894   1.096  -0.062  1.00  0.00    -0.222 N 
ATOM     33  H3  UNL     1      -2.479   1.738  -0.738  1.00  0.00     0.178 HD
BRANCH  32  34
HETATM   34  C5  UNL     1      -4.012   1.522   0.772  1.00  0.00     0.176 C 
BRANCH  34  35
HETATM   35  C6  UNL     1      -4.439   2.859   0.261  1.00  0.00    -0.040 A 
HETATM   36  C7  UNL     1      -5.370   3.014  -0.746  1.00  0.00     0.009 A 
HETATM   37  C8  UNL     1      -5.763   4.263  -1.217  1.00  0.00     0.001 A 
HETATM   38  C9  UNL     1      -5.208   5.408  -0.660  1.00  0.00     0.000 A 
HETATM   39  C10 UNL     1      -4.277   5.268   0.347  1.00  0.00     0.001 A 
HETATM   40  C11 UNL     1      -3.905   4.015   0.794  1.00  0.00     0.009 A 
ENDBRANCH  34  35
ENDBRANCH  32  34
ENDBRANCH   7  32
BRANCH  12  41
HETATM   41  O1  UNL     1      -0.250  -4.881   0.221  1.00  0.00    -0.345 OA
ATOM     42  H1  UNL     1       0.369  -4.641  -0.459  1.00  0.00     0.219 HD
ENDBRANCH  12  41
TORSDOF 10
