REMARK  9 active torsions:
REMARK  status: ('A' for Active; 'I' for Inactive)
REMARK    1  A    between atoms: C2_2  and  C3_3 
REMARK    2  A    between atoms: C3_3  and  N1_4 
REMARK    3  A    between atoms: C3_3  and  N2_8 
REMARK       I    between atoms: N2_8  and  C4_10 
REMARK    4  A    between atoms: C4_10  and  C5_12 
REMARK    5  A    between atoms: C7_14  and  N3_15 
REMARK    6  A    between atoms: N3_15  and  C8_17 
REMARK    7  A    between atoms: C12_21  and  N4_22 
REMARK    8  A    between atoms: N4_22  and  C13_24 
REMARK    9  A    between atoms: C20_33  and  C21_34 
ROOT
HETATM    1  C5  UNL     1      -2.304   0.378  -0.169  1.00  0.00     0.103 A 
HETATM    2  C6  UNL     1      -1.025   0.308   0.311  1.00  0.00     0.064 A 
HETATM    3  C7  UNL     1      -0.492  -0.893   0.694  1.00  0.00     0.037 A 
HETATM    4  C19 UNL     1      -1.262  -2.032   0.590  1.00  0.00     0.059 A 
HETATM    5  C20 UNL     1      -2.552  -1.926   0.101  1.00  0.00     0.045 A 
HETATM    6  N6  UNL     1      -3.066  -0.747  -0.273  1.00  0.00    -0.351 N 
ATOM      7  H6  UNL     1      -4.019  -0.692  -0.632  1.00  0.00     0.166 HD
ENDROOT
BRANCH   3   8
HETATM    8  N3  UNL     1       0.723  -0.954   1.152  1.00  0.00    -0.356 N 
ATOM      9  H3  UNL     1       1.082  -1.868   1.427  1.00  0.00     0.166 HD
BRANCH   8  10
HETATM   10  C8  UNL     1       1.577   0.157   1.294  1.00  0.00     0.034 A 
HETATM   11  C9  UNL     1       1.418   1.042   2.354  1.00  0.00     0.029 A 
HETATM   12  C10 UNL     1       2.253   2.129   2.497  1.00  0.00     0.004 A 
HETATM   13  C11 UNL     1       3.277   2.400   1.614  1.00  0.00     0.029 A 
HETATM   14  C12 UNL     1       3.439   1.526   0.561  1.00  0.00     0.035 A 
HETATM   15  C18 UNL     1       2.608   0.437   0.412  1.00  0.00     0.059 A 
BRANCH  14  16
HETATM   16  N4  UNL     1       4.498   1.811  -0.346  1.00  0.00    -0.342 N 
ATOM     17  H4  UNL     1       4.334   2.397  -1.164  1.00  0.00     0.167 HD
BRANCH  16  18
HETATM   18  C13 UNL     1       5.666   1.318  -0.119  1.00  0.00     0.105 A 
HETATM   19  C14 UNL     1       5.900   0.536   0.966  1.00  0.00     0.048 A 
HETATM   20  C15 UNL     1       7.142  -0.001   1.228  1.00  0.00     0.005 A 
HETATM   21  C16 UNL     1       8.165   0.290   0.327  1.00  0.00     0.017 A 
HETATM   22  C17 UNL     1       7.933   1.077  -0.766  1.00  0.00     0.089 A 
HETATM   23  N5  UNL     1       6.696   1.568  -0.959  1.00  0.00    -0.352 N 
ATOM     24  H5  UNL     1       6.527   2.155  -1.776  1.00  0.00     0.166 HD
ENDBRANCH  16  18
ENDBRANCH  14  16
ENDBRANCH   8  10
ENDBRANCH   3   8
BRANCH   1  25
HETATM   25  C4  UNL     1      -2.892   1.642  -0.583  1.00  0.00     0.270 C 
HETATM   26  N2  UNL     1      -2.164   2.841  -0.511  1.00  0.00    -0.325 N 
ATOM     27  H2  UNL     1      -1.205   2.839  -0.164  1.00  0.00     0.165 HD
HETATM   28  O1  UNL     1      -4.071   1.652  -1.010  1.00  0.00    -0.266 OA
BRANCH  26  29
HETATM   29  C3  UNL     1      -2.789   4.093  -0.936  1.00  0.00     0.307 C 
BRANCH  29  30
HETATM   30  C2  UNL     1      -2.015   4.627  -2.068  1.00  0.00     0.016 C 
HETATM   31  C1  UNL     1      -2.507   4.693  -3.298  1.00  0.00     0.010 C 
ENDBRANCH  29  30
BRANCH  29  32
HETATM   32  N1  UNL     1      -2.841   5.008   0.187  1.00  0.00    -0.055 N 
ATOM     33  H13 UNL     1      -1.903   5.280   0.481  1.00  0.00     0.277 HD
ATOM     34  H12 UNL     1      -3.195   5.920  -0.100  1.00  0.00     0.277 HD
ATOM     35  H11 UNL     1      -3.377   4.638   0.972  1.00  0.00     0.277 HD
ENDBRANCH  29  32
ENDBRANCH  26  29
ENDBRANCH   1  25
BRANCH   5  36
HETATM   36  C21 UNL     1      -3.366  -3.163  -0.003  1.00  0.00    -0.009 A 
HETATM   37  C22 UNL     1      -4.661  -3.095  -0.485  1.00  0.00     0.014 A 
HETATM   38  C23 UNL     1      -5.432  -4.260  -0.585  1.00  0.00     0.001 A 
HETATM   39  C24 UNL     1      -4.919  -5.478  -0.209  1.00  0.00     0.007 A 
HETATM   40  C25 UNL     1      -3.644  -5.556   0.267  1.00  0.00    -0.061 A 
HETATM   41  C26 UNL     1      -3.034  -6.852   0.690  1.00  0.00     0.048 C 
HETATM   42  C27 UNL     1      -2.876  -4.381   0.364  1.00  0.00     0.020 A 
ENDBRANCH   5  36
TORSDOF 9
