REMARK  8 active torsions:
REMARK  status: ('A' for Active; 'I' for Inactive)
REMARK    1  A    between atoms: N1_2  and  C2_4 
REMARK    2  A    between atoms: C2_4  and  C3_8 
REMARK    3  A    between atoms: C6_11  and  S1_12 
REMARK    4  A    between atoms: S1_12  and  N3_15 
REMARK    5  A    between atoms: N3_15  and  C7_17 
REMARK    6  A    between atoms: C10_20  and  N4_21 
REMARK    7  A    between atoms: N4_21  and  C11_22 
REMARK    8  A    between atoms: C12_23  and  C13_24 
ROOT
HETATM    1  C7  UNL     1      -0.146  -2.230   1.173  1.00  0.00     0.042 A 
HETATM    2  C8  UNL     1       1.135  -2.768   1.475  1.00  0.00     0.033 A 
HETATM    3  C9  UNL     1       2.260  -2.062   1.175  1.00  0.00     0.047 A 
HETATM    4  C10 UNL     1       2.234  -0.817   0.583  1.00  0.00     0.107 A 
HETATM    5  C21 UNL     1       0.995  -0.293   0.286  1.00  0.00     0.047 A 
HETATM    6  C22 UNL     1      -0.158  -1.006   0.586  1.00  0.00     0.033 A 
ENDROOT
BRANCH   1   7
HETATM    7  N3  UNL     1      -1.248  -3.037   1.520  1.00  0.00    -0.281 N 
ATOM      8  H3  UNL     1      -1.194  -4.025   1.273  1.00  0.00     0.179 HD
BRANCH   7   9
HETATM    9  S1  UNL     1      -2.634  -2.526   2.297  1.00  0.00     0.263 S 
HETATM   10  O1  UNL     1      -3.472  -3.800   2.612  1.00  0.00    -0.200 OA
HETATM   11  O2  UNL     1      -2.244  -1.986   3.669  1.00  0.00    -0.200 OA
BRANCH   9  12
HETATM   12  C6  UNL     1      -3.670  -1.381   1.577  1.00  0.00     0.079 A 
HETATM   13  C5  UNL     1      -3.621  -0.014   1.627  1.00  0.00     0.026 A 
HETATM   14  C4  UNL     1      -4.567   0.768   1.012  1.00  0.00     0.017 A 
HETATM   15  C3  UNL     1      -5.626   0.242   0.302  1.00  0.00     0.007 A 
HETATM   16  C24 UNL     1      -5.698  -1.138   0.236  1.00  0.00     0.017 A 
HETATM   17  C23 UNL     1      -4.752  -1.911   0.853  1.00  0.00     0.026 A 
BRANCH  15  18
HETATM   18  C2  UNL     1      -6.616   1.028  -0.392  1.00  0.00     0.104 C 
HETATM   19  N2  UNL     1      -7.672   0.583  -0.949  1.00  0.00    -0.385 N 
ATOM     20  H22 UNL     1      -8.372   1.139  -1.440  1.00  0.00     0.157 HD
ATOM     21  H21 UNL     1      -7.791  -0.425  -0.845  1.00  0.00     0.157 HD
BRANCH  18  22
HETATM   22  N1  UNL     1      -6.445   2.471  -0.541  1.00  0.00    -0.380 N 
HETATM   23  C1  UNL     1      -6.542   2.934  -1.911  1.00  0.00     0.147 C 
ATOM     24  H1  UNL     1      -6.273   3.096   0.247  1.00  0.00     0.160 HD
ENDBRANCH  18  22
ENDBRANCH  15  18
ENDBRANCH   9  12
ENDBRANCH   7   9
ENDBRANCH   1   7
BRANCH   4  25
HETATM   25  N4  UNL     1       3.358  -0.169   0.340  1.00  0.00    -0.404 NA
BRANCH  25  26
HETATM   26  C11 UNL     1       4.343   0.393   0.083  1.00  0.00     0.134 A 
HETATM   27  C12 UNL     1       5.096   0.989   1.119  1.00  0.00     0.059 A 
HETATM   28  C14 UNL     1       6.268   1.641   0.903  1.00  0.00     0.106 A 
HETATM   29  N5  UNL     1       6.727   1.721  -0.330  1.00  0.00    -0.364 N 
HETATM   30  C15 UNL     1       6.104   1.202  -1.366  1.00  0.00     0.045 A 
ATOM     31  H5  UNL     1       7.608   2.209  -0.489  1.00  0.00     0.165 HD
HETATM   32  C16 UNL     1       6.656   1.348  -2.649  1.00  0.00     0.030 A 
HETATM   33  C20 UNL     1       4.916   0.542  -1.162  1.00  0.00     0.032 A 
HETATM   34  C17 UNL     1       6.031   0.829  -3.756  1.00  0.00     0.002 A 
HETATM   35  C18 UNL     1       4.821   0.155  -3.534  1.00  0.00     0.001 A 
HETATM   36  C19 UNL     1       4.289   0.018  -2.271  1.00  0.00     0.017 A 
BRANCH  27  37
HETATM   37  C13 UNL     1       4.545   0.910   2.450  1.00  0.00     0.274 C 
HETATM   38  O3  UNL     1       5.150   1.364   3.468  1.00  0.00    -0.301 OA
ENDBRANCH  27  37
ENDBRANCH  25  26
ENDBRANCH   4  25
TORSDOF 8
