REMARK  5 active torsions:
REMARK  status: ('A' for Active; 'I' for Inactive)
REMARK    1  A    between atoms: N1_2  and  C2_3 
REMARK    2  A    between atoms: N1_2  and  S1_27 
REMARK    3  A    between atoms: C2_3  and  C3_4 
REMARK    4  A    between atoms: C3_4  and  N2_5 
REMARK    5  A    between atoms: N2_5  and  C4_7 
ROOT
HETATM    1  C4  UNL     1       0.616   0.346   0.136  1.00  0.00     0.681 C 
HETATM    2  N3  UNL     1       1.039   0.627   1.390  1.00  0.00    -0.155 N 
ATOM      3  H3  UNL     1       0.309   0.892   2.051  1.00  0.00     0.187 HD
HETATM    4  C5  UNL     1       2.286   0.606   1.885  1.00  0.00     0.272 C 
HETATM    5  O1  UNL     1       2.414   0.527   3.118  1.00  0.00    -0.267 OA
HETATM    6  C6  UNL     1       3.462   0.666   1.139  1.00  0.00     0.063 A 
HETATM    7  C7  UNL     1       4.724   0.759   1.693  1.00  0.00     0.106 A 
HETATM    8  N4  UNL     1       5.591   0.793   0.663  1.00  0.00    -0.363 N 
ATOM      9  H4  UNL     1       6.604   0.859   0.757  1.00  0.00     0.165 HD
HETATM   10  C8  UNL     1       4.931   0.727  -0.507  1.00  0.00     0.064 A 
HETATM   11  C9  UNL     1       5.316   0.724  -1.839  1.00  0.00     0.057 A 
HETATM   12 BR1  UNL     1       7.175   0.834  -2.284  1.00  0.00    -0.047 Br
HETATM   13  C10 UNL     1       4.357   0.642  -2.849  1.00  0.00     0.050 A 
HETATM   14 BR2  UNL     1       4.929   0.641  -4.668  1.00  0.00    -0.048 Br
HETATM   15  C11 UNL     1       3.005   0.562  -2.523  1.00  0.00     0.058 A 
HETATM   16 BR3  UNL     1       1.680   0.449  -3.895  1.00  0.00    -0.047 Br
HETATM   17  C12 UNL     1       2.616   0.564  -1.211  1.00  0.00     0.081 A 
HETATM   18  N5  UNL     1       1.286   0.482  -1.029  1.00  0.00    -0.190 N 
ATOM     19  H5  UNL     1       0.714   0.528  -1.872  1.00  0.00     0.184 HD
HETATM   20  C13 UNL     1       3.596   0.647  -0.234  1.00  0.00     0.038 A 
ENDROOT
BRANCH   1  21
HETATM   21  N2  UNL     1      -0.587  -0.111   0.056  1.00  0.00    -0.225 N 
ATOM     22  H2  UNL     1      -0.970  -0.344  -0.860  1.00  0.00     0.177 HD
BRANCH  21  23
HETATM   23  C3  UNL     1      -1.397  -0.300   1.217  1.00  0.00     0.153 C 
BRANCH  23  24
HETATM   24  C2  UNL     1      -2.594  -1.184   0.972  1.00  0.00     0.127 C 
BRANCH  24  25
HETATM   25  N1  UNL     1      -3.479  -0.665  -0.034  1.00  0.00    -0.214 NA
HETATM   26  C1  UNL     1      -4.200  -1.793  -0.603  1.00  0.00     0.129 C 
BRANCH  25  27
HETATM   27  S1  UNL     1      -4.640   0.340   0.761  1.00  0.00     0.207 S 
HETATM   28  C14 UNL     1      -5.845   0.964  -0.385  1.00  0.00     0.180 C 
HETATM   29  O2  UNL     1      -4.007   1.496   1.459  1.00  0.00    -0.212 OA
HETATM   30  O3  UNL     1      -5.374  -0.552   1.742  1.00  0.00    -0.212 OA
ENDBRANCH  25  27
ENDBRANCH  24  25
ENDBRANCH  23  24
ENDBRANCH  21  23
ENDBRANCH   1  21
TORSDOF 5
