REMARK  5 active torsions:
REMARK  status: ('A' for Active; 'I' for Inactive)
REMARK    1  A    between atoms: C1_2  and  C2_4 
REMARK    2  A    between atoms: C2_4  and  C3_5 
REMARK    3  A    between atoms: C3_5  and  N2_6 
REMARK    4  A    between atoms: C3_5  and  C13_21 
REMARK       I    between atoms: N2_6  and  C4_8 
REMARK    5  A    between atoms: C4_8  and  C5_10 
REMARK       I    between atoms: C13_21  and  N4_23 
ROOT
HETATM    1  C3  UNL     1       1.112  -0.166   0.411  1.00  0.00     0.185 C 
ENDROOT
BRANCH   1   2
HETATM    2  C2  UNL     1       1.471  -1.205  -0.635  1.00  0.00     0.134 C 
BRANCH   2   3
HETATM    3  C1  UNL     1       1.656  -0.660  -1.989  1.00  0.00     0.233 C 
HETATM    4  N1  UNL     1       1.928  -1.597  -3.022  1.00  0.00    -0.062 NA
HETATM    5  O1  UNL     1       1.596   0.547  -2.317  1.00  0.00    -0.277 OA
ENDBRANCH   2   3
ENDBRANCH   1   2
BRANCH   1   6
HETATM    6  N2  UNL     1      -0.157   0.411  -0.039  1.00  0.00    -0.346 N 
HETATM    7  C4  UNL     1      -1.301   0.126   0.756  1.00  0.00     0.240 C 
HETATM    8  O2  UNL     1      -1.250  -0.581   1.798  1.00  0.00    -0.271 OA
ATOM      9  H2  UNL     1      -0.217   0.987  -0.879  1.00  0.00     0.163 HD
BRANCH   7  10
HETATM   10  C5  UNL     1      -2.624   0.691   0.338  1.00  0.00     0.170 C 
HETATM   11  C6  UNL     1      -2.872   0.584  -1.126  1.00  0.00     0.049 C 
HETATM   12  C7  UNL     1      -4.323   0.423  -1.526  1.00  0.00     0.049 C 
HETATM   13  C8  UNL     1      -5.279   1.296  -0.840  1.00  0.00     0.015 C 
HETATM   14  S1  UNL     1      -4.684  -1.344  -1.459  1.00  0.00    -0.162 SA
HETATM   15  C9  UNL     1      -5.929   0.866   0.391  1.00  0.00     0.003 C 
HETATM   16  C10 UNL     1      -5.777  -0.556   0.820  1.00  0.00     0.025 C 
HETATM   17  C11 UNL     1      -4.308  -0.900   1.126  1.00  0.00     0.086 C 
HETATM   18  C12 UNL     1      -3.907  -1.893   0.105  1.00  0.00     0.099 C 
HETATM   19  N3  UNL     1      -3.633   0.306   1.218  1.00  0.00    -0.404 N 
ATOM     20  H3  UNL     1      -3.888   0.946   1.970  1.00  0.00     0.154 HD
ENDBRANCH   7  10
ENDBRANCH   1   6
BRANCH   1  21
HETATM   21  C13 UNL     1       2.132   0.866   0.601  1.00  0.00     0.243 C 
HETATM   22  O3  UNL     1       1.819   2.044   0.199  1.00  0.00    -0.271 OA
HETATM   23  N4  UNL     1       3.408   0.720   1.169  1.00  0.00    -0.350 N 
HETATM   24  C14 UNL     1       3.855  -0.544   1.704  1.00  0.00     0.130 C 
HETATM   25  C19 UNL     1       4.330   1.834   1.232  1.00  0.00     0.130 C 
HETATM   26  C15 UNL     1       5.027  -1.000   0.844  1.00  0.00     0.056 C 
HETATM   27  C16 UNL     1       6.004   0.117   0.844  1.00  0.00    -0.052 C 
HETATM   28  C17 UNL     1       7.144   0.020   0.151  1.00  0.00     0.059 C 
HETATM   29  C18 UNL     1       5.699   1.341   1.625  1.00  0.00     0.056 C 
HETATM   30 BR1  UNL     1       7.507  -1.566  -0.839  1.00  0.00    -0.043 Br
HETATM   31 BR2  UNL     1       8.425   1.428   0.126  1.00  0.00    -0.043 Br
ENDBRANCH   1  21
TORSDOF 5
