REMARK  7 active torsions:
REMARK  status: ('A' for Active; 'I' for Inactive)
REMARK    1  A    between atoms: O1_2  and  C2_3 
REMARK    2  A    between atoms: C6_7  and  O2_8 
REMARK    3  A    between atoms: C8_10  and  C9_11 
REMARK    4  A    between atoms: C14_18  and  C15_19 
REMARK    5  A    between atoms: C14_18  and  C16_22 
REMARK    6  A    between atoms: C15_19  and  O3_20 
REMARK    7  A    between atoms: C17_24  and  O4_25 
ROOT
HETATM    1  C9  UNL     1       0.520  -0.067   0.194  1.00  0.00    -0.029 C 
HETATM    2  C10 UNL     1       0.007   0.526  -1.057  1.00  0.00     0.067 C 
HETATM    3  C11 UNL     1      -1.292   0.043  -1.584  1.00  0.00     0.023 C 
HETATM    4  C12 UNL     1      -1.458   0.956  -2.851  1.00  0.00     0.038 C 
HETATM    5  C13 UNL     1      -1.217  -1.314  -2.274  1.00  0.00     0.038 C 
HETATM    6  N1  UNL     1      -2.456   0.306  -0.842  1.00  0.00    -0.400 N 
ATOM      7  H1  UNL     1      -3.261   0.695  -1.332  1.00  0.00     0.155 HD
HETATM    8  C14 UNL     1      -2.572   0.067   0.520  1.00  0.00     0.085 C 
HETATM    9  C17 UNL     1      -1.580   0.560   1.471  1.00  0.00     0.183 C 
HETATM   10  C18 UNL     1      -0.209  -0.038   1.439  1.00  0.00     0.128 C 
HETATM   11 BR2  UNL     1       0.802   0.962   2.790  1.00  0.00    -0.065 Br
HETATM   12 BR3  UNL     1      -0.266  -1.846   2.245  1.00  0.00    -0.065 Br
ENDROOT
BRANCH   1  13
HETATM   13  C8  UNL     1       2.028  -0.081   0.269  1.00  0.00     0.035 A 
HETATM   14  C2  UNL     1       2.726   1.116   0.415  1.00  0.00     0.081 A 
HETATM   15  C3  UNL     1       4.075   1.184   0.661  1.00  0.00     0.038 A 
HETATM   16  C4  UNL     1       4.772  -0.006   0.761  1.00  0.00     0.005 A 
HETATM   17  C5  UNL     1       4.127  -1.200   0.619  1.00  0.00     0.038 A 
HETATM   18  C6  UNL     1       2.773  -1.240   0.376  1.00  0.00     0.081 A 
BRANCH  14  19
HETATM   19  O1  UNL     1       2.004   2.289   0.291  1.00  0.00    -0.355 OA
HETATM   20  C1  UNL     1       2.487   3.591   0.386  1.00  0.00     0.210 C 
ENDBRANCH  14  19
BRANCH  18  21
HETATM   21  O2  UNL     1       2.109  -2.473   0.230  1.00  0.00    -0.355 OA
HETATM   22  C7  UNL     1       2.777  -3.695   0.340  1.00  0.00     0.210 C 
ENDBRANCH  18  21
ENDBRANCH   1  13
BRANCH   9  23
HETATM   23  O4  UNL     1      -1.502   1.937   1.657  1.00  0.00    -0.390 OA
ATOM     24  H4  UNL     1      -0.857   2.258   2.276  1.00  0.00     0.210 HD
ENDBRANCH   9  23
BRANCH   8  25
HETATM   25  C15 UNL     1      -2.986  -1.360   0.878  1.00  0.00     0.198 C 
BRANCH  25  26
HETATM   26  O3  UNL     1      -4.244  -1.655   0.375  1.00  0.00    -0.398 OA
ATOM     27  H3  UNL     1      -4.501  -2.542   0.598  1.00  0.00     0.209 HD
ENDBRANCH  25  26
ENDBRANCH   8  25
BRANCH   8  28
HETATM   28  C16 UNL     1      -3.883   0.802   0.936  1.00  0.00     0.120 C 
HETATM   29 BR1  UNL     1      -4.228   0.598   2.803  1.00  0.00    -0.094 Br
ENDBRANCH   8  28
TORSDOF 7
