REMARK  5 active torsions:
REMARK  status: ('A' for Active; 'I' for Inactive)
REMARK    1  A    between atoms: C9_11  and  C10_12 
REMARK    2  A    between atoms: C11_16  and  C12_17 
REMARK    3  A    between atoms: C11_16  and  C13_19 
REMARK    4  A    between atoms: C13_19  and  C14_20 
REMARK    5  A    between atoms: C14_20  and  C15_21 
ROOT
HETATM    1  O1  UNL     1      -6.193  -0.709   1.362  1.00  0.00    -0.274 OA
HETATM    2  C1  UNL     1      -4.968  -0.364   1.151  1.00  0.00     0.218 C 
HETATM    3  C2  UNL     1      -4.093  -0.966   0.128  1.00  0.00     0.114 C 
HETATM    4  C3  UNL     1      -2.966   0.040  -0.045  1.00  0.00    -0.009 C 
HETATM    5  C4  UNL     1      -3.423   0.967  -1.202  1.00  0.00     0.013 C 
HETATM    6  C5  UNL     1      -2.318   1.922  -1.566  1.00  0.00     0.017 C 
HETATM    7  C6  UNL     1      -1.188   1.049  -2.194  1.00  0.00     0.065 C 
HETATM    8 BR1  UNL     1      -2.146   0.108  -3.571  1.00  0.00    -0.091 Br
HETATM    9  C7  UNL     1      -0.689   0.290  -1.063  1.00  0.00     0.043 C 
HETATM   10  C8  UNL     1      -1.751  -0.625  -0.495  1.00  0.00     0.044 C 
HETATM   11  C9  UNL     1      -0.977  -1.569   0.292  1.00  0.00     0.228 C 
HETATM   12  O4  UNL     1       0.403  -1.391  -0.023  1.00  0.00    -0.362 OA
HETATM   13  C11 UNL     1       0.507  -0.517  -1.093  1.00  0.00     0.076 C 
HETATM   14  C19 UNL     1      -3.004   0.876   1.158  1.00  0.00     0.133 C 
HETATM   15  N2  UNL     1      -4.254   0.632   1.848  1.00  0.00    -0.360 N 
ATOM     16  H2  UNL     1      -4.566   1.103   2.697  1.00  0.00     0.162 HD
ENDROOT
BRANCH  13  17
HETATM   17  C12 UNL     1       0.941  -1.316  -2.243  1.00  0.00     0.123 C 
HETATM   18 BR2  UNL     1      -0.315  -2.711  -2.794  1.00  0.00    -0.093 Br
ENDBRANCH  13  17
BRANCH  13  19
HETATM   19  C13 UNL     1       1.685   0.413  -0.703  1.00  0.00     0.040 C 
BRANCH  19  20
HETATM   20  C14 UNL     1       2.968  -0.330  -0.721  1.00  0.00     0.019 C 
BRANCH  20  21
HETATM   21  C15 UNL     1       4.164   0.484  -0.300  1.00  0.00     0.106 C 
HETATM   22  C16 UNL     1       4.113   1.018   1.067  1.00  0.00     0.230 C 
HETATM   23  O5  UNL     1       3.162   1.278   1.842  1.00  0.00    -0.273 OA
HETATM   24  N1  UNL     1       5.511   1.218   1.411  1.00  0.00    -0.296 N 
HETATM   25  C17 UNL     1       6.317   0.408   0.566  1.00  0.00     0.243 C 
ATOM     26  H1  UNL     1       5.858   1.840   2.141  1.00  0.00     0.171 HD
HETATM   27  O6  UNL     1       7.570   0.418   0.500  1.00  0.00    -0.271 OA
HETATM   28  C18 UNL     1       5.363  -0.441  -0.213  1.00  0.00     0.187 C 
HETATM   29 CL1  UNL     1       4.963  -1.834   0.815  1.00  0.00    -0.114 Cl
ENDBRANCH  20  21
ENDBRANCH  19  20
ENDBRANCH  13  19
BRANCH  11  30
HETATM   30  C10 UNL     1      -0.987  -1.577   1.748  1.00  0.00     0.203 C 
HETATM   31  O2  UNL     1      -1.964  -1.893   2.434  1.00  0.00    -0.646 OA
HETATM   32  O3  UNL     1       0.134  -1.220   2.532  1.00  0.00    -0.646 OA
ENDBRANCH  11  30
TORSDOF 5
