REMARK  5 active torsions:
REMARK  status: ('A' for Active; 'I' for Inactive)
REMARK    1  A    between atoms: N4_15  and  C6_16 
REMARK    2  A    between atoms: C9_19  and  C10_20 
REMARK       I    between atoms: C10_20  and  N5_22 
REMARK       I    between atoms: N6_25  and  C13_26 
REMARK    3  A    between atoms: C13_26  and  C14_28 
REMARK    4  A    between atoms: C14_28  and  C15_29 
REMARK    5  A    between atoms: C18_32  and  C19_33 
ROOT
HETATM    1  C6  UNL     1      -4.493  -0.334  -0.161  1.00  0.00     0.230 C 
HETATM    2  C7  UNL     1      -3.884  -1.649   0.166  1.00  0.00     0.037 C 
HETATM    3  C8  UNL     1      -2.355  -1.441   0.084  1.00  0.00     0.016 C 
HETATM    4  C9  UNL     1      -1.862  -0.409   1.034  1.00  0.00     0.078 C 
HETATM    5  C24 UNL     1      -3.037   0.121   1.834  1.00  0.00     0.016 C 
HETATM    6  C25 UNL     1      -3.999   0.719   0.826  1.00  0.00     0.037 C 
ENDROOT
BRANCH   4   7
HETATM    7  C10 UNL     1      -0.749  -0.824   1.900  1.00  0.00     0.224 C 
HETATM    8  O1  UNL     1      -0.953  -0.849   3.142  1.00  0.00    -0.273 OA
HETATM    9  N5  UNL     1       0.522  -1.192   1.402  1.00  0.00    -0.349 N 
HETATM   10  C11 UNL     1       0.847  -1.187  -0.021  1.00  0.00     0.145 C 
HETATM   11  C23 UNL     1       1.576  -1.597   2.342  1.00  0.00     0.145 C 
HETATM   12  C12 UNL     1       2.288  -1.580  -0.250  1.00  0.00     0.145 C 
HETATM   13  N6  UNL     1       3.213  -0.980   0.657  1.00  0.00    -0.349 N 
HETATM   14  C13 UNL     1       4.529  -0.643   0.254  1.00  0.00     0.220 C 
HETATM   15  C22 UNL     1       2.771  -0.719   2.025  1.00  0.00     0.145 C 
HETATM   16  O2  UNL     1       4.885  -0.878  -0.920  1.00  0.00    -0.273 OA
BRANCH  14  17
HETATM   17  C14 UNL     1       5.451  -0.031   1.202  1.00  0.00     0.107 C 
BRANCH  17  18
HETATM   18  C15 UNL     1       6.810   0.293   0.687  1.00  0.00    -0.006 C 
HETATM   19  C16 UNL     1       6.835   1.251  -0.457  1.00  0.00     0.006 C 
HETATM   20  C17 UNL     1       8.236   1.841  -0.550  1.00  0.00     0.014 C 
HETATM   21  C18 UNL     1       9.267   0.885   0.003  1.00  0.00     0.075 C 
HETATM   22  C20 UNL     1       8.880  -0.558  -0.335  1.00  0.00     0.014 C 
HETATM   23  C21 UNL     1       7.610  -0.961   0.402  1.00  0.00     0.006 C 
BRANCH  21  24
HETATM   24  C19 UNL     1      10.554   1.144  -0.693  1.00  0.00     0.235 C 
HETATM   25  N7  UNL     1      11.160   2.433  -0.607  1.00  0.00    -0.062 NA
HETATM   26  O3  UNL     1      11.162   0.277  -1.372  1.00  0.00    -0.277 OA
ENDBRANCH  21  24
ENDBRANCH  17  18
ENDBRANCH  14  17
ENDBRANCH   4   7
BRANCH   1  27
HETATM   27  N4  UNL     1      -5.863  -0.258  -0.469  1.00  0.00     0.165 N 
HETATM   28  C5  UNL     1      -6.834  -0.612   0.480  1.00  0.00     0.443 C 
HETATM   29  C4  UNL     1      -8.143  -1.046  -0.153  1.00  0.00     0.174 C 
HETATM   30  F1  UNL     1      -7.168   0.382   1.376  1.00  0.00    -0.172 F 
HETATM   31  F2  UNL     1      -6.451  -1.701   1.230  1.00  0.00    -0.172 F 
HETATM   32  C3  UNL     1      -8.878   0.057  -0.773  1.00  0.00     0.057 A 
HETATM   33  C2  UNL     1      -8.402   0.968  -1.676  1.00  0.00     0.051 A 
HETATM   34  N3  UNL     1     -10.163   0.353  -0.548  1.00  0.00    -0.194 N 
HETATM   35  N2  UNL     1      -9.396   1.807  -1.990  1.00  0.00    -0.194 N 
HETATM   36  C27 UNL     1      -7.011   1.037  -2.232  1.00  0.00     0.090 C 
HETATM   37  C1  UNL     1     -10.472   1.422  -1.293  1.00  0.00     0.676 A 
ATOM     38  H2  UNL     1      -9.344   2.592  -2.639  1.00  0.00     0.184 HD
HETATM   39  N1  UNL     1     -11.634   1.972  -1.315  1.00  0.00    -0.234 N 
ATOM     40  H12 UNL     1     -11.869   2.786  -1.882  1.00  0.00     0.174 HD
ATOM     41  H11 UNL     1     -12.454   1.679  -0.784  1.00  0.00     0.174 HD
HETATM   42  C26 UNL     1      -6.075   1.052  -1.069  1.00  0.00     0.287 C 
ATOM     43  H3  UNL     1     -10.794  -0.146   0.079  1.00  0.00     0.184 HD
ENDBRANCH   1  27
TORSDOF 5
