REMARK  8 active torsions:
REMARK  status: ('A' for Active; 'I' for Inactive)
REMARK    1  A    between atoms: C2_2  and  N1_3 
REMARK    2  A    between atoms: C2_2  and  C8_12 
REMARK    3  A    between atoms: N1_3  and  C3_5 
REMARK    4  A    between atoms: C8_12  and  O1_14 
REMARK    5  A    between atoms: C8_12  and  C10_16 
REMARK    6  A    between atoms: C10_16  and  O2_17 
REMARK    7  A    between atoms: O2_17  and  C11_18 
REMARK    8  A    between atoms: C11_18  and  C12_20 
ROOT
HETATM    1  C8  UNL     1       0.177   0.083   0.042  1.00  0.00     0.096 C 
HETATM    2  C9  UNL     1       0.631  -1.267   0.633  1.00  0.00     0.050 C 
ENDROOT
BRANCH   1   3
HETATM    3  C2  UNL     1      -1.266   0.319   0.458  1.00  0.00     0.113 C 
HETATM    4  C1  UNL     1      -1.391   0.636   1.918  1.00  0.00     0.035 C 
BRANCH   3   5
HETATM    5  N1  UNL     1      -2.110  -0.788   0.080  1.00  0.00    -0.383 N 
ATOM      6  H1  UNL     1      -1.659  -1.685  -0.103  1.00  0.00     0.160 HD
BRANCH   5   7
HETATM    7  C3  UNL     1      -3.386  -0.728  -0.043  1.00  0.00     0.030 A 
HETATM    8  C4  UNL     1      -4.056   0.448   0.191  1.00  0.00     0.046 A 
HETATM    9  C5  UNL     1      -5.429   0.567   0.073  1.00  0.00     0.089 A 
HETATM   10  N2  UNL     1      -6.126  -0.523  -0.285  1.00  0.00    -0.375 N 
HETATM   11  C6  UNL     1      -5.516  -1.701  -0.525  1.00  0.00     0.089 A 
ATOM     12  H2  UNL     1      -7.140  -0.458  -0.377  1.00  0.00     0.164 HD
HETATM   13  C7  UNL     1      -4.146  -1.828  -0.410  1.00  0.00     0.046 A 
ENDBRANCH   5   7
ENDBRANCH   3   5
ENDBRANCH   1   3
BRANCH   1  14
HETATM   14  O1  UNL     1       0.276  -0.074  -1.321  1.00  0.00    -0.386 OA
ATOM     15  H1  UNL     1       1.178  -0.221  -1.581  1.00  0.00     0.210 HD
ENDBRANCH   1  14
BRANCH   1  16
HETATM   16  C10 UNL     1       1.090   1.145   0.535  1.00  0.00     0.218 C 
BRANCH  16  17
HETATM   17  O2  UNL     1       2.424   0.952   0.342  1.00  0.00    -0.314 OA
BRANCH  17  18
HETATM   18  C11 UNL     1       3.232   0.862  -0.732  1.00  0.00     0.300 C 
HETATM   19  O3  UNL     1       2.718   0.982  -1.865  1.00  0.00    -0.259 OA
BRANCH  18  20
HETATM   20  C12 UNL     1       4.677   0.632  -0.662  1.00  0.00     0.081 A 
HETATM   21  C13 UNL     1       5.550   0.531  -1.702  1.00  0.00     0.027 A 
HETATM   22  C14 UNL     1       6.840   0.318  -1.408  1.00  0.00     0.033 A 
HETATM   23  C15 UNL     1       7.172   0.220  -0.079  1.00  0.00     0.075 A 
HETATM   24 CL1  UNL     1       8.782  -0.057   0.611  1.00  0.00    -0.076 Cl
HETATM   25  S1  UNL     1       5.671   0.429   0.704  1.00  0.00    -0.072 SA
ENDBRANCH  18  20
ENDBRANCH  17  18
ENDBRANCH  16  17
ENDBRANCH   1  16
TORSDOF 8
