REMARK  7 active torsions:
REMARK  status: ('A' for Active; 'I' for Inactive)
REMARK    1  A    between atoms: C2_2  and  C3_3 
REMARK    2  A    between atoms: C3_3  and  O1_4 
REMARK    3  A    between atoms: O1_4  and  C4_5 
REMARK       I    between atoms: C4_5  and  N1_7 
REMARK    4  A    between atoms: N1_7  and  C5_9 
REMARK    5  A    between atoms: N2_13  and  N3_15 
REMARK       I    between atoms: N3_15  and  C8_17 
REMARK    6  A    between atoms: C8_17  and  C9_19 
REMARK    7  A    between atoms: C12_22  and  N4_23 
ROOT
HETATM    1  C1  UNL     1      -0.356  -2.789  -1.198  1.00  0.00     0.067 C 
HETATM    2  C2  UNL     1       0.468  -1.578  -0.882  1.00  0.00     0.024 C 
HETATM    3  N2  UNL     1      -0.055  -0.414  -0.789  1.00  0.00    -0.304 N 
ATOM      4  H2  UNL     1       0.550   0.378  -0.571  1.00  0.00     0.186 HD
ENDROOT
BRANCH   3   5
HETATM    5  N3  UNL     1      -1.429  -0.182  -0.975  1.00  0.00    -0.266 N 
HETATM    6  C8  UNL     1      -2.287  -0.270   0.131  1.00  0.00     0.270 C 
HETATM    7  O3  UNL     1      -1.794  -0.556   1.263  1.00  0.00    -0.266 OA
ATOM      8  H3  UNL     1      -1.796   0.047  -1.899  1.00  0.00     0.190 HD
BRANCH   6   9
HETATM    9  C9  UNL     1      -3.725  -0.036  -0.015  1.00  0.00     0.033 A 
HETATM   10  C10 UNL     1      -4.328   0.286  -1.199  1.00  0.00     0.019 A 
HETATM   11  C11 UNL     1      -5.714   0.499  -1.279  1.00  0.00     0.037 A 
HETATM   12  C12 UNL     1      -6.530   0.394  -0.176  1.00  0.00     0.102 A 
HETATM   13  C13 UNL     1      -5.922   0.068   1.018  1.00  0.00     0.037 A 
HETATM   14  C14 UNL     1      -4.563  -0.142   1.104  1.00  0.00     0.019 A 
BRANCH  12  15
HETATM   15  N4  UNL     1      -7.927   0.615  -0.291  1.00  0.00    -0.116 N 
HETATM   16  O4  UNL     1      -8.429   0.906  -1.389  1.00  0.00    -0.532 OA
HETATM   17  O5  UNL     1      -8.760   0.516   0.792  1.00  0.00    -0.532 OA
ENDBRANCH  12  15
ENDBRANCH   6   9
ENDBRANCH   3   5
BRANCH   2  18
HETATM   18  C3  UNL     1       1.922  -1.733  -0.672  1.00  0.00     0.234 C 
BRANCH  18  19
HETATM   19  O1  UNL     1       2.496  -0.494  -0.392  1.00  0.00    -0.298 OA
BRANCH  19  20
HETATM   20  C4  UNL     1       3.819  -0.247  -0.141  1.00  0.00     0.362 C 
HETATM   21  O2  UNL     1       4.613  -1.228  -0.162  1.00  0.00    -0.238 OA
HETATM   22  N1  UNL     1       4.239   1.076   0.127  1.00  0.00    -0.315 N 
ATOM     23  H1  UNL     1       3.549   1.827   0.130  1.00  0.00     0.166 HD
BRANCH  22  24
HETATM   24  C5  UNL     1       5.627   1.390   0.398  1.00  0.00     0.105 C 
HETATM   25  C6  UNL     1       5.829   2.863   0.653  1.00  0.00     0.056 C 
HETATM   26  C7  UNL     1       6.039   0.608   1.626  1.00  0.00     0.056 C 
HETATM   27 CL1  UNL     1       6.700   0.912  -0.929  1.00  0.00    -0.096 Cl
ENDBRANCH  22  24
ENDBRANCH  19  20
ENDBRANCH  18  19
ENDBRANCH   2  18
TORSDOF 7
