REMARK  5 active torsions:
REMARK  status: ('A' for Active; 'I' for Inactive)
REMARK       I    between atoms: C1_2  and  N1_3 
REMARK    1  A    between atoms: C1_2  and  C8_17 
REMARK    2  A    between atoms: N1_3  and  N2_5 
REMARK    3  A    between atoms: N2_5  and  S1_7 
REMARK    4  A    between atoms: S1_7  and  C2_10 
REMARK    5  A    between atoms: C11_20  and  N3_21 
ROOT
HETATM    1  O1  UNL     1      -1.394   1.987   1.087  1.00  0.00    -0.266 OA
HETATM    2  C1  UNL     1      -1.387   0.734   0.850  1.00  0.00     0.270 C 
HETATM    3  N1  UNL     1      -0.295  -0.058   1.310  1.00  0.00    -0.256 N 
ATOM      4  H1  UNL     1      -0.300  -1.060   1.119  1.00  0.00     0.191 HD
ENDROOT
BRANCH   3   5
HETATM    5  N2  UNL     1       0.770   0.481   2.005  1.00  0.00    -0.220 N 
ATOM      6  H2  UNL     1       0.934   0.306   2.996  1.00  0.00     0.200 HD
BRANCH   5   7
HETATM    7  S1  UNL     1       1.784   1.464   1.057  1.00  0.00     0.276 S 
HETATM    8  O2  UNL     1       2.114   2.789   1.736  1.00  0.00    -0.199 OA
HETATM    9  O3  UNL     1       1.106   1.761  -0.286  1.00  0.00    -0.199 OA
BRANCH   7  10
HETATM   10  C2  UNL     1       3.314   0.725   0.648  1.00  0.00     0.081 A 
HETATM   11  C3  UNL     1       3.343  -0.071  -0.492  1.00  0.00     0.027 A 
HETATM   12  C4  UNL     1       4.496  -0.694  -0.925  1.00  0.00     0.025 A 
HETATM   13  C5  UNL     1       5.659  -0.500  -0.172  1.00  0.00     0.034 A 
HETATM   14 CL1  UNL     1       7.109  -1.283  -0.723  1.00  0.00    -0.084 Cl
HETATM   15  C6  UNL     1       5.617   0.299   0.966  1.00  0.00     0.025 A 
HETATM   16  C7  UNL     1       4.460   0.916   1.389  1.00  0.00     0.027 A 
ENDBRANCH   7  10
ENDBRANCH   5   7
ENDBRANCH   3   5
BRANCH   2  17
HETATM   17  C8  UNL     1      -2.505   0.193   0.118  1.00  0.00     0.033 A 
HETATM   18  C9  UNL     1      -2.770  -1.155   0.008  1.00  0.00     0.019 A 
HETATM   19  C10 UNL     1      -3.849  -1.618  -0.713  1.00  0.00     0.037 A 
HETATM   20  C11 UNL     1      -4.721  -0.768  -1.361  1.00  0.00     0.102 A 
HETATM   21  C12 UNL     1      -4.471   0.581  -1.261  1.00  0.00     0.037 A 
HETATM   22  C13 UNL     1      -3.392   1.053  -0.542  1.00  0.00     0.019 A 
BRANCH  20  23
HETATM   23  N3  UNL     1      -5.834  -1.259  -2.116  1.00  0.00    -0.116 N 
HETATM   24  O4  UNL     1      -6.096  -2.461  -2.211  1.00  0.00    -0.532 OA
HETATM   25  O5  UNL     1      -6.655  -0.375  -2.766  1.00  0.00    -0.532 OA
ENDBRANCH  20  23
ENDBRANCH   2  17
TORSDOF 5
