REMARK  7 active torsions:
REMARK  status: ('A' for Active; 'I' for Inactive)
REMARK    1  A    between atoms: C1_2  and  C2_3 
REMARK       I    between atoms: C1_2  and  N1_15 
REMARK    2  A    between atoms: C2_3  and  O2_4 
REMARK    3  A    between atoms: O2_4  and  C3_5 
REMARK    4  A    between atoms: C3_5  and  C4_7 
REMARK    5  A    between atoms: C4_7  and  C5_8 
REMARK    6  A    between atoms: N1_15  and  N2_17 
REMARK       I    between atoms: N2_17  and  C11_19 
REMARK    7  A    between atoms: C11_19  and  C12_21 
ROOT
HETATM    1  O1  UNL     1      -1.599   0.334  -0.712  1.00  0.00    -0.269 OA
HETATM    2  C1  UNL     1      -1.438  -0.565   0.138  1.00  0.00     0.260 C 
HETATM    3  N1  UNL     1      -2.595  -1.167   0.688  1.00  0.00    -0.265 N 
ATOM      4  H1  UNL     1      -2.477  -1.906   1.381  1.00  0.00     0.190 HD
ENDROOT
BRANCH   2   5
HETATM    5  C2  UNL     1      -0.067  -0.959   0.531  1.00  0.00     0.283 C 
BRANCH   5   6
HETATM    6  O2  UNL     1       0.884  -0.234  -0.215  1.00  0.00    -0.312 OA
BRANCH   6   7
HETATM    7  C3  UNL     1       2.248  -0.427   0.013  1.00  0.00     0.263 C 
HETATM    8  O3  UNL     1       2.596  -1.243   0.887  1.00  0.00    -0.265 OA
BRANCH   7   9
HETATM    9  C4  UNL     1       3.213   0.345  -0.797  1.00  0.00     0.149 C 
BRANCH   9  10
HETATM   10  C5  UNL     1       4.613   0.075  -0.456  1.00  0.00    -0.049 A 
HETATM   11  C6  UNL     1       5.315  -0.963  -1.017  1.00  0.00     0.009 A 
HETATM   12  C7  UNL     1       6.627  -1.191  -0.677  1.00  0.00     0.024 A 
HETATM   13  C8  UNL     1       7.273  -0.387   0.233  1.00  0.00     0.034 A 
HETATM   14 CL1  UNL     1       8.944  -0.678   0.659  1.00  0.00    -0.084 Cl
HETATM   15  C9  UNL     1       6.567   0.653   0.794  1.00  0.00     0.024 A 
HETATM   16  C10 UNL     1       5.258   0.881   0.455  1.00  0.00     0.009 A 
ENDBRANCH   9  10
ENDBRANCH   7   9
ENDBRANCH   6   7
ENDBRANCH   5   6
ENDBRANCH   2   5
BRANCH   3  17
HETATM   17  N2  UNL     1      -3.891  -0.795   0.324  1.00  0.00    -0.263 N 
HETATM   18  C11 UNL     1      -4.379   0.473   0.688  1.00  0.00     0.277 C 
HETATM   19  O4  UNL     1      -3.640   1.264   1.343  1.00  0.00    -0.265 OA
ATOM     20  H2  UNL     1      -4.480  -1.439  -0.203  1.00  0.00     0.190 HD
BRANCH  18  21
HETATM   21  C12 UNL     1      -5.719   0.938   0.346  1.00  0.00     0.074 A 
HETATM   22  C13 UNL     1      -6.729   0.323  -0.345  1.00  0.00     0.025 A 
HETATM   23  C14 UNL     1      -7.867   1.000  -0.515  1.00  0.00     0.009 A 
HETATM   24  C15 UNL     1      -7.945   2.260   0.013  1.00  0.00     0.050 A 
HETATM   25  S1  UNL     1      -6.413   2.459   0.737  1.00  0.00    -0.097 SA
ENDBRANCH  18  21
ENDBRANCH   3  17
TORSDOF 7
