REMARK  9 active torsions:
REMARK  status: ('A' for Active; 'I' for Inactive)
REMARK    1  A    between atoms: N1_6  and  C6_8 
REMARK    2  A    between atoms: C6_8  and  C7_9 
REMARK    3  A    between atoms: C6_8  and  C12_17 
REMARK    4  A    between atoms: C7_9  and  C8_10 
REMARK    5  A    between atoms: C8_10  and  S1_11 
REMARK    6  A    between atoms: S1_11  and  C9_12 
REMARK    7  A    between atoms: C9_12  and  N2_14 
REMARK    8  A    between atoms: C12_17  and  O1_18 
REMARK    9  A    between atoms: N3_20  and  O2_22 
ROOT
HETATM    1  C1  UNL     1      -5.116   3.074   2.247  1.00  0.00     0.013 C 
HETATM    2  C2  UNL     1      -4.822   2.162   1.510  1.00  0.00    -0.100 C 
HETATM    3  C3  UNL     1      -4.469   1.038   0.624  1.00  0.00     0.080 A 
HETATM    4  C4  UNL     1      -5.575   0.034   0.432  1.00  0.00     0.037 C 
HETATM    5  C5  UNL     1      -3.078   0.589   0.574  1.00  0.00     0.026 A 
HETATM    6  N1  UNL     1      -2.057  -0.018   1.022  1.00  0.00    -0.382 N 
ATOM      7  H1  UNL     1      -2.122  -0.506   1.915  1.00  0.00     0.160 HD
HETATM    8  C13 UNL     1      -3.612   1.425  -0.569  1.00  0.00     0.155 A 
HETATM    9 CL1  UNL     1      -3.959   0.591  -2.094  1.00  0.00    -0.117 Cl
ENDROOT
BRANCH   6  10
HETATM   10  C6  UNL     1      -0.798  -0.035   0.295  1.00  0.00     0.158 C 
BRANCH  10  11
HETATM   11  C7  UNL     1       0.329   0.222   1.246  1.00  0.00     0.044 C 
BRANCH  11  12
HETATM   12  C8  UNL     1       1.709   0.226   0.613  1.00  0.00     0.084 C 
BRANCH  12  13
HETATM   13  S1  UNL     1       2.135  -1.337  -0.091  1.00  0.00    -0.101 SA
BRANCH  13  14
HETATM   14  C9  UNL     1       3.734  -1.484  -0.783  1.00  0.00     0.135 C 
HETATM   15  S2  UNL     1       4.072  -2.915  -1.604  1.00  0.00    -0.053 SA
BRANCH  14  16
HETATM   16  N2  UNL     1       4.801  -0.569  -0.756  1.00  0.00    -0.375 N 
HETATM   17  C10 UNL     1       6.067  -0.924  -1.429  1.00  0.00     0.150 C 
HETATM   18  C11 UNL     1       4.736   0.697  -0.089  1.00  0.00     0.150 C 
ENDBRANCH  14  16
ENDBRANCH  13  14
ENDBRANCH  12  13
ENDBRANCH  11  12
ENDBRANCH  10  11
BRANCH  10  19
HETATM   19  C12 UNL     1      -0.687  -1.210  -0.557  1.00  0.00     0.158 C 
HETATM   20  N3  UNL     1      -0.935  -2.427  -0.168  1.00  0.00    -0.249 N 
ATOM     21  H3  UNL     1      -0.826  -3.183  -0.844  1.00  0.00     0.196 HD
BRANCH  19  22
HETATM   22  O1  UNL     1      -0.291  -1.118  -1.909  1.00  0.00    -0.347 OA
ATOM     23  H1  UNL     1      -0.219  -1.885  -2.465  1.00  0.00     0.219 HD
ENDBRANCH  19  22
BRANCH  20  24
HETATM   24  O2  UNL     1      -1.334  -2.742   1.100  1.00  0.00    -0.288 OA
ATOM     25  H2  UNL     1      -1.515  -3.630   1.384  1.00  0.00     0.244 HD
ENDBRANCH  20  24
ENDBRANCH  10  19
ENDBRANCH   6  10
TORSDOF 9
