REMARK  5 active torsions:
REMARK  status: ('A' for Active; 'I' for Inactive)
REMARK    1  A    between atoms: C2_2  and  N1_3 
REMARK    2  A    between atoms: C2_2  and  C11_19 
REMARK       I    between atoms: N1_3  and  C3_5 
REMARK    3  A    between atoms: C3_5  and  C4_7 
REMARK    4  A    between atoms: C4_7  and  S1_10 
REMARK    5  A    between atoms: S1_10  and  C7_13 
ROOT
HETATM    1  C4  UNL     1      -0.565  -0.840   0.971  1.00  0.00     0.142 C 
HETATM    2  C5  UNL     1      -0.107  -1.402   2.314  1.00  0.00     0.042 C 
HETATM    3  C6  UNL     1      -0.476  -2.013  -0.004  1.00  0.00     0.042 C 
ENDROOT
BRANCH   1   4
HETATM    4  C3  UNL     1       0.384   0.220   0.605  1.00  0.00     0.241 C 
HETATM    5  N1  UNL     1       1.740  -0.042   0.311  1.00  0.00    -0.345 N 
ATOM      6  H1  UNL     1       2.061  -1.009   0.358  1.00  0.00     0.163 HD
HETATM    7  O1  UNL     1       0.003   1.411   0.545  1.00  0.00    -0.272 OA
BRANCH   5   8
HETATM    8  C2  UNL     1       2.696   0.970  -0.050  1.00  0.00     0.181 C 
HETATM    9  C1  UNL     1       3.760   1.130   1.044  1.00  0.00     0.043 C 
BRANCH   8  10
HETATM   10  C11 UNL     1       3.370   0.730  -1.315  1.00  0.00     0.196 C 
HETATM   11  O4  UNL     1       3.105  -0.284  -1.995  1.00  0.00    -0.646 OA
HETATM   12  O5  UNL     1       4.314   1.614  -1.793  1.00  0.00    -0.646 OA
ENDBRANCH   8  10
ENDBRANCH   5   8
ENDBRANCH   1   4
BRANCH   1  13
HETATM   13  S1  UNL     1      -2.235  -0.351   1.103  1.00  0.00     0.198 S 
HETATM   14  O2  UNL     1      -2.294   0.771   2.134  1.00  0.00    -0.221 OA
HETATM   15  O3  UNL     1      -3.088  -1.490   1.561  1.00  0.00    -0.221 OA
BRANCH  13  16
HETATM   16  C7  UNL     1      -2.911   0.274  -0.398  1.00  0.00     0.102 A 
HETATM   17  C8  UNL     1      -3.974  -0.220  -1.107  1.00  0.00     0.033 A 
HETATM   18  C9  UNL     1      -4.323   0.415  -2.231  1.00  0.00     0.033 A 
HETATM   19  C10 UNL     1      -3.585   1.516  -2.584  1.00  0.00     0.075 A 
HETATM   20 CL1  UNL     1      -3.805   2.554  -4.004  1.00  0.00    -0.076 Cl
HETATM   21  S2  UNL     1      -2.435   1.616  -1.330  1.00  0.00    -0.066 SA
ENDBRANCH  13  16
ENDBRANCH   1  13
TORSDOF 5
