REMARK  7 active torsions:
REMARK  status: ('A' for Active; 'I' for Inactive)
REMARK    1  A    between atoms: C2_2  and  O2_4 
REMARK    2  A    between atoms: O2_4  and  C3_5 
REMARK    3  A    between atoms: C3_5  and  N1_6 
REMARK    4  A    between atoms: C3_5  and  C4_10 
REMARK    5  A    between atoms: C4_10  and  C5_12 
REMARK    6  A    between atoms: N2_14  and  N3_16 
REMARK       I    between atoms: N3_16  and  C6_18 
REMARK    7  A    between atoms: C6_18  and  C7_20 
ROOT
HETATM    1  C5  UNL     1       3.258   2.462   0.177  1.00  0.00     0.169 C 
HETATM    2 CL1  UNL     1       4.444   3.719   0.701  1.00  0.00    -0.059 Cl
HETATM    3  N2  UNL     1       2.107   2.855   0.078  1.00  0.00    -0.284 N 
ATOM      4  H2  UNL     1       2.028   3.844   0.315  1.00  0.00     0.188 HD
ENDROOT
BRANCH   3   5
HETATM    5  N3  UNL     1       0.920   2.335  -0.259  1.00  0.00    -0.265 N 
HETATM    6  C6  UNL     1       0.039   1.864   0.775  1.00  0.00     0.270 C 
HETATM    7  O4  UNL     1       0.383   1.939   1.991  1.00  0.00    -0.266 OA
ATOM      8  H3  UNL     1       0.644   2.274  -1.239  1.00  0.00     0.190 HD
BRANCH   6   9
HETATM    9  C7  UNL     1      -1.238   1.302   0.451  1.00  0.00     0.034 A 
HETATM   10  C8  UNL     1      -1.785   1.323  -0.810  1.00  0.00     0.018 A 
HETATM   11  C9  UNL     1      -3.023   0.763  -1.089  1.00  0.00     0.013 A 
HETATM   12  C10 UNL     1      -3.760   0.156  -0.103  1.00  0.00    -0.026 A 
HETATM   13  C11 UNL     1      -5.003  -0.415  -0.355  1.00  0.00     0.012 A 
HETATM   14  C15 UNL     1      -3.206   0.137   1.166  1.00  0.00    -0.025 A 
HETATM   15  C12 UNL     1      -5.727  -1.020   0.648  1.00  0.00     0.001 A 
HETATM   16  C13 UNL     1      -5.195  -1.051   1.922  1.00  0.00     0.001 A 
HETATM   17  C14 UNL     1      -3.970  -0.484   2.152  1.00  0.00     0.012 A 
HETATM   18  C16 UNL     1      -1.986   0.689   1.443  1.00  0.00     0.029 A 
ENDBRANCH   6   9
ENDBRANCH   3   5
BRANCH   1  19
HETATM   19  C4  UNL     1       3.814   1.173  -0.054  1.00  0.00     0.245 C 
HETATM   20  O3  UNL     1       5.083   1.001   0.139  1.00  0.00    -0.285 OA
BRANCH  19  21
HETATM   21  C3  UNL     1       3.083  -0.023  -0.502  1.00  0.00     0.404 C 
BRANCH  21  22
HETATM   22  O2  UNL     1       3.947  -1.166  -0.522  1.00  0.00    -0.280 OA
BRANCH  22  23
HETATM   23  C2  UNL     1       3.567  -2.271   0.202  1.00  0.00     0.257 C 
HETATM   24  C1  UNL     1       4.434  -3.500   0.216  1.00  0.00     0.126 C 
HETATM   25  O1  UNL     1       2.496  -2.295   0.870  1.00  0.00    -0.266 OA
ENDBRANCH  22  23
ENDBRANCH  21  22
BRANCH  21  26
HETATM   26  N1  UNL     1       2.609   0.226  -1.866  1.00  0.00    -0.045 N 
ATOM     27  H13 UNL     1       3.373   0.325  -2.534  1.00  0.00     0.277 HD
ATOM     28  H12 UNL     1       2.165  -0.593  -2.282  1.00  0.00     0.277 HD
ATOM     29  H11 UNL     1       1.994   1.040  -1.852  1.00  0.00     0.277 HD
ENDBRANCH  21  26
ENDBRANCH  19  21
ENDBRANCH   1  19
TORSDOF 7
