REMARK  7 active torsions:
REMARK  status: ('A' for Active; 'I' for Inactive)
REMARK    1  A    between atoms: C2_2  and  C3_3 
REMARK    2  A    between atoms: C3_3  and  C4_4 
REMARK    3  A    between atoms: C4_4  and  O2_6 
REMARK    4  A    between atoms: O2_6  and  C5_7 
REMARK    5  A    between atoms: C5_7  and  C6_8 
REMARK       I    between atoms: C6_8  and  N1_10 
REMARK    6  A    between atoms: C10_14  and  C12_16 
REMARK    7  A    between atoms: C13_19  and  C14_21 
ROOT
HETATM    1  O2  UNL     1       0.809  -0.044   0.240  1.00  0.00    -0.308 OA
ENDROOT
BRANCH   1   2
HETATM    2  C4  UNL     1       1.983  -0.817   0.325  1.00  0.00     0.291 C 
HETATM    3  O1  UNL     1       1.889  -2.051   0.322  1.00  0.00    -0.260 OA
BRANCH   2   4
HETATM    4  C3  UNL     1       3.304  -0.166   0.416  1.00  0.00     0.040 C 
HETATM    5  C13 UNL     1       4.389  -0.869   0.497  1.00  0.00     0.068 C 
HETATM    6 CL1  UNL     1       4.167  -2.651   0.493  1.00  0.00    -0.082 Cl
BRANCH   4   7
HETATM    7  C2  UNL     1       3.267   1.334   0.409  1.00  0.00     0.042 C 
HETATM    8  C1  UNL     1       2.798   1.883  -0.906  1.00  0.00     0.010 C 
ENDBRANCH   4   7
BRANCH   5   9
HETATM    9  C14 UNL     1       5.776  -0.460   0.550  1.00  0.00     0.021 C 
HETATM   10  C15 UNL     1       6.817  -1.603   0.673  1.00  0.00     0.069 C 
HETATM   11  N2  UNL     1       6.304   0.652   0.519  1.00  0.00    -0.401 N 
ATOM     12  H22 UNL     1       5.619   1.404   0.438  1.00  0.00     0.156 HD
ATOM     13  H21 UNL     1       7.282   0.940   0.556  1.00  0.00     0.156 HD
ENDBRANCH   5   9
ENDBRANCH   2   4
ENDBRANCH   1   2
BRANCH   1  14
HETATM   14  C5  UNL     1      -0.405  -0.718   0.156  1.00  0.00     0.281 C 
BRANCH  14  15
HETATM   15  C6  UNL     1      -1.550   0.221   0.072  1.00  0.00     0.245 C 
HETATM   16  O3  UNL     1      -1.276   1.460   0.087  1.00  0.00    -0.271 OA
HETATM   17  N1  UNL     1      -2.879  -0.251  -0.021  1.00  0.00    -0.331 N 
HETATM   18  C7  UNL     1      -3.249  -1.643  -0.045  1.00  0.00     0.127 C 
HETATM   19  C10 UNL     1      -4.053   0.557  -0.106  1.00  0.00     0.120 C 
HETATM   20  C8  UNL     1      -4.665  -1.698  -0.565  1.00  0.00     0.023 C 
HETATM   21  C9  UNL     1      -5.243  -0.362  -0.181  1.00  0.00     0.044 C 
HETATM   22  C11 UNL     1      -4.067   1.401  -1.376  1.00  0.00     0.050 C 
BRANCH  19  23
HETATM   23  C12 UNL     1      -4.231   1.428   1.094  1.00  0.00     0.202 C 
HETATM   24  O4  UNL     1      -5.194   2.215   1.200  1.00  0.00    -0.646 OA
HETATM   25  O5  UNL     1      -3.315   1.372   2.124  1.00  0.00    -0.646 OA
ENDBRANCH  19  23
ENDBRANCH  14  15
ENDBRANCH   1  14
TORSDOF 7
