REMARK  7 active torsions:
REMARK  status: ('A' for Active; 'I' for Inactive)
REMARK    1  A    between atoms: C2_2  and  N1_3 
REMARK    2  A    between atoms: C2_2  and  C10_16 
REMARK       I    between atoms: N1_3  and  C3_5 
REMARK    3  A    between atoms: C3_5  and  C4_7 
REMARK    4  A    between atoms: C7_10  and  N2_11 
REMARK       I    between atoms: C10_16  and  N3_18 
REMARK    5  A    between atoms: N3_18  and  N4_20 
REMARK    6  A    between atoms: N4_20  and  C11_21 
REMARK    7  A    between atoms: C11_21  and  C12_23 
ROOT
HETATM    1  C1  UNL     1       0.094   0.769  -3.165  1.00  0.00     0.042 C 
HETATM    2  C2  UNL     1       0.079   0.079  -1.816  1.00  0.00     0.175 C 
ENDROOT
BRANCH   2   3
HETATM    3  N1  UNL     1      -1.187   0.242  -1.113  1.00  0.00    -0.344 N 
HETATM    4  C3  UNL     1      -2.068  -0.859  -0.935  1.00  0.00     0.252 C 
HETATM    5  O1  UNL     1      -1.721  -1.964  -1.418  1.00  0.00    -0.268 OA
ATOM      6  H1  UNL     1      -1.444   1.158  -0.744  1.00  0.00     0.163 HD
BRANCH   4   7
HETATM    7  C4  UNL     1      -3.330  -0.709  -0.213  1.00  0.00     0.032 A 
HETATM    8  C5  UNL     1      -4.293  -1.683  -0.350  1.00  0.00     0.019 A 
HETATM    9  C6  UNL     1      -5.491  -1.624   0.350  1.00  0.00     0.037 A 
HETATM   10  C7  UNL     1      -5.757  -0.582   1.209  1.00  0.00     0.102 A 
HETATM   11  C8  UNL     1      -4.793   0.392   1.344  1.00  0.00     0.037 A 
HETATM   12  C9  UNL     1      -3.576   0.343   0.639  1.00  0.00     0.019 A 
BRANCH  10  13
HETATM   13  N2  UNL     1      -6.969  -0.514   1.954  1.00  0.00    -0.116 N 
HETATM   14  O2  UNL     1      -7.165   0.425   2.717  1.00  0.00    -0.532 OA
HETATM   15  O3  UNL     1      -7.938  -1.469   1.855  1.00  0.00    -0.532 OA
ENDBRANCH  10  13
ENDBRANCH   4   7
ENDBRANCH   2   3
BRANCH   2  16
HETATM   16  C10 UNL     1       1.195   0.605  -1.029  1.00  0.00     0.268 C 
HETATM   17  O4  UNL     1       1.022   1.393  -0.029  1.00  0.00    -0.269 OA
HETATM   18  N3  UNL     1       2.580   0.279  -1.304  1.00  0.00    -0.200 N 
ATOM     19  H3  UNL     1       2.757  -0.351  -2.086  1.00  0.00     0.205 HD
BRANCH  18  20
HETATM   20  N4  UNL     1       3.595   0.700  -0.667  1.00  0.00    -0.311 NA
BRANCH  20  21
HETATM   21  C11 UNL     1       4.544   1.091  -0.066  1.00  0.00     0.216 C 
HETATM   22 CL1  UNL     1       5.650   2.289  -0.767  1.00  0.00    -0.048 Cl
BRANCH  21  23
HETATM   23  C12 UNL     1       4.894   0.661   1.330  1.00  0.00     0.164 C 
HETATM   24  C13 UNL     1       4.061  -0.506   1.731  1.00  0.00     0.060 C 
HETATM   25  C14 UNL     1       6.351   0.398   1.487  1.00  0.00     0.060 C 
HETATM   26  F1  UNL     1       4.577   1.760   2.129  1.00  0.00    -0.235 F 
ENDBRANCH  21  23
ENDBRANCH  20  21
ENDBRANCH  18  20
ENDBRANCH   2  16
TORSDOF 7
