REMARK  2 active torsions:
REMARK  status: ('A' for Active; 'I' for Inactive)
REMARK    1  A    between atoms: C2_2  and  C4_4 
REMARK    2  A    between atoms: C5_5  and  C6_6 
ROOT
HETATM    1  C6  UNL     1       1.097  -0.875   0.056  1.00  0.00     0.147 C 
HETATM    2  C7  UNL     1       1.638   0.327   0.768  1.00  0.00     0.063 C 
HETATM    3  C8  UNL     1       3.101   0.552   0.599  1.00  0.00     0.237 C 
HETATM    4  N1  UNL     1       3.608   0.195  -0.702  1.00  0.00    -0.054 N 
ATOM      5  H11 UNL     1       4.336  -0.515  -0.629  1.00  0.00     0.279 HD
ATOM      6  H12 UNL     1       4.159   0.955  -1.102  1.00  0.00     0.279 HD
HETATM    7  C9  UNL     1       2.563  -0.223  -1.610  1.00  0.00     0.400 C 
HETATM    8  O1  UNL     1       1.835  -1.250  -1.051  1.00  0.00    -0.355 OA
ENDROOT
BRANCH   1   9
HETATM    9  C5  UNL     1      -0.317  -0.610  -0.287  1.00  0.00     0.001 C 
HETATM   10  C4  UNL     1      -1.234  -0.534   0.650  1.00  0.00    -0.024 C 
BRANCH  10  11
HETATM   11  C2  UNL     1      -2.673  -0.272   0.392  1.00  0.00    -0.001 C 
HETATM   12  C1  UNL     1      -3.019  -0.209  -1.059  1.00  0.00     0.013 C 
HETATM   13  C3  UNL     1      -3.059   1.000   1.117  1.00  0.00     0.013 C 
ENDBRANCH  10  11
ENDBRANCH   1   9
TORSDOF 2
