REMARK  3 active torsions:
REMARK  status: ('A' for Active; 'I' for Inactive)
REMARK    1  A    between atoms: C2_2  and  C4_4 
REMARK    2  A    between atoms: C4_4  and  O1_5 
REMARK    3  A    between atoms: C4_4  and  C5_7 
ROOT
HETATM    1  C4  UNL     1      -0.354   0.191  -0.606  1.00  0.00     0.127 C 
ENDROOT
BRANCH   1   2
HETATM    2  C2  UNL     1      -1.415   0.511   0.375  1.00  0.00     0.006 C 
HETATM    3  C1  UNL     1      -2.709   0.683  -0.456  1.00  0.00     0.012 C 
HETATM    4  C3  UNL     1      -1.727  -0.666   1.273  1.00  0.00     0.012 C 
ENDBRANCH   1   2
BRANCH   1   5
HETATM    5  O1  UNL     1      -0.279   1.279  -1.534  1.00  0.00    -0.395 OA
ATOM      6  H1  UNL     1       0.402   1.074  -2.164  1.00  0.00     0.210 HD
ENDBRANCH   1   5
BRANCH   1   7
HETATM    7  C5  UNL     1       1.009  -0.039  -0.157  1.00  0.00     0.040 C 
HETATM    8  C6  UNL     1       1.324  -1.136   0.789  1.00  0.00     0.035 C 
HETATM    9  C7  UNL     1       2.817  -0.797   1.001  1.00  0.00     0.168 C 
HETATM   10  O2  UNL     1       2.904   0.569   0.910  1.00  0.00    -0.391 OA
HETATM   11  C8  UNL     1       1.687   1.110   0.544  1.00  0.00     0.174 C 
ENDBRANCH   1   7
TORSDOF 3
