REMARK  3 active torsions:
REMARK  status: ('A' for Active; 'I' for Inactive)
REMARK    1  A    between atoms: O1_1  and  C1_3 
REMARK    2  A    between atoms: C1_3  and  C2_4 
REMARK    3  A    between atoms: C1_3  and  C6_8 
ROOT
HETATM    1  C1  UNL     1      -0.069  -0.567  -0.713  1.00  0.00     0.151 C 
ENDROOT
BRANCH   1   2
HETATM    2  O1  UNL     1      -0.114  -1.431   0.374  1.00  0.00    -0.393 OA
ATOM      3  H1  UNL     1       0.565  -2.082   0.244  1.00  0.00     0.210 HD
ENDBRANCH   1   2
BRANCH   1   4
HETATM    4  C2  UNL     1      -1.160   0.479  -0.505  1.00  0.00     0.017 C 
HETATM    5  C3  UNL     1      -2.550  -0.090  -0.418  1.00  0.00     0.007 C 
HETATM    6  C4  UNL     1      -2.457   0.004   1.077  1.00  0.00     0.001 C 
HETATM    7  C5  UNL     1      -1.317   0.973   0.908  1.00  0.00     0.007 C 
ENDBRANCH   1   4
BRANCH   1   8
HETATM    8  C6  UNL     1       1.276   0.077  -0.785  1.00  0.00     0.152 C 
HETATM    9  C7  UNL     1       2.448  -0.820  -0.518  1.00  0.00     0.061 C 
HETATM   10  C8  UNL     1       2.981   0.393   0.247  1.00  0.00     0.171 C 
HETATM   11  O2  UNL     1       1.642   0.827   0.324  1.00  0.00    -0.383 OA
ENDBRANCH   1   8
TORSDOF 3
