REMARK  4 active torsions:
REMARK  status: ('A' for Active; 'I' for Inactive)
REMARK    1  A    between atoms: N1_4  and  C4_5 
REMARK    2  A    between atoms: C4_5  and  O1_6 
REMARK    3  A    between atoms: C5_8  and  N2_9 
REMARK       I    between atoms: N2_9  and  C6_11 
REMARK    4  A    between atoms: C6_11  and  C7_13 
ROOT
HETATM    1  N2  UNL     1       0.367   1.304   0.286  1.00  0.00    -0.332 N 
ATOM      2  H2  UNL     1       0.106   0.408  -0.127  1.00  0.00     0.168 HD
HETATM    3  C6  UNL     1       1.733   1.606   0.596  1.00  0.00     0.230 C 
HETATM    4  O2  UNL     1       2.000   2.717   1.101  1.00  0.00    -0.272 OA
ENDROOT
BRANCH   1   5
HETATM    5  C5  UNL     1      -0.599   2.279   0.568  1.00  0.00     0.146 C 
HETATM    6  C4  UNL     1      -1.993   2.124   0.291  1.00  0.00     0.153 C 
BRANCH   6   7
HETATM    7  N1  UNL     1      -2.824   1.184  -0.285  1.00  0.00    -0.356 N 
HETATM    8  C3  UNL     1      -2.467  -0.045  -0.917  1.00  0.00     0.156 C 
HETATM    9  C2  UNL     1      -3.006  -1.238  -0.133  1.00  0.00     0.136 C 
HETATM   10  C1  UNL     1      -3.203  -2.435  -1.036  1.00  0.00     0.041 C 
HETATM   11  O3  UNL     1      -4.117  -0.903   0.611  1.00  0.00    -0.373 OA
HETATM   12  C18 UNL     1      -4.954   0.050   0.120  1.00  0.00     0.070 C 
HETATM   13  C17 UNL     1      -4.319   1.365  -0.255  1.00  0.00     0.162 C 
HETATM   14  C19 UNL     1      -5.947   0.357   1.255  1.00  0.00     0.047 C 
HETATM   15  C20 UNL     1      -5.791  -0.421  -1.049  1.00  0.00     0.047 C 
ENDBRANCH   6   7
BRANCH   6  16
HETATM   16  O1  UNL     1      -2.682   3.191   0.711  1.00  0.00    -0.345 OA
ATOM     17  H1  UNL     1      -2.110   3.838   1.107  1.00  0.00     0.219 HD
ENDBRANCH   6  16
ENDBRANCH   1   5
BRANCH   3  18
HETATM   18  C7  UNL     1       2.837   0.671   0.349  1.00  0.00     0.042 C 
HETATM   19  C8  UNL     1       4.156   1.252   0.773  1.00  0.00     0.024 C 
HETATM   20  C9  UNL     1       5.250   0.209   0.693  1.00  0.00    -0.013 C 
HETATM   21  C10 UNL     1       4.884  -0.964   1.556  1.00  0.00     0.009 C 
HETATM   22  C14 UNL     1       5.400  -0.188  -0.755  1.00  0.00     0.009 C 
HETATM   23  C11 UNL     1       3.645  -1.613   1.016  1.00  0.00    -0.013 C 
HETATM   24  C12 UNL     1       3.787  -1.985  -0.443  1.00  0.00     0.009 C 
HETATM   25  C16 UNL     1       2.517  -0.613   1.114  1.00  0.00     0.024 C 
HETATM   26  C13 UNL     1       4.065  -0.732  -1.232  1.00  0.00    -0.013 C 
HETATM   27  C15 UNL     1       2.959   0.279  -1.106  1.00  0.00     0.024 C 
ENDBRANCH   3  18
TORSDOF 4
