REMARK  3 active torsions:
REMARK  status: ('A' for Active; 'I' for Inactive)
REMARK    1  A    between atoms: N1_2  and  C3_4 
REMARK    2  A    between atoms: C3_4  and  C4_5 
REMARK    3  A    between atoms: C4_5  and  N2_6 
ROOT
HETATM    1  N2  UNL     1       2.665   0.272  -0.297  1.00  0.00    -0.345 N 
HETATM    2  C5  UNL     1       1.790  -0.796   0.107  1.00  0.00     0.183 C 
HETATM    3  C6  UNL     1       0.366  -0.498  -0.045  1.00  0.00     0.038 A 
HETATM    4  N3  UNL     1      -0.523  -1.477   0.149  1.00  0.00    -0.360 N 
ATOM      5  H3  UNL     1      -0.172  -2.402   0.398  1.00  0.00     0.165 HD
HETATM    6  C7  UNL     1      -1.859  -1.315   0.035  1.00  0.00     0.020 A 
HETATM    7  C8  UNL     1      -2.385  -0.057  -0.306  1.00  0.00     0.024 A 
HETATM    8  C9  UNL     1      -1.473   0.936  -0.501  1.00  0.00     0.189 A 
HETATM    9  O1  UNL     1      -1.887   2.060  -0.802  1.00  0.00    -0.287 OA
HETATM   10  C10 UNL     1      -0.097   0.738  -0.376  1.00  0.00     0.025 A 
HETATM   11  C11 UNL     1       0.748   1.929  -0.622  1.00  0.00     0.148 C 
HETATM   12  C12 UNL     1       2.156   1.526  -0.687  1.00  0.00     0.224 C 
HETATM   13  O2  UNL     1       2.970   2.379  -1.132  1.00  0.00    -0.273 OA
HETATM   14  C13 UNL     1      -3.825   0.019  -0.404  1.00  0.00    -0.007 C 
HETATM   15  C14 UNL     1      -4.395  -0.024   1.015  1.00  0.00     0.014 C 
HETATM   16  C15 UNL     1      -4.605   1.420   1.411  1.00  0.00     0.001 C 
HETATM   17  C16 UNL     1      -4.888   2.126   0.115  1.00  0.00     0.001 C 
HETATM   18  C17 UNL     1      -4.484   1.176  -0.999  1.00  0.00     0.014 C 
HETATM   19  C18 UNL     1      -4.283  -1.230  -1.179  1.00  0.00     0.015 C 
HETATM   20  C19 UNL     1      -4.008  -2.485  -0.433  1.00  0.00     0.007 C 
HETATM   21  C20 UNL     1      -2.703  -2.500   0.287  1.00  0.00     0.058 C 
ENDROOT
BRANCH   1  22
HETATM   22  C4  UNL     1       4.083   0.034  -0.290  1.00  0.00     0.156 C 
BRANCH  22  23
HETATM   23  C3  UNL     1       4.730   0.368   1.034  1.00  0.00     0.291 C 
BRANCH  23  24
HETATM   24  N1  UNL     1       6.141   0.120   1.010  1.00  0.00     0.081 N 
HETATM   25  C1  UNL     1       6.881   1.018   0.144  1.00  0.00     0.309 C 
HETATM   26  C2  UNL     1       6.507  -1.220   0.666  1.00  0.00     0.309 C 
ENDBRANCH  23  24
ENDBRANCH  22  23
ENDBRANCH   1  22
TORSDOF 3
