REMARK  5 active torsions:
REMARK  status: ('A' for Active; 'I' for Inactive)
REMARK    1  A    between atoms: C2_2  and  C3_3 
REMARK    2  A    between atoms: C3_3  and  C4_4 
REMARK    3  A    between atoms: C4_4  and  C5_5 
REMARK    4  A    between atoms: C6_6  and  C7_7 
REMARK    5  A    between atoms: N2_21  and  C17_22 
ROOT
HETATM    1  C7  UNL     1       1.634   0.097  -0.523  1.00  0.00     0.018 A 
HETATM    2  C8  UNL     1       2.106   0.344  -1.789  1.00  0.00     0.023 A 
HETATM    3  C9  UNL     1       1.283   0.329  -2.895  1.00  0.00     0.039 A 
HETATM    4  C10 UNL     1      -0.085   0.050  -2.710  1.00  0.00     0.078 A 
HETATM    5  C11 UNL     1      -0.590  -0.201  -1.465  1.00  0.00     0.014 A 
HETATM    6  C12 UNL     1       0.292  -0.173  -0.378  1.00  0.00     0.033 A 
HETATM    7  C13 UNL     1      -1.991  -0.491  -1.236  1.00  0.00     0.148 C 
HETATM    8  C14 UNL     1      -2.695  -0.801  -2.530  1.00  0.00     0.073 C 
HETATM    9  C15 UNL     1      -2.304   0.252  -3.578  1.00  0.00     0.179 C 
HETATM   10  O1  UNL     1      -0.927   0.030  -3.808  1.00  0.00    -0.350 OA
HETATM   11  N1  UNL     1      -2.088  -1.673  -0.401  1.00  0.00    -0.320 N 
ATOM     12  H1  UNL     1      -1.409  -2.430  -0.322  1.00  0.00     0.165 HD
HETATM   13  C16 UNL     1      -3.318  -1.556   0.279  1.00  0.00     0.326 C 
HETATM   14  O2  UNL     1      -3.941  -2.518   0.802  1.00  0.00    -0.247 OA
HETATM   15  N2  UNL     1      -3.728  -0.188   0.273  1.00  0.00    -0.264 N 
HETATM   16  C20 UNL     1      -2.710   0.513  -0.428  1.00  0.00     0.261 C 
HETATM   17  O3  UNL     1      -2.517   1.749  -0.333  1.00  0.00    -0.270 OA
ENDROOT
BRANCH  15  18
HETATM   18  C17 UNL     1      -4.943   0.334   0.874  1.00  0.00     0.089 C 
HETATM   19  C18 UNL     1      -4.631   1.316   1.987  1.00  0.00     0.032 C 
HETATM   20  C19 UNL     1      -5.854   0.979  -0.132  1.00  0.00     0.032 C 
ENDBRANCH  15  18
BRANCH   1  21
HETATM   21  C6  UNL     1       2.470   0.106   0.649  1.00  0.00    -0.067 C 
HETATM   22  C5  UNL     1       3.154   0.119   1.642  1.00  0.00    -0.101 C 
BRANCH  22  23
HETATM   23  C4  UNL     1       3.978   0.156   2.862  1.00  0.00     0.094 C 
BRANCH  23  24
HETATM   24  C3  UNL     1       5.362  -0.387   2.609  1.00  0.00     0.012 C 
BRANCH  24  25
HETATM   25  C2  UNL     1       6.086   0.422   1.543  1.00  0.00    -0.004 C 
HETATM   26  C1  UNL     1       7.471  -0.133   1.300  1.00  0.00     0.005 C 
ENDBRANCH  24  25
ENDBRANCH  23  24
ENDBRANCH  22  23
ENDBRANCH   1  21
TORSDOF 5
