REMARK  3 active torsions:
REMARK  status: ('A' for Active; 'I' for Inactive)
REMARK    1  A    between atoms: N2_5  and  C4_6 
REMARK    2  A    between atoms: C13_16  and  C14_17 
REMARK    3  A    between atoms: C14_17  and  N3_18 
ROOT
HETATM    1  C4  UNL     1       0.539   0.601   0.020  1.00  0.00    -0.005 C 
HETATM    2  C5  UNL     1      -0.086   1.167   1.220  1.00  0.00     0.061 C 
HETATM    3  C6  UNL     1      -1.444   0.712   1.577  1.00  0.00     0.028 C 
HETATM    4  C7  UNL     1      -1.451  -0.786   1.625  1.00  0.00     0.015 C 
HETATM    5  C8  UNL     1      -1.826  -1.461   0.386  1.00  0.00    -0.000 C 
HETATM    6  C9  UNL     1      -2.903  -2.356   0.793  1.00  0.00     0.013 C 
HETATM    7  C10 UNL     1      -3.908  -1.336   1.404  1.00  0.00     0.084 C 
HETATM    8  C11 UNL     1      -3.740   0.060   0.938  1.00  0.00     0.156 C 
HETATM    9  O1  UNL     1      -4.803   0.616   0.607  1.00  0.00    -0.293 OA
HETATM   10  C12 UNL     1      -2.609   1.045   0.742  1.00  0.00     0.000 C 
HETATM   11  C13 UNL     1      -2.379   1.451  -0.668  1.00  0.00    -0.022 C 
HETATM   12  C15 UNL     1      -1.450   0.627  -1.484  1.00  0.00     0.019 C 
HETATM   13  C16 UNL     1      -0.342  -0.145  -0.917  1.00  0.00    -0.031 C 
HETATM   14  C17 UNL     1      -0.671  -1.581  -0.447  1.00  0.00    -0.008 A 
HETATM   15  C18 UNL     1      -0.630  -2.690  -1.461  1.00  0.00     0.016 A 
HETATM   16  C19 UNL     1       0.364  -2.577  -0.306  1.00  0.00     0.016 A 
ENDROOT
BRANCH   1  17
HETATM   17  N2  UNL     1       1.794  -0.081   0.135  1.00  0.00    -0.283 NA
HETATM   18  C3  UNL     1       2.781   0.375  -0.832  1.00  0.00     0.125 C 
HETATM   19  C2  UNL     1       3.943   1.092  -0.237  1.00  0.00     0.286 C 
HETATM   20  N1  UNL     1       4.719   0.285   0.657  1.00  0.00     0.086 N 
HETATM   21  C1  UNL     1       5.795  -0.419  -0.006  1.00  0.00     0.310 C 
HETATM   22  C21 UNL     1       3.802  -0.658   1.289  1.00  0.00     0.286 C 
HETATM   23  C20 UNL     1       2.446   0.014   1.415  1.00  0.00     0.125 C 
ENDBRANCH   1  17
BRANCH  11  24
HETATM   24  C14 UNL     1      -2.163   2.955  -0.858  1.00  0.00     0.269 C 
BRANCH  24  25
HETATM   25  N3  UNL     1      -1.973   3.290  -2.266  1.00  0.00    -0.075 N 
ATOM     26  H33 UNL     1      -1.215   2.748  -2.681  1.00  0.00     0.274 HD
ATOM     27  H32 UNL     1      -2.744   2.947  -2.840  1.00  0.00     0.274 HD
ATOM     28  H31 UNL     1      -1.829   4.292  -2.393  1.00  0.00     0.274 HD
ENDBRANCH  24  25
ENDBRANCH  11  24
TORSDOF 3
