REMARK  4 active torsions:
REMARK  status: ('A' for Active; 'I' for Inactive)
REMARK    1  A    between atoms: C3_3  and  C19_24 
REMARK    2  A    between atoms: C4_4  and  C5_5 
REMARK       I    between atoms: N2_12  and  C9_13 
REMARK    3  A    between atoms: C9_13  and  C10_15 
REMARK    4  A    between atoms: C10_15  and  C11_16 
ROOT
HETATM    1  C1  UNL     1       5.611   0.452  -2.099  1.00  0.00     0.018 C 
HETATM    2  C2  UNL     1       5.016   0.762  -1.091  1.00  0.00    -0.074 C 
HETATM    3  C3  UNL     1       4.302   1.108   0.103  1.00  0.00     0.060 C 
HETATM    4  C4  UNL     1       3.026   0.786   0.195  1.00  0.00     0.023 C 
ENDROOT
BRANCH   3   5
HETATM    5  C19 UNL     1       5.026   1.799   1.154  1.00  0.00     0.163 C 
HETATM    6  C20 UNL     1       6.448   2.124   0.979  1.00  0.00     0.097 C 
HETATM    7  O3  UNL     1       4.368   2.088   2.190  1.00  0.00    -0.292 OA
ENDBRANCH   3   5
BRANCH   4   8
HETATM    8  C5  UNL     1       2.340   0.086  -0.902  1.00  0.00     0.123 C 
HETATM    9  N1  UNL     1       1.932   1.095  -1.861  1.00  0.00    -0.349 N 
HETATM   10  C6  UNL     1       0.690   1.738  -1.643  1.00  0.00     0.243 C 
ATOM     11  H1  UNL     1       2.518   1.332  -2.662  1.00  0.00     0.163 HD
HETATM   12  O1  UNL     1       0.473   2.862  -2.162  1.00  0.00    -0.269 OA
HETATM   13  C7  UNL     1      -0.317   1.091  -0.823  1.00  0.00     0.100 C 
HETATM   14  C8  UNL     1      -0.082  -0.086  -0.284  1.00  0.00     0.030 C 
HETATM   15  N2  UNL     1      -0.887  -0.932   0.554  1.00  0.00    -0.321 N 
HETATM   16  C17 UNL     1       1.224  -0.803  -0.502  1.00  0.00     0.024 C 
HETATM   17  C9  UNL     1      -2.260  -0.865   0.868  1.00  0.00     0.224 C 
HETATM   18  C15 UNL     1      -0.010  -1.965   1.080  1.00  0.00     0.133 C 
HETATM   19  O2  UNL     1      -2.723  -1.773   1.649  1.00  0.00    -0.273 OA
HETATM   20  C16 UNL     1       1.378  -1.404   0.891  1.00  0.00     0.038 C 
HETATM   21  C18 UNL     1       1.036  -1.987  -1.445  1.00  0.00     0.024 C 
BRANCH  17  22
HETATM   22  C10 UNL     1      -3.228   0.135   0.397  1.00  0.00     0.111 C 
BRANCH  22  23
HETATM   23  C11 UNL     1      -4.641  -0.174   0.897  1.00  0.00    -0.043 C 
HETATM   24  C12 UNL     1      -5.034  -1.520   0.376  1.00  0.00     0.015 C 
HETATM   25  C13 UNL     1      -5.522   0.935   0.344  1.00  0.00     0.015 C 
HETATM   26  C14 UNL     1      -4.720  -0.165   2.386  1.00  0.00     0.015 C 
ENDBRANCH  22  23
ENDBRANCH  17  22
ENDBRANCH   4   8
TORSDOF 4
