REMARK  5 active torsions:
REMARK  status: ('A' for Active; 'I' for Inactive)
REMARK    1  A    between atoms: C3_5  and  C4_6 
REMARK    2  A    between atoms: C4_6  and  C5_7 
REMARK    3  A    between atoms: C18_21  and  C19_22 
REMARK    4  A    between atoms: C19_22  and  O3_24 
REMARK    5  A    between atoms: O3_24  and  C20_25 
ROOT
HETATM    1  C1  UNL     1       2.964   3.385   0.172  1.00  0.00     0.044 C 
HETATM    2  C2  UNL     1       2.332   2.222   0.272  1.00  0.00     0.040 A 
HETATM    3  N1  UNL     1       0.967   2.066   0.150  1.00  0.00    -0.356 N 
ATOM      4  H1  UNL     1       0.317   2.832  -0.028  1.00  0.00     0.166 HD
HETATM    5  C3  UNL     1       0.602   0.795   0.293  1.00  0.00     0.040 A 
HETATM    6  C16 UNL     1       1.825   0.124   0.518  1.00  0.00    -0.017 A 
HETATM    7  C17 UNL     1       1.986  -1.327   0.741  1.00  0.00     0.052 C 
HETATM    8  C18 UNL     1       2.875   0.995   0.504  1.00  0.00     0.073 A 
ENDROOT
BRANCH   5   9
HETATM    9  C4  UNL     1      -0.535   0.151   0.266  1.00  0.00     0.042 C 
BRANCH   9  10
HETATM   10  C5  UNL     1      -1.858   0.679   0.052  1.00  0.00    -0.018 A 
HETATM   11  C6  UNL     1      -2.210   1.932  -0.159  1.00  0.00     0.068 A 
HETATM   12  C7  UNL     1      -3.648   1.996  -0.320  1.00  0.00     0.183 A 
HETATM   13  O1  UNL     1      -4.322   3.053  -0.538  1.00  0.00    -0.288 OA
HETATM   14  C8  UNL     1      -4.174   0.662  -0.191  1.00  0.00     0.026 A 
HETATM   15  C9  UNL     1      -5.470   0.156  -0.259  1.00  0.00     0.023 A 
HETATM   16  C15 UNL     1      -3.097  -0.165   0.037  1.00  0.00    -0.006 A 
HETATM   17  C10 UNL     1      -5.735  -1.178  -0.103  1.00  0.00    -0.060 A 
HETATM   18  C11 UNL     1      -7.100  -1.752  -0.169  1.00  0.00     0.048 C 
HETATM   19  C12 UNL     1      -4.659  -1.990   0.123  1.00  0.00     0.014 A 
HETATM   20  C13 UNL     1      -3.349  -1.490   0.194  1.00  0.00    -0.049 A 
HETATM   21  C14 UNL     1      -2.283  -2.480   0.440  1.00  0.00     0.049 C 
ENDBRANCH   9  10
ENDBRANCH   5   9
BRANCH   8  22
HETATM   22  C19 UNL     1       4.291   0.701   0.695  1.00  0.00     0.296 C 
HETATM   23  O2  UNL     1       4.780   0.732   1.876  1.00  0.00    -0.259 OA
BRANCH  22  24
HETATM   24  O3  UNL     1       5.151   0.387  -0.325  1.00  0.00    -0.318 OA
BRANCH  24  25
HETATM   25  C20 UNL     1       6.513   0.114  -0.055  1.00  0.00     0.174 C 
HETATM   26  C21 UNL     1       7.213  -0.201  -1.379  1.00  0.00     0.034 C 
ENDBRANCH  24  25
ENDBRANCH  22  24
ENDBRANCH   8  22
TORSDOF 5
