REMARK  4 active torsions:
REMARK  status: ('A' for Active; 'I' for Inactive)
REMARK       I    between atoms: C1_2  and  N1_3 
REMARK    1  A    between atoms: C1_2  and  C9_12 
REMARK    2  A    between atoms: N1_3  and  C2_5 
REMARK       I    between atoms: C9_12  and  N2_14 
REMARK    3  A    between atoms: C13_18  and  C14_19 
REMARK       I    between atoms: C14_19  and  N3_21 
REMARK    4  A    between atoms: N3_21  and  C15_23 
ROOT
HETATM    1  C9  UNL     1      -0.545   0.704   0.678  1.00  0.00     0.312 C 
HETATM    2  O2  UNL     1      -0.283   0.858  -0.535  1.00  0.00    -0.262 OA
HETATM    3  N2  UNL     1       0.445   0.915   1.645  1.00  0.00    -0.331 N 
HETATM    4  C10 UNL     1       0.265   0.769   3.072  1.00  0.00     0.127 C 
HETATM    5  C11 UNL     1       1.575   1.128   3.732  1.00  0.00     0.022 C 
HETATM    6  C12 UNL     1       2.441   1.714   2.654  1.00  0.00     0.037 C 
HETATM    7  C13 UNL     1       1.814   1.317   1.357  1.00  0.00     0.179 C 
ENDROOT
BRANCH   1   8
HETATM    8  C1  UNL     1      -1.879   0.306   1.073  1.00  0.00     0.309 C 
HETATM    9  O1  UNL     1      -2.218   0.132   2.287  1.00  0.00    -0.262 OA
HETATM   10  N1  UNL     1      -2.919   0.079   0.117  1.00  0.00    -0.348 N 
ATOM     11  H1  UNL     1      -2.697   0.206  -0.871  1.00  0.00     0.163 HD
BRANCH  10  12
HETATM   12  C2  UNL     1      -4.265  -0.319   0.465  1.00  0.00     0.084 C 
HETATM   13  C3  UNL     1      -5.270   0.772   0.175  1.00  0.00     0.025 C 
HETATM   14  C4  UNL     1      -5.244   1.269  -1.224  1.00  0.00     0.002 C 
HETATM   15  C5  UNL     1      -6.295   0.527  -2.015  1.00  0.00     0.000 C 
HETATM   16  C6  UNL     1      -5.765  -0.897  -2.197  1.00  0.00     0.000 C 
HETATM   17  C7  UNL     1      -5.831  -1.700  -0.955  1.00  0.00     0.002 C 
HETATM   18  C8  UNL     1      -4.653  -1.644  -0.059  1.00  0.00     0.025 C 
ENDBRANCH  10  12
ENDBRANCH   1   8
BRANCH   7  19
HETATM   19  C14 UNL     1       2.555   0.271   0.627  1.00  0.00     0.241 C 
HETATM   20  O3  UNL     1       2.013  -0.821   0.315  1.00  0.00    -0.271 OA
HETATM   21  N3  UNL     1       3.912   0.453   0.246  1.00  0.00    -0.355 N 
ATOM     22  H3  UNL     1       4.372   1.330   0.489  1.00  0.00     0.162 HD
BRANCH  21  23
HETATM   23  C15 UNL     1       4.668  -0.547  -0.469  1.00  0.00     0.088 C 
HETATM   24  C16 UNL     1       5.919  -0.879   0.355  1.00  0.00     0.051 C 
HETATM   25  C17 UNL     1       6.607  -2.024  -0.330  1.00  0.00     0.169 C 
HETATM   26  O4  UNL     1       6.963  -1.640  -1.603  1.00  0.00    -0.391 OA
HETATM   27  C18 UNL     1       6.674  -0.339  -1.932  1.00  0.00     0.169 C 
HETATM   28  C19 UNL     1       5.188  -0.017  -1.799  1.00  0.00     0.051 C 
ENDBRANCH  21  23
ENDBRANCH   7  19
TORSDOF 4
