REMARK  7 active torsions:
REMARK  status: ('A' for Active; 'I' for Inactive)
REMARK    1  A    between atoms: C12_13  and  N1_14 
REMARK    2  A    between atoms: N1_14  and  C13_15 
REMARK    3  A    between atoms: N1_14  and  C19_28 
REMARK    4  A    between atoms: C13_15  and  O2_16 
REMARK    5  A    between atoms: C13_15  and  C14_18 
REMARK    6  A    between atoms: C14_18  and  C15_19 
REMARK    7  A    between atoms: C15_19  and  O3_20 
ROOT
HETATM    1  N1  UNL     1      -0.710  -0.522   0.480  1.00  0.00    -0.354 N 
ENDROOT
BRANCH   1   2
HETATM    2  C12 UNL     1       0.486   0.179   1.110  1.00  0.00     0.099 C 
HETATM    3  C5  UNL     1       1.582   0.468   0.173  1.00  0.00     0.007 C 
HETATM    4  C4  UNL     1       1.318   0.333  -1.286  1.00  0.00     0.014 C 
HETATM    5  C6  UNL     1       2.077   1.926   0.333  1.00  0.00     0.014 C 
HETATM    6  C9  UNL     1       2.875  -0.268   0.458  1.00  0.00     0.136 C 
HETATM    7  C3  UNL     1       2.464   1.013  -2.056  1.00  0.00     0.005 C 
HETATM    8  C2  UNL     1       3.790   0.382  -1.707  1.00  0.00    -0.012 C 
HETATM    9  C1  UNL     1       4.865   1.207  -2.378  1.00  0.00     0.010 C 
HETATM   10  C8  UNL     1       3.962   0.534  -0.219  1.00  0.00     0.019 C 
HETATM   11  C7  UNL     1       3.535   1.941   0.124  1.00  0.00     0.008 C 
HETATM   12  O1  UNL     1       3.095  -0.229   1.830  1.00  0.00    -0.385 OA
HETATM   13  C10 UNL     1       2.216  -1.143   2.378  1.00  0.00     0.170 C 
HETATM   14  C11 UNL     1       0.805  -0.631   2.319  1.00  0.00     0.052 C 
ENDBRANCH   1   2
BRANCH   1  15
HETATM   15  C13 UNL     1      -1.868   0.229   0.486  1.00  0.00     0.127 C 
BRANCH  15  16
HETATM   16  O2  UNL     1      -1.654   1.390   1.179  1.00  0.00    -0.349 OA
ATOM     17  H2  UNL     1      -2.451   1.907   1.183  1.00  0.00     0.219 HD
ENDBRANCH  15  16
BRANCH  15  18
HETATM   18  C14 UNL     1      -3.226   0.234   0.013  1.00  0.00     0.071 C 
HETATM   19  C16 UNL     1      -3.993  -0.989   0.261  1.00  0.00     0.049 C 
HETATM   20  C17 UNL     1      -5.431  -0.526   0.414  1.00  0.00     0.233 C 
HETATM   21  N2  UNL     1      -5.317   0.721   1.081  1.00  0.00    -0.074 N 
HETATM   22  C18 UNL     1      -4.021   1.256   0.929  1.00  0.00     0.252 C 
ATOM     23  H22 UNL     1      -6.034   1.379   0.776  1.00  0.00     0.277 HD
ATOM     24  H21 UNL     1      -5.582   0.649   2.063  1.00  0.00     0.277 HD
BRANCH  18  25
HETATM   25  C15 UNL     1      -3.453   0.830  -1.362  1.00  0.00     0.183 C 
BRANCH  25  26
HETATM   26  O3  UNL     1      -2.819   0.277  -2.406  1.00  0.00    -0.400 OA
ATOM     27  H3  UNL     1      -2.961   0.651  -3.268  1.00  0.00     0.209 HD
ENDBRANCH  25  26
ENDBRANCH  18  25
ENDBRANCH  15  18
ENDBRANCH   1  15
BRANCH   1  28
HETATM   28  C19 UNL     1      -0.530  -1.831   0.052  1.00  0.00     0.086 A 
HETATM   29  C20 UNL     1      -1.243  -3.074   0.274  1.00  0.00     0.027 A 
HETATM   30  C21 UNL     1      -1.054  -2.586  -1.137  1.00  0.00     0.027 A 
ENDBRANCH   1  28
TORSDOF 7
