REMARK  5 active torsions:
REMARK  status: ('A' for Active; 'I' for Inactive)
REMARK    1  A    between atoms: C6_6  and  C7_7 
REMARK    2  A    between atoms: C10_13  and  C11_14 
REMARK    3  A    between atoms: C12_15  and  C13_16 
REMARK    4  A    between atoms: C17_22  and  C18_23 
REMARK       I    between atoms: C18_23  and  N3_25 
REMARK    5  A    between atoms: N3_25  and  O3_27 
ROOT
HETATM    1  C1  UNL     1      -2.265  -1.364   2.073  1.00  0.00     0.017 C 
HETATM    2  C2  UNL     1      -1.607  -0.885   1.026  1.00  0.00    -0.057 C 
HETATM    3  C3  UNL     1      -1.207  -1.801  -0.113  1.00  0.00     0.048 C 
HETATM    4  C4  UNL     1       0.341  -1.758  -0.013  1.00  0.00    -0.005 C 
HETATM    5  C5  UNL     1       0.637  -2.157   1.402  1.00  0.00     0.018 C 
HETATM    6  C6  UNL     1       0.874  -2.617  -1.082  1.00  0.00     0.088 C 
HETATM    7  C9  UNL     1       2.255  -2.225  -1.546  1.00  0.00     0.223 C 
HETATM    8  O1  UNL     1       2.749  -2.793  -2.571  1.00  0.00    -0.273 OA
HETATM    9  N1  UNL     1       2.946  -1.238  -0.818  1.00  0.00    -0.344 N 
ATOM     10  H1  UNL     1       3.947  -1.130  -0.980  1.00  0.00     0.163 HD
HETATM   11  C10 UNL     1       2.312  -0.370   0.146  1.00  0.00     0.187 C 
HETATM   12  C16 UNL     1       0.806  -0.330  -0.178  1.00  0.00     0.121 C 
HETATM   13  N2  UNL     1       0.170   0.668   0.536  1.00  0.00    -0.398 N 
ATOM     14  H2  UNL     1       0.679   1.511   0.800  1.00  0.00     0.154 HD
HETATM   15  C17 UNL     1      -1.210   0.515   0.905  1.00  0.00     0.201 C 
ENDROOT
BRANCH  15  16
HETATM   16  C18 UNL     1      -2.107   1.199  -0.086  1.00  0.00     0.269 C 
HETATM   17  O2  UNL     1      -1.578   1.667  -1.128  1.00  0.00    -0.269 OA
HETATM   18  N3  UNL     1      -3.492   1.360   0.064  1.00  0.00    -0.229 N 
HETATM   19  C19 UNL     1      -4.249   2.030  -0.963  1.00  0.00     0.189 C 
BRANCH  18  20
HETATM   20  O3  UNL     1      -4.120   0.915   1.152  1.00  0.00    -0.281 OA
HETATM   21  C20 UNL     1      -5.460   1.312   1.138  1.00  0.00     0.238 C 
ENDBRANCH  18  20
ENDBRANCH  15  16
BRANCH  11  22
HETATM   22  C11 UNL     1       2.722   1.051  -0.015  1.00  0.00    -0.079 C 
HETATM   23  C12 UNL     1       3.027   2.210  -0.130  1.00  0.00    -0.100 C 
BRANCH  23  24
HETATM   24  C13 UNL     1       3.372   3.636  -0.263  1.00  0.00     0.057 C 
HETATM   25  C14 UNL     1       2.257   4.434   0.354  1.00  0.00     0.023 C 
HETATM   26  C15 UNL     1       3.566   4.051  -1.693  1.00  0.00     0.023 C 
ENDBRANCH  23  24
ENDBRANCH  11  22
BRANCH   6  27
HETATM   27  C7  UNL     1       0.777  -4.096  -0.932  1.00  0.00     0.010 C 
HETATM   28  C8  UNL     1       1.464  -4.730   0.210  1.00  0.00     0.006 C 
ENDBRANCH   6  27
TORSDOF 5
