REMARK  7 active torsions:
REMARK  status: ('A' for Active; 'I' for Inactive)
REMARK    1  A    between atoms: C2_2  and  C3_3 
REMARK    2  A    between atoms: C2_2  and  N4_23 
REMARK    3  A    between atoms: C4_4  and  C5_5 
REMARK    4  A    between atoms: C5_5  and  N1_6 
REMARK    5  A    between atoms: C5_5  and  S1_19 
REMARK    6  A    between atoms: N1_6  and  C6_8 
REMARK    7  A    between atoms: S1_19  and  N3_20 
ROOT
HETATM    1  C5  UNL     1       0.229   0.703  -0.162  1.00  0.00     0.136 C 
ENDROOT
BRANCH   1   2
HETATM    2  C4  UNL     1       1.584   0.303  -0.414  1.00  0.00    -0.038 C 
HETATM    3  C3  UNL     1       2.739  -0.020  -0.614  1.00  0.00    -0.063 C 
BRANCH   3   4
HETATM    4  C2  UNL     1       4.135  -0.401  -0.833  1.00  0.00     0.297 C 
HETATM    5  C1  UNL     1       4.338  -0.919  -2.253  1.00  0.00     0.056 C 
BRANCH   4   6
HETATM    6  N4  UNL     1       4.552  -1.462   0.062  1.00  0.00     0.104 N 
HETATM    7  C17 UNL     1       5.955  -1.713  -0.155  1.00  0.00     0.274 C 
HETATM    8  C18 UNL     1       6.526  -2.132   1.181  1.00  0.00     0.032 C 
HETATM    9  C19 UNL     1       5.475  -1.856   2.209  1.00  0.00     0.032 C 
HETATM   10  C20 UNL     1       4.390  -1.140   1.448  1.00  0.00     0.274 C 
ENDBRANCH   4   6
ENDBRANCH   3   4
ENDBRANCH   1   2
BRANCH   1  11
HETATM   11  N1  UNL     1      -0.683  -0.217   0.431  1.00  0.00    -0.372 N 
ATOM     12  H1  UNL     1      -0.351  -1.151   0.670  1.00  0.00     0.161 HD
BRANCH  11  13
HETATM   13  C6  UNL     1      -2.063   0.122   0.707  1.00  0.00     0.087 C 
HETATM   14  C7  UNL     1      -2.693  -1.083   1.396  1.00  0.00     0.054 C 
HETATM   15  C8  UNL     1      -4.182  -1.002   1.402  1.00  0.00     0.021 C 
HETATM   16  C9  UNL     1      -4.656   0.077   2.381  1.00  0.00     0.037 C 
HETATM   17  C10 UNL     1      -4.699  -2.321   1.984  1.00  0.00     0.037 C 
HETATM   18  N2  UNL     1      -4.750  -0.852   0.114  1.00  0.00    -0.405 N 
HETATM   19  C11 UNL     1      -3.990  -0.257  -0.911  1.00  0.00     0.021 C 
ATOM     20  H2  UNL     1      -5.701  -1.172  -0.070  1.00  0.00     0.154 HD
HETATM   21  C12 UNL     1      -4.835   0.678  -1.797  1.00  0.00     0.037 C 
HETATM   22  C13 UNL     1      -3.596  -1.390  -1.881  1.00  0.00     0.037 C 
HETATM   23  C14 UNL     1      -2.742   0.453  -0.572  1.00  0.00     0.054 C 
ENDBRANCH  11  13
ENDBRANCH   1  11
BRANCH   1  24
HETATM   24  S1  UNL     1      -0.220   2.218  -0.564  1.00  0.00    -0.015 SA
BRANCH  24  25
HETATM   25  N3  UNL     1       0.952   3.361  -1.304  1.00  0.00    -0.261 NA
HETATM   26  C15 UNL     1       1.762   4.008  -0.298  1.00  0.00     0.124 C 
HETATM   27  C16 UNL     1       0.168   4.359  -2.008  1.00  0.00     0.124 C 
ENDBRANCH  24  25
ENDBRANCH   1  24
TORSDOF 7
