REMARK  4 active torsions:
REMARK  status: ('A' for Active; 'I' for Inactive)
REMARK    1  A    between atoms: C2_2  and  C4_4 
REMARK    2  A    between atoms: C6_6  and  C7_7 
REMARK       I    between atoms: C7_7  and  N1_9 
REMARK    3  A    between atoms: N1_9  and  C8_11 
REMARK       I    between atoms: N2_19  and  C16_20 
REMARK    4  A    between atoms: C16_20  and  C17_22 
ROOT
HETATM    1  C4  UNL     1      -1.922   2.449   0.236  1.00  0.00     0.126 C 
HETATM    2  C5  UNL     1      -2.103   1.128  -0.340  1.00  0.00     0.048 C 
HETATM    3  C6  UNL     1      -0.903   0.285  -0.709  1.00  0.00     0.105 C 
HETATM    4  C12 UNL     1       0.288   0.757   0.028  1.00  0.00     0.129 C 
HETATM    5  C13 UNL     1       0.239   2.283  -0.178  1.00  0.00     0.147 C 
HETATM    6  C14 UNL     1       1.656   2.684  -0.087  1.00  0.00     0.054 C 
HETATM    7  C15 UNL     1       2.216   1.611  -1.068  1.00  0.00     0.129 C 
HETATM    8  N2  UNL     1       1.585   0.412  -0.479  1.00  0.00    -0.342 N 
HETATM    9  C16 UNL     1       2.266  -0.828  -0.470  1.00  0.00     0.251 C 
HETATM   10  O2  UNL     1       1.671  -1.806   0.049  1.00  0.00    -0.271 OA
HETATM   11  O3  UNL     1      -0.639   2.746   0.748  1.00  0.00    -0.378 OA
ENDROOT
BRANCH   9  12
HETATM   12  C17 UNL     1       3.602  -1.125  -1.002  1.00  0.00     0.277 C 
HETATM   13  C18 UNL     1       4.701  -0.378  -0.332  1.00  0.00     0.044 C 
HETATM   14  C19 UNL     1       5.649  -1.419   0.180  1.00  0.00     0.030 C 
HETATM   15  C20 UNL     1       4.813  -2.684   0.190  1.00  0.00     0.233 C 
HETATM   16  N3  UNL     1       3.918  -2.539  -0.944  1.00  0.00    -0.062 N 
ATOM     17  H32 UNL     1       3.097  -3.143  -0.900  1.00  0.00     0.278 HD
ATOM     18  H31 UNL     1       4.294  -2.913  -1.815  1.00  0.00     0.278 HD
ENDBRANCH   9  12
BRANCH   3  19
HETATM   19  C7  UNL     1      -1.322  -1.116  -0.509  1.00  0.00     0.224 C 
HETATM   20  O1  UNL     1      -1.318  -1.945  -1.450  1.00  0.00    -0.273 OA
HETATM   21  N1  UNL     1      -1.747  -1.568   0.762  1.00  0.00    -0.353 N 
ATOM     22  H1  UNL     1      -1.745  -0.898   1.531  1.00  0.00     0.163 HD
BRANCH  21  23
HETATM   23  C8  UNL     1      -2.182  -2.909   1.043  1.00  0.00     0.022 C 
HETATM   24  C9  UNL     1      -2.559  -3.024   2.507  1.00  0.00     0.037 C 
HETATM   25  C10 UNL     1      -3.451  -3.260   0.267  1.00  0.00     0.037 C 
HETATM   26  C11 UNL     1      -1.170  -3.966   0.672  1.00  0.00     0.037 C 
ENDBRANCH  21  23
ENDBRANCH   3  19
BRANCH   1  27
HETATM   27  C2  UNL     1      -2.324   3.617  -0.624  1.00  0.00     0.006 C 
HETATM   28  C1  UNL     1      -3.777   3.602  -1.016  1.00  0.00     0.012 C 
HETATM   29  C3  UNL     1      -2.069   4.928   0.095  1.00  0.00     0.012 C 
ENDBRANCH   1  27
TORSDOF 4
