REMARK  8 active torsions:
REMARK  status: ('A' for Active; 'I' for Inactive)
REMARK    1  A    between atoms: C3_4  and  N2_5 
REMARK    2  A    between atoms: C7_11  and  C8_12 
REMARK    3  A    between atoms: C8_12  and  N4_13 
REMARK    4  A    between atoms: N4_13  and  C9_15 
REMARK    5  A    between atoms: N5_17  and  C11_19 
REMARK    6  A    between atoms: C11_19  and  O1_20 
REMARK    7  A    between atoms: C11_19  and  C12_22 
REMARK    8  A    between atoms: C12_22  and  N6_23 
ROOT
HETATM    1  C1  UNL     1       4.481  -3.683   0.691  1.00  0.00     0.222 C 
HETATM    2  N1  UNL     1       4.392  -2.733   0.017  1.00  0.00    -0.453 NA
HETATM    3  C2  UNL     1       4.256  -1.582  -0.807  1.00  0.00     0.283 A 
HETATM    4  C3  UNL     1       4.508  -0.336  -0.070  1.00  0.00     0.225 A 
HETATM    5  N3  UNL     1       3.425   0.359  -0.088  1.00  0.00    -0.337 N 
ATOM      6  H3  UNL     1       3.319   1.274   0.351  1.00  0.00     0.167 HD
HETATM    7  C7  UNL     1       2.402  -0.310  -0.795  1.00  0.00     0.050 A 
HETATM    8  C17 UNL     1       2.850  -1.469  -1.240  1.00  0.00     0.079 A 
HETATM    9 CL1  UNL     1       1.995  -2.696  -2.179  1.00  0.00    -0.083 Cl
ENDROOT
BRANCH   4  10
HETATM   10  N2  UNL     1       5.742   0.072   0.577  1.00  0.00    -0.034 N 
HETATM   11  C4  UNL     1       5.692  -0.211   1.996  1.00  0.00     0.280 C 
HETATM   12  C5  UNL     1       6.854  -0.636   0.013  1.00  0.00     0.280 C 
HETATM   13  C6  UNL     1       5.919   1.512   0.435  1.00  0.00     0.280 C 
ENDBRANCH   4  10
BRANCH   7  14
HETATM   14  C8  UNL     1       0.987   0.170  -1.006  1.00  0.00     0.179 C 
BRANCH  14  15
HETATM   15  N4  UNL     1       0.413   0.368   0.289  1.00  0.00    -0.374 N 
ATOM     16  H4  UNL     1       0.982   0.280   1.131  1.00  0.00     0.161 HD
BRANCH  15  17
HETATM   17  C9  UNL     1      -1.001   0.698   0.377  1.00  0.00     0.071 C 
HETATM   18  C10 UNL     1      -1.332   2.112   0.674  1.00  0.00     0.088 C 
HETATM   19  N5  UNL     1      -1.773  -0.259   0.198  1.00  0.00    -0.353 N 
ATOM     20  H5  UNL     1      -1.254  -1.119   0.020  1.00  0.00     0.163 HD
BRANCH  19  21
HETATM   21  C11 UNL     1      -3.138  -0.488   0.172  1.00  0.00     0.237 C 
BRANCH  21  22
HETATM   22  O1  UNL     1      -3.379  -1.553  -0.747  1.00  0.00    -0.375 OA
ATOM     23  H1  UNL     1      -4.316  -1.710  -0.765  1.00  0.00     0.212 HD
ENDBRANCH  21  22
BRANCH  21  24
HETATM   24  C12 UNL     1      -3.938   0.714  -0.254  1.00  0.00     0.182 C 
BRANCH  24  25
HETATM   25  N6  UNL     1      -5.372   0.331  -0.254  1.00  0.00    -0.347 N 
HETATM   26  C13 UNL     1      -6.038  -0.179  -1.289  1.00  0.00     0.109 A 
HETATM   27  C14 UNL     1      -7.348  -0.419  -0.900  1.00  0.00     0.108 A 
HETATM   28  N7  UNL     1      -7.449  -0.044   0.384  1.00  0.00    -0.356 N 
HETATM   29  C15 UNL     1      -8.660  -0.121   1.209  1.00  0.00     0.156 C 
HETATM   30  C16 UNL     1      -6.240   0.408   0.756  1.00  0.00     0.184 A 
ENDBRANCH  24  25
ENDBRANCH  21  24
ENDBRANCH  19  21
ENDBRANCH  15  17
ENDBRANCH  14  15
ENDBRANCH   7  14
TORSDOF 8
