REMARK  8 active torsions:
REMARK  status: ('A' for Active; 'I' for Inactive)
REMARK    1  A    between atoms: C3_3  and  C4_4 
REMARK    2  A    between atoms: C5_5  and  C6_6 
REMARK    3  A    between atoms: C7_7  and  C8_8 
REMARK    4  A    between atoms: N1_11  and  C11_12 
REMARK    5  A    between atoms: C11_12  and  C12_13 
REMARK    6  A    between atoms: C14_16  and  C15_17 
REMARK    7  A    between atoms: C14_16  and  C16_19 
REMARK    8  A    between atoms: C16_19  and  O3_20 
ROOT
HETATM    1  C1  UNL     1      10.733  -0.813   0.035  1.00  0.00     0.113 C 
HETATM    2  C2  UNL     1       9.281  -0.685   0.095  1.00  0.00    -0.097 C 
HETATM    3  C3  UNL     1       8.072  -0.566   0.138  1.00  0.00    -0.015 C 
ENDROOT
BRANCH   3   4
HETATM    4  C4  UNL     1       6.666  -0.430   0.212  1.00  0.00    -0.001 C 
HETATM    5  C5  UNL     1       5.466  -0.295   0.278  1.00  0.00    -0.001 C 
BRANCH   5   6
HETATM    6  C6  UNL     1       4.065  -0.115   0.354  1.00  0.00    -0.009 C 
HETATM    7  C7  UNL     1       2.868   0.024   0.427  1.00  0.00    -0.053 C 
BRANCH   7   8
HETATM    8  C8  UNL     1       1.448   0.201   0.495  1.00  0.00     0.022 A 
HETATM    9  C9  UNL     1       0.632  -0.665   1.213  1.00  0.00     0.038 A 
HETATM   10  C10 UNL     1      -0.734  -0.433   1.234  1.00  0.00     0.093 A 
HETATM   11  N1  UNL     1      -1.269   0.606   0.577  1.00  0.00    -0.350 N 
HETATM   12  C17 UNL     1      -0.511   1.461  -0.127  1.00  0.00     0.083 A 
HETATM   13 BR1  UNL     1      -1.293   2.948  -1.066  1.00  0.00    -0.031 Br
HETATM   14  C18 UNL     1       0.852   1.254  -0.165  1.00  0.00     0.058 A 
BRANCH  11  15
HETATM   15  C11 UNL     1      -2.697   0.797   0.642  1.00  0.00     0.139 C 
BRANCH  15  16
HETATM   16  C12 UNL     1      -3.470   0.123  -0.433  1.00  0.00     0.072 C 
HETATM   17  C13 UNL     1      -3.356  -1.383  -0.513  1.00  0.00     0.179 C 
HETATM   18  O1  UNL     1      -4.329  -1.435   0.497  1.00  0.00    -0.370 OA
HETATM   19  C14 UNL     1      -4.856  -0.254  -0.066  1.00  0.00     0.141 C 
BRANCH  19  20
HETATM   20  C15 UNL     1      -5.748  -0.550  -1.249  1.00  0.00     0.271 C 
HETATM   21  O2  UNL     1      -6.241   0.431  -1.788  1.00  0.00    -0.303 OA
ENDBRANCH  19  20
BRANCH  19  22
HETATM   22  C16 UNL     1      -5.590   0.534   0.958  1.00  0.00     0.210 C 
BRANCH  22  23
HETATM   23  O3  UNL     1      -6.124   1.718   0.447  1.00  0.00    -0.397 OA
ATOM     24  H3  UNL     1      -6.593   2.222   1.102  1.00  0.00     0.209 HD
ENDBRANCH  22  23
ENDBRANCH  19  22
ENDBRANCH  15  16
ENDBRANCH  11  15
ENDBRANCH   7   8
ENDBRANCH   5   6
ENDBRANCH   3   4
TORSDOF 8
