REMARK  3 active torsions:
REMARK  status: ('A' for Active; 'I' for Inactive)
REMARK    1  A    between atoms: C4_7  and  C5_8 
REMARK       I    between atoms: C5_8  and  N2_10 
REMARK    2  A    between atoms: C8_15  and  N4_16 
REMARK    3  A    between atoms: N5_27  and  C19_28 
ROOT
HETATM    1  C1  UNL     1      -2.733  -2.176   3.490  1.00  0.00     0.100 C 
HETATM    2  C2  UNL     1      -1.704  -1.763   2.974  1.00  0.00    -0.140 C 
HETATM    3  C3  UNL     1      -0.460  -1.291   2.388  1.00  0.00     0.335 C 
HETATM    4  N1  UNL     1      -0.457   0.147   2.148  1.00  0.00    -0.026 N 
ATOM      5  H11 UNL     1       0.019   0.712   2.851  1.00  0.00     0.281 HD
ATOM      6  H12 UNL     1      -1.356   0.616   2.258  1.00  0.00     0.281 HD
HETATM    7  C4  UNL     1       0.109   0.188   0.829  1.00  0.00     0.257 C 
HETATM    8  C8  UNL     1      -0.175   1.304  -0.031  1.00  0.00     0.237 C 
HETATM    9  C12 UNL     1      -0.091   0.679  -1.410  1.00  0.00     0.044 C 
HETATM   10  C13 UNL     1      -0.589  -0.761  -1.185  1.00  0.00     0.022 C 
HETATM   11  C14 UNL     1      -2.113  -0.763  -1.347  1.00  0.00    -0.040 C 
HETATM   12  C15 UNL     1      -2.700   0.374  -2.110  1.00  0.00     0.015 C 
HETATM   13  C16 UNL     1      -2.632  -2.057  -2.006  1.00  0.00     0.015 C 
HETATM   14  C17 UNL     1      -2.196  -0.739   0.152  1.00  0.00     0.038 C 
HETATM   15  C18 UNL     1      -0.730  -0.972   0.230  1.00  0.00     0.070 C 
HETATM   16  N5  UNL     1      -0.194  -1.921   1.073  1.00  0.00    -0.232 NA
ENDROOT
BRANCH  16  17
HETATM   17  C19 UNL     1      -0.506  -3.259   1.155  1.00  0.00     0.148 C 
HETATM   18 CL1  UNL     1      -0.087  -4.262  -0.255  1.00  0.00    -0.084 Cl
ENDBRANCH  16  17
BRANCH   7  19
HETATM   19  C5  UNL     1       1.480  -0.318   0.923  1.00  0.00     0.263 C 
HETATM   20  O1  UNL     1       2.114  -0.380   2.040  1.00  0.00    -0.270 OA
HETATM   21  N2  UNL     1       2.221  -0.786  -0.188  1.00  0.00    -0.317 N 
HETATM   22  C6  UNL     1       3.461  -0.733  -0.382  1.00  0.00     0.091 C 
ATOM     23  H2  UNL     1       1.676  -1.225  -0.930  1.00  0.00     0.169 HD
HETATM   24  C7  UNL     1       3.991  -1.314  -1.662  1.00  0.00     0.085 C 
HETATM   25  N3  UNL     1       4.415  -0.162   0.495  1.00  0.00    -0.088 NA
ENDBRANCH   7  19
BRANCH   8  26
HETATM   26  N4  UNL     1       0.448   2.557   0.108  1.00  0.00    -0.071 N 
HETATM   27  C9  UNL     1      -0.143   3.455  -0.907  1.00  0.00     0.272 C 
HETATM   28  C10 UNL     1       1.834   2.709   0.031  1.00  0.00     0.272 C 
HETATM   29  C11 UNL     1      -0.006   3.140   1.384  1.00  0.00     0.272 C 
ENDBRANCH   8  26
TORSDOF 3
