REMARK  9 active torsions:
REMARK  status: ('A' for Active; 'I' for Inactive)
REMARK    1  A    between atoms: N1_2  and  C4_5 
REMARK    2  A    between atoms: C4_5  and  C5_6 
REMARK    3  A    between atoms: C5_6  and  C6_7 
REMARK    4  A    between atoms: C7_8  and  C8_9 
REMARK    5  A    between atoms: C8_9  and  O1_10 
REMARK    6  A    between atoms: C10_13  and  C11_14 
REMARK    7  A    between atoms: C12_15  and  C13_16 
REMARK    8  A    between atoms: C14_17  and  C15_18 
REMARK    9  A    between atoms: C15_18  and  O2_19 
ROOT
HETATM    1  C6  UNL     1      -0.761   0.977   0.388  1.00  0.00     0.088 C 
HETATM    2  C7  UNL     1       0.171   2.143   0.159  1.00  0.00     0.027 C 
HETATM    3  C9  UNL     1       1.529   1.580  -0.133  1.00  0.00     0.038 C 
HETATM    4  C10 UNL     1       1.861   0.717   1.077  1.00  0.00     0.160 C 
HETATM    5  S1  UNL     1       0.325  -0.165   1.257  1.00  0.00     0.036 S 
HETATM    6  O3  UNL     1      -0.050  -0.177   2.892  1.00  0.00    -0.256 OA
ENDROOT
BRANCH   4   7
HETATM    7  C11 UNL     1       2.964  -0.192   0.800  1.00  0.00    -0.075 C 
HETATM    8  C12 UNL     1       3.895  -0.943   0.578  1.00  0.00    -0.014 C 
BRANCH   8   9
HETATM    9  C13 UNL     1       4.992  -1.804   0.328  1.00  0.00    -0.012 C 
HETATM   10  C14 UNL     1       5.939  -2.528   0.127  1.00  0.00    -0.049 C 
BRANCH  10  11
HETATM   11  C15 UNL     1       7.100  -3.413  -0.105  1.00  0.00     0.270 C 
HETATM   12 BR1  UNL     1       7.515  -3.532  -1.982  1.00  0.00    -0.048 Br
BRANCH  11  13
HETATM   13  O2  UNL     1       8.226  -2.913   0.580  1.00  0.00    -0.373 OA
ATOM     14  H2  UNL     1       8.972  -3.482   0.431  1.00  0.00     0.212 HD
ENDBRANCH  11  13
ENDBRANCH  10  11
ENDBRANCH   8   9
ENDBRANCH   4   7
BRANCH   2  15
HETATM   15  C8  UNL     1      -0.274   3.079  -0.911  1.00  0.00     0.170 C 
BRANCH  15  16
HETATM   16  O1  UNL     1      -1.518   3.628  -0.605  1.00  0.00    -0.400 OA
ATOM     17  H1  UNL     1      -1.802   4.225  -1.287  1.00  0.00     0.209 HD
ENDBRANCH  15  16
ENDBRANCH   2  15
BRANCH   1  18
HETATM   18  C5  UNL     1      -1.230   0.352  -0.878  1.00  0.00     0.046 C 
BRANCH  18  19
HETATM   19  C4  UNL     1      -2.140  -0.795  -0.686  1.00  0.00     0.237 C 
BRANCH  19  20
HETATM   20  N1  UNL     1      -3.365  -0.577  -0.005  1.00  0.00    -0.079 N 
HETATM   21  C1  UNL     1      -4.369  -1.469  -0.627  1.00  0.00     0.271 C 
HETATM   22  C2  UNL     1      -3.892   0.746  -0.020  1.00  0.00     0.271 C 
HETATM   23  C3  UNL     1      -3.326  -1.033   1.388  1.00  0.00     0.271 C 
ENDBRANCH  19  20
ENDBRANCH  18  19
ENDBRANCH   1  18
TORSDOF 9
