REMARK  9 active torsions:
REMARK  status: ('A' for Active; 'I' for Inactive)
REMARK    1  A    between atoms: N2_6  and  N3_8 
REMARK    2  A    between atoms: N3_8  and  O1_9 
REMARK    3  A    between atoms: N4_11  and  C4_13 
REMARK    4  A    between atoms: C4_13  and  C5_14 
REMARK    5  A    between atoms: C5_14  and  C6_15 
REMARK    6  A    between atoms: C7_16  and  C8_17 
REMARK    7  A    between atoms: C11_20  and  C12_21 
REMARK    8  A    between atoms: C12_21  and  C13_22 
REMARK    9  A    between atoms: C14_24  and  O2_25 
ROOT
HETATM    1  C8  UNL     1       4.911  -2.321   0.875  1.00  0.00    -0.015 C 
HETATM    2  C9  UNL     1       5.415  -3.158   1.588  1.00  0.00    -0.097 C 
HETATM    3  C10 UNL     1       6.032  -4.162   2.475  1.00  0.00     0.113 C 
ENDROOT
BRANCH   1   4
HETATM    4  C7  UNL     1       4.340  -1.325   0.030  1.00  0.00    -0.015 C 
HETATM    5  C6  UNL     1       3.875  -0.475  -0.691  1.00  0.00    -0.091 C 
BRANCH   5   6
HETATM    6  C5  UNL     1       3.333   0.568  -1.565  1.00  0.00     0.116 C 
BRANCH   6   7
HETATM    7  C4  UNL     1       1.886   0.228  -1.919  1.00  0.00     0.155 C 
BRANCH   7   8
HETATM    8  N4  UNL     1       1.327   1.228  -2.772  1.00  0.00    -0.294 N 
HETATM    9  N3  UNL     1       0.462   2.028  -2.315  1.00  0.00    -0.098 N 
ATOM     10  H4  UNL     1       1.625   1.296  -3.745  1.00  0.00     0.184 HD
BRANCH   9  11
HETATM   11  N2  UNL     1      -0.004   2.010  -1.000  1.00  0.00    -0.243 N 
HETATM   12  C3  UNL     1      -1.156   1.504  -0.770  1.00  0.00     0.136 A 
HETATM   13  N1  UNL     1      -1.907   1.002  -1.754  1.00  0.00    -0.341 N 
HETATM   14  C11 UNL     1      -1.608   1.495   0.563  1.00  0.00     0.040 A 
HETATM   15  C2  UNL     1      -3.138   0.465  -1.488  1.00  0.00     0.033 A 
ATOM     16  H1  UNL     1      -1.560   1.019  -2.713  1.00  0.00     0.167 HD
HETATM   17  C1  UNL     1      -3.827  -0.014  -2.513  1.00  0.00     0.043 C 
HETATM   18  C15 UNL     1      -3.599   0.444  -0.207  1.00  0.00    -0.002 A 
HETATM   19  C14 UNL     1      -2.833   0.965   0.856  1.00  0.00     0.087 A 
HETATM   20  C16 UNL     1      -4.922  -0.126   0.139  1.00  0.00     0.053 C 
ATOM     21  H2  UNL     1       0.560   2.391  -0.241  1.00  0.00     0.193 HD
BRANCH  19  22
HETATM   22  O2  UNL     1      -3.339   0.923   2.141  1.00  0.00    -0.359 OA
ATOM     23  H2  UNL     1      -4.191   0.555   2.345  1.00  0.00     0.217 HD
ENDBRANCH  19  22
BRANCH  14  24
HETATM   24  C12 UNL     1      -0.807   2.006   1.460  1.00  0.00     0.002 C 
BRANCH  24  25
HETATM   25  C13 UNL     1      -1.062   2.106   2.902  1.00  0.00     0.113 C 
HETATM   26 BR1  UNL     1      -0.748   0.437   3.847  1.00  0.00    -0.092 Br
ENDBRANCH  24  25
ENDBRANCH  14  24
ENDBRANCH   9  11
BRANCH   9  27
HETATM   27  O1  UNL     1      -0.054   2.975  -3.161  1.00  0.00    -0.254 OA
ATOM     28  H1  UNL     1       0.263   2.987  -4.056  1.00  0.00     0.248 HD
ENDBRANCH   9  27
ENDBRANCH   7   8
ENDBRANCH   6   7
ENDBRANCH   5   6
ENDBRANCH   1   4
TORSDOF 9
