REMARK  8 active torsions:
REMARK  status: ('A' for Active; 'I' for Inactive)
REMARK    1  A    between atoms: C2_2  and  N1_3 
REMARK    2  A    between atoms: N1_3  and  C3_4 
REMARK    3  A    between atoms: N1_3  and  C5_6 
REMARK    4  A    between atoms: C5_6  and  C7_8 
REMARK    5  A    between atoms: C8_9  and  C9_10 
REMARK    6  A    between atoms: C12_13  and  C13_14 
REMARK    7  A    between atoms: C14_15  and  C15_16 
REMARK    8  A    between atoms: C17_18  and  N2_19 
ROOT
HETATM    1  C9  UNL     1       1.267  -0.373   0.014  1.00  0.00     0.017 A 
HETATM    2  C10 UNL     1       0.621   0.478  -0.856  1.00  0.00     0.022 A 
HETATM    3  C11 UNL     1      -0.749   0.602  -0.860  1.00  0.00     0.022 A 
HETATM    4  C12 UNL     1      -1.539  -0.131   0.021  1.00  0.00     0.018 A 
HETATM    5  C21 UNL     1      -0.916  -0.978   0.890  1.00  0.00     0.022 A 
HETATM    6  C22 UNL     1       0.464  -1.087   0.876  1.00  0.00     0.022 A 
ENDROOT
BRANCH   4   7
HETATM    7  C13 UNL     1      -2.970   0.016  -0.009  1.00  0.00    -0.060 C 
HETATM    8  C14 UNL     1      -4.186   0.147  -0.057  1.00  0.00    -0.043 C 
BRANCH   8   9
HETATM    9  C15 UNL     1      -5.608   0.302  -0.144  1.00  0.00     0.091 A 
HETATM   10  C16 UNL     1      -6.431  -0.237   0.839  1.00  0.00     0.087 A 
HETATM   11  C17 UNL     1      -7.791  -0.075   0.731  1.00  0.00     0.104 A 
HETATM   12  N3  UNL     1      -8.308   0.600  -0.324  1.00  0.00    -0.333 N 
HETATM   13  C19 UNL     1      -7.525   1.110  -1.254  1.00  0.00     0.079 A 
ATOM     14  H3  UNL     1      -9.319   0.715  -0.400  1.00  0.00     0.168 HD
HETATM   15  C20 UNL     1      -8.071   1.859  -2.422  1.00  0.00     0.089 C 
HETATM   16  N4  UNL     1      -6.193   0.952  -1.147  1.00  0.00    -0.339 N 
ATOM     17  H4  UNL     1      -5.600   1.352  -1.874  1.00  0.00     0.168 HD
BRANCH  11  18
HETATM   18  N2  UNL     1      -8.601  -0.531   1.583  1.00  0.00    -0.381 N 
HETATM   19  C18 UNL     1      -8.334  -1.259   2.761  1.00  0.00     0.147 C 
ATOM     20  H2  UNL     1      -9.586  -0.348   1.394  1.00  0.00     0.160 HD
ENDBRANCH  11  18
ENDBRANCH   8   9
ENDBRANCH   4   7
BRANCH   1  21
HETATM   21  C8  UNL     1       2.711  -0.502   0.008  1.00  0.00    -0.065 C 
HETATM   22  C7  UNL     1       3.914  -0.603   0.004  1.00  0.00    -0.065 C 
BRANCH  22  23
HETATM   23  C5  UNL     1       5.393  -0.754   0.014  1.00  0.00     0.297 C 
HETATM   24  C6  UNL     1       5.684  -2.198  -0.062  1.00  0.00     0.056 C 
BRANCH  23  25
HETATM   25  N1  UNL     1       5.930   0.114  -0.981  1.00  0.00     0.103 N 
BRANCH  25  26
HETATM   26  C2  UNL     1       7.353   0.207  -1.050  1.00  0.00     0.269 C 
HETATM   27  C1  UNL     1       8.091  -0.945  -1.628  1.00  0.00     0.037 C 
ENDBRANCH  25  26
BRANCH  25  28
HETATM   28  C3  UNL     1       5.366   1.449  -0.625  1.00  0.00     0.269 C 
HETATM   29  C4  UNL     1       5.652   1.858   0.771  1.00  0.00     0.037 C 
ENDBRANCH  25  28
ENDBRANCH  23  25
ENDBRANCH  22  23
ENDBRANCH   1  21
TORSDOF 8
