REMARK  7 active torsions:
REMARK  status: ('A' for Active; 'I' for Inactive)
REMARK    1  A    between atoms: N1_2  and  C2_4 
REMARK    2  A    between atoms: C2_4  and  N2_6 
REMARK    3  A    between atoms: N2_6  and  C3_8 
REMARK       I    between atoms: N3_10  and  C5_11 
REMARK    4  A    between atoms: C5_11  and  O2_13 
REMARK    5  A    between atoms: O2_13  and  C6_14 
REMARK    6  A    between atoms: C11_19  and  N4_20 
REMARK       I    between atoms: N4_20  and  C13_22 
REMARK    7  A    between atoms: C13_22  and  C14_24 
ROOT
HETATM    1  C3  UNL     1       0.543   1.373   0.137  1.00  0.00     0.126 C 
HETATM    2  C4  UNL     1      -0.944   1.572  -0.038  1.00  0.00     0.155 C 
HETATM    3  N3  UNL     1      -1.513   0.234  -0.172  1.00  0.00    -0.324 N 
HETATM    4  C5  UNL     1      -2.858  -0.120  -0.025  1.00  0.00     0.363 C 
HETATM    5  O1  UNL     1      -3.733   0.768   0.254  1.00  0.00    -0.238 OA
HETATM    6  C10 UNL     1      -0.410  -0.690  -0.493  1.00  0.00     0.155 C 
HETATM    7  C11 UNL     1       0.668  -0.108   0.343  1.00  0.00     0.129 C 
ENDROOT
BRANCH   7   8
HETATM    8  N4  UNL     1       1.996  -0.642   0.123  1.00  0.00    -0.348 N 
HETATM    9  C12 UNL     1       2.618  -1.265   1.272  1.00  0.00     0.153 C 
HETATM   10  C13 UNL     1       2.661  -0.597  -1.102  1.00  0.00     0.224 C 
HETATM   11  O3  UNL     1       1.978  -0.056  -2.060  1.00  0.00    -0.273 OA
BRANCH  10  12
HETATM   12  C14 UNL     1       3.986  -1.052  -1.480  1.00  0.00     0.078 C 
HETATM   13  C15 UNL     1       4.470  -2.398  -1.102  1.00  0.00     0.014 C 
HETATM   14  C16 UNL     1       5.846  -1.788  -0.800  1.00  0.00     0.002 C 
HETATM   15  C17 UNL     1       5.187  -0.412  -0.868  1.00  0.00     0.014 C 
ENDBRANCH  10  12
ENDBRANCH   7   8
BRANCH   1  16
HETATM   16  N2  UNL     1       1.072   2.103   1.283  1.00  0.00    -0.359 N 
ATOM     17  H2  UNL     1       1.437   1.552   2.060  1.00  0.00     0.162 HD
BRANCH  16  18
HETATM   18  C2  UNL     1       1.121   3.496   1.405  1.00  0.00     0.167 C 
HETATM   19  S1  UNL     1       1.733   4.152   2.761  1.00  0.00    -0.041 SA
BRANCH  18  20
HETATM   20  N1  UNL     1       0.655   4.333   0.391  1.00  0.00    -0.372 N 
HETATM   21  C1  UNL     1       0.710   5.771   0.540  1.00  0.00     0.148 C 
ATOM     22  H1  UNL     1       0.272   3.928  -0.463  1.00  0.00     0.161 HD
ENDBRANCH  18  20
ENDBRANCH  16  18
ENDBRANCH   1  16
BRANCH   4  23
HETATM   23  O2  UNL     1      -3.350  -1.406  -0.163  1.00  0.00    -0.294 OA
BRANCH  23  24
HETATM   24  C6  UNL     1      -4.697  -1.750  -0.014  1.00  0.00     0.061 C 
HETATM   25  C7  UNL     1      -5.256  -1.431   1.349  1.00  0.00     0.046 C 
HETATM   26  C8  UNL     1      -5.594  -1.131  -1.044  1.00  0.00     0.046 C 
HETATM   27  C9  UNL     1      -4.784  -3.271  -0.181  1.00  0.00     0.046 C 
ENDBRANCH  23  24
ENDBRANCH   4  23
TORSDOF 7
