REMARK  4 active torsions:
REMARK  status: ('A' for Active; 'I' for Inactive)
REMARK    1  A    between atoms: C2_2  and  C3_3 
REMARK    2  A    between atoms: C3_3  and  N1_4 
REMARK    3  A    between atoms: S1_14  and  N3_15 
REMARK    4  A    between atoms: C15_21  and  O2_22 
ROOT
HETATM    1  N1  UNL     1       3.760   0.268  -0.332  1.00  0.00    -0.340 N 
HETATM    2  C4  UNL     1       3.090   1.029  -1.336  1.00  0.00     0.210 C 
HETATM    3  C5  UNL     1       1.626   1.124  -1.028  1.00  0.00     0.181 C 
HETATM    4  O1  UNL     1       0.936   2.055  -1.492  1.00  0.00    -0.290 OA
HETATM    5  C6  UNL     1       0.963   0.141  -0.183  1.00  0.00     0.062 A 
HETATM    6  C7  UNL     1       1.657  -0.747   0.561  1.00  0.00     0.116 A 
HETATM    7  N2  UNL     1       0.793  -1.525   1.233  1.00  0.00    -0.353 N 
ATOM      8  H2  UNL     1       1.042  -2.281   1.871  1.00  0.00     0.166 HD
HETATM    9  C8  UNL     1      -0.465  -1.136   0.920  1.00  0.00     0.030 A 
HETATM   10  C9  UNL     1      -0.368  -0.087   0.029  1.00  0.00     0.036 A 
HETATM   11  S1  UNL     1      -1.852   0.602  -0.536  1.00  0.00    -0.142 SA
HETATM   12  C11 UNL     1      -2.119   2.304  -0.534  1.00  0.00     0.076 C 
HETATM   13  C12 UNL     1      -3.454   2.472   0.185  1.00  0.00     0.011 C 
HETATM   14  C13 UNL     1      -4.018   1.124   0.529  1.00  0.00     0.018 C 
HETATM   15  C14 UNL     1      -2.915   0.269   0.941  1.00  0.00     0.078 C 
HETATM   16  C15 UNL     1      -2.965  -1.177   0.964  1.00  0.00     0.140 C 
HETATM   17  C17 UNL     1      -1.692  -1.747   1.453  1.00  0.00     0.091 C 
HETATM   18  C18 UNL     1       3.130  -0.697   0.497  1.00  0.00     0.271 C 
HETATM   19  O3  UNL     1       3.770  -1.518   1.184  1.00  0.00    -0.266 OA
ENDROOT
BRANCH   1  20
HETATM   20  C3  UNL     1       5.197   0.511  -0.157  1.00  0.00     0.126 C 
BRANCH  20  21
HETATM   21  C2  UNL     1       5.936  -0.442  -1.077  1.00  0.00     0.015 C 
HETATM   22  C1  UNL     1       7.429  -0.248  -0.951  1.00  0.00     0.006 C 
ENDBRANCH  20  21
ENDBRANCH   1  20
BRANCH  11  23
HETATM   23  N3  UNL     1      -2.437  -0.277  -1.897  1.00  0.00    -0.199 NA
HETATM   24  C10 UNL     1      -3.386   0.424  -2.697  1.00  0.00     0.144 C 
ENDBRANCH  11  23
BRANCH  16  25
HETATM   25  O2  UNL     1      -3.998  -1.628   1.777  1.00  0.00    -0.389 OA
HETATM   26  C16 UNL     1      -4.892  -2.422   1.032  1.00  0.00     0.202 C 
ENDBRANCH  16  25
TORSDOF 4
