REMARK  4 active torsions:
REMARK  status: ('A' for Active; 'I' for Inactive)
REMARK    1  A    between atoms: C3_3  and  N1_4 
REMARK       I    between atoms: N1_4  and  C4_6 
REMARK    2  A    between atoms: C4_6  and  C5_8 
REMARK    3  A    between atoms: C5_8  and  C6_9 
REMARK    4  A    between atoms: C9_12  and  C10_13 
ROOT
HETATM    1  C1  UNL     1       2.886  -3.001  -1.994  1.00  0.00     0.098 C 
HETATM    2  C2  UNL     1       2.703  -1.823  -2.281  1.00  0.00    -0.168 C 
HETATM    3  C3  UNL     1       2.513  -0.423  -2.636  1.00  0.00     0.202 C 
ENDROOT
BRANCH   3   4
HETATM    4  N1  UNL     1       1.304   0.054  -2.011  1.00  0.00    -0.349 N 
HETATM    5  C4  UNL     1       1.056   0.068  -0.624  1.00  0.00     0.250 C 
HETATM    6  O1  UNL     1       2.002  -0.410   0.054  1.00  0.00    -0.271 OA
ATOM      7  H1  UNL     1       0.569   0.410  -2.622  1.00  0.00     0.163 HD
BRANCH   5   8
HETATM    8  C5  UNL     1      -0.133   0.561   0.099  1.00  0.00     0.153 C 
HETATM    9  C9  UNL     1      -1.083  -0.470   0.493  1.00  0.00     0.152 C 
HETATM   10  N2  UNL     1      -2.481  -0.067   0.165  1.00  0.00    -0.293 N 
HETATM   11  S1  UNL     1      -2.321   1.097  -1.079  1.00  0.00     0.321 S 
ATOM     12  H2  UNL     1      -3.343  -0.410   0.589  1.00  0.00     0.174 HD
HETATM   13  O2  UNL     1      -2.311   0.433  -2.427  1.00  0.00    -0.182 OA
HETATM   14  O3  UNL     1      -3.378   2.123  -1.109  1.00  0.00    -0.182 OA
HETATM   15  N3  UNL     1      -0.795   1.644  -0.547  1.00  0.00    -0.258 N 
HETATM   16  C13 UNL     1      -0.286   2.527  -1.446  1.00  0.00     0.137 C 
BRANCH   8  17
HETATM   17  C6  UNL     1       0.511   1.271   1.332  1.00  0.00     0.018 C 
HETATM   18  C7  UNL     1      -0.477   1.875   2.248  1.00  0.00     0.012 C 
HETATM   19  C8  UNL     1       1.556   2.249   0.977  1.00  0.00     0.012 C 
ENDBRANCH   8  17
BRANCH   9  20
HETATM   20  C10 UNL     1      -0.966  -1.922   0.396  1.00  0.00     0.035 C 
HETATM   21  C11 UNL     1       0.161  -2.585   1.154  1.00  0.00     0.029 C 
HETATM   22  C12 UNL     1      -2.236  -2.471   1.119  1.00  0.00     0.029 C 
HETATM   23 BR1  UNL     1      -1.079  -2.739  -1.327  1.00  0.00    -0.084 Br
ENDBRANCH   9  20
ENDBRANCH   5   8
ENDBRANCH   3   4
TORSDOF 4
