REMARK  9 active torsions:
REMARK  status: ('A' for Active; 'I' for Inactive)
REMARK    1  A    between atoms: C2_2  and  C3_4 
REMARK    2  A    between atoms: C4_5  and  C5_6 
REMARK    3  A    between atoms: C6_7  and  C7_8 
REMARK    4  A    between atoms: C7_8  and  O1_9 
REMARK    5  A    between atoms: O1_9  and  C8_10 
REMARK    6  A    between atoms: C8_10  and  C9_11 
REMARK    7  A    between atoms: C9_11  and  N1_12 
REMARK    8  A    between atoms: C12_15  and  O2_16 
REMARK    9  A    between atoms: C16_22  and  O3_23 
ROOT
HETATM    1  N1  UNL     1      -1.885   0.277   0.068  1.00  0.00     0.092 N 
HETATM    2  C10 UNL     1      -2.130   1.290   1.097  1.00  0.00     0.275 C 
HETATM    3  C11 UNL     1      -3.500   1.160   1.705  1.00  0.00     0.072 C 
HETATM    4  C12 UNL     1      -4.345   0.563   0.571  1.00  0.00     0.113 C 
HETATM    5  C13 UNL     1      -3.813   1.248  -0.670  1.00  0.00     0.311 C 
HETATM    6  N2  UNL     1      -2.515   0.668  -1.067  1.00  0.00     0.083 N 
HETATM    7  C14 UNL     1      -1.819   1.725  -1.758  1.00  0.00     0.309 C 
HETATM    8  C15 UNL     1      -2.837  -0.351  -2.018  1.00  0.00     0.309 C 
HETATM    9  C16 UNL     1      -3.956  -0.921   0.593  1.00  0.00     0.182 C 
HETATM   10  C17 UNL     1      -2.452  -0.959   0.603  1.00  0.00     0.307 C 
ENDROOT
BRANCH   1  11
HETATM   11  C9  UNL     1      -0.457   0.165   0.041  1.00  0.00     0.298 C 
BRANCH  11  12
HETATM   12  C8  UNL     1       0.159  -0.775  -0.879  1.00  0.00     0.199 C 
BRANCH  12  13
HETATM   13  O1  UNL     1       1.541  -0.805  -0.848  1.00  0.00    -0.378 OA
BRANCH  13  14
HETATM   14  C7  UNL     1       1.985  -1.160   0.405  1.00  0.00     0.262 C 
BRANCH  14  15
HETATM   15  C6  UNL     1       3.474  -1.189   0.291  1.00  0.00    -0.066 C 
HETATM   16  C5  UNL     1       4.678  -1.204   0.218  1.00  0.00    -0.013 C 
BRANCH  16  17
HETATM   17  C4  UNL     1       6.089  -1.206   0.113  1.00  0.00    -0.014 C 
HETATM   18  C3  UNL     1       7.292  -1.193   0.009  1.00  0.00    -0.077 C 
BRANCH  18  19
HETATM   19  C2  UNL     1       8.761  -1.154  -0.129  1.00  0.00     0.133 C 
HETATM   20  C1  UNL     1       9.197   0.292  -0.405  1.00  0.00     0.035 C 
HETATM   21 BR1  UNL     1       9.224  -2.313  -1.579  1.00  0.00    -0.078 Br
ENDBRANCH  18  19
ENDBRANCH  16  17
ENDBRANCH  14  15
ENDBRANCH  13  14
ENDBRANCH  12  13
ENDBRANCH  11  12
ENDBRANCH   1  11
BRANCH   9  22
HETATM   22  O3  UNL     1      -4.464  -1.412   1.813  1.00  0.00    -0.391 OA
ATOM     23  H3  UNL     1      -4.223  -2.331   1.827  1.00  0.00     0.210 HD
ENDBRANCH   9  22
BRANCH   4  24
HETATM   24  O2  UNL     1      -5.681   0.750   0.750  1.00  0.00    -0.385 OA
ATOM     25  H2  UNL     1      -6.204   0.381   0.048  1.00  0.00     0.210 HD
ENDBRANCH   4  24
TORSDOF 9
