REMARK  8 active torsions:
REMARK  status: ('A' for Active; 'I' for Inactive)
REMARK    1  A    between atoms: C2_2  and  C3_3 
REMARK    2  A    between atoms: C4_6  and  N2_7 
REMARK    3  A    between atoms: N2_7  and  C5_9 
REMARK    4  A    between atoms: C5_9  and  C6_10 
REMARK    5  A    between atoms: C6_10  and  N3_11 
REMARK    6  A    between atoms: C17_25  and  C18_26 
REMARK    7  A    between atoms: C19_27  and  C20_28 
REMARK    8  A    between atoms: C23_31  and  N6_32 
ROOT
HETATM    1  C3  UNL     1       0.456   1.133  -1.214  1.00  0.00     0.047 A 
HETATM    2  N1  UNL     1       1.758   0.958  -1.009  1.00  0.00    -0.194 N 
ATOM      3  H1  UNL     1       2.407   1.597  -1.467  1.00  0.00     0.184 HD
HETATM    4  C4  UNL     1       2.270  -0.019  -0.228  1.00  0.00     0.678 A 
HETATM    5  N4  UNL     1       1.401  -0.844   0.360  1.00  0.00    -0.190 N 
ATOM      6  H4  UNL     1       1.774  -1.586   0.952  1.00  0.00     0.184 HD
HETATM    7  C9  UNL     1       0.040  -0.759   0.220  1.00  0.00     0.080 A 
HETATM    8  C10 UNL     1      -0.791  -1.675   0.957  1.00  0.00    -0.007 A 
HETATM    9  C11 UNL     1      -2.005  -2.171   0.638  1.00  0.00     0.015 A 
HETATM   10  C12 UNL     1      -2.700  -2.966   1.536  1.00  0.00     0.023 A 
HETATM   11  C13 UNL     1      -2.187  -3.281   2.770  1.00  0.00     0.044 A 
HETATM   12  C14 UNL     1      -2.879  -4.103   3.722  1.00  0.00     0.099 C 
HETATM   13  N5  UNL     1      -3.461  -4.760   4.494  1.00  0.00    -0.191 NA
HETATM   14  C15 UNL     1      -0.944  -2.790   3.123  1.00  0.00     0.023 A 
HETATM   15  C16 UNL     1      -0.278  -2.011   2.235  1.00  0.00     0.015 A 
HETATM   16  C17 UNL     1      -0.416   0.234  -0.567  1.00  0.00     0.069 A 
ENDROOT
BRANCH  16  17
HETATM   17  C18 UNL     1      -1.815   0.495  -0.720  1.00  0.00    -0.057 C 
HETATM   18  C19 UNL     1      -3.009   0.766  -0.845  1.00  0.00    -0.060 C 
BRANCH  18  19
HETATM   19  C20 UNL     1      -4.394   1.105  -0.995  1.00  0.00     0.033 A 
HETATM   20  C21 UNL     1      -5.344   0.137  -1.244  1.00  0.00     0.026 A 
HETATM   21  C22 UNL     1      -6.672   0.453  -1.389  1.00  0.00     0.049 A 
HETATM   22  C23 UNL     1      -7.070   1.763  -1.286  1.00  0.00     0.098 A 
HETATM   23  N7  UNL     1      -6.154   2.705  -1.046  1.00  0.00    -0.351 N 
HETATM   24  C24 UNL     1      -4.858   2.403  -0.903  1.00  0.00     0.110 A 
ATOM     25  H7  UNL     1      -6.449   3.678  -0.970  1.00  0.00     0.166 HD
BRANCH  22  26
HETATM   26  N6  UNL     1      -8.344   2.085  -1.423  1.00  0.00    -0.385 N 
ATOM     27  H62 UNL     1      -9.044   1.366  -1.606  1.00  0.00     0.157 HD
ATOM     28  H61 UNL     1      -8.640   3.058  -1.346  1.00  0.00     0.157 HD
ENDBRANCH  22  26
ENDBRANCH  18  19
ENDBRANCH  16  17
BRANCH   4  29
HETATM   29  N2  UNL     1       3.549  -0.114  -0.084  1.00  0.00    -0.224 N 
ATOM     30  H2  UNL     1       4.113   0.574  -0.583  1.00  0.00     0.177 HD
BRANCH  29  31
HETATM   31  C5  UNL     1       4.258  -1.066   0.688  1.00  0.00     0.168 C 
BRANCH  31  32
HETATM   32  C6  UNL     1       5.696  -1.264   0.333  1.00  0.00     0.291 C 
BRANCH  32  33
HETATM   33  N3  UNL     1       6.522  -0.088   0.450  1.00  0.00     0.081 N 
HETATM   34  C7  UNL     1       7.920  -0.417   0.135  1.00  0.00     0.309 C 
HETATM   35  C8  UNL     1       6.148   0.933  -0.519  1.00  0.00     0.309 C 
ENDBRANCH  32  33
ENDBRANCH  31  32
ENDBRANCH  29  31
ENDBRANCH   4  29
BRANCH   1  36
HETATM   36  C2  UNL     1      -0.116   2.192  -2.065  1.00  0.00     0.055 C 
HETATM   37  C1  UNL     1      -0.670   3.259  -1.146  1.00  0.00     0.011 C 
ENDBRANCH   1  36
TORSDOF 8
