REMARK  8 active torsions:
REMARK  status: ('A' for Active; 'I' for Inactive)
REMARK    1  A    between atoms: N1_2  and  C2_4 
REMARK    2  A    between atoms: C3_7  and  N3_8 
REMARK    3  A    between atoms: N3_8  and  C4_10 
REMARK    4  A    between atoms: C4_10  and  C5_11 
REMARK    5  A    between atoms: C5_11  and  C6_12 
REMARK    6  A    between atoms: C6_12  and  N4_13 
REMARK    7  A    between atoms: N4_13  and  C7_15 
REMARK    8  A    between atoms: C20_31  and  O1_32 
ROOT
HETATM    1  C2  UNL     1       3.070  -1.599  -0.752  1.00  0.00     0.679 A 
HETATM    2  N2  UNL     1       1.826  -1.210  -0.420  1.00  0.00    -0.176 N 
ATOM      3  H2  UNL     1       1.021  -1.770  -0.701  1.00  0.00     0.186 HD
HETATM    4  C3  UNL     1       1.648  -0.064   0.293  1.00  0.00     0.131 A 
HETATM    5  C16 UNL     1       2.739   0.687   0.668  1.00  0.00     0.056 A 
HETATM    6  C17 UNL     1       2.598   1.828   1.375  1.00  0.00     0.063 A 
HETATM    7  C18 UNL     1       1.312   2.317   1.773  1.00  0.00     0.100 C 
HETATM    8  N6  UNL     1       0.266   2.751   2.119  1.00  0.00    -0.191 NA
HETATM    9  C19 UNL     1       3.743   2.557   1.732  1.00  0.00     0.060 A 
HETATM   10  C20 UNL     1       5.016   2.167   1.396  1.00  0.00     0.071 A 
HETATM   11  C22 UNL     1       5.147   1.000   0.675  1.00  0.00     0.067 A 
HETATM   12  C23 UNL     1       4.026   0.281   0.322  1.00  0.00     0.067 A 
HETATM   13  N7  UNL     1       4.133  -0.859  -0.382  1.00  0.00    -0.191 N 
ATOM     14  H7  UNL     1       5.064  -1.179  -0.649  1.00  0.00     0.184 HD
ENDROOT
BRANCH   4  15
HETATM   15  N3  UNL     1       0.452   0.220   0.559  1.00  0.00    -0.375 N 
ATOM     16  H3  UNL     1       0.312   1.077   1.095  1.00  0.00     0.161 HD
BRANCH  15  17
HETATM   17  C4  UNL     1      -0.728  -0.488   0.216  1.00  0.00     0.123 C 
BRANCH  17  18
HETATM   18  C5  UNL     1      -1.064  -1.661   1.051  1.00  0.00     0.039 C 
BRANCH  18  19
HETATM   19  C6  UNL     1      -2.362  -2.274   0.501  1.00  0.00     0.121 C 
BRANCH  19  20
HETATM   20  N4  UNL     1      -3.463  -1.383   0.521  1.00  0.00    -0.389 N 
ATOM     21  H4  UNL     1      -3.844  -1.180   1.445  1.00  0.00     0.159 HD
BRANCH  20  22
HETATM   22  C7  UNL     1      -4.048  -0.797  -0.454  1.00  0.00     0.041 A 
HETATM   23  C8  UNL     1      -3.695  -0.932  -1.782  1.00  0.00     0.047 A 
HETATM   24  C9  UNL     1      -4.377  -0.270  -2.771  1.00  0.00     0.090 A 
HETATM   25  N5  UNL     1      -5.400   0.526  -2.501  1.00  0.00    -0.365 N 
HETATM   26  C10 UNL     1      -5.773   0.684  -1.234  1.00  0.00     0.044 A 
ATOM     27  H5  UNL     1      -5.893   1.010  -3.251  1.00  0.00     0.165 HD
HETATM   28  C11 UNL     1      -6.856   1.527  -0.957  1.00  0.00     0.030 A 
HETATM   29  C15 UNL     1      -5.136   0.054  -0.210  1.00  0.00     0.017 A 
HETATM   30  C12 UNL     1      -7.251   1.700   0.333  1.00  0.00     0.002 A 
HETATM   31  C13 UNL     1      -6.598   1.057   1.359  1.00  0.00     0.001 A 
HETATM   32  C14 UNL     1      -5.537   0.232   1.083  1.00  0.00     0.016 A 
ENDBRANCH  20  22
ENDBRANCH  19  20
ENDBRANCH  18  19
ENDBRANCH  17  18
ENDBRANCH  15  17
ENDBRANCH   4  15
BRANCH  10  33
HETATM   33  O1  UNL     1       6.137   2.904   1.760  1.00  0.00    -0.356 OA
HETATM   34  C21 UNL     1       7.404   2.419   1.367  1.00  0.00     0.210 C 
ENDBRANCH  10  33
BRANCH   1  35
HETATM   35  N1  UNL     1       3.244  -2.701  -1.439  1.00  0.00    -0.230 N 
HETATM   36  C1  UNL     1       4.564  -3.151  -1.815  1.00  0.00     0.165 C 
ATOM     37  H1  UNL     1       2.431  -3.252  -1.714  1.00  0.00     0.177 HD
ENDBRANCH   1  35
TORSDOF 8
