REMARK  7 active torsions:
REMARK  status: ('A' for Active; 'I' for Inactive)
REMARK    1  A    between atoms: C2_2  and  C3_3 
REMARK    2  A    between atoms: C3_3  and  N1_4 
REMARK    3  A    between atoms: N1_4  and  C4_6 
REMARK    4  A    between atoms: C5_9  and  C6_10 
REMARK    5  A    between atoms: C15_21  and  S1_22 
REMARK    6  A    between atoms: S1_22  and  N4_25 
REMARK    7  A    between atoms: N4_25  and  C16_27 
ROOT
HETATM    1  C4  UNL     1      -1.266   0.602  -0.161  1.00  0.00     0.112 A 
HETATM    2  N2  UNL     1      -2.317  -0.268  -0.044  1.00  0.00    -0.341 N 
ATOM      3  H2  UNL     1      -3.215   0.097   0.274  1.00  0.00     0.167 HD
HETATM    4  C5  UNL     1      -2.227  -1.564  -0.323  1.00  0.00     0.044 A 
HETATM    5  C11 UNL     1      -1.041  -2.117  -0.756  1.00  0.00     0.042 A 
HETATM    6  C12 UNL     1       0.065  -1.274  -0.893  1.00  0.00    -0.020 A 
HETATM    7  C13 UNL     1       1.284  -1.785  -1.326  1.00  0.00     0.014 A 
HETATM    8  C14 UNL     1       2.364  -0.918  -1.451  1.00  0.00     0.026 A 
HETATM    9  C15 UNL     1       2.231   0.405  -1.155  1.00  0.00     0.081 A 
HETATM   10  C18 UNL     1       1.014   0.877  -0.730  1.00  0.00     0.041 A 
HETATM   11  C19 UNL     1      -0.076   0.059  -0.592  1.00  0.00     0.019 A 
ENDROOT
BRANCH   9  12
HETATM   12  S1  UNL     1       3.611   1.483  -1.321  1.00  0.00     0.276 S 
HETATM   13  O1  UNL     1       3.106   2.883  -1.643  1.00  0.00    -0.200 OA
HETATM   14  O2  UNL     1       4.478   1.080  -2.470  1.00  0.00    -0.200 OA
BRANCH  12  15
HETATM   15  N4  UNL     1       4.531   1.593   0.103  1.00  0.00    -0.111 N 
ATOM     16  H4  UNL     1       4.245   2.301   0.780  1.00  0.00     0.197 HD
BRANCH  15  17
HETATM   17  C16 UNL     1       5.536   0.885   0.410  1.00  0.00     0.707 A 
HETATM   18  N5  UNL     1       6.197   1.069   1.591  1.00  0.00    -0.185 N 
HETATM   19  C17 UNL     1       7.214   0.186   1.647  1.00  0.00     0.215 A 
ATOM     20  H5  UNL     1       5.962   1.756   2.307  1.00  0.00     0.185 HD
HETATM   21  N6  UNL     1       7.171  -0.528   0.513  1.00  0.00    -0.281 N 
HETATM   22  N7  UNL     1       6.167  -0.112  -0.231  1.00  0.00    -0.130 N 
ATOM     23  H6  UNL     1       7.816  -1.278   0.265  1.00  0.00     0.188 HD
ATOM     24  H7  UNL     1       5.911  -0.486  -1.145  1.00  0.00     0.205 HD
ENDBRANCH  15  17
ENDBRANCH  12  15
ENDBRANCH   9  12
BRANCH   1  25
HETATM   25  N1  UNL     1      -1.399   1.858   0.122  1.00  0.00    -0.376 N 
ATOM     26  H1  UNL     1      -0.612   2.501   0.034  1.00  0.00     0.161 HD
BRANCH  25  27
HETATM   27  C3  UNL     1      -2.683   2.320   0.563  1.00  0.00     0.121 C 
BRANCH  27  28
HETATM   28  C2  UNL     1      -2.751   3.794   0.780  1.00  0.00     0.015 C 
HETATM   29  C1  UNL     1      -1.769   4.276   1.826  1.00  0.00     0.006 C 
ENDBRANCH  27  28
ENDBRANCH  25  27
ENDBRANCH   1  25
BRANCH   4  30
HETATM   30  C6  UNL     1      -3.405  -2.456  -0.177  1.00  0.00    -0.007 A 
HETATM   31  C7  UNL     1      -4.627  -1.990   0.253  1.00  0.00     0.030 A 
HETATM   32  C8  UNL     1      -5.697  -2.868   0.371  1.00  0.00     0.088 A 
HETATM   33  N3  UNL     1      -5.573  -4.167   0.075  1.00  0.00    -0.375 N 
HETATM   34  C9  UNL     1      -4.407  -4.680  -0.350  1.00  0.00     0.088 A 
ATOM     35  H3  UNL     1      -6.382  -4.781   0.174  1.00  0.00     0.164 HD
HETATM   36  C10 UNL     1      -3.324  -3.798  -0.470  1.00  0.00     0.030 A 
ENDBRANCH   4  30
TORSDOF 7
