REMARK  10 active torsions:
REMARK  status: ('A' for Active; 'I' for Inactive)
REMARK    1  A    between atoms: C3_3  and  C4_4 
REMARK    2  A    between atoms: C4_4  and  O2_6 
REMARK    3  A    between atoms: O2_6  and  C5_7 
REMARK    4  A    between atoms: C9_11  and  C10_12 
REMARK    5  A    between atoms: C10_12  and  C11_13 
REMARK    6  A    between atoms: C12_14  and  O3_15 
REMARK    7  A    between atoms: C16_22  and  O4_23 
REMARK    8  A    between atoms: O4_23  and  C17_24 
REMARK    9  A    between atoms: N2_28  and  C21_29 
REMARK   10  A    between atoms: C23_31  and  O5_32 
ROOT
HETATM    1  C1  UNL     1      -4.297  -2.474  -0.095  1.00  0.00     0.029 C 
HETATM    2  C2  UNL     1      -3.220  -1.783  -0.414  1.00  0.00     0.022 A 
HETATM    3  C3  UNL     1      -2.750  -0.763   0.375  1.00  0.00     0.061 A 
HETATM    4  C7  UNL     1      -1.605  -0.027   0.041  1.00  0.00    -0.018 A 
HETATM    5  C8  UNL     1      -1.172   1.068   0.960  1.00  0.00     0.052 C 
HETATM    6  C9  UNL     1      -0.950  -0.364  -1.129  1.00  0.00     0.044 A 
HETATM    7  N2  UNL     1      -1.434  -1.387  -1.910  1.00  0.00    -0.327 N 
HETATM    8  C23 UNL     1      -2.538  -2.080  -1.563  1.00  0.00     0.153 A 
ENDROOT
BRANCH   6   9
HETATM    9  C10 UNL     1       0.118   0.240  -1.527  1.00  0.00     0.047 C 
BRANCH   9  10
HETATM   10  C11 UNL     1       0.945   1.304  -1.056  1.00  0.00     0.029 A 
HETATM   11  C12 UNL     1       0.795   2.669  -1.145  1.00  0.00     0.151 A 
HETATM   12  N1  UNL     1       1.855   3.299  -0.614  1.00  0.00    -0.336 N 
HETATM   13  C13 UNL     1       2.744   2.382  -0.155  1.00  0.00     0.045 A 
ATOM     14  H1  UNL     1       1.974   4.311  -0.563  1.00  0.00     0.168 HD
HETATM   15  C14 UNL     1       3.976   2.487   0.467  1.00  0.00     0.033 A 
HETATM   16  C20 UNL     1       2.191   1.149  -0.424  1.00  0.00     0.008 A 
HETATM   17  C15 UNL     1       4.636   1.307   0.812  1.00  0.00     0.039 A 
HETATM   18  C16 UNL     1       4.111   0.066   0.558  1.00  0.00     0.069 A 
HETATM   19  C19 UNL     1       2.860  -0.001  -0.075  1.00  0.00     0.051 A 
BRANCH  11  20
HETATM   20  O3  UNL     1      -0.285   3.371  -1.699  1.00  0.00    -0.345 OA
ATOM     21  H3  UNL     1      -0.389   4.313  -1.760  1.00  0.00     0.219 HD
ENDBRANCH  11  20
BRANCH  18  22
HETATM   22  O4  UNL     1       4.696  -1.130   0.864  1.00  0.00    -0.351 OA
BRANCH  22  23
HETATM   23  C17 UNL     1       5.947  -1.261   1.488  1.00  0.00     0.171 C 
HETATM   24  C18 UNL     1       7.095  -0.681   0.733  1.00  0.00     0.034 C 
ENDBRANCH  22  23
ENDBRANCH  18  22
ENDBRANCH   9  10
ENDBRANCH   6   9
BRANCH   7  25
HETATM   25  C21 UNL     1      -0.800  -1.754  -3.158  1.00  0.00     0.127 C 
HETATM   26  C22 UNL     1       0.309  -2.765  -2.997  1.00  0.00     0.027 C 
ENDBRANCH   7  25
BRANCH   3  27
HETATM   27  C4  UNL     1      -3.448  -0.401   1.619  1.00  0.00     0.294 C 
HETATM   28  O1  UNL     1      -3.128  -0.969   2.718  1.00  0.00    -0.259 OA
BRANCH  27  29
HETATM   29  O2  UNL     1      -4.454   0.540   1.672  1.00  0.00    -0.318 OA
BRANCH  29  30
HETATM   30  C5  UNL     1      -5.102   0.861   2.894  1.00  0.00     0.174 C 
HETATM   31  C6  UNL     1      -6.155   1.906   2.697  1.00  0.00     0.034 C 
ENDBRANCH  29  30
ENDBRANCH  27  29
ENDBRANCH   3  27
BRANCH   8  32
HETATM   32  O5  UNL     1      -3.001  -3.121  -2.389  1.00  0.00    -0.345 OA
ATOM     33  H5  UNL     1      -2.528  -3.327  -3.186  1.00  0.00     0.219 HD
ENDBRANCH   8  32
TORSDOF 10
