REMARK  5 active torsions:
REMARK  status: ('A' for Active; 'I' for Inactive)
REMARK    1  A    between atoms: O1_2  and  C2_3 
REMARK    2  A    between atoms: C7_8  and  O2_9 
REMARK    3  A    between atoms: C11_13  and  C12_14 
REMARK    4  A    between atoms: C16_20  and  N2_21 
REMARK    5  A    between atoms: N2_21  and  S1_23 
ROOT
HETATM    1  C2  UNL     1       5.003  -0.369  -0.040  1.00  0.00     0.102 A 
HETATM    2  C3  UNL     1       4.324   0.004  -1.176  1.00  0.00     0.048 A 
HETATM    3  C4  UNL     1       2.930   0.057  -1.263  1.00  0.00    -0.040 A 
HETATM    4  C5  UNL     1       2.217  -0.290  -0.133  1.00  0.00    -0.016 A 
HETATM    5  C6  UNL     1       2.880  -0.667   1.017  1.00  0.00     0.052 A 
HETATM    6  C7  UNL     1       4.254  -0.710   1.074  1.00  0.00     0.102 A 
HETATM    7  C9  UNL     1       0.794  -0.153  -0.484  1.00  0.00    -0.013 A 
HETATM    8  C10 UNL     1      -0.327  -0.376   0.280  1.00  0.00     0.043 A 
HETATM    9  C11 UNL     1      -1.643  -0.197  -0.212  1.00  0.00     0.048 A 
HETATM   10  N3  UNL     1      -1.722   0.207  -1.483  1.00  0.00    -0.342 N 
ATOM     11  H3  UNL     1      -2.649   0.348  -1.883  1.00  0.00     0.167 HD
HETATM   12  C18 UNL     1      -0.635   0.443  -2.281  1.00  0.00     0.106 A 
HETATM   13  N4  UNL     1      -0.783   0.831  -3.495  1.00  0.00    -0.385 N 
ATOM     14  H41 UNL     1       0.027   1.007  -4.090  1.00  0.00     0.157 HD
ATOM     15  H42 UNL     1      -1.725   0.964  -3.863  1.00  0.00     0.157 HD
HETATM   16  C19 UNL     1       0.654   0.261  -1.778  1.00  0.00     0.001 A 
HETATM   17  C20 UNL     1       2.001   0.423  -2.360  1.00  0.00     0.083 A 
ENDROOT
BRANCH   9  18
HETATM   18  C12 UNL     1      -2.757  -0.406   0.678  1.00  0.00     0.035 A 
HETATM   19  C13 UNL     1      -2.588  -1.102   1.889  1.00  0.00     0.019 A 
HETATM   20  C14 UNL     1      -3.599  -1.286   2.787  1.00  0.00     0.018 A 
HETATM   21  C15 UNL     1      -4.839  -0.782   2.519  1.00  0.00     0.090 A 
HETATM   22  N1  UNL     1      -5.036  -0.112   1.371  1.00  0.00    -0.351 N 
HETATM   23  C16 UNL     1      -4.015   0.073   0.468  1.00  0.00     0.127 A 
ATOM     24  H1  UNL     1      -5.960   0.267   1.165  1.00  0.00     0.166 HD
BRANCH  23  25
HETATM   25  N2  UNL     1      -4.324   0.741  -0.554  1.00  0.00    -0.269 N 
ATOM     26  H2  UNL     1      -3.588   0.919  -1.238  1.00  0.00     0.180 HD
BRANCH  25  27
HETATM   27  S1  UNL     1      -5.870   1.372  -0.888  1.00  0.00     0.228 S 
HETATM   28  C17 UNL     1      -5.778   2.296  -2.439  1.00  0.00     0.186 C 
HETATM   29  O3  UNL     1      -6.940   0.326  -1.029  1.00  0.00    -0.206 OA
HETATM   30  O4  UNL     1      -6.281   2.418   0.134  1.00  0.00    -0.206 OA
ENDBRANCH  25  27
ENDBRANCH  23  25
ENDBRANCH   9  18
BRANCH   6  31
HETATM   31  O2  UNL     1       4.949  -1.087   2.222  1.00  0.00    -0.353 OA
HETATM   32  C8  UNL     1       4.179  -1.435   3.358  1.00  0.00     0.210 C 
ENDBRANCH   6  31
BRANCH   1  33
HETATM   33  O1  UNL     1       6.386  -0.416   0.029  1.00  0.00    -0.353 OA
HETATM   34  C1  UNL     1       7.260  -0.102  -1.007  1.00  0.00     0.210 C 
ENDBRANCH   1  33
TORSDOF 5
