REMARK  4 active torsions:
REMARK  status: ('A' for Active; 'I' for Inactive)
REMARK    1  A    between atoms: C6_6  and  C7_7 
REMARK    2  A    between atoms: C7_7  and  C8_8 
REMARK       I    between atoms: C8_8  and  N1_10 
REMARK    3  A    between atoms: N1_10  and  C9_12 
REMARK    4  A    between atoms: C18_23  and  O2_24 
ROOT
HETATM    1  C9  UNL     1      -1.069  -0.395   0.160  1.00  0.00     0.070 A 
HETATM    2  C10 UNL     1      -1.539   0.890   0.121  1.00  0.00     0.062 A 
HETATM    3  C11 UNL     1      -2.883   1.200   0.083  1.00  0.00     0.045 A 
HETATM    4  N2  UNL     1      -3.545   2.377   0.048  1.00  0.00    -0.365 N 
ATOM      5  H2  UNL     1      -3.101   3.295   0.040  1.00  0.00     0.165 HD
HETATM    6  C12 UNL     1      -4.857   2.168   0.026  1.00  0.00     0.096 A 
HETATM    7  C13 UNL     1      -5.094   0.783   0.048  1.00  0.00    -0.034 A 
HETATM    8  C14 UNL     1      -6.416   0.124   0.043  1.00  0.00     0.050 C 
HETATM    9  C15 UNL     1      -3.852   0.205   0.082  1.00  0.00     0.007 A 
HETATM   10  C16 UNL     1      -3.419  -1.106   0.120  1.00  0.00    -0.013 A 
HETATM   11  C17 UNL     1      -4.461  -2.163   0.099  1.00  0.00     0.052 C 
HETATM   12  C18 UNL     1      -2.076  -1.395   0.158  1.00  0.00     0.099 A 
ENDROOT
BRANCH   1  13
HETATM   13  N1  UNL     1       0.261  -0.796   0.199  1.00  0.00    -0.325 N 
HETATM   14  C8  UNL     1       1.396   0.028   0.208  1.00  0.00     0.222 C 
HETATM   15  O1  UNL     1       1.330   1.261   0.180  1.00  0.00    -0.273 OA
ATOM     16  H1  UNL     1       0.431  -1.801   0.224  1.00  0.00     0.169 HD
BRANCH  14  17
HETATM   17  C7  UNL     1       2.773  -0.575   0.252  1.00  0.00     0.112 C 
BRANCH  17  18
HETATM   18  C6  UNL     1       3.785   0.513   0.161  1.00  0.00     0.023 C 
HETATM   19  C2  UNL     1       5.184  -0.031   0.223  1.00  0.00    -0.083 C 
HETATM   20  C1  UNL     1       5.640  -1.221   0.992  1.00  0.00     0.043 C 
HETATM   21  C3  UNL     1       5.981   0.716  -0.520  1.00  0.00    -0.024 C 
HETATM   22  C4  UNL     1       5.213   1.824  -1.154  1.00  0.00     0.028 C 
HETATM   23  C5  UNL     1       3.821   1.169  -1.209  1.00  0.00     0.013 C 
ENDBRANCH  17  18
ENDBRANCH  14  17
ENDBRANCH   1  13
BRANCH  12  24
HETATM   24  O2  UNL     1      -1.619  -2.698   0.200  1.00  0.00    -0.358 OA
ATOM     25  H2  UNL     1      -2.293  -3.367   0.199  1.00  0.00     0.217 HD
ENDBRANCH  12  24
TORSDOF 4
