REMARK  4 active torsions:
REMARK  status: ('A' for Active; 'I' for Inactive)
REMARK    1  A    between atoms: C4_7  and  C5_8 
REMARK       I    between atoms: C5_8  and  N2_10 
REMARK    2  A    between atoms: N2_10  and  C6_12 
REMARK    3  A    between atoms: C6_12  and  C7_13 
REMARK    4  A    between atoms: C18_24  and  O2_25 
ROOT
HETATM    1  C5  UNL     1       0.837  -0.860   1.159  1.00  0.00     0.268 C 
HETATM    2  O1  UNL     1       0.067  -1.867   1.227  1.00  0.00    -0.266 OA
HETATM    3  N2  UNL     1       0.454   0.396   1.685  1.00  0.00    -0.351 N 
ATOM      4  H2  UNL     1       1.100   1.182   1.613  1.00  0.00     0.163 HD
ENDROOT
BRANCH   1   5
HETATM    5  C4  UNL     1       2.120  -1.036   0.527  1.00  0.00     0.101 A 
HETATM    6  N1  UNL     1       3.028   0.038   0.417  1.00  0.00    -0.347 N 
HETATM    7  C3  UNL     1       4.292  -0.155  -0.220  1.00  0.00     0.100 A 
ATOM      8  H1  UNL     1       2.782   0.954   0.793  1.00  0.00     0.166 HD
HETATM    9  C2  UNL     1       5.147   0.843  -0.325  1.00  0.00     0.119 C 
HETATM   10  C18 UNL     1       4.604  -1.472  -0.741  1.00  0.00     0.095 A 
HETATM   11  C1  UNL     1       4.841   2.178   0.201  1.00  0.00     0.084 C 
HETATM   12  F1  UNL     1       6.333   0.629  -0.935  1.00  0.00    -0.209 F 
HETATM   13  C17 UNL     1       3.730  -2.450  -0.618  1.00  0.00     0.041 A 
HETATM   14  C16 UNL     1       2.440  -2.227   0.039  1.00  0.00     0.038 A 
BRANCH  10  15
HETATM   15  O2  UNL     1       5.810  -1.728  -1.369  1.00  0.00    -0.358 OA
ATOM     16  H2  UNL     1       6.014  -2.591  -1.710  1.00  0.00     0.217 HD
ENDBRANCH  10  15
ENDBRANCH   1   5
BRANCH   3  17
HETATM   17  C6  UNL     1      -0.843   0.596   2.329  1.00  0.00     0.161 C 
BRANCH  17  18
HETATM   18  C7  UNL     1      -1.844   0.663   1.208  1.00  0.00    -0.040 A 
HETATM   19  C8  UNL     1      -1.670   1.563   0.173  1.00  0.00     0.009 A 
HETATM   20  C9  UNL     1      -2.581   1.629  -0.856  1.00  0.00     0.008 A 
HETATM   21  C10 UNL     1      -3.680   0.787  -0.852  1.00  0.00    -0.052 A 
HETATM   22  C11 UNL     1      -3.861  -0.099   0.155  1.00  0.00    -0.051 A 
HETATM   23  C15 UNL     1      -4.808   0.646  -1.831  1.00  0.00     0.039 A 
HETATM   24  C12 UNL     1      -2.941  -0.172   1.204  1.00  0.00     0.016 A 
HETATM   25  C13 UNL     1      -5.089  -0.919   0.001  1.00  0.00     0.039 A 
HETATM   26  C14 UNL     1      -5.688  -0.428  -1.273  1.00  0.00     0.009 A 
ENDBRANCH  17  18
ENDBRANCH   3  17
TORSDOF 4
