REMARK  5 active torsions:
REMARK  status: ('A' for Active; 'I' for Inactive)
REMARK       I    between atoms: C2_2  and  N1_4 
REMARK    1  A    between atoms: N1_4  and  C3_6 
REMARK    2  A    between atoms: C3_6  and  C4_7 
REMARK    3  A    between atoms: C4_7  and  C5_8 
REMARK       I    between atoms: C5_8  and  N2_10 
REMARK    4  A    between atoms: N2_10  and  C6_12 
REMARK    5  A    between atoms: C6_12  and  C7_14 
ROOT
HETATM    1  C5  UNL     1      -1.292  -0.234   1.544  1.00  0.00     0.253 C 
HETATM    2  O2  UNL     1      -1.264   0.606   2.478  1.00  0.00    -0.270 OA
HETATM    3  N2  UNL     1      -0.060  -0.579   0.933  1.00  0.00    -0.328 N 
ATOM      4  H2  UNL     1      -0.039  -1.260   0.174  1.00  0.00     0.165 HD
ENDROOT
BRANCH   1   5
HETATM    5  C4  UNL     1      -2.596  -0.795   1.162  1.00  0.00     0.148 C 
HETATM    6  C14 UNL     1      -3.178  -1.453   2.384  1.00  0.00     0.056 C 
HETATM    7  C15 UNL     1      -3.170  -2.939   2.176  1.00  0.00     0.106 C 
HETATM    8  C16 UNL     1      -2.247  -3.064   0.993  1.00  0.00     0.220 C 
HETATM    9  O3  UNL     1      -1.489  -4.041   0.783  1.00  0.00    -0.273 OA
HETATM   10  N3  UNL     1      -2.419  -1.894   0.213  1.00  0.00    -0.334 N 
HETATM   11  C17 UNL     1      -2.406  -1.850  -1.235  1.00  0.00     0.154 C 
BRANCH   5  12
HETATM   12  C3  UNL     1      -3.580   0.182   0.650  1.00  0.00     0.105 C 
BRANCH  12  13
HETATM   13  N1  UNL     1      -3.361   0.924  -0.523  1.00  0.00    -0.338 N 
HETATM   14  C2  UNL     1      -2.440   1.886  -0.881  1.00  0.00     0.217 C 
HETATM   15  C1  UNL     1      -2.493   2.472  -2.277  1.00  0.00     0.117 C 
HETATM   16  O1  UNL     1      -1.540   2.344  -0.174  1.00  0.00    -0.274 OA
ATOM     17  H1  UNL     1      -4.023   0.705  -1.267  1.00  0.00     0.167 HD
ENDBRANCH  12  13
ENDBRANCH   5  12
ENDBRANCH   1   5
BRANCH   3  18
HETATM   18  C6  UNL     1       1.153   0.029   1.383  1.00  0.00     0.282 C 
HETATM   19  F1  UNL     1       1.966  -0.913   2.002  1.00  0.00    -0.226 F 
BRANCH  18  20
HETATM   20  C7  UNL     1       1.889   0.857   0.391  1.00  0.00     0.122 C 
HETATM   21  C8  UNL     1       3.150   1.404   1.153  1.00  0.00     0.095 C 
HETATM   22  C9  UNL     1       4.219   1.281   0.267  1.00  0.00    -0.182 C 
HETATM   23  C10 UNL     1       5.285   1.105  -0.633  1.00  0.00     0.080 C 
HETATM   24  C11 UNL     1       4.652   0.355  -1.861  1.00  0.00     0.017 C 
HETATM   25  C12 UNL     1       3.146   0.483  -1.869  1.00  0.00     0.080 C 
HETATM   26  C13 UNL     1       2.244   0.074  -0.839  1.00  0.00     0.252 C 
HETATM   27  F2  UNL     1       0.974   0.114  -1.509  1.00  0.00    -0.206 F 
HETATM   28  F3  UNL     1       2.277  -1.312  -0.575  1.00  0.00    -0.206 F 
ENDBRANCH  18  20
ENDBRANCH   3  18
TORSDOF 5
