REMARK  6 active torsions:
REMARK  status: ('A' for Active; 'I' for Inactive)
REMARK    1  A    between atoms: C2_2  and  C3_3 
REMARK    2  A    between atoms: C3_3  and  C4_6 
REMARK       I    between atoms: C4_6  and  N1_8 
REMARK    3  A    between atoms: N1_8  and  C5_10 
REMARK    4  A    between atoms: C12_18  and  C13_19 
REMARK       I    between atoms: C13_19  and  N2_21 
REMARK    5  A    between atoms: N2_21  and  C14_23 
REMARK    6  A    between atoms: C14_23  and  C15_24 
ROOT
HETATM    1  C5  UNL     1      -0.826   0.319  -0.952  1.00  0.00     0.232 C 
HETATM    2  O2  UNL     1      -0.564   1.679  -1.143  1.00  0.00    -0.360 OA
HETATM    3  C6  UNL     1       0.685   1.768  -1.726  1.00  0.00     0.128 C 
HETATM    4  C7  UNL     1       0.988   3.094  -2.332  1.00  0.00     0.040 C 
HETATM    5  C8  UNL     1       1.716   1.313  -0.723  1.00  0.00     0.050 C 
HETATM    6  C9  UNL     1       1.261   1.759   0.633  1.00  0.00    -0.022 C 
HETATM    7  C10 UNL     1       0.363   0.909   1.103  1.00  0.00    -0.020 C 
HETATM    8  C11 UNL     1       0.138  -0.175   0.110  1.00  0.00     0.070 C 
HETATM    9  C12 UNL     1       1.502  -0.201  -0.571  1.00  0.00     0.100 C 
ENDROOT
BRANCH   1  10
HETATM   10  N1  UNL     1      -2.205   0.063  -0.610  1.00  0.00    -0.331 N 
HETATM   11  C4  UNL     1      -3.047  -0.732  -1.407  1.00  0.00     0.258 C 
HETATM   12  O1  UNL     1      -2.600  -1.243  -2.453  1.00  0.00    -0.270 OA
ATOM     13  H1  UNL     1      -2.583   0.475   0.243  1.00  0.00     0.165 HD
BRANCH  11  14
HETATM   14  C3  UNL     1      -4.447  -0.961  -1.012  1.00  0.00     0.192 C 
HETATM   15 CL1  UNL     1      -5.320  -1.991  -2.153  1.00  0.00    -0.091 Cl
HETATM   16 CL2  UNL     1      -5.320   0.607  -0.949  1.00  0.00    -0.091 Cl
BRANCH  14  17
HETATM   17  C2  UNL     1      -4.529  -1.648   0.355  1.00  0.00     0.048 C 
HETATM   18  C1  UNL     1      -5.950  -1.801   0.778  1.00  0.00     0.009 C 
ENDBRANCH  14  17
ENDBRANCH  11  14
ENDBRANCH   1  10
BRANCH   9  19
HETATM   19  C13 UNL     1       2.474  -0.768   0.432  1.00  0.00     0.227 C 
HETATM   20  O3  UNL     1       2.057  -1.346   1.455  1.00  0.00    -0.273 OA
HETATM   21  N2  UNL     1       3.852  -0.627   0.181  1.00  0.00    -0.339 N 
ATOM     22  H2  UNL     1       4.100  -0.155  -0.688  1.00  0.00     0.167 HD
BRANCH  21  23
HETATM   23  C14 UNL     1       4.928  -1.054   0.975  1.00  0.00     0.079 C 
BRANCH  23  24
HETATM   24  C15 UNL     1       5.167  -0.451   2.312  1.00  0.00     0.159 C 
HETATM   25 CL3  UNL     1       3.902  -0.661   3.501  1.00  0.00    -0.125 Cl
ENDBRANCH  23  24
ENDBRANCH  21  23
ENDBRANCH   9  19
TORSDOF 6
