REMARK  18 active torsions:
REMARK  status: ('A' for Active; 'I' for Inactive)
REMARK       I    between atoms: C2_2  and  N1_4 
REMARK    1  A    between atoms: N1_4  and  C3_5 
REMARK    2  A    between atoms: C4_6  and  O2_7 
REMARK    3  A    between atoms: O2_7  and  N2_8 
REMARK    4  A    between atoms: C5_10  and  O3_11 
REMARK    5  A    between atoms: C5_10  and  C6_13 
REMARK    6  A    between atoms: C6_13  and  O4_14 
REMARK    7  A    between atoms: C6_13  and  C7_16 
REMARK    8  A    between atoms: C7_16  and  C8_17 
REMARK    9  A    between atoms: C8_17  and  N3_18 
REMARK   10  A    between atoms: C8_17  and  O5_22 
REMARK   11  A    between atoms: C13_31  and  O7_32 
REMARK   12  A    between atoms: C13_31  and  C14_34 
REMARK   13  A    between atoms: C14_34  and  O8_35 
REMARK   14  A    between atoms: C15_37  and  C16_38 
REMARK   15  A    between atoms: C15_37  and  O10_41 
REMARK   16  A    between atoms: C16_38  and  O9_39 
REMARK   17  A    between atoms: O10_41  and  C17_42 
REMARK   18  A    between atoms: C18_46  and  O11_47 
ROOT
HETATM    1  C3  UNL     1      -0.463   0.003  -0.538  1.00  0.00     0.234 C 
HETATM    2  C4  UNL     1       0.625   0.768   0.354  1.00  0.00     0.252 C 
HETATM    3  S1  UNL     1      -0.635   0.787   1.633  1.00  0.00    -0.111 SA
HETATM    4  C9  UNL     1      -1.300  -0.588   0.562  1.00  0.00     0.125 C 
HETATM    5  C10 UNL     1      -0.934  -1.833   1.218  1.00  0.00     0.153 A 
HETATM    6  C11 UNL     1      -0.662  -3.151   0.875  1.00  0.00     0.221 A 
HETATM    7  O6  UNL     1       0.388  -2.239   1.303  1.00  0.00    -0.361 OA
HETATM    8  S2  UNL     1      -1.737  -1.645   2.904  1.00  0.00    -0.124 SA
HETATM    9  C12 UNL     1      -3.463  -1.538   2.430  1.00  0.00     0.120 C 
HETATM   10  C13 UNL     1      -3.707  -0.419   1.417  1.00  0.00     0.122 C 
HETATM   11  C15 UNL     1      -2.797  -0.366   0.289  1.00  0.00     0.144 C 
ENDROOT
BRANCH   1  12
HETATM   12  N1  UNL     1       0.082  -0.632  -1.558  1.00  0.00    -0.404 NA
HETATM   13  C2  UNL     1       0.673  -1.306  -2.657  1.00  0.00     0.282 C 
HETATM   14  C1  UNL     1       0.371  -2.796  -2.861  1.00  0.00     0.134 C 
HETATM   15  O1  UNL     1       1.434  -0.860  -3.533  1.00  0.00    -0.258 OA
ENDBRANCH   1  12
BRANCH  11  16
HETATM   16  C16 UNL     1      -3.164  -1.376  -0.816  1.00  0.00     0.207 C 
BRANCH  16  17
HETATM   17  O9  UNL     1      -3.270  -2.654  -0.391  1.00  0.00    -0.398 OA
ATOM     18  H9  UNL     1      -3.496  -3.276  -1.072  1.00  0.00     0.209 HD
ENDBRANCH  16  17
ENDBRANCH  11  16
BRANCH  11  19
HETATM   19  O10 UNL     1      -2.767   0.896  -0.273  1.00  0.00    -0.320 OA
BRANCH  19  20
HETATM   20  C17 UNL     1      -3.834   1.501  -0.793  1.00  0.00     0.479 C 
HETATM   21  N4  UNL     1      -3.665   1.744  -2.275  1.00  0.00     0.025 N 
HETATM   22  C18 UNL     1      -4.277   2.993  -1.950  1.00  0.00     0.476 C 
ATOM     23  H42 UNL     1      -2.770   1.667  -2.757  1.00  0.00     0.289 HD
ATOM     24  H41 UNL     1      -4.024   1.113  -2.991  1.00  0.00     0.289 HD
HETATM   25  O12 UNL     1      -3.888   2.849  -0.654  1.00  0.00    -0.284 OA
BRANCH  22  26
HETATM   26  O11 UNL     1      -3.713   4.098  -2.612  1.00  0.00    -0.349 OA
ATOM     27  H11 UNL     1      -4.120   4.929  -2.396  1.00  0.00     0.214 HD
ENDBRANCH  22  26
ENDBRANCH  19  20
ENDBRANCH  11  19
BRANCH   2  28
HETATM   28  O2  UNL     1       1.735   0.032   0.637  1.00  0.00    -0.259 OA
BRANCH  28  29
HETATM   29  N2  UNL     1       2.975  -0.053   0.497  1.00  0.00    -0.245 N 
HETATM   30  C5  UNL     1       3.992   0.621   0.255  1.00  0.00     0.165 C 
ATOM     31  H2  UNL     1       3.252  -1.026   0.629  1.00  0.00     0.196 HD
BRANCH  30  32
HETATM   32  O3  UNL     1       3.899   1.973   0.038  1.00  0.00    -0.346 OA
ATOM     33  H3  UNL     1       4.676   2.488  -0.147  1.00  0.00     0.219 HD
ENDBRANCH  30  32
BRANCH  30  34
HETATM   34  C6  UNL     1       5.289  -0.093   0.207  1.00  0.00     0.198 C 
BRANCH  34  35
HETATM   35  O4  UNL     1       5.171  -1.403   0.729  1.00  0.00    -0.387 OA
ATOM     36  H4  UNL     1       6.003  -1.861   0.698  1.00  0.00     0.210 HD
ENDBRANCH  34  35
BRANCH  34  37
HETATM   37  C7  UNL     1       6.451   0.563   0.827  1.00  0.00     0.101 C 
BRANCH  37  38
HETATM   38  C8  UNL     1       6.865   1.882   0.205  1.00  0.00     0.318 C 
BRANCH  38  39
HETATM   39  N3  UNL     1       8.042   2.313   0.981  1.00  0.00    -0.053 N 
ATOM     40  H33 UNL     1       7.879   2.362   1.987  1.00  0.00     0.277 HD
ATOM     41  H32 UNL     1       8.790   1.620   1.018  1.00  0.00     0.277 HD
ATOM     42  H31 UNL     1       8.321   3.200   0.562  1.00  0.00     0.277 HD
ENDBRANCH  38  39
BRANCH  38  43
HETATM   43  O5  UNL     1       7.238   1.622  -1.125  1.00  0.00    -0.370 OA
ATOM     44  H5  UNL     1       7.497   2.449  -1.515  1.00  0.00     0.212 HD
ENDBRANCH  38  43
ENDBRANCH  37  38
ENDBRANCH  34  37
ENDBRANCH  30  34
ENDBRANCH  28  29
ENDBRANCH   2  28
BRANCH  10  45
HETATM   45  O7  UNL     1      -5.012  -0.785   0.955  1.00  0.00    -0.384 OA
ATOM     46  H7  UNL     1      -5.164  -0.090   0.326  1.00  0.00     0.210 HD
ENDBRANCH  10  45
BRANCH  10  47
HETATM   47  C14 UNL     1      -3.921   0.833   2.223  1.00  0.00     0.206 C 
BRANCH  47  48
HETATM   48  O8  UNL     1      -4.743   0.537   3.358  1.00  0.00    -0.398 OA
ATOM     49  H8  UNL     1      -4.878   1.328   3.867  1.00  0.00     0.209 HD
ENDBRANCH  47  48
ENDBRANCH  10  47
TORSDOF 18
