REMARK  11 active torsions:
REMARK  status: ('A' for Active; 'I' for Inactive)
REMARK    1  A    between atoms: N1_1  and  C1_4 
REMARK    2  A    between atoms: C2_7  and  N3_8 
REMARK    3  A    between atoms: N4_11  and  C3_12 
REMARK    4  A    between atoms: C4_18  and  N8_19 
REMARK    5  A    between atoms: C6_21  and  C7_22 
REMARK    6  A    between atoms: C9_25  and  C10_26 
REMARK    7  A    between atoms: C10_26  and  C11_27 
REMARK    8  A    between atoms: C12_33  and  C13_34 
REMARK       I    between atoms: C13_34  and  N10_36 
REMARK    9  A    between atoms: N10_36  and  C14_38 
REMARK   10  A    between atoms: C14_38  and  C15_39 
REMARK   11  A    between atoms: C15_39  and  C16_40 
ROOT
HETATM    1  N8  UNL     1      -1.513   0.092   0.117  1.00  0.00    -0.241 N 
HETATM    2  C5  UNL     1      -0.351   0.611   0.587  1.00  0.00     0.145 A 
HETATM    3  C6  UNL     1       0.551   0.722  -0.431  1.00  0.00     0.075 A 
HETATM    4  N11 UNL     1      -0.082   0.263  -1.520  1.00  0.00    -0.286 N 
ATOM      5  H11 UNL     1       0.309   0.205  -2.460  1.00  0.00     0.188 HD
HETATM    6  N12 UNL     1      -1.305  -0.102  -1.160  1.00  0.00    -0.237 N 
ATOM      7  H12 UNL     1      -1.999  -0.487  -1.801  1.00  0.00     0.208 HD
ENDROOT
BRANCH   1   8
HETATM    8  C4  UNL     1      -2.664  -0.145   0.963  1.00  0.00     0.373 C 
HETATM    9  N7  UNL     1      -2.922   1.003   1.829  1.00  0.00    -0.070 NA
HETATM   10  N6  UNL     1      -4.006   1.771   1.389  1.00  0.00    -0.239 N 
HETATM   11  N5  UNL     1      -5.212   1.086   1.192  1.00  0.00    -0.252 N 
ATOM     12  H6  UNL     1      -3.923   2.774   1.221  1.00  0.00     0.204 HD
HETATM   13  C3  UNL     1      -5.111  -0.071   0.580  1.00  0.00     0.269 C 
ATOM     14  H5  UNL     1      -6.108   1.461   1.503  1.00  0.00     0.191 HD
HETATM   15  O7  UNL     1      -3.820  -0.429   0.225  1.00  0.00    -0.276 OA
BRANCH  13  16
HETATM   16  N4  UNL     1      -6.252  -0.867   0.317  1.00  0.00    -0.056 N 
HETATM   17  C2  UNL     1      -6.723  -0.922  -0.944  1.00  0.00     0.704 A 
HETATM   18  N2  UNL     1      -7.813  -1.677  -1.221  1.00  0.00    -0.022 N 
HETATM   19  C1  UNL     1      -8.434  -2.373  -0.254  1.00  0.00     0.694 A 
ATOM     20  H2  UNL     1      -8.167  -1.718  -2.177  1.00  0.00     0.203 HD
HETATM   21  N13 UNL     1      -7.976  -2.327   1.004  1.00  0.00    -0.140 N 
HETATM   22  C17 UNL     1      -6.894  -1.573   1.259  1.00  0.00     0.362 A 
ATOM     23  H13 UNL     1      -8.437  -2.851   1.748  1.00  0.00     0.189 HD
HETATM   24  O8  UNL     1      -6.480  -1.542   2.445  1.00  0.00    -0.245 OA
BRANCH  17  25
HETATM   25  N3  UNL     1      -6.174  -0.281  -1.908  1.00  0.00    -0.233 N 
ATOM     26  H32 UNL     1      -6.531  -0.323  -2.863  1.00  0.00     0.174 HD
ATOM     27  H31 UNL     1      -5.353   0.288  -1.699  1.00  0.00     0.174 HD
ENDBRANCH  17  25
BRANCH  19  28
HETATM   28  N1  UNL     1      -9.477  -3.100  -0.495  1.00  0.00    -0.234 N 
ATOM     29  H12 UNL     1      -9.826  -3.135  -1.453  1.00  0.00     0.174 HD
ATOM     30  H11 UNL     1      -9.948  -3.628   0.239  1.00  0.00     0.174 HD
ENDBRANCH  19  28
ENDBRANCH  13  16
ENDBRANCH   1   8
BRANCH   3  31
HETATM   31  C7  UNL     1       1.914   1.249  -0.374  1.00  0.00     0.214 C 
HETATM   32  O1  UNL     1       2.641   0.912   0.763  1.00  0.00    -0.375 OA
HETATM   33  C8  UNL     1       3.649   1.852   0.865  1.00  0.00     0.202 C 
HETATM   34  C9  UNL     1       4.319   2.286  -0.373  1.00  0.00     0.220 C 
HETATM   35  N9  UNL     1       3.775   1.909  -1.632  1.00  0.00    -0.053 N 
HETATM   36  C12 UNL     1       2.807   0.802  -1.522  1.00  0.00     0.312 C 
ATOM     37  H92 UNL     1       3.362   2.711  -2.108  1.00  0.00     0.278 HD
ATOM     38  H91 UNL     1       4.514   1.685  -2.298  1.00  0.00     0.278 HD
BRANCH  34  39
HETATM   39  C10 UNL     1       4.393   3.826  -0.315  1.00  0.00     0.148 C 
BRANCH  39  40
HETATM   40  C11 UNL     1       5.065   4.339  -1.547  1.00  0.00     0.174 C 
HETATM   41  O2  UNL     1       5.479   3.561  -2.449  1.00  0.00    -0.648 OA
HETATM   42  O3  UNL     1       5.264   5.696  -1.753  1.00  0.00    -0.648 OA
ENDBRANCH  39  40
ENDBRANCH  34  39
BRANCH  36  43
HETATM   43  C13 UNL     1       3.602  -0.400  -1.194  1.00  0.00     0.251 C 
HETATM   44  O4  UNL     1       4.846  -0.299  -1.072  1.00  0.00    -0.271 OA
HETATM   45  N10 UNL     1       3.048  -1.682  -1.004  1.00  0.00    -0.359 N 
ATOM     46  H10 UNL     1       2.038  -1.792  -1.099  1.00  0.00     0.162 HD
BRANCH  45  47
HETATM   47  C14 UNL     1       3.830  -2.839  -0.685  1.00  0.00     0.133 C 
BRANCH  47  48
HETATM   48  C15 UNL     1       4.599  -2.749   0.597  1.00  0.00     0.133 C 
BRANCH  48  49
HETATM   49  C16 UNL     1       5.344  -4.032   0.764  1.00  0.00     0.174 C 
HETATM   50  O5  UNL     1       5.277  -4.954  -0.066  1.00  0.00    -0.648 OA
HETATM   51  O6  UNL     1       6.165  -4.253   1.883  1.00  0.00    -0.648 OA
ENDBRANCH  48  49
ENDBRANCH  47  48
ENDBRANCH  45  47
ENDBRANCH  36  43
ENDBRANCH   3  31
TORSDOF 11
