REMARK  15 active torsions:
REMARK  status: ('A' for Active; 'I' for Inactive)
REMARK    1  A    between atoms: C2_2  and  O1_4 
REMARK    2  A    between atoms: C2_2  and  O2_6 
REMARK    3  A    between atoms: O2_6  and  C4_7 
REMARK       I    between atoms: C4_7  and  N1_9 
REMARK    4  A    between atoms: N1_9  and  C5_11 
REMARK    5  A    between atoms: C5_11  and  N2_12 
REMARK    6  A    between atoms: C5_11  and  C6_16 
REMARK    7  A    between atoms: C6_16  and  C7_17 
REMARK    8  A    between atoms: C7_17  and  C8_18 
REMARK    9  A    between atoms: C8_18  and  O4_19 
REMARK   10  A    between atoms: O4_19  and  C9_20 
REMARK   11  A    between atoms: C10_21  and  C11_22 
REMARK   12  A    between atoms: C12_25  and  O7_26 
REMARK   13  A    between atoms: C13_28  and  O8_29 
REMARK   14  A    between atoms: C14_31  and  N3_32 
REMARK   15  A    between atoms: C15_35  and  C16_36 
ROOT
HETATM    1  C9  UNL     1      -0.924  -0.198  -1.020  1.00  0.00     0.155 C 
HETATM    2  C10 UNL     1      -1.145  -0.066  -2.312  1.00  0.00     0.100 C 
HETATM    3  C12 UNL     1      -2.460   0.381  -2.804  1.00  0.00     0.195 C 
HETATM    4  C13 UNL     1      -3.551   0.412  -1.796  1.00  0.00     0.196 C 
HETATM    5  C14 UNL     1      -3.008   0.980  -0.491  1.00  0.00     0.244 C 
HETATM    6  N11 UNL     1      -1.946   0.086  -0.093  1.00  0.00    -0.345 N 
ATOM      7  H11 UNL     1      -1.936  -0.330   0.838  1.00  0.00     0.163 HD
ENDROOT
BRANCH   5   8
HETATM    8  N3  UNL     1      -4.039   1.108   0.493  1.00  0.00    -0.215 N 
HETATM    9  N4  UNL     1      -5.239   0.579   0.385  1.00  0.00    -0.286 N 
HETATM   10  C15 UNL     1      -6.211   0.709   1.330  1.00  0.00     0.139 A 
ATOM     11  H4  UNL     1      -5.453   0.041  -0.454  1.00  0.00     0.187 HD
HETATM   12  C17 UNL     1      -5.960   1.424   2.472  1.00  0.00     0.135 A 
HETATM   13  N9  UNL     1      -6.781   1.619   3.428  1.00  0.00    -0.383 N 
HETATM   14  N10 UNL     1      -4.698   1.976   2.578  1.00  0.00    -0.291 N 
ATOM     15  H92 UNL     1      -7.713   1.211   3.350  1.00  0.00     0.157 HD
ATOM     16  H91 UNL     1      -6.594   2.151   4.278  1.00  0.00     0.157 HD
HETATM   17  C18 UNL     1      -3.793   1.809   1.613  1.00  0.00     0.344 A 
ATOM     18  H10 UNL     1      -4.455   2.519   3.406  1.00  0.00     0.172 HD
HETATM   19  O9  UNL     1      -2.636   2.335   1.748  1.00  0.00    -0.245 OA
BRANCH  10  20
HETATM   20  C16 UNL     1      -7.509   0.092   1.130  1.00  0.00     0.166 A 
HETATM   21  N5  UNL     1      -7.768  -0.627  -0.014  1.00  0.00    -0.270 N 
HETATM   22  N6  UNL     1      -8.984  -1.090   0.011  1.00  0.00    -0.225 N 
ATOM     23  H5  UNL     1      -7.103  -0.776  -0.773  1.00  0.00     0.190 HD
HETATM   24  N7  UNL     1      -9.532  -0.690   1.149  1.00  0.00    -0.005 NA
ATOM     25  H6  UNL     1      -9.432  -1.655  -0.711  1.00  0.00     0.205 HD
HETATM   26  N8  UNL     1      -8.631   0.021   1.811  1.00  0.00    -0.265 N 
ATOM     27  H8  UNL     1      -8.786   0.453   2.722  1.00  0.00     0.186 HD
ENDBRANCH  10  20
ENDBRANCH   5   8
BRANCH   4  28
HETATM   28  O8  UNL     1      -4.136  -0.813  -1.540  1.00  0.00    -0.389 OA
ATOM     29  H8  UNL     1      -4.834  -0.793  -0.895  1.00  0.00     0.210 HD
ENDBRANCH   4  28
BRANCH   3  30
HETATM   30  O7  UNL     1      -2.359   1.589  -3.514  1.00  0.00    -0.388 OA
ATOM     31  H7  UNL     1      -3.207   1.877  -3.831  1.00  0.00     0.210 HD
ENDBRANCH   3  30
BRANCH   1  32
HETATM   32  O4  UNL     1       0.351  -0.627  -0.601  1.00  0.00    -0.335 OA
BRANCH  32  33
HETATM   33  C8  UNL     1       0.413  -1.968  -0.133  1.00  0.00     0.177 C 
BRANCH  33  34
HETATM   34  C7  UNL     1       1.847  -2.281   0.283  1.00  0.00     0.030 C 
BRANCH  34  35
HETATM   35  C6  UNL     1       2.200  -1.307   1.376  1.00  0.00     0.056 C 
BRANCH  35  36
HETATM   36  C5  UNL     1       3.610  -1.503   1.890  1.00  0.00     0.285 C 
BRANCH  36  37
HETATM   37  N1  UNL     1       4.574  -1.327   0.845  1.00  0.00    -0.309 N 
HETATM   38  C4  UNL     1       5.553  -0.297   0.906  1.00  0.00     0.364 C 
HETATM   39  O3  UNL     1       5.575   0.475   1.897  1.00  0.00    -0.238 OA
ATOM     40  H1  UNL     1       4.558  -1.954   0.040  1.00  0.00     0.166 HD
BRANCH  38  41
HETATM   41  O2  UNL     1       6.482  -0.114  -0.083  1.00  0.00    -0.267 OA
BRANCH  41  42
HETATM   42  C2  UNL     1       7.472   0.891  -0.069  1.00  0.00     0.165 C 
HETATM   43  C1  UNL     1       8.319   0.808  -1.303  1.00  0.00     0.079 C 
HETATM   44  C3  UNL     1       6.767   2.230  -0.066  1.00  0.00     0.079 C 
BRANCH  42  45
HETATM   45  O1  UNL     1       8.286   0.800   1.057  1.00  0.00    -0.365 OA
ATOM     46  H1  UNL     1       7.749   0.853   1.839  1.00  0.00     0.213 HD
ENDBRANCH  42  45
ENDBRANCH  41  42
ENDBRANCH  38  41
ENDBRANCH  36  37
BRANCH  36  47
HETATM   47  N2  UNL     1       3.770  -2.806   2.506  1.00  0.00    -0.058 N 
ATOM     48  H23 UNL     1       3.729  -3.559   1.820  1.00  0.00     0.276 HD
ATOM     49  H22 UNL     1       4.723  -2.956   2.838  1.00  0.00     0.276 HD
ATOM     50  H21 UNL     1       3.084  -2.931   3.250  1.00  0.00     0.276 HD
ENDBRANCH  36  47
ENDBRANCH  35  36
ENDBRANCH  34  35
ENDBRANCH  33  34
ENDBRANCH  32  33
ENDBRANCH   1  32
BRANCH   2  51
HETATM   51  C11 UNL     1      -0.081  -0.361  -3.288  1.00  0.00     0.212 C 
HETATM   52  O5  UNL     1       1.049  -0.742  -2.927  1.00  0.00    -0.644 OA
HETATM   53  O6  UNL     1      -0.342  -0.214  -4.629  1.00  0.00    -0.644 OA
ENDBRANCH   2  51
TORSDOF 15
