REMARK  14 active torsions:
REMARK  status: ('A' for Active; 'I' for Inactive)
REMARK    1  A    between atoms: O1_2  and  C2_3 
REMARK    2  A    between atoms: C4_5  and  O2_6 
REMARK    3  A    between atoms: C5_8  and  O3_9 
REMARK    4  A    between atoms: C7_12  and  N1_13 
REMARK    5  A    between atoms: N1_13  and  C8_15 
REMARK    6  A    between atoms: C10_20  and  S1_21 
REMARK    7  A    between atoms: S1_21  and  C11_22 
REMARK    8  A    between atoms: C11_22  and  C12_23 
REMARK    9  A    between atoms: C11_22  and  C14_29 
REMARK   10  A    between atoms: C12_23  and  C13_24 
REMARK   11  A    between atoms: C13_24  and  O5_25 
REMARK   12  A    between atoms: C13_24  and  O6_27 
REMARK   13  A    between atoms: N4_34  and  N5_35 
REMARK   14  A    between atoms: C16_44  and  C17_45 
ROOT
HETATM    1  N1  UNL     1      -0.197   0.915   0.712  1.00  0.00    -0.209 N 
ATOM      2  H1  UNL     1      -0.621   1.106   1.620  1.00  0.00     0.178 HD
ENDROOT
BRANCH   1   3
HETATM    3  C7  UNL     1      -0.952   1.292  -0.439  1.00  0.00     0.198 C 
HETATM    4  C6  UNL     1      -1.913   0.214  -0.896  1.00  0.00     0.150 C 
HETATM    5  C5  UNL     1      -2.383  -0.556   0.322  1.00  0.00     0.172 C 
HETATM    6  N7  UNL     1      -2.996   0.971  -1.429  1.00  0.00    -0.162 NA
HETATM    7  C4  UNL     1      -3.635  -1.348   0.006  1.00  0.00     0.185 C 
HETATM    8  C2  UNL     1      -4.741  -0.475  -0.494  1.00  0.00     0.113 C 
HETATM    9  C3  UNL     1      -5.860  -1.366  -0.996  1.00  0.00     0.051 C 
HETATM   10  C16 UNL     1      -4.189   0.244  -1.739  1.00  0.00     0.224 C 
HETATM   11  O9  UNL     1      -3.173   1.962  -0.508  1.00  0.00    -0.245 OA
HETATM   12  C15 UNL     1      -1.898   2.419  -0.149  1.00  0.00     0.159 C 
HETATM   13  N6  UNL     1      -1.585   3.575   0.335  1.00  0.00    -0.380 N 
ATOM     14  H62 UNL     1      -0.657   3.908   0.596  1.00  0.00     0.158 HD
ATOM     15  H61 UNL     1      -2.228   4.342   0.532  1.00  0.00     0.158 HD
BRANCH   5  16
HETATM   16  O3  UNL     1      -2.609   0.255   1.404  1.00  0.00    -0.391 OA
ATOM     17  H3  UNL     1      -1.824   0.752   1.602  1.00  0.00     0.210 HD
ENDBRANCH   5  16
BRANCH   7  18
HETATM   18  O2  UNL     1      -3.946  -2.162   1.065  1.00  0.00    -0.390 OA
ATOM     19  H2  UNL     1      -3.243  -2.717   1.383  1.00  0.00     0.210 HD
ENDBRANCH   7  18
BRANCH   8  20
HETATM   20  O1  UNL     1      -5.177   0.466   0.392  1.00  0.00    -0.380 OA
HETATM   21  C1  UNL     1      -5.803   0.070   1.526  1.00  0.00     0.202 C 
ENDBRANCH   8  20
BRANCH  10  22
HETATM   22  C17 UNL     1      -5.190   1.201  -2.266  1.00  0.00     0.197 C 
HETATM   23  O10 UNL     1      -4.940   2.428  -2.365  1.00  0.00    -0.647 OA
HETATM   24  O11 UNL     1      -6.447   0.781  -2.674  1.00  0.00    -0.647 OA
ENDBRANCH  10  22
ENDBRANCH   1   3
BRANCH   1  25
HETATM   25  C8  UNL     1       0.949   0.366   0.721  1.00  0.00     0.718 A 
HETATM   26  N2  UNL     1       1.655   0.044  -0.368  1.00  0.00    -0.151 N 
HETATM   27  C9  UNL     1       2.890  -0.548  -0.314  1.00  0.00     0.294 A 
ATOM     28  H2  UNL     1       1.255   0.249  -1.284  1.00  0.00     0.188 HD
HETATM   29  O4  UNL     1       3.420  -0.786  -1.435  1.00  0.00    -0.265 OA
HETATM   30  C10 UNL     1       3.440  -0.828   0.894  1.00  0.00     0.156 A 
HETATM   31  N3  UNL     1       2.698  -0.488   1.993  1.00  0.00    -0.254 N 
HETATM   32  N4  UNL     1       1.513   0.080   1.919  1.00  0.00    -0.026 N 
ATOM     33  H3  UNL     1       3.083  -0.685   2.917  1.00  0.00     0.190 HD
BRANCH  30  34
HETATM   34  S1  UNL     1       5.023  -1.595   1.075  1.00  0.00    -0.089 SA
BRANCH  34  35
HETATM   35  C11 UNL     1       6.407  -0.474   1.161  1.00  0.00     0.159 C 
BRANCH  35  36
HETATM   36  C12 UNL     1       6.785   0.085  -0.185  1.00  0.00     0.086 C 
BRANCH  36  37
HETATM   37  C13 UNL     1       7.265  -1.027  -1.075  1.00  0.00     0.255 C 
BRANCH  37  38
HETATM   38  O5  UNL     1       6.360  -2.023  -1.277  1.00  0.00    -0.371 OA
ATOM     39  H5  UNL     1       6.663  -2.726  -1.840  1.00  0.00     0.212 HD
ENDBRANCH  37  38
BRANCH  37  40
HETATM   40  O6  UNL     1       7.780  -0.524  -2.285  1.00  0.00    -0.371 OA
ATOM     41  H6  UNL     1       8.083  -1.227  -2.848  1.00  0.00     0.212 HD
ENDBRANCH  37  40
ENDBRANCH  36  37
ENDBRANCH  35  36
BRANCH  35  42
HETATM   42  C14 UNL     1       6.286   0.584   2.190  1.00  0.00     0.187 C 
HETATM   43  O7  UNL     1       5.296   0.631   2.935  1.00  0.00    -0.647 OA
HETATM   44  O8  UNL     1       7.285   1.533   2.326  1.00  0.00    -0.647 OA
ENDBRANCH  35  42
ENDBRANCH  34  35
ENDBRANCH  30  34
BRANCH  32  45
HETATM   45  N5  UNL     1       0.808   0.401   3.078  1.00  0.00    -0.309 N 
ATOM     46  H52 UNL     1      -0.110   0.841   3.021  1.00  0.00     0.179 HD
ATOM     47  H51 UNL     1       1.233   0.186   3.980  1.00  0.00     0.179 HD
ENDBRANCH  32  45
ENDBRANCH   1  25
TORSDOF 14
