REMARK  15 active torsions:
REMARK  status: ('A' for Active; 'I' for Inactive)
REMARK    1  A    between atoms: C2_2  and  C3_3 
REMARK    2  A    between atoms: C2_2  and  N11_34 
REMARK    3  A    between atoms: C3_3  and  C4_4 
REMARK    4  A    between atoms: C4_4  and  O2_6 
REMARK    5  A    between atoms: O2_6  and  C5_7 
REMARK    6  A    between atoms: C5_7  and  C6_8 
REMARK    7  A    between atoms: C5_7  and  C7_17 
REMARK    8  A    between atoms: C9_25  and  N8_26 
REMARK    9  A    between atoms: N11_34  and  N12_36 
REMARK       I    between atoms: N12_36  and  C11_38 
REMARK   10  A    between atoms: C11_38  and  C12_40 
REMARK   11  A    between atoms: C12_40  and  N13_41 
REMARK   12  A    between atoms: C14_43  and  C15_44 
REMARK   13  A    between atoms: C15_44  and  O4_45 
REMARK   14  A    between atoms: C15_44  and  O5_47 
REMARK   15  A    between atoms: C16_49  and  N14_50 
ROOT
HETATM    1  C4  UNL     1       1.987   0.785   0.550  1.00  0.00     0.265 C 
HETATM    2  O1  UNL     1       1.580   0.634  -0.643  1.00  0.00    -0.265 OA
ENDROOT
BRANCH   1   3
HETATM    3  C3  UNL     1       1.268   1.664   1.508  1.00  0.00     0.164 C 
BRANCH   3   4
HETATM    4  C2  UNL     1      -0.037   1.100   1.916  1.00  0.00     0.009 C 
HETATM    5  C1  UNL     1      -0.093  -0.208   2.592  1.00  0.00     0.065 C 
BRANCH   4   6
HETATM    6  N11 UNL     1      -1.105   1.747   1.681  1.00  0.00    -0.306 N 
ATOM      7  H11 UNL     1      -1.014   2.647   1.210  1.00  0.00     0.186 HD
BRANCH   6   8
HETATM    8  N12 UNL     1      -2.379   1.330   2.011  1.00  0.00    -0.269 N 
HETATM    9  C11 UNL     1      -3.303   0.779   1.100  1.00  0.00     0.254 C 
HETATM   10  O3  UNL     1      -2.949   0.654  -0.101  1.00  0.00    -0.270 OA
ATOM     11  H12 UNL     1      -2.673   1.427   2.983  1.00  0.00     0.190 HD
BRANCH   9  12
HETATM   12  C12 UNL     1      -4.662   0.348   1.520  1.00  0.00     0.237 C 
BRANCH  12  13
HETATM   13  N13 UNL     1      -5.432  -0.183   0.438  1.00  0.00    -0.300 N 
HETATM   14  C13 UNL     1      -6.194   0.666  -0.284  1.00  0.00     0.112 A 
HETATM   15  C14 UNL     1      -6.960   0.211  -1.341  1.00  0.00     0.055 A 
HETATM   16  C16 UNL     1      -6.938  -1.135  -1.655  1.00  0.00     0.115 A 
HETATM   17  N15 UNL     1      -6.174  -1.969  -0.928  1.00  0.00    -0.294 N 
HETATM   18  C17 UNL     1      -5.460  -1.472   0.076  1.00  0.00     0.328 A 
ATOM     19  H15 UNL     1      -6.143  -2.965  -1.144  1.00  0.00     0.172 HD
HETATM   20  O6  UNL     1      -4.747  -2.291   0.745  1.00  0.00    -0.246 OA
BRANCH  15  21
HETATM   21  C15 UNL     1      -7.807   1.096  -2.158  1.00  0.00     0.293 C 
BRANCH  21  22
HETATM   22  O4  UNL     1      -9.049   0.461  -2.327  1.00  0.00    -0.367 OA
ATOM     23  H4  UNL     1      -9.595   1.032  -2.854  1.00  0.00     0.213 HD
ENDBRANCH  21  22
BRANCH  21  24
HETATM   24  O5  UNL     1      -7.926   2.368  -1.647  1.00  0.00    -0.367 OA
ATOM     25  H5  UNL     1      -8.472   2.939  -2.174  1.00  0.00     0.213 HD
ENDBRANCH  21  24
ENDBRANCH  15  21
BRANCH  16  26
HETATM   26  N14 UNL     1      -7.634  -1.588  -2.626  1.00  0.00    -0.385 N 
ATOM     27 2H14 UNL     1      -8.214  -0.955  -3.178  1.00  0.00     0.157 HD
ATOM     28 1H14 UNL     1      -7.618  -2.581  -2.858  1.00  0.00     0.157 HD
ENDBRANCH  16  26
ENDBRANCH  12  13
ENDBRANCH   9  12
ENDBRANCH   6   8
ENDBRANCH   4   6
ENDBRANCH   3   4
ENDBRANCH   1   3
BRANCH   1  29
HETATM   29  O2  UNL     1       3.130   0.086   0.893  1.00  0.00    -0.300 OA
BRANCH  29  30
HETATM   30  C5  UNL     1       3.842  -0.760   0.007  1.00  0.00     0.269 C 
BRANCH  30  31
HETATM   31  C6  UNL     1       3.912  -2.151   0.509  1.00  0.00     0.150 A 
HETATM   32  N1  UNL     1       4.201  -2.515   1.766  1.00  0.00    -0.270 N 
HETATM   33  N2  UNL     1       4.169  -3.842   1.835  1.00  0.00    -0.227 N 
ATOM     34  H1  UNL     1       4.410  -1.882   2.538  1.00  0.00     0.190 HD
HETATM   35  N3  UNL     1       3.866  -4.331   0.649  1.00  0.00    -0.227 N 
ATOM     36  H2  UNL     1       4.350  -4.394   2.673  1.00  0.00     0.210 HD
HETATM   37  N4  UNL     1       3.708  -3.295  -0.164  1.00  0.00    -0.270 N 
ATOM     38  H3  UNL     1       3.771  -5.317   0.404  1.00  0.00     0.210 HD
ATOM     39  H4  UNL     1       3.467  -3.358  -1.153  1.00  0.00     0.190 HD
ENDBRANCH  30  31
BRANCH  30  40
HETATM   40  C7  UNL     1       5.188  -0.187  -0.232  1.00  0.00     0.122 A 
HETATM   41  N5  UNL     1       6.051   0.333   0.680  1.00  0.00    -0.325 N 
HETATM   42  C8  UNL     1       7.174   0.751   0.072  1.00  0.00     0.167 A 
ATOM     43  H5  UNL     1       5.872   0.397   1.682  1.00  0.00     0.169 HD
HETATM   44  N6  UNL     1       8.323   1.322   0.443  1.00  0.00    -0.268 N 
HETATM   45  C10 UNL     1       6.979   0.459  -1.346  1.00  0.00     0.168 A 
HETATM   46  N7  UNL     1       9.249   1.609  -0.456  1.00  0.00    -0.131 N 
ATOM     47  H6  UNL     1       8.487   1.538   1.426  1.00  0.00     0.189 HD
HETATM   48  C9  UNL     1       9.115   1.360  -1.769  1.00  0.00     0.692 A 
ATOM     49  H7  UNL     1      10.114   2.044  -0.134  1.00  0.00     0.205 HD
HETATM   50  N9  UNL     1       7.975   0.785  -2.193  1.00  0.00    -0.172 N 
ATOM     51  H9  UNL     1       7.861   0.590  -3.188  1.00  0.00     0.186 HD
HETATM   52  N10 UNL     1       5.771  -0.098  -1.435  1.00  0.00    -0.326 N 
ATOM     53  H10 UNL     1       5.346  -0.415  -2.306  1.00  0.00     0.169 HD
BRANCH  48  54
HETATM   54  N8  UNL     1      10.070   1.669  -2.609  1.00  0.00    -0.233 N 
ATOM     55  H82 UNL     1      10.934   2.105  -2.288  1.00  0.00     0.174 HD
ATOM     56  H81 UNL     1       9.968   1.480  -3.606  1.00  0.00     0.174 HD
ENDBRANCH  48  54
ENDBRANCH  30  40
ENDBRANCH  29  30
ENDBRANCH   1  29
TORSDOF 15
