REMARK  12 active torsions:
REMARK  status: ('A' for Active; 'I' for Inactive)
REMARK    1  A    between atoms: C2_2  and  N1_3 
REMARK    2  A    between atoms: N1_3  and  C3_5 
REMARK    3  A    between atoms: C3_5  and  O1_7 
REMARK    4  A    between atoms: C3_5  and  C5_9 
REMARK       I    between atoms: C5_9  and  N2_11 
REMARK       I    between atoms: N2_11  and  C6_13 
REMARK    5  A    between atoms: C6_13  and  C7_15 
REMARK    6  A    between atoms: C7_15  and  O4_16 
REMARK    7  A    between atoms: C7_15  and  N3_18 
REMARK    8  A    between atoms: N3_18  and  C8_20 
REMARK    9  A    between atoms: N5_24  and  C10_25 
REMARK   10  A    between atoms: C12_29  and  C13_30 
REMARK   11  A    between atoms: C15_37  and  N9_38 
REMARK   12  A    between atoms: C16_43  and  N11_44 
ROOT
HETATM    1  C8  UNL     1       0.716   0.527  -0.478  1.00  0.00     0.685 A 
HETATM    2  N4  UNL     1      -0.017  -0.529  -0.960  1.00  0.00    -0.187 N 
ATOM      3  H4  UNL     1       0.452  -1.296  -1.441  1.00  0.00     0.185 HD
HETATM    4  C9  UNL     1      -1.348  -0.554  -0.800  1.00  0.00     0.211 A 
HETATM    5  N5  UNL     1      -2.013   0.439  -0.171  1.00  0.00    -0.258 N 
HETATM    6  C18 UNL     1      -1.280   1.459   0.294  1.00  0.00     0.346 A 
HETATM    7  O8  UNL     1      -1.870   2.394   0.884  1.00  0.00    -0.246 OA
HETATM    8  N12 UNL     1       0.079   1.523   0.151  1.00  0.00    -0.141 N 
ATOM      9  H12 UNL     1       0.600   2.319   0.519  1.00  0.00     0.189 HD
ENDROOT
BRANCH   5  10
HETATM   10  C10 UNL     1      -3.416   0.316  -0.080  1.00  0.00     0.062 A 
HETATM   11  C11 UNL     1      -4.207   1.409  -0.370  1.00  0.00     0.118 A 
HETATM   12  N6  UNL     1      -5.527   1.358  -0.329  1.00  0.00    -0.359 N 
HETATM   13  C12 UNL     1      -6.240   0.220   0.004  1.00  0.00     0.111 A 
ATOM     14  H6  UNL     1      -6.049   2.205  -0.555  1.00  0.00     0.165 HD
HETATM   15  C16 UNL     1      -5.529  -0.871   0.307  1.00  0.00     0.135 A 
HETATM   16  C17 UNL     1      -4.089  -0.817   0.258  1.00  0.00     0.070 A 
BRANCH  13  17
HETATM   17  C13 UNL     1      -7.674   0.397  -0.079  1.00  0.00     0.154 A 
HETATM   18  N7  UNL     1      -8.141   1.699  -0.208  1.00  0.00    -0.292 N 
HETATM   19  C14 UNL     1      -9.435   1.963  -0.161  1.00  0.00     0.340 A 
ATOM     20  H7  UNL     1      -7.476   2.461  -0.341  1.00  0.00     0.172 HD
HETATM   21  O5  UNL     1      -9.903   3.118  -0.273  1.00  0.00    -0.246 OA
HETATM   22  N8  UNL     1     -10.336   0.980   0.012  1.00  0.00    -0.141 N 
HETATM   23  C15 UNL     1      -9.924  -0.299   0.139  1.00  0.00     0.681 A 
ATOM     24  H8  UNL     1     -11.331   1.201   0.047  1.00  0.00     0.189 HD
HETATM   25  N10 UNL     1      -8.570  -0.550   0.087  1.00  0.00    -0.174 N 
ATOM     26  H10 UNL     1      -8.249  -1.514   0.182  1.00  0.00     0.186 HD
BRANCH  23  27
HETATM   27  N9  UNL     1     -10.776  -1.250   0.303  1.00  0.00    -0.234 N 
ATOM     28  H92 UNL     1     -11.778  -1.064   0.341  1.00  0.00     0.174 HD
ATOM     29  H91 UNL     1     -10.465  -2.217   0.399  1.00  0.00     0.174 HD
ENDBRANCH  23  27
ENDBRANCH  13  17
BRANCH  15  30
HETATM   30  N11 UNL     1      -6.041  -2.087   0.773  1.00  0.00    -0.113 N 
HETATM   31  O6  UNL     1      -6.866  -2.214   1.663  1.00  0.00    -0.532 OA
HETATM   32  O7  UNL     1      -5.429  -3.256   0.342  1.00  0.00    -0.532 OA
ENDBRANCH  15  30
ENDBRANCH   5  10
BRANCH   1  33
HETATM   33  N3  UNL     1       1.975   0.538  -0.641  1.00  0.00    -0.191 N 
ATOM     34  H3  UNL     1       2.357  -0.270  -1.132  1.00  0.00     0.181 HD
BRANCH  33  35
HETATM   35  C7  UNL     1       2.935   1.515  -0.238  1.00  0.00     0.328 C 
BRANCH  35  36
HETATM   36  C6  UNL     1       4.229   1.144  -0.904  1.00  0.00     0.273 C 
HETATM   37  N2  UNL     1       4.979   0.006  -0.475  1.00  0.00    -0.290 N 
HETATM   38  C5  UNL     1       6.201  -0.356  -1.106  1.00  0.00     0.279 C 
ATOM     39  H2  UNL     1       4.631  -0.558   0.300  1.00  0.00     0.172 HD
HETATM   40  O2  UNL     1       6.580   0.312  -2.096  1.00  0.00    -0.268 OA
HETATM   41  O3  UNL     1       4.716   1.812  -1.862  1.00  0.00    -0.268 OA
BRANCH  38  42
HETATM   42  C3  UNL     1       7.021  -1.483  -0.628  1.00  0.00     0.207 C 
HETATM   43  C4  UNL     1       6.202  -2.780  -0.739  1.00  0.00     0.081 C 
BRANCH  42  44
HETATM   44  N1  UNL     1       7.501  -1.323   0.717  1.00  0.00    -0.385 N 
ATOM     45  H1  UNL     1       7.028  -1.758   1.509  1.00  0.00     0.156 HD
BRANCH  44  46
HETATM   46  C2  UNL     1       8.667  -0.529   0.889  1.00  0.00     0.112 C 
HETATM   47  C1  UNL     1       8.432   0.936   0.612  1.00  0.00     0.026 C 
ENDBRANCH  44  46
ENDBRANCH  42  44
BRANCH  42  48
HETATM   48  O1  UNL     1       8.095  -1.645  -1.531  1.00  0.00    -0.363 OA
ATOM     49  H1  UNL     1       7.778  -1.751  -2.420  1.00  0.00     0.213 HD
ENDBRANCH  42  48
ENDBRANCH  38  42
ENDBRANCH  35  36
BRANCH  35  50
HETATM   50  O4  UNL     1       2.617   2.784  -0.757  1.00  0.00    -0.368 OA
ATOM     51  H4  UNL     1       1.798   3.019  -0.336  1.00  0.00     0.212 HD
ENDBRANCH  35  50
ENDBRANCH  33  35
ENDBRANCH   1  33
TORSDOF 12
