REMARK  15 active torsions:
REMARK  status: ('A' for Active; 'I' for Inactive)
REMARK    1  A    between atoms: C2_2  and  N1_3 
REMARK    2  A    between atoms: C4_9  and  C5_10 
REMARK    3  A    between atoms: C5_10  and  N4_11 
REMARK    4  A    between atoms: C8_16  and  N6_17 
REMARK    5  A    between atoms: C9_22  and  N8_23 
REMARK    6  A    between atoms: C13_31  and  C14_32 
REMARK    7  A    between atoms: C14_32  and  O2_33 
REMARK    8  A    between atoms: C14_32  and  N10_35 
REMARK    9  A    between atoms: N10_35  and  C15_37 
REMARK   10  A    between atoms: C15_37  and  O3_38 
REMARK   11  A    between atoms: C15_37  and  C16_40 
REMARK   12  A    between atoms: C16_40  and  O4_41 
REMARK   13  A    between atoms: C16_40  and  C17_43 
REMARK   14  A    between atoms: C17_43  and  C18_45 
REMARK   15  A    between atoms: C18_45  and  O6_46 
ROOT
HETATM    1  N4  UNL     1      -2.149  -0.271   0.002  1.00  0.00    -0.146 N 
HETATM    2  C6  UNL     1      -2.976  -1.442   0.001  1.00  0.00     0.151 A 
HETATM    3  C7  UNL     1      -3.033  -2.605  -0.792  1.00  0.00     0.189 A 
HETATM    4  N5  UNL     1      -4.004  -3.490  -0.544  1.00  0.00    -0.168 N 
ATOM      5  H5  UNL     1      -4.081  -4.344  -1.096  1.00  0.00     0.186 HD
HETATM    6  C8  UNL     1      -4.886  -3.232   0.456  1.00  0.00     0.679 A 
HETATM    7  N7  UNL     1      -4.858  -2.142   1.230  1.00  0.00    -0.175 N 
ATOM      8  H7  UNL     1      -5.546  -2.000   1.970  1.00  0.00     0.186 HD
HETATM    9  C9  UNL     1      -3.877  -1.231   0.993  1.00  0.00     0.147 A 
HETATM   10  O1  UNL     1      -2.231  -3.058  -1.844  1.00  0.00    -0.332 OA
HETATM   11  C10 UNL     1      -0.804  -3.171  -1.995  1.00  0.00     0.198 C 
HETATM   12  C11 UNL     1      -0.139  -1.889  -2.324  1.00  0.00     0.173 C 
HETATM   13  N9  UNL     1       0.020  -0.922  -1.306  1.00  0.00    -0.190 N 
HETATM   14  C12 UNL     1       1.313  -0.565  -1.322  1.00  0.00     0.126 A 
HETATM   15  C13 UNL     1       1.850   0.391  -0.489  1.00  0.00     0.074 A 
HETATM   16  C19 UNL     1       1.037   1.026   0.416  1.00  0.00     0.271 A 
HETATM   17  O7  UNL     1       1.488   1.920   1.209  1.00  0.00    -0.267 OA
HETATM   18  N11 UNL     1      -0.266   0.674   0.443  1.00  0.00    -0.155 N 
ATOM     19  H11 UNL     1      -0.897   1.127   1.105  1.00  0.00     0.187 HD
HETATM   20  C20 UNL     1      -0.742  -0.265  -0.391  1.00  0.00     0.694 A 
ENDROOT
BRANCH  15  21
HETATM   21  C14 UNL     1       3.319   0.743  -0.567  1.00  0.00     0.257 C 
BRANCH  21  22
HETATM   22  O2  UNL     1       3.662   0.872  -1.885  1.00  0.00    -0.373 OA
ATOM     23  H2  UNL     1       4.585   1.093  -1.934  1.00  0.00     0.212 HD
ENDBRANCH  21  22
BRANCH  21  24
HETATM   24  N10 UNL     1       4.007  -0.171   0.217  1.00  0.00    -0.365 N 
ATOM     25  H10 UNL     1       3.468  -0.862   0.739  1.00  0.00     0.158 HD
BRANCH  24  26
HETATM   26  C15 UNL     1       5.396  -0.195   0.330  1.00  0.00     0.252 C 
BRANCH  26  27
HETATM   27  O3  UNL     1       6.089  -0.561  -0.821  1.00  0.00    -0.374 OA
ATOM     28  H3  UNL     1       7.036  -0.577  -0.744  1.00  0.00     0.212 HD
ENDBRANCH  26  27
BRANCH  26  29
HETATM   29  C16 UNL     1       5.977   1.057   0.938  1.00  0.00     0.237 C 
BRANCH  29  30
HETATM   30  O4  UNL     1       5.714   2.208   0.209  1.00  0.00    -0.384 OA
ATOM     31  H4  UNL     1       6.080   2.997   0.592  1.00  0.00     0.210 HD
ENDBRANCH  29  30
BRANCH  29  32
HETATM   32  C17 UNL     1       7.443   0.929   1.185  1.00  0.00     0.182 C 
HETATM   33  O5  UNL     1       8.266   1.733   0.785  1.00  0.00    -0.293 OA
BRANCH  32  34
HETATM   34  C18 UNL     1       7.923  -0.244   1.962  1.00  0.00     0.245 C 
BRANCH  34  35
HETATM   35  O6  UNL     1       9.308  -0.218   2.123  1.00  0.00    -0.393 OA
ATOM     36  H6  UNL     1       9.615  -0.968   2.620  1.00  0.00     0.209 HD
ENDBRANCH  34  35
ENDBRANCH  32  34
ENDBRANCH  29  32
ENDBRANCH  26  29
ENDBRANCH  24  26
ENDBRANCH  21  24
ENDBRANCH  15  21
BRANCH   1  37
HETATM   37  C5  UNL     1      -2.790   0.889   0.347  1.00  0.00     0.165 C 
BRANCH  37  38
HETATM   38  C4  UNL     1      -3.842   1.395  -0.683  1.00  0.00     0.140 A 
HETATM   39  N1  UNL     1      -4.555   2.495  -0.603  1.00  0.00    -0.326 N 
HETATM   40  C3  UNL     1      -5.355   2.558  -1.680  1.00  0.00     0.201 A 
HETATM   41  N2  UNL     1      -5.111   1.469  -2.418  1.00  0.00    -0.294 N 
HETATM   42  N3  UNL     1      -4.179   0.765  -1.793  1.00  0.00    -0.283 N 
ATOM     43  H2  UNL     1      -5.560   1.225  -3.301  1.00  0.00     0.187 HD
ATOM     44  H3  UNL     1      -3.786  -0.119  -2.116  1.00  0.00     0.188 HD
BRANCH  39  45
HETATM   45  C2  UNL     1      -4.493   3.497   0.483  1.00  0.00     0.127 C 
HETATM   46  C1  UNL     1      -5.456   3.183   1.580  1.00  0.00     0.027 C 
ENDBRANCH  39  45
ENDBRANCH  37  38
ENDBRANCH   1  37
BRANCH   9  47
HETATM   47  N8  UNL     1      -3.724  -0.195   1.726  1.00  0.00    -0.383 N 
ATOM     48  H82 UNL     1      -2.988   0.488   1.548  1.00  0.00     0.157 HD
ATOM     49  H81 UNL     1      -4.401  -0.036   2.472  1.00  0.00     0.157 HD
ENDBRANCH   9  47
BRANCH   6  50
HETATM   50  N6  UNL     1      -5.807  -4.104   0.666  1.00  0.00    -0.234 N 
ATOM     51  H62 UNL     1      -5.828  -4.935   0.076  1.00  0.00     0.174 HD
ATOM     52  H61 UNL     1      -6.469  -3.910   1.417  1.00  0.00     0.174 HD
ENDBRANCH   6  50
TORSDOF 15
