REMARK  5 active torsions:
REMARK  status: ('A' for Active; 'I' for Inactive)
REMARK    1  A    between atoms: N1_1  and  N2_4 
REMARK    2  A    between atoms: N2_4  and  C1_5 
REMARK    3  A    between atoms: C1_5  and  C2_6 
REMARK    4  A    between atoms: C2_6  and  C3_7 
REMARK    5  A    between atoms: C3_7  and  C4_8 
ROOT
HETATM    1  C4  UNL     1       1.785  -0.076   0.439  1.00  0.00     0.025 A 
HETATM    2  C5  UNL     1       2.321  -0.047  -0.813  1.00  0.00     0.113 A 
HETATM    3  N3  UNL     1       3.677  -0.104  -0.682  1.00  0.00    -0.360 N 
ATOM      4  H3  UNL     1       4.347  -0.099  -1.451  1.00  0.00     0.166 HD
HETATM    5  C6  UNL     1       3.984  -0.168   0.612  1.00  0.00     0.180 A 
HETATM    6  N4  UNL     1       2.822  -0.150   1.298  1.00  0.00    -0.355 N 
ATOM      7  H4  UNL     1       2.740  -0.187   2.314  1.00  0.00     0.166 HD
ENDROOT
BRANCH   1   8
HETATM    8  C3  UNL     1       0.373  -0.040   0.899  1.00  0.00     0.059 C 
BRANCH   8   9
HETATM    9  C2  UNL     1      -0.561   0.043  -0.307  1.00  0.00     0.024 C 
BRANCH   9  10
HETATM   10  C1  UNL     1      -1.968   0.076   0.247  1.00  0.00     0.135 C 
BRANCH  10  11
HETATM   11  N2  UNL     1      -2.957   0.156  -0.810  1.00  0.00    -0.148 NA
BRANCH  11  12
HETATM   12  N1  UNL     1      -4.249   0.187  -0.350  1.00  0.00    -0.348 N 
ATOM     13  H12 UNL     1      -4.476   0.156   0.644  1.00  0.00     0.172 HD
ATOM     14  H11 UNL     1      -4.945   0.243  -1.094  1.00  0.00     0.172 HD
ENDBRANCH  11  12
ENDBRANCH  10  11
ENDBRANCH   9  10
ENDBRANCH   8   9
ENDBRANCH   1   8
TORSDOF 5
