REMARK  4 active torsions:
REMARK  status: ('A' for Active; 'I' for Inactive)
REMARK    1  A    between atoms: N1_1  and  C1_5 
REMARK    2  A    between atoms: C1_5  and  C2_6 
REMARK    3  A    between atoms: C2_6  and  N2_7 
REMARK    4  A    between atoms: N2_7  and  C3_9 
ROOT
HETATM    1  N2  UNL     1      -0.178  -0.713  -0.669  1.00  0.00    -0.373 N 
ATOM      2  H2  UNL     1      -0.155  -1.666  -1.032  1.00  0.00     0.161 HD
ENDROOT
BRANCH   1   3
HETATM    3  C2  UNL     1       1.042  -0.009  -0.431  1.00  0.00     0.148 C 
BRANCH   3   4
HETATM    4  C1  UNL     1       2.201  -0.916  -0.087  1.00  0.00     0.249 C 
BRANCH   4   5
HETATM    5  N1  UNL     1       3.367  -0.055   0.126  1.00  0.00    -0.078 N 
ATOM      6  H13 UNL     1       3.560   0.561  -0.663  1.00  0.00     0.274 HD
ATOM      7  H12 UNL     1       3.207   0.673   0.822  1.00  0.00     0.274 HD
ATOM      8  H11 UNL     1       4.149  -0.667   0.358  1.00  0.00     0.274 HD
ENDBRANCH   4   5
ENDBRANCH   3   4
ENDBRANCH   1   3
BRANCH   1   9
HETATM    9  C3  UNL     1      -1.323  -0.136  -0.422  1.00  0.00     0.131 A 
HETATM   10  C4  UNL     1      -1.527   1.139   0.067  1.00  0.00     0.154 A 
HETATM   11  N3  UNL     1      -2.862   1.369   0.187  1.00  0.00    -0.292 N 
HETATM   12  N4  UNL     1      -3.461   0.258  -0.220  1.00  0.00    -0.021 NA
ATOM     13  H3  UNL     1      -3.311   2.222   0.522  1.00  0.00     0.183 HD
HETATM   14  N5  UNL     1      -2.557  -0.646  -0.586  1.00  0.00    -0.268 N 
ATOM     15  H5  UNL     1      -2.767  -1.581  -0.937  1.00  0.00     0.186 HD
ENDBRANCH   1   9
TORSDOF 4
