REMARK  4 active torsions:
REMARK  status: ('A' for Active; 'I' for Inactive)
REMARK    1  A    between atoms: N1_2  and  C2_3 
REMARK    2  A    between atoms: N1_2  and  C4_9 
REMARK    3  A    between atoms: C2_3  and  C3_4 
REMARK    4  A    between atoms: C3_4  and  N2_5 
ROOT
HETATM    1  C1  UNL     1      -0.239  -2.183   0.538  1.00  0.00     0.310 C 
HETATM    2  N1  UNL     1       0.092  -1.027  -0.404  1.00  0.00     0.093 N 
ENDROOT
BRANCH   2   3
HETATM    3  C2  UNL     1       1.117  -0.319   0.254  1.00  0.00     0.299 C 
BRANCH   3   4
HETATM    4  C3  UNL     1       1.920   0.687  -0.503  1.00  0.00     0.259 C 
BRANCH   4   5
HETATM    5  N2  UNL     1       2.924   1.314   0.365  1.00  0.00    -0.078 N 
ATOM      6  H23 UNL     1       2.500   1.720   1.199  1.00  0.00     0.274 HD
ATOM      7  H22 UNL     1       3.519   0.619   0.817  1.00  0.00     0.274 HD
ATOM      8  H21 UNL     1       3.472   2.001  -0.152  1.00  0.00     0.274 HD
ENDBRANCH   4   5
ENDBRANCH   3   4
ENDBRANCH   2   3
BRANCH   2   9
HETATM    9  C4  UNL     1      -1.172  -0.452  -0.625  1.00  0.00     0.273 C 
HETATM   10  C5  UNL     1      -1.857   0.164   0.588  1.00  0.00     0.269 C 
HETATM   11  N3  UNL     1      -2.030   1.412  -0.088  1.00  0.00    -0.071 N 
HETATM   12  C6  UNL     1      -1.500   0.786  -1.300  1.00  0.00     0.269 C 
ATOM     13  H32 UNL     1      -2.938   1.877  -0.097  1.00  0.00     0.277 HD
ATOM     14  H31 UNL     1      -1.612   2.266   0.282  1.00  0.00     0.277 HD
ENDBRANCH   2   9
TORSDOF 4
