REMARK  5 active torsions:
REMARK  status: ('A' for Active; 'I' for Inactive)
REMARK    1  A    between atoms: N1_1  and  C1_5 
REMARK    2  A    between atoms: C1_5  and  C2_6 
REMARK    3  A    between atoms: C2_6  and  C3_7 
REMARK    4  A    between atoms: C3_7  and  C4_8 
REMARK    5  A    between atoms: C4_8  and  N2_9 
ROOT
HETATM    1  C3  UNL     1      -0.463  -0.350  -0.096  1.00  0.00     0.032 C 
HETATM    2  C5  UNL     1      -0.097  -1.504  -0.992  1.00  0.00     0.245 C 
HETATM    3  N3  UNL     1      -1.238  -2.274  -0.568  1.00  0.00    -0.073 N 
ATOM      4  H31 UNL     1      -1.129  -3.257  -0.317  1.00  0.00     0.277 HD
ATOM      5  H32 UNL     1      -1.962  -2.530  -1.239  1.00  0.00     0.277 HD
HETATM    6  C6  UNL     1      -1.512  -1.275   0.466  1.00  0.00     0.245 C 
ENDROOT
BRANCH   1   7
HETATM    7  C2  UNL     1       0.640   0.026   0.841  1.00  0.00     0.041 C 
BRANCH   7   8
HETATM    8  C1  UNL     1       1.745   0.715   0.077  1.00  0.00     0.230 C 
BRANCH   8   9
HETATM    9  N1  UNL     1       2.792   1.063   1.011  1.00  0.00    -0.079 N 
ATOM     10  H13 UNL     1       2.450   1.619   1.795  1.00  0.00     0.274 HD
ATOM     11  H12 UNL     1       3.125   0.260   1.545  1.00  0.00     0.274 HD
ATOM     12  H11 UNL     1       3.539   1.528   0.495  1.00  0.00     0.274 HD
ENDBRANCH   8   9
ENDBRANCH   7   8
ENDBRANCH   1   7
BRANCH   1  13
HETATM   13  C4  UNL     1      -1.083   0.821  -0.810  1.00  0.00     0.242 C 
BRANCH  13  14
HETATM   14  N2  UNL     1      -1.638   1.731   0.201  1.00  0.00    -0.079 N 
ATOM     15  H23 UNL     1      -2.289   1.266   0.834  1.00  0.00     0.274 HD
ATOM     16  H22 UNL     1      -0.948   2.014   0.897  1.00  0.00     0.274 HD
ATOM     17  H21 UNL     1      -2.058   2.525  -0.283  1.00  0.00     0.274 HD
ENDBRANCH  13  14
ENDBRANCH   1  13
TORSDOF 5
