REMARK  12 active torsions:
REMARK  status: ('A' for Active; 'I' for Inactive)
REMARK    1  A    between atoms: N1_1  and  C1_4 
REMARK    2  A    between atoms: C2_7  and  C3_8 
REMARK    3  A    between atoms: C3_8  and  N3_9 
REMARK    4  A    between atoms: N3_9  and  C4_10 
REMARK    5  A    between atoms: N3_9  and  S1_14 
REMARK    6  A    between atoms: C4_10  and  C5_11 
REMARK    7  A    between atoms: C5_11  and  O1_12 
REMARK    8  A    between atoms: S1_14  and  N4_15 
REMARK    9  A    between atoms: C6_22  and  N6_23 
REMARK   10  A    between atoms: N6_23  and  C7_25 
REMARK   11  A    between atoms: C7_25  and  C8_26 
REMARK   12  A    between atoms: C8_26  and  N7_27 
ROOT
HETATM    1  C1  UNL     1       0.612   0.932  -2.592  1.00  0.00     0.691 A 
HETATM    2  N2  UNL     1      -0.279   0.475  -1.678  1.00  0.00    -0.178 N 
ATOM      3  H2  UNL     1      -1.280   0.544  -1.863  1.00  0.00     0.185 HD
HETATM    4  C2  UNL     1       0.157  -0.069  -0.528  1.00  0.00     0.127 A 
HETATM    5  N5  UNL     1       1.487  -0.132  -0.337  1.00  0.00    -0.178 N 
ATOM      6  H5  UNL     1       1.837  -0.540   0.530  1.00  0.00     0.185 HD
HETATM    7  C6  UNL     1       2.377   0.321  -1.241  1.00  0.00     0.694 A 
HETATM    8  N8  UNL     1       1.945   0.865  -2.393  1.00  0.00    -0.023 N 
ATOM      9  H8  UNL     1       2.602   1.214  -3.091  1.00  0.00     0.203 HD
ENDROOT
BRANCH   4  10
HETATM   10  C3  UNL     1      -0.747  -0.594   0.527  1.00  0.00     0.186 C 
BRANCH  10  11
HETATM   11  N3  UNL     1      -2.126  -0.467   0.202  1.00  0.00    -0.185 NA
BRANCH  11  12
HETATM   12  C4  UNL     1      -2.873  -0.242   1.426  1.00  0.00     0.135 C 
BRANCH  12  13
HETATM   13  C5  UNL     1      -4.026   0.721   1.191  1.00  0.00     0.179 C 
BRANCH  13  14
HETATM   14  O1  UNL     1      -3.523   1.948   0.737  1.00  0.00    -0.400 OA
ATOM     15  H1  UNL     1      -4.243   2.550   0.590  1.00  0.00     0.209 HD
ENDBRANCH  13  14
ENDBRANCH  12  13
ENDBRANCH  11  12
BRANCH  11  16
HETATM   16  S1  UNL     1      -2.796  -1.790  -0.630  1.00  0.00     0.297 S 
HETATM   17  O2  UNL     1      -1.831  -2.477  -1.545  1.00  0.00    -0.189 OA
HETATM   18  O3  UNL     1      -3.949  -1.315  -1.496  1.00  0.00    -0.189 OA
BRANCH  16  19
HETATM   19  N4  UNL     1      -3.439  -2.966   0.453  1.00  0.00    -0.316 N 
ATOM     20  H42 UNL     1      -3.413  -2.866   1.468  1.00  0.00     0.170 HD
ATOM     21  H41 UNL     1      -3.841  -3.760  -0.046  1.00  0.00     0.170 HD
ENDBRANCH  16  19
ENDBRANCH  11  16
ENDBRANCH  10  11
ENDBRANCH   4  10
BRANCH   1  22
HETATM   22  N1  UNL     1       0.170   1.451  -3.691  1.00  0.00    -0.234 N 
ATOM     23  H12 UNL     1      -0.838   1.502  -3.841  1.00  0.00     0.174 HD
ATOM     24  H11 UNL     1       0.840   1.795  -4.379  1.00  0.00     0.174 HD
ENDBRANCH   1  22
BRANCH   7  25
HETATM   25  N6  UNL     1       3.659   0.226  -0.987  1.00  0.00    -0.224 N 
ATOM     26  H6  UNL     1       4.334   0.569  -1.671  1.00  0.00     0.177 HD
BRANCH  25  27
HETATM   27  C7  UNL     1       4.124  -0.350   0.233  1.00  0.00     0.165 C 
BRANCH  27  28
HETATM   28  C8  UNL     1       4.053   0.593   1.406  1.00  0.00     0.249 C 
BRANCH  28  29
HETATM   29  N7  UNL     1       4.826   1.780   1.241  1.00  0.00    -0.078 N 
ATOM     30  H73 UNL     1       5.796   1.549   1.025  1.00  0.00     0.274 HD
ATOM     31  H72 UNL     1       4.567   2.260   0.379  1.00  0.00     0.274 HD
ATOM     32  H71 UNL     1       4.778   2.418   2.035  1.00  0.00     0.274 HD
ENDBRANCH  28  29
ENDBRANCH  27  28
ENDBRANCH  25  27
ENDBRANCH   7  25
TORSDOF 12
