REMARK  8 active torsions:
REMARK  status: ('A' for Active; 'I' for Inactive)
REMARK    1  A    between atoms: N1_2  and  C2_3 
REMARK    2  A    between atoms: N1_2  and  C6_22 
REMARK    3  A    between atoms: C2_3  and  C3_4 
REMARK    4  A    between atoms: C3_4  and  N2_5 
REMARK       I    between atoms: C4_7  and  N4_9 
REMARK    5  A    between atoms: N4_9  and  N5_11 
REMARK       I    between atoms: N5_11  and  C5_13 
REMARK       I    between atoms: C5_13  and  N7_17 
REMARK    6  A    between atoms: N7_17  and  N8_19 
REMARK    7  A    between atoms: C6_22  and  C7_23 
REMARK    8  A    between atoms: C7_23  and  S1_24 
ROOT
HETATM    1  N2  UNL     1       1.261   0.188   0.921  1.00  0.00    -0.359 N 
ATOM      2  H2  UNL     1       1.604   1.146   0.853  1.00  0.00     0.162 HD
HETATM    3  C4  UNL     1       1.954  -0.754   0.384  1.00  0.00     0.203 C 
HETATM    4  N3  UNL     1       1.557  -2.135   0.421  1.00  0.00    -0.062 NA
HETATM    5  N4  UNL     1       3.178  -0.491  -0.278  1.00  0.00    -0.259 N 
ATOM      6  H4  UNL     1       3.285  -0.753  -1.258  1.00  0.00     0.190 HD
ENDROOT
BRANCH   1   7
HETATM    7  C3  UNL     1       0.037  -0.050   1.606  1.00  0.00     0.166 C 
BRANCH   7   8
HETATM    8  C2  UNL     1      -1.210   0.386   0.938  1.00  0.00     0.077 C 
BRANCH   8   9
HETATM    9  N1  UNL     1      -1.555  -0.142  -0.308  1.00  0.00    -0.395 N 
HETATM   10  C1  UNL     1      -0.812   0.164  -1.457  1.00  0.00     0.148 C 
BRANCH   9  11
HETATM   11  C6  UNL     1      -2.936  -0.465  -0.470  1.00  0.00     0.136 C 
BRANCH  11  12
HETATM   12  C7  UNL     1      -3.798   0.689  -0.906  1.00  0.00     0.159 C 
BRANCH  12  13
HETATM   13  S1  UNL     1      -5.497   0.213  -1.089  1.00  0.00     0.142 S 
HETATM   14  C8  UNL     1      -6.073  -0.376   0.479  1.00  0.00     0.161 C 
HETATM   15  O1  UNL     1      -6.286   1.432  -1.481  1.00  0.00    -0.228 OA
HETATM   16  O2  UNL     1      -5.686  -0.819  -2.170  1.00  0.00    -0.228 OA
ENDBRANCH  12  13
ENDBRANCH  11  12
ENDBRANCH   9  11
ENDBRANCH   8   9
ENDBRANCH   7   8
ENDBRANCH   1   7
BRANCH   5  17
HETATM   17  N5  UNL     1       4.231   0.116   0.385  1.00  0.00    -0.129 N 
HETATM   18  C5  UNL     1       5.017   1.129  -0.218  1.00  0.00     0.704 C 
HETATM   19  N6  UNL     1       4.699   2.359  -0.034  1.00  0.00    -0.232 N 
HETATM   20  N7  UNL     1       6.128   0.736  -0.998  1.00  0.00    -0.138 N 
ATOM     21  H62 UNL     1       3.897   2.643   0.529  1.00  0.00     0.174 HD
ATOM     22  H61 UNL     1       5.265   3.088  -0.468  1.00  0.00     0.174 HD
ATOM     23  H7  UNL     1       6.033   0.695  -2.013  1.00  0.00     0.205 HD
ATOM     24  H5  UNL     1       4.448  -0.175   1.338  1.00  0.00     0.205 HD
BRANCH  20  25
HETATM   25  N8  UNL     1       7.345   0.404  -0.420  1.00  0.00    -0.331 N 
ATOM     26  H82 UNL     1       7.423   0.450   0.596  1.00  0.00     0.177 HD
ATOM     27  H81 UNL     1       8.147   0.120  -0.983  1.00  0.00     0.177 HD
ENDBRANCH  20  25
ENDBRANCH   5  17
TORSDOF 8
