REMARK  13 active torsions:
REMARK  status: ('A' for Active; 'I' for Inactive)
REMARK    1  A    between atoms: N1_1  and  N2_4 
REMARK    2  A    between atoms: C1_6  and  N3_7 
REMARK    3  A    between atoms: C2_10  and  N5_11 
REMARK    4  A    between atoms: N5_11  and  C3_13 
REMARK    5  A    between atoms: C3_13  and  C4_14 
REMARK    6  A    between atoms: C4_14  and  C5_15 
REMARK    7  A    between atoms: C5_15  and  C6_16 
REMARK    8  A    between atoms: C6_16  and  C7_17 
REMARK    9  A    between atoms: C7_17  and  C8_18 
REMARK   10  A    between atoms: C8_18  and  N6_19 
REMARK   11  A    between atoms: C9_25  and  N8_26 
REMARK   12  A    between atoms: C10_31  and  N10_32 
REMARK   13  A    between atoms: N10_32  and  N11_34 
ROOT
HETATM    1  N3  UNL     1      -4.022   0.216   0.355  1.00  0.00    -0.064 N 
HETATM    2  N4  UNL     1      -2.804   0.196   0.947  1.00  0.00    -0.109 N 
ATOM      3  H4  UNL     1      -2.674   0.775   1.776  1.00  0.00     0.207 HD
HETATM    4  C2  UNL     1      -1.735  -0.542   0.517  1.00  0.00     0.711 C 
HETATM    5  N7  UNL     1      -1.603  -1.242  -0.625  1.00  0.00    -0.021 N 
ATOM      6  H7  UNL     1      -0.715  -1.733  -0.727  1.00  0.00     0.203 HD
HETATM    7  C9  UNL     1      -2.465  -1.399  -1.664  1.00  0.00     0.705 C 
HETATM    8  N9  UNL     1      -3.674  -0.834  -1.816  1.00  0.00    -0.019 N 
ATOM      9  H9  UNL     1      -4.191  -1.074  -2.662  1.00  0.00     0.203 HD
HETATM   10  C10 UNL     1      -4.286   0.039  -0.941  1.00  0.00     0.733 C 
ENDROOT
BRANCH   4  11
HETATM   11  N5  UNL     1      -0.777  -0.533   1.328  1.00  0.00    -0.204 N 
ATOM     12  H5  UNL     1      -0.943   0.016   2.171  1.00  0.00     0.183 HD
BRANCH  11  13
HETATM   13  C3  UNL     1       0.487  -1.151   1.273  1.00  0.00     0.079 C 
BRANCH  13  14
HETATM   14  C4  UNL     1       1.512  -0.383   0.465  1.00  0.00     0.045 C 
BRANCH  14  15
HETATM   15  C5  UNL     1       2.847  -1.104   0.447  1.00  0.00     0.005 C 
BRANCH  15  16
HETATM   16  C6  UNL     1       3.878  -0.364  -0.345  1.00  0.00     0.002 C 
BRANCH  16  17
HETATM   17  C7  UNL     1       4.151   1.020   0.195  1.00  0.00     0.027 C 
BRANCH  17  18
HETATM   18  C8  UNL     1       5.189   1.683  -0.654  1.00  0.00     0.229 C 
BRANCH  18  19
HETATM   19  N6  UNL     1       6.438   0.971  -0.684  1.00  0.00    -0.079 N 
ATOM     20  H63 UNL     1       6.789   0.814   0.261  1.00  0.00     0.274 HD
ATOM     21  H62 UNL     1       6.297   0.003  -0.974  1.00  0.00     0.274 HD
ATOM     22  H61 UNL     1       7.146   1.423  -1.263  1.00  0.00     0.274 HD
ENDBRANCH  18  19
ENDBRANCH  17  18
ENDBRANCH  16  17
ENDBRANCH  15  16
ENDBRANCH  14  15
ENDBRANCH  13  14
ENDBRANCH  11  13
ENDBRANCH   4  11
BRANCH   1  23
HETATM   23  C1  UNL     1      -5.132   0.440   1.188  1.00  0.00     0.241 C 
HETATM   24  N2  UNL     1      -5.122   1.244   2.171  1.00  0.00    -0.300 N 
ATOM     25  H2  UNL     1      -5.251   0.600   2.951  1.00  0.00     0.187 HD
BRANCH  24  26
HETATM   26  N1  UNL     1      -5.053   2.319   2.762  1.00  0.00    -0.344 N 
ATOM     27  H12 UNL     1      -4.926   2.923   1.950  1.00  0.00     0.176 HD
ATOM     28  H11 UNL     1      -5.045   2.965   3.552  1.00  0.00     0.176 HD
ENDBRANCH  24  26
ENDBRANCH   1  23
BRANCH   7  29
HETATM   29  N8  UNL     1      -2.094  -2.173  -2.616  1.00  0.00    -0.234 N 
ATOM     30  H82 UNL     1      -1.176  -2.602  -2.501  1.00  0.00     0.174 HD
ATOM     31  H81 UNL     1      -2.741  -2.291  -3.396  1.00  0.00     0.174 HD
ENDBRANCH   7  29
BRANCH  10  32
HETATM   32  N10 UNL     1      -5.193   0.766  -1.443  1.00  0.00    -0.136 N 
ATOM     33  H10 UNL     1      -5.397   0.632  -2.433  1.00  0.00     0.205 HD
BRANCH  32  34
HETATM   34  N11 UNL     1      -5.930   1.720  -0.779  1.00  0.00    -0.331 N 
ATOM     35 2H11 UNL     1      -5.712   1.840   0.210  1.00  0.00     0.177 HD
ATOM     36 1H11 UNL     1      -6.661   2.306  -1.183  1.00  0.00     0.177 HD
ENDBRANCH  32  34
ENDBRANCH  10  32
TORSDOF 13
