REMARK  12 active torsions:
REMARK  status: ('A' for Active; 'I' for Inactive)
REMARK    1  A    between atoms: N1_1  and  C1_4 
REMARK       I    between atoms: N3_12  and  C5_13 
REMARK    2  A    between atoms: C5_13  and  C6_15 
REMARK    3  A    between atoms: C6_15  and  O4_16 
REMARK    4  A    between atoms: O4_16  and  C7_17 
REMARK    5  A    between atoms: C8_20  and  N5_21 
REMARK    6  A    between atoms: N5_21  and  C9_23 
REMARK    7  A    between atoms: C11_25  and  O5_26 
REMARK    8  A    between atoms: C12_28  and  N6_29 
REMARK    9  A    between atoms: C14_31  and  C15_32 
REMARK   10  A    between atoms: C19_43  and  N9_44 
REMARK   11  A    between atoms: N9_44  and  C20_46 
REMARK   12  A    between atoms: C20_46  and  C21_47 
ROOT
HETATM    1  C7  UNL     1       1.475  -2.781   0.307  1.00  0.00     0.252 A 
HETATM    2  N4  UNL     1       0.837  -1.613   0.325  1.00  0.00    -0.154 N 
ATOM      3  H4  UNL     1       1.360  -0.757   0.510  1.00  0.00     0.188 HD
HETATM    4  C8  UNL     1      -0.516  -1.544   0.098  1.00  0.00     0.696 A 
HETATM    5  N8  UNL     1      -1.218  -2.655  -0.146  1.00  0.00    -0.022 N 
ATOM      6  H8  UNL     1      -2.223  -2.602  -0.314  1.00  0.00     0.203 HD
HETATM    7  C19 UNL     1      -0.580  -3.862  -0.168  1.00  0.00     0.696 A 
HETATM    8  N11 UNL     1       0.744  -3.903   0.057  1.00  0.00    -0.154 N 
ATOM      9  H11 UNL     1       1.218  -4.806   0.040  1.00  0.00     0.188 HD
ENDROOT
BRANCH   1  10
HETATM   10  O4  UNL     1       2.821  -2.913   0.524  1.00  0.00    -0.312 OA
BRANCH  10  11
HETATM   11  C6  UNL     1       3.729  -1.891   0.782  1.00  0.00     0.282 C 
BRANCH  11  12
HETATM   12  C5  UNL     1       3.856  -0.927  -0.328  1.00  0.00     0.256 C 
HETATM   13  N3  UNL     1       4.712   0.210  -0.312  1.00  0.00    -0.242 N 
HETATM   14  C4  UNL     1       5.514   0.534   0.709  1.00  0.00     0.275 A 
HETATM   15  C22 UNL     1       4.764   1.055  -1.384  1.00  0.00     0.196 A 
HETATM   16  C3  UNL     1       6.349   1.652   0.693  1.00  0.00     0.145 A 
HETATM   17  O2  UNL     1       5.544  -0.172   1.737  1.00  0.00    -0.266 OA
HETATM   18  C2  UNL     1       7.165   1.972   1.748  1.00  0.00     0.279 A 
HETATM   19  C23 UNL     1       6.356   2.465  -0.416  1.00  0.00     0.143 A 
HETATM   20  N2  UNL     1       7.978   3.066   1.726  1.00  0.00    -0.155 N 
HETATM   21  O1  UNL     1       7.153   1.227   2.754  1.00  0.00    -0.266 OA
HETATM   22  C1  UNL     1       7.965   3.843   0.628  1.00  0.00     0.680 A 
ATOM     23  H2  UNL     1       8.579   3.289   2.519  1.00  0.00     0.187 HD
HETATM   24  N13 UNL     1       7.168   3.548  -0.426  1.00  0.00    -0.176 N 
ATOM     25  H13 UNL     1       7.180   4.155  -1.246  1.00  0.00     0.186 HD
HETATM   26  N12 UNL     1       5.558   2.137  -1.425  1.00  0.00    -0.337 N 
ATOM     27  H12 UNL     1       5.548   2.726  -2.258  1.00  0.00     0.168 HD
HETATM   28  O3  UNL     1       3.154  -1.114  -1.386  1.00  0.00    -0.270 OA
BRANCH  22  29
HETATM   29  N1  UNL     1       8.739   4.881   0.610  1.00  0.00    -0.234 N 
ATOM     30  H12 UNL     1       9.339   5.103   1.404  1.00  0.00     0.174 HD
ATOM     31  H11 UNL     1       8.729   5.470  -0.223  1.00  0.00     0.174 HD
ENDBRANCH  22  29
ENDBRANCH  11  12
ENDBRANCH  10  11
ENDBRANCH   1  10
BRANCH   4  32
HETATM   32  N5  UNL     1      -1.112  -0.406   0.125  1.00  0.00    -0.221 N 
ATOM     33  H5  UNL     1      -0.549   0.422   0.317  1.00  0.00     0.178 HD
BRANCH  32  34
HETATM   34  C9  UNL     1      -2.497  -0.226  -0.094  1.00  0.00     0.103 C 
HETATM   35  C10 UNL     1      -2.859   0.032  -1.552  1.00  0.00     0.059 C 
HETATM   36  C11 UNL     1      -4.214   0.733  -1.465  1.00  0.00     0.143 C 
HETATM   37  C12 UNL     1      -4.374   1.156  -0.011  1.00  0.00     0.124 C 
HETATM   38  C18 UNL     1      -2.977   1.112   0.519  1.00  0.00     0.054 C 
BRANCH  36  39
HETATM   39  O5  UNL     1      -5.204  -0.182  -1.839  1.00  0.00    -0.393 OA
ATOM     40  H5  UNL     1      -6.046   0.254  -1.785  1.00  0.00     0.210 HD
ENDBRANCH  36  39
BRANCH  37  41
HETATM   41  N6  UNL     1      -5.037   2.416   0.072  1.00  0.00    -0.301 N 
HETATM   42  C13 UNL     1      -6.143   2.595  -0.697  1.00  0.00     0.116 A 
HETATM   43  C14 UNL     1      -6.811   3.794  -0.642  1.00  0.00     0.085 A 
HETATM   44  C16 UNL     1      -6.366   4.812   0.187  1.00  0.00     0.264 A 
HETATM   45  O7  UNL     1      -6.960   5.920   0.256  1.00  0.00    -0.267 OA
HETATM   46  N7  UNL     1      -5.277   4.568   0.911  1.00  0.00    -0.275 N 
HETATM   47  C17 UNL     1      -4.608   3.383   0.864  1.00  0.00     0.329 A 
ATOM     48  H7  UNL     1      -4.928   5.301   1.529  1.00  0.00     0.173 HD
HETATM   49  O8  UNL     1      -3.602   3.311   1.606  1.00  0.00    -0.246 OA
BRANCH  43  50
HETATM   50  C15 UNL     1      -7.988   3.986  -1.459  1.00  0.00     0.277 C 
HETATM   51  O6  UNL     1      -8.639   5.079  -1.443  1.00  0.00    -0.301 OA
ENDBRANCH  43  50
ENDBRANCH  37  41
ENDBRANCH  32  34
ENDBRANCH   4  32
BRANCH   7  52
HETATM   52  N9  UNL     1      -1.297  -4.905  -0.404  1.00  0.00    -0.217 N 
ATOM     53  H9  UNL     1      -2.300  -4.816  -0.566  1.00  0.00     0.178 HD
BRANCH  52  54
HETATM   54  C20 UNL     1      -0.663  -6.201  -0.436  1.00  0.00     0.237 C 
BRANCH  54  55
HETATM   55  C21 UNL     1      -0.384  -6.677   0.938  1.00  0.00     0.249 C 
HETATM   56  N10 UNL     1       0.238  -7.923   1.170  1.00  0.00    -0.061 NA
HETATM   57  O9  UNL     1      -0.706  -5.961   1.908  1.00  0.00    -0.275 OA
ENDBRANCH  54  55
ENDBRANCH  52  54
ENDBRANCH   7  52
TORSDOF 12
