REMARK  7 active torsions:
REMARK  status: ('A' for Active; 'I' for Inactive)
REMARK    1  A    between atoms: C2_3  and  N2_4 
REMARK    2  A    between atoms: N2_4  and  O1_6 
REMARK       I    between atoms: N3_8  and  C3_9 
REMARK       I    between atoms: C3_9  and  N4_11 
REMARK    3  A    between atoms: N4_11  and  C4_13 
REMARK    4  A    between atoms: C4_13  and  C5_14 
REMARK    5  A    between atoms: C5_14  and  O3_15 
REMARK    6  A    between atoms: C5_14  and  C6_17 
REMARK    7  A    between atoms: C8_23  and  N7_24 
ROOT
HETATM    1  C1  UNL     1      -3.719  -2.516   0.026  1.00  0.00     0.176 C 
HETATM    2  N1  UNL     1      -2.711  -1.486  -0.086  1.00  0.00    -0.176 N 
HETATM    3  C2  UNL     1      -1.407  -1.668  -0.220  1.00  0.00     0.716 A 
HETATM    4  N3  UNL     1      -0.754  -0.447  -0.296  1.00  0.00    -0.076 N 
HETATM    5  C3  UNL     1       0.640  -0.319  -0.434  1.00  0.00     0.343 C 
HETATM    6  O2  UNL     1       1.273  -1.448  -0.453  1.00  0.00    -0.246 OA
HETATM    7  N4  UNL     1       1.401   0.838  -0.551  1.00  0.00    -0.339 N 
ATOM      8  H4  UNL     1       0.894   1.723  -0.562  1.00  0.00     0.164 HD
HETATM    9  C7  UNL     1      -1.707   0.498  -0.204  1.00  0.00     0.182 A 
HETATM   10  N6  UNL     1      -1.713   1.844  -0.209  1.00  0.00    -0.173 N 
ATOM     11  H6  UNL     1      -0.844   2.370  -0.302  1.00  0.00     0.186 HD
HETATM   12  C8  UNL     1      -2.900   2.483  -0.087  1.00  0.00     0.680 A 
HETATM   13  N8  UNL     1      -4.084   1.884   0.040  1.00  0.00    -0.154 N 
ATOM     14  H8  UNL     1      -4.941   2.430   0.128  1.00  0.00     0.187 HD
HETATM   15  C9  UNL     1      -4.118   0.554   0.049  1.00  0.00     0.291 A 
HETATM   16  O5  UNL     1      -5.193  -0.087   0.164  1.00  0.00    -0.265 OA
HETATM   17  C10 UNL     1      -2.938  -0.164  -0.071  1.00  0.00     0.165 A 
ENDROOT
BRANCH   3  18
HETATM   18  N2  UNL     1      -0.794  -2.930  -0.275  1.00  0.00    -0.098 N 
ATOM     19  H2  UNL     1      -0.274  -3.252   0.541  1.00  0.00     0.213 HD
BRANCH  18  20
HETATM   20  O1  UNL     1      -0.854  -3.684  -1.283  1.00  0.00    -0.276 OA
ATOM     21  H1  UNL     1      -0.439  -4.538  -1.320  1.00  0.00     0.245 HD
ENDBRANCH  18  20
ENDBRANCH   3  18
BRANCH   7  22
HETATM   22  C4  UNL     1       2.845   0.911  -0.659  1.00  0.00     0.165 C 
BRANCH  22  23
HETATM   23  C5  UNL     1       3.539   0.485   0.586  1.00  0.00     0.224 C 
BRANCH  23  24
HETATM   24  O3  UNL     1       3.318  -0.793   0.957  1.00  0.00    -0.385 OA
ATOM     25  H3  UNL     1       3.761  -1.065   1.752  1.00  0.00     0.210 HD
ENDBRANCH  23  24
BRANCH  23  26
HETATM   26  C6  UNL     1       5.020   0.687   0.487  1.00  0.00     0.261 C 
HETATM   27  N5  UNL     1       5.886  -0.381   0.768  1.00  0.00    -0.060 NA
HETATM   28  O4  UNL     1       5.459   1.804   0.155  1.00  0.00    -0.274 OA
ENDBRANCH  23  26
ENDBRANCH  22  23
ENDBRANCH   7  22
BRANCH  12  29
HETATM   29  N7  UNL     1      -2.906   3.785  -0.092  1.00  0.00    -0.234 N 
ATOM     30  H72 UNL     1      -2.000   4.243  -0.189  1.00  0.00     0.174 HD
ATOM     31  H71 UNL     1      -3.800   4.267  -0.000  1.00  0.00     0.174 HD
ENDBRANCH  12  29
TORSDOF 7
