REMARK  7 active torsions:
REMARK  status: ('A' for Active; 'I' for Inactive)
REMARK    1  A    between atoms: N1_1  and  C1_5 
REMARK    2  A    between atoms: C1_5  and  C2_6 
REMARK       I    between atoms: C2_6  and  N2_8 
REMARK    3  A    between atoms: N2_8  and  N3_9 
REMARK    4  A    between atoms: N3_9  and  C3_11 
REMARK    5  A    between atoms: C4_14  and  C5_15 
REMARK    6  A    between atoms: C5_15  and  N5_16 
REMARK       I    between atoms: N5_16  and  C6_18 
REMARK       I    between atoms: C6_18  and  N6_20 
REMARK    7  A    between atoms: N6_20  and  C7_22 
ROOT
HETATM    1  C3  UNL     1      -1.982   0.156   0.603  1.00  0.00     0.712 A 
HETATM    2  N4  UNL     1      -1.062   0.158   1.578  1.00  0.00    -0.176 N 
ATOM      3  H4  UNL     1      -1.345   0.344   2.540  1.00  0.00     0.185 HD
HETATM    4  C4  UNL     1       0.229  -0.083   1.297  1.00  0.00     0.119 A 
HETATM    5  N11 UNL     1       0.518  -0.321  -0.011  1.00  0.00    -0.296 N 
ATOM      6  H11 UNL     1       1.489  -0.510  -0.259  1.00  0.00     0.172 HD
HETATM    7  C8  UNL     1      -0.392  -0.323  -0.992  1.00  0.00     0.340 A 
HETATM    8  O3  UNL     1      -0.048  -0.548  -2.174  1.00  0.00    -0.246 OA
HETATM    9  N12 UNL     1      -1.671  -0.082  -0.694  1.00  0.00    -0.139 N 
ATOM     10  H12 UNL     1      -2.389  -0.077  -1.418  1.00  0.00     0.189 HD
ENDROOT
BRANCH   4  11
HETATM   11  C5  UNL     1       1.322  -0.117   2.336  1.00  0.00     0.201 C 
BRANCH  11  12
HETATM   12  N5  UNL     1       2.541  -0.490   1.624  1.00  0.00    -0.335 N 
HETATM   13  C6  UNL     1       3.165   0.372   0.701  1.00  0.00     0.334 C 
HETATM   14  O2  UNL     1       2.687   1.545   0.502  1.00  0.00    -0.246 OA
HETATM   15  N6  UNL     1       4.292   0.005  -0.028  1.00  0.00    -0.139 N 
ATOM     16  H6  UNL     1       4.229  -0.909  -0.476  1.00  0.00     0.189 HD
ATOM     17  H5  UNL     1       2.955  -1.405   1.801  1.00  0.00     0.164 HD
BRANCH  15  18
HETATM   18  C7  UNL     1       5.378   0.614  -0.227  1.00  0.00     0.717 A 
HETATM   19  N7  UNL     1       5.852   1.811   0.181  1.00  0.00    -0.115 N 
HETATM   20  N8  UNL     1       7.043   1.988  -0.399  1.00  0.00    -0.213 N 
ATOM     21  H7  UNL     1       5.387   2.460   0.815  1.00  0.00     0.207 HD
HETATM   22  N9  UNL     1       7.351   0.955  -1.157  1.00  0.00    -0.213 N 
ATOM     23  H8  UNL     1       7.633   2.810  -0.272  1.00  0.00     0.210 HD
HETATM   24  N10 UNL     1       6.341   0.129  -1.047  1.00  0.00    -0.115 N 
ATOM     25  H9  UNL     1       8.197   0.826  -1.712  1.00  0.00     0.210 HD
ATOM     26  H10 UNL     1       6.286  -0.772  -1.522  1.00  0.00     0.207 HD
ENDBRANCH  15  18
ENDBRANCH  11  12
ENDBRANCH   4  11
BRANCH   1  27
HETATM   27  N3  UNL     1      -3.245   0.384   0.874  1.00  0.00    -0.061 N 
ATOM     28  H3  UNL     1      -3.531   0.564   1.836  1.00  0.00     0.221 HD
BRANCH  27  29
HETATM   29  N2  UNL     1      -4.161   0.383  -0.100  1.00  0.00    -0.270 NA
HETATM   30  C2  UNL     1      -5.069   0.381  -1.065  1.00  0.00     0.338 C 
HETATM   31  O1  UNL     1      -5.367   1.300  -1.915  1.00  0.00    -0.253 OA
BRANCH  30  32
HETATM   32  C1  UNL     1      -5.938  -0.873  -1.265  1.00  0.00     0.350 C 
BRANCH  32  33
HETATM   33  N1  UNL     1      -5.591  -1.841  -0.255  1.00  0.00    -0.070 N 
ATOM     34  H13 UNL     1      -4.594  -2.055  -0.245  1.00  0.00     0.274 HD
ATOM     35  H12 UNL     1      -5.663  -1.463   0.689  1.00  0.00     0.274 HD
ATOM     36  H11 UNL     1      -6.167  -2.672  -0.388  1.00  0.00     0.274 HD
ENDBRANCH  32  33
ENDBRANCH  30  32
ENDBRANCH  27  29
ENDBRANCH   1  27
TORSDOF 7
