REMARK  7 active torsions:
REMARK  status: ('A' for Active; 'I' for Inactive)
REMARK    1  A    between atoms: C6_8  and  N3_9 
REMARK    2  A    between atoms: N3_9  and  C7_11 
REMARK    3  A    between atoms: C7_11  and  C8_12 
REMARK    4  A    between atoms: C14_20  and  C15_21 
REMARK    5  A    between atoms: N5_30  and  C20_31 
REMARK    6  A    between atoms: C20_31  and  C21_32 
REMARK    7  A    between atoms: C21_32  and  O2_33 
ROOT
HETATM    1  C1  UNL     1      -2.416  -3.376  -2.130  1.00  0.00     0.148 C 
HETATM    2  N1  UNL     1      -2.112  -2.979  -0.777  1.00  0.00    -0.392 N 
HETATM    3  C2  UNL     1      -3.233  -2.931   0.085  1.00  0.00     0.128 C 
HETATM    4  C3  UNL     1      -3.897  -1.577   0.135  1.00  0.00     0.080 C 
HETATM    5  C4  UNL     1      -2.879  -0.489   0.233  1.00  0.00     0.060 A 
HETATM    6  C5  UNL     1      -1.589  -0.701  -0.134  1.00  0.00     0.097 A 
HETATM    7  N2  UNL     1      -0.899   0.446   0.066  1.00  0.00    -0.127 N 
HETATM    8  C6  UNL     1       0.373   1.019  -0.050  1.00  0.00     0.156 A 
HETATM    9  C14 UNL     1       0.258   2.300   0.372  1.00  0.00     0.128 A 
HETATM   10  N4  UNL     1      -1.081   2.488   0.747  1.00  0.00    -0.184 N 
ATOM     11  H4  UNL     1      -1.481   3.352   1.113  1.00  0.00     0.184 HD
HETATM   12  C19 UNL     1      -1.743   1.347   0.545  1.00  0.00     0.694 A 
HETATM   13  N5  UNL     1      -2.972   0.757   0.646  1.00  0.00    -0.182 N 
HETATM   14  C22 UNL     1      -1.121  -1.989  -0.654  1.00  0.00     0.118 C 
ENDROOT
BRANCH   8  15
HETATM   15  N3  UNL     1       1.469   0.244  -0.448  1.00  0.00    -0.369 N 
ATOM     16  H3  UNL     1       1.258  -0.721  -0.703  1.00  0.00     0.161 HD
BRANCH  15  17
HETATM   17  C7  UNL     1       2.828   0.619  -0.544  1.00  0.00     0.160 C 
BRANCH  17  18
HETATM   18  C8  UNL     1       3.713  -0.584  -0.758  1.00  0.00    -0.039 A 
HETATM   19  C9  UNL     1       4.052  -1.081  -1.985  1.00  0.00     0.010 A 
HETATM   20  C10 UNL     1       4.870  -2.193  -2.129  1.00  0.00     0.026 A 
HETATM   21  C11 UNL     1       5.364  -2.825  -1.014  1.00  0.00     0.055 A 
HETATM   22 CL1  UNL     1       6.399  -4.231  -1.187  1.00  0.00    -0.083 Cl
HETATM   23  C12 UNL     1       5.034  -2.339   0.229  1.00  0.00     0.056 A 
HETATM   24 CL2  UNL     1       5.667  -3.151   1.648  1.00  0.00    -0.083 Cl
HETATM   25  C13 UNL     1       4.205  -1.214   0.356  1.00  0.00     0.034 A 
ENDBRANCH  17  18
ENDBRANCH  15  17
ENDBRANCH   8  15
BRANCH   9  26
HETATM   26  C15 UNL     1       1.168   3.439   0.354  1.00  0.00     0.108 A 
HETATM   27  C16 UNL     1       2.143   3.907  -0.459  1.00  0.00     0.043 A 
HETATM   28  C17 UNL     1       2.658   5.079   0.059  1.00  0.00     0.053 A 
HETATM   29  C18 UNL     1       1.951   5.293   1.210  1.00  0.00     0.145 A 
HETATM   30 CL3  UNL     1       2.221   6.681   2.270  1.00  0.00    -0.057 Cl
HETATM   31  O1  UNL     1       1.110   4.340   1.347  1.00  0.00    -0.296 OA
ENDBRANCH   9  26
BRANCH  13  32
HETATM   32  C20 UNL     1      -4.138   1.460   1.139  1.00  0.00     0.173 C 
BRANCH  32  33
HETATM   33  C21 UNL     1      -4.287   1.324   2.638  1.00  0.00     0.185 C 
BRANCH  33  34
HETATM   34  O2  UNL     1      -3.166   1.848   3.291  1.00  0.00    -0.399 OA
ATOM     35  H2  UNL     1      -3.260   1.763   4.233  1.00  0.00     0.209 HD
ENDBRANCH  33  34
ENDBRANCH  32  33
ENDBRANCH  13  32
TORSDOF 7
