REMARK  5 active torsions:
REMARK  status: ('A' for Active; 'I' for Inactive)
REMARK    1  A    between atoms: C2_2  and  C3_3 
REMARK    2  A    between atoms: C3_3  and  N1_4 
REMARK    3  A    between atoms: C8_9  and  C9_10 
REMARK    4  A    between atoms: N2_14  and  C11_15 
REMARK    5  A    between atoms: C14_19  and  C15_20 
ROOT
HETATM    1  C11 UNL     1       1.156  -1.508  -0.388  1.00  0.00     0.082 A 
HETATM    2  C12 UNL     1       1.642  -0.419  -1.115  1.00  0.00     0.058 A 
HETATM    3  C13 UNL     1       3.001  -0.206  -1.199  1.00  0.00     0.049 A 
HETATM    4 CL1  UNL     1       3.575   1.133  -2.172  1.00  0.00    -0.083 Cl
HETATM    5  C14 UNL     1       3.929  -1.019  -0.596  1.00  0.00     0.029 A 
HETATM    6  C19 UNL     1       3.399  -2.101   0.123  1.00  0.00     0.169 A 
HETATM    7  F1  UNL     1       4.250  -2.958   0.752  1.00  0.00    -0.202 F 
HETATM    8  C20 UNL     1       2.049  -2.332   0.219  1.00  0.00     0.182 A 
HETATM    9  F2  UNL     1       1.574  -3.387   0.922  1.00  0.00    -0.200 F 
ENDROOT
BRANCH   1  10
HETATM   10  N2  UNL     1      -0.265  -1.670  -0.346  1.00  0.00    -0.321 N 
HETATM   11  C6  UNL     1      -1.124  -0.954   0.359  1.00  0.00     0.027 A 
HETATM   12  C5  UNL     1      -0.918   0.179   1.288  1.00  0.00     0.088 C 
HETATM   13  C7  UNL     1      -2.387  -1.435   0.107  1.00  0.00     0.011 A 
HETATM   14  C4  UNL     1      -2.081   1.072   1.472  1.00  0.00     0.279 C 
HETATM   15  N1  UNL     1      -3.308   0.654   0.902  1.00  0.00     0.093 N 
HETATM   16  C21 UNL     1      -3.506  -0.756   0.806  1.00  0.00     0.314 C 
HETATM   17  C8  UNL     1      -2.268  -2.466  -0.773  1.00  0.00     0.066 A 
HETATM   18  C10 UNL     1      -0.931  -2.601  -1.047  1.00  0.00     0.116 A 
BRANCH  15  19
HETATM   19  C3  UNL     1      -3.691   1.314  -0.302  1.00  0.00     0.272 C 
BRANCH  19  20
HETATM   20  C2  UNL     1      -4.051   2.761  -0.137  1.00  0.00     0.026 C 
HETATM   21  C1  UNL     1      -5.207   2.983   0.797  1.00  0.00     0.007 C 
ENDBRANCH  19  20
ENDBRANCH  15  19
BRANCH  17  22
HETATM   22  C9  UNL     1      -3.383  -3.259  -1.303  1.00  0.00     0.211 C 
HETATM   23  O1  UNL     1      -3.076  -4.178  -2.124  1.00  0.00    -0.644 OA
HETATM   24  O2  UNL     1      -4.679  -3.036  -0.947  1.00  0.00    -0.644 OA
ENDBRANCH  17  22
ENDBRANCH   1  10
BRANCH   5  25
HETATM   25  C15 UNL     1       5.354  -0.840  -0.593  1.00  0.00     0.041 C 
HETATM   26  C16 UNL     1       6.054   0.159  -0.164  1.00  0.00     0.079 C 
HETATM   27  S1  UNL     1       7.885   0.263  -0.230  1.00  0.00    -0.024 SA
HETATM   28  C18 UNL     1       5.744   1.417   0.503  1.00  0.00     0.266 C 
HETATM   29  C17 UNL     1       7.856   2.087  -0.380  1.00  0.00     0.291 C 
HETATM   30  O3  UNL     1       8.674   2.794  -1.003  1.00  0.00    -0.260 OA
HETATM   31  N3  UNL     1       6.702   2.412   0.375  1.00  0.00    -0.283 N 
ATOM     32  H3  UNL     1       6.582   3.330   0.802  1.00  0.00     0.172 HD
HETATM   33  O4  UNL     1       4.647   1.567   1.165  1.00  0.00    -0.267 OA
ENDBRANCH   5  25
TORSDOF 5
