REMARK  5 active torsions:
REMARK  status: ('A' for Active; 'I' for Inactive)
REMARK    1  A    between atoms: C3_4  and  O1_5 
REMARK    2  A    between atoms: C3_4  and  C4_7 
REMARK    3  A    between atoms: C7_10  and  O2_11 
REMARK    4  A    between atoms: C11_18  and  C12_19 
REMARK    5  A    between atoms: C12_19  and  S1_20 
ROOT
HETATM    1  C4  UNL     1      -2.552  -0.387  -0.250  1.00  0.00     0.138 C 
HETATM    2  C5  UNL     1      -3.532  -1.156   0.619  1.00  0.00     0.050 C 
HETATM    3  C6  UNL     1      -3.688  -0.555   1.990  1.00  0.00     0.035 C 
HETATM    4  C7  UNL     1      -4.113   0.876   1.995  1.00  0.00     0.120 C 
HETATM    5  C8  UNL     1      -3.460   1.723   0.922  1.00  0.00     0.067 C 
HETATM    6  C9  UNL     1      -2.380   0.970   0.286  1.00  0.00     0.175 C 
HETATM    7  O3  UNL     1      -1.591   1.717  -0.645  1.00  0.00    -0.310 OA
HETATM    8  C10 UNL     1      -0.433   0.994  -1.023  1.00  0.00     0.289 C 
HETATM    9  O4  UNL     1       0.353   1.481  -1.845  1.00  0.00    -0.262 OA
HETATM   10  C11 UNL     1      -0.192  -0.346  -0.411  1.00  0.00     0.232 C 
HETATM   11  O5  UNL     1      -1.295  -1.032  -0.044  1.00  0.00    -0.354 OA
ENDROOT
BRANCH  10  12
HETATM   12  C12 UNL     1       0.744  -0.210   0.770  1.00  0.00     0.121 C 
BRANCH  12  13
HETATM   13  S1  UNL     1       2.349   0.438   0.447  1.00  0.00    -0.125 SA
HETATM   14  C13 UNL     1       3.598  -0.857  -0.041  1.00  0.00     0.084 C 
HETATM   15  C14 UNL     1       3.637  -1.686   1.263  1.00  0.00     0.027 C 
HETATM   16  C15 UNL     1       4.862  -0.052  -0.135  1.00  0.00    -0.001 A 
HETATM   17  C16 UNL     1       5.961  -0.620  -0.772  1.00  0.00     0.043 A 
HETATM   18  C20 UNL     1       4.922   1.278   0.324  1.00  0.00     0.038 A 
HETATM   19 CL2  UNL     1       5.843  -2.298  -1.288  1.00  0.00    -0.084 Cl
HETATM   20  C17 UNL     1       7.088   0.143  -0.934  1.00  0.00     0.024 A 
HETATM   21  C18 UNL     1       7.151   1.469  -0.478  1.00  0.00     0.003 A 
HETATM   22  C19 UNL     1       6.070   2.011   0.140  1.00  0.00     0.024 A 
HETATM   23 CL3  UNL     1       3.500   1.988   1.076  1.00  0.00    -0.120 Cl
ENDBRANCH  12  13
ENDBRANCH  10  12
BRANCH   1  24
HETATM   24  C3  UNL     1      -2.891  -0.561  -1.667  1.00  0.00     0.097 C 
HETATM   25  C2  UNL     1      -3.954  -0.268  -2.346  1.00  0.00     0.040 C 
HETATM   26  C1  UNL     1      -3.994  -0.581  -3.818  1.00  0.00     0.064 C 
HETATM   27 CL1  UNL     1      -5.366   0.466  -1.682  1.00  0.00    -0.087 Cl
BRANCH  24  28
HETATM   28  O1  UNL     1      -1.880  -1.165  -2.486  1.00  0.00    -0.360 OA
ATOM     29  H1  UNL     1      -1.100  -1.380  -1.988  1.00  0.00     0.217 HD
ENDBRANCH  24  28
ENDBRANCH   1  24
BRANCH   4  30
HETATM   30  O2  UNL     1      -5.500   1.051   1.944  1.00  0.00    -0.395 OA
ATOM     31  H2  UNL     1      -5.770   1.962   1.947  1.00  0.00     0.210 HD
ENDBRANCH   4  30
TORSDOF 5
