REMARK  6 active torsions:
REMARK  status: ('A' for Active; 'I' for Inactive)
REMARK    1  A    between atoms: N1_2  and  C2_3 
REMARK    2  A    between atoms: N1_2  and  C4_6 
REMARK    3  A    between atoms: C2_3  and  C3_4 
REMARK    4  A    between atoms: C7_9  and  C8_10 
REMARK    5  A    between atoms: C8_10  and  C9_11 
REMARK    6  A    between atoms: C16_23  and  O2_24 
ROOT
HETATM    1  C9  UNL     1       1.308  -1.515  -1.773  1.00  0.00     0.066 C 
HETATM    2  C10 UNL     1       0.635  -2.657  -2.502  1.00  0.00     0.033 C 
HETATM    3  C11 UNL     1       1.575  -0.426  -2.723  1.00  0.00     0.033 C 
HETATM    4  C12 UNL     1       2.722  -2.096  -1.550  1.00  0.00     0.070 C 
HETATM    5  N2  UNL     1       3.778  -2.543  -1.365  1.00  0.00    -0.196 NA
ENDROOT
BRANCH   1   6
HETATM    6  C8  UNL     1       0.765  -1.239  -0.406  1.00  0.00     0.104 C 
HETATM    7  C13 UNL     1       1.061  -2.511   0.344  1.00  0.00     0.138 C 
HETATM    8  N3  UNL     1       0.414  -3.645   0.257  1.00  0.00    -0.382 N 
HETATM    9  O1  UNL     1       2.136  -2.288   1.150  1.00  0.00    -0.294 OA
ATOM     10  H32 UNL     1      -0.391  -3.812  -0.347  1.00  0.00     0.158 HD
ATOM     11  H31 UNL     1       0.614  -4.507   0.765  1.00  0.00     0.158 HD
HETATM   12  C14 UNL     1       2.497  -0.957   1.120  1.00  0.00     0.110 A 
HETATM   13  C15 UNL     1       1.666  -0.281   0.278  1.00  0.00     0.034 A 
HETATM   14  C23 UNL     1       3.526  -0.331   1.827  1.00  0.00     0.090 A 
HETATM   15  C16 UNL     1       1.809   1.104   0.092  1.00  0.00     0.087 A 
HETATM   16  C17 UNL     1       2.826   1.715   0.795  1.00  0.00     0.009 A 
HETATM   17  C18 UNL     1       3.051   3.072   0.680  1.00  0.00     0.015 A 
HETATM   18  C22 UNL     1       3.677   1.026   1.649  1.00  0.00     0.000 A 
HETATM   19  C19 UNL     1       4.066   3.724   1.370  1.00  0.00     0.001 A 
HETATM   20  C20 UNL     1       4.895   3.026   2.208  1.00  0.00     0.001 A 
HETATM   21  C21 UNL     1       4.682   1.673   2.333  1.00  0.00     0.014 A 
HETATM   22  C24 UNL     1       4.356  -1.096   2.681  1.00  0.00     0.103 C 
HETATM   23  N4  UNL     1       5.047  -1.711   3.397  1.00  0.00    -0.191 NA
BRANCH   6  24
HETATM   24  C7  UNL     1      -0.641  -0.907  -0.291  1.00  0.00    -0.032 A 
HETATM   25  C6  UNL     1      -1.461  -0.559  -1.314  1.00  0.00     0.011 A 
HETATM   26  C5  UNL     1      -2.813  -0.246  -1.108  1.00  0.00     0.033 A 
HETATM   27  C4  UNL     1      -3.327  -0.291   0.164  1.00  0.00     0.069 A 
HETATM   28  C26 UNL     1      -2.491  -0.647   1.210  1.00  0.00     0.143 A 
HETATM   29  C25 UNL     1      -1.173  -0.953   1.012  1.00  0.00     0.053 A 
HETATM   30  F2  UNL     1      -3.029  -0.685   2.477  1.00  0.00    -0.204 F 
BRANCH  27  31
HETATM   31  N1  UNL     1      -4.699   0.017   0.370  1.00  0.00    -0.380 N 
HETATM   32  C1  UNL     1      -5.560  -1.057   0.834  1.00  0.00     0.150 C 
BRANCH  31  33
HETATM   33  C2  UNL     1      -5.320   1.288   0.174  1.00  0.00     0.154 C 
BRANCH  33  34
HETATM   34  C3  UNL     1      -4.431   2.396  -0.273  1.00  0.00     0.241 C 
HETATM   35  F1  UNL     1      -5.257   3.527  -0.387  1.00  0.00    -0.254 F 
ENDBRANCH  33  34
ENDBRANCH  31  33
ENDBRANCH  27  31
ENDBRANCH   6  24
BRANCH  15  36
HETATM   36  O2  UNL     1       0.968   1.802  -0.747  1.00  0.00    -0.359 OA
ATOM     37  H2  UNL     1       1.065   2.739  -0.873  1.00  0.00     0.217 HD
ENDBRANCH  15  36
ENDBRANCH   1   6
TORSDOF 6
