REMARK  5 active torsions:
REMARK  status: ('A' for Active; 'I' for Inactive)
REMARK    1  A    between atoms: C2_2  and  C3_4 
REMARK    2  A    between atoms: C3_4  and  O1_5 
REMARK    3  A    between atoms: C3_4  and  N1_7 
REMARK    4  A    between atoms: C10_14  and  N2_15 
REMARK       I    between atoms: N2_15  and  C11_17 
REMARK       I    between atoms: C11_17  and  N3_19 
REMARK    5  A    between atoms: N3_19  and  C12_21 
ROOT
HETATM    1  N2  UNL     1       1.542   0.181  -0.217  1.00  0.00    -0.331 N 
ATOM      2  H2  UNL     1       1.554  -0.529  -0.949  1.00  0.00     0.165 HD
HETATM    3  C11 UNL     1       0.296   0.692   0.223  1.00  0.00     0.317 C 
HETATM    4  O2  UNL     1       0.319   1.565   1.124  1.00  0.00    -0.247 OA
HETATM    5  N3  UNL     1      -0.927   0.265  -0.303  1.00  0.00    -0.338 N 
ATOM      6  H3  UNL     1      -0.886  -0.446  -1.033  1.00  0.00     0.164 HD
ENDROOT
BRANCH   1   7
HETATM    7  C10 UNL     1       2.800   0.637   0.341  1.00  0.00     0.062 C 
HETATM    8  C8  UNL     1       2.977   0.428   1.804  1.00  0.00     0.021 C 
HETATM    9  C7  UNL     1       4.377  -0.075   1.542  1.00  0.00     0.039 C 
HETATM   10  C9  UNL     1       2.121  -0.683   2.344  1.00  0.00     0.013 C 
HETATM   11  C6  UNL     1       5.395   0.993   1.601  1.00  0.00    -0.021 C 
HETATM   12  C24 UNL     1       3.939  -0.381   0.125  1.00  0.00     0.123 C 
HETATM   13  C5  UNL     1       5.614   1.821   0.584  1.00  0.00    -0.005 C 
HETATM   14  C4  UNL     1       4.771   1.611  -0.620  1.00  0.00     0.112 C 
HETATM   15  N1  UNL     1       4.818   0.130  -0.860  1.00  0.00    -0.345 N 
HETATM   16  C23 UNL     1       3.351   1.876  -0.269  1.00  0.00     0.063 C 
BRANCH  15  17
HETATM   17  C3  UNL     1       5.592  -0.469  -1.871  1.00  0.00     0.156 C 
BRANCH  17  18
HETATM   18  C2  UNL     1       5.809  -1.834  -2.235  1.00  0.00     0.052 C 
HETATM   19  C1  UNL     1       5.340  -2.924  -1.695  1.00  0.00     0.036 C 
HETATM   20 BR1  UNL     1       6.968  -2.196  -3.786  1.00  0.00    -0.047 Br
ENDBRANCH  17  18
BRANCH  17  21
HETATM   21  O1  UNL     1       6.228   0.398  -2.610  1.00  0.00    -0.345 OA
ATOM     22  H1  UNL     1       6.084   1.305  -2.368  1.00  0.00     0.219 HD
ENDBRANCH  17  21
ENDBRANCH  15  17
ENDBRANCH   1   7
BRANCH   5  23
HETATM   23  C12 UNL     1      -2.227   0.719   0.074  1.00  0.00     0.091 C 
HETATM   24  C13 UNL     1      -3.036   1.299  -1.038  1.00  0.00     0.031 C 
HETATM   25  C14 UNL     1      -4.471   1.187  -0.530  1.00  0.00    -0.003 C 
HETATM   26  C15 UNL     1      -5.164   0.207  -1.491  1.00  0.00     0.014 C 
HETATM   27  C20 UNL     1      -4.399   0.483   0.787  1.00  0.00    -0.034 C 
HETATM   28  C16 UNL     1      -5.046  -1.079  -0.713  1.00  0.00    -0.043 C 
HETATM   29  C17 UNL     1      -5.822  -2.208  -1.209  1.00  0.00     0.015 C 
HETATM   30  C18 UNL     1      -3.580  -1.328  -0.471  1.00  0.00     0.016 C 
HETATM   31  C22 UNL     1      -5.469  -0.583   0.682  1.00  0.00     0.019 C 
HETATM   32  C19 UNL     1      -3.134  -0.358   0.605  1.00  0.00     0.018 C 
HETATM   33  C21 UNL     1      -4.427   1.303   1.984  1.00  0.00     0.016 C 
ENDBRANCH   5  23
TORSDOF 5
