REMARK  4 active torsions:
REMARK  status: ('A' for Active; 'I' for Inactive)
REMARK    1  A    between atoms: C2_2  and  C3_3 
REMARK    2  A    between atoms: C3_3  and  C4_4 
REMARK    3  A    between atoms: C4_4  and  N1_5 
REMARK    4  A    between atoms: C19_31  and  C21_33 
ROOT
HETATM    1  N1  UNL     1       0.144   0.569  -0.858  1.00  0.00    -0.281 N 
HETATM    2  C5  UNL     1       1.562   0.706  -0.641  1.00  0.00     0.334 C 
HETATM    3  O1  UNL     1       2.065   1.846  -0.747  1.00  0.00    -0.246 OA
HETATM    4  N2  UNL     1       2.569  -0.267  -0.314  1.00  0.00    -0.278 N 
HETATM    5  C6  UNL     1       3.857  -0.038   0.180  1.00  0.00     0.136 A 
HETATM    6  N3  UNL     1       4.721   0.906   0.579  1.00  0.00    -0.283 N 
ATOM      7  H3  UNL     1       4.529   1.908   0.593  1.00  0.00     0.188 HD
HETATM    8  N4  UNL     1       5.866   0.341   0.954  1.00  0.00    -0.284 N 
ATOM      9  H4  UNL     1       6.684   0.843   1.299  1.00  0.00     0.188 HD
HETATM   10  C7  UNL     1       5.781  -0.991   0.809  1.00  0.00     0.123 A 
HETATM   11  N5  UNL     1       6.663  -1.886   1.058  1.00  0.00    -0.384 N 
ATOM     12  H51 UNL     1       6.598  -2.898   0.948  1.00  0.00     0.157 HD
ATOM     13  H52 UNL     1       7.599  -1.701   1.419  1.00  0.00     0.157 HD
HETATM   14  C8  UNL     1       4.495  -1.245   0.313  1.00  0.00     0.034 A 
HETATM   15  C9  UNL     1       3.623  -2.341  -0.103  1.00  0.00     0.072 A 
HETATM   16  C10 UNL     1       2.328  -1.719  -0.478  1.00  0.00     0.101 A 
HETATM   17  C11 UNL     1       1.203  -1.998   0.426  1.00  0.00     0.032 C 
HETATM   18  C12 UNL     1      -0.208  -1.885  -0.108  1.00  0.00     0.060 C 
HETATM   19  C13 UNL     1      -0.685  -0.445  -0.234  1.00  0.00     0.028 C 
HETATM   20  C14 UNL     1      -1.674  -0.118   0.453  1.00  0.00    -0.021 C 
HETATM   21  C15 UNL     1      -2.034   1.286   0.751  1.00  0.00     0.014 C 
HETATM   22  C16 UNL     1      -2.967   1.663   1.642  1.00  0.00     0.052 C 
HETATM   23  C17 UNL     1      -3.688   0.650   2.391  1.00  0.00     0.165 C 
HETATM   24  O2  UNL     1      -4.716   0.903   3.023  1.00  0.00    -0.292 OA
HETATM   25  C18 UNL     1      -3.060  -0.732   2.321  1.00  0.00     0.148 C 
HETATM   26 BR1  UNL     1      -4.006  -2.106   3.146  1.00  0.00    -0.081 Br
HETATM   27  C19 UNL     1      -2.859  -0.978   0.826  1.00  0.00     0.022 C 
HETATM   28  C20 UNL     1      -3.010  -2.374   0.471  1.00  0.00     0.026 C 
ENDROOT
BRANCH   1  29
HETATM   29  C4  UNL     1      -0.411   1.316  -1.915  1.00  0.00     0.078 C 
BRANCH  29  30
HETATM   30  C3  UNL     1      -0.887   2.666  -2.083  1.00  0.00     0.071 C 
BRANCH  30  31
HETATM   31  C2  UNL     1      -0.005   3.804  -1.799  1.00  0.00    -0.032 C 
HETATM   32  C1  UNL     1       0.380   4.624  -2.761  1.00  0.00     0.007 C 
ENDBRANCH  30  31
ENDBRANCH  29  30
ENDBRANCH   1  29
BRANCH  27  33
HETATM   33  C21 UNL     1      -4.094  -0.316   0.186  1.00  0.00    -0.021 C 
HETATM   34  C22 UNL     1      -5.318  -0.634   0.401  1.00  0.00     0.008 C 
ENDBRANCH  27  33
TORSDOF 4
