REMARK  6 active torsions:
REMARK  status: ('A' for Active; 'I' for Inactive)
REMARK    1  A    between atoms: C9_16  and  C10_17 
REMARK    2  A    between atoms: C10_17  and  C11_18 
REMARK    3  A    between atoms: C11_18  and  C12_19 
REMARK    4  A    between atoms: N3_22  and  C15_23 
REMARK    5  A    between atoms: C15_23  and  C16_24 
REMARK    6  A    between atoms: C17_25  and  C18_26 
ROOT
HETATM    1  C1  UNL     1      -6.060   3.362   0.369  1.00  0.00     0.089 C 
HETATM    2  C2  UNL     1      -5.526   2.100  -0.198  1.00  0.00     0.076 C 
HETATM    3  N1  UNL     1      -6.156   1.535  -1.173  1.00  0.00    -0.316 N 
ATOM      4  H1  UNL     1      -6.998   2.018  -1.485  1.00  0.00     0.170 HD
HETATM    5  C3  UNL     1      -5.847   0.332  -1.880  1.00  0.00     0.241 C 
HETATM    6  O1  UNL     1      -6.809  -0.259  -2.435  1.00  0.00    -0.271 OA
HETATM    7  C4  UNL     1      -4.490  -0.218  -1.977  1.00  0.00     0.181 C 
HETATM    8 CL1  UNL     1      -4.597  -1.673  -3.029  1.00  0.00    -0.115 Cl
HETATM    9  C5  UNL     1      -3.814  -0.602  -0.738  1.00  0.00     0.045 C 
HETATM   10  C6  UNL     1      -4.503  -1.874  -0.182  1.00  0.00     0.024 C 
HETATM   11  C7  UNL     1      -3.790  -1.923   1.162  1.00  0.00     0.084 C 
HETATM   12  C8  UNL     1      -2.319  -1.921   0.871  1.00  0.00     0.222 C 
HETATM   13  O2  UNL     1      -1.666  -2.864   0.429  1.00  0.00    -0.273 OA
HETATM   14  N2  UNL     1      -1.630  -0.660   1.155  1.00  0.00    -0.354 N 
ATOM     15  H2  UNL     1      -0.769  -0.652   1.702  1.00  0.00     0.163 HD
HETATM   16  C9  UNL     1      -2.183   0.560   0.653  1.00  0.00     0.113 C 
HETATM   17  C24 UNL     1      -3.712   0.300   0.405  1.00  0.00     0.061 C 
HETATM   18  N4  UNL     1      -4.319   1.572   0.385  1.00  0.00    -0.368 N 
ATOM     19  H4  UNL     1      -3.785   2.275   0.897  1.00  0.00     0.161 HD
HETATM   20  C25 UNL     1      -4.082  -0.515   1.654  1.00  0.00     0.025 C 
HETATM   21  C26 UNL     1      -5.480  -0.338   2.097  1.00  0.00     0.013 C 
ENDROOT
BRANCH  16  22
HETATM   22  C10 UNL     1      -1.564   1.165  -0.504  1.00  0.00     0.032 C 
BRANCH  22  23
HETATM   23  C11 UNL     1      -0.185   1.643  -0.460  1.00  0.00     0.041 C 
BRANCH  23  24
HETATM   24  C12 UNL     1       0.909   0.720  -0.186  1.00  0.00    -0.056 A 
HETATM   25  C13 UNL     1       1.599   0.638   1.019  1.00  0.00     0.024 A 
HETATM   26  C14 UNL     1       2.620  -0.271   1.176  1.00  0.00     0.092 A 
HETATM   27  N3  UNL     1       2.994  -1.106   0.198  1.00  0.00    -0.356 N 
HETATM   28  C22 UNL     1       2.342  -1.044  -0.969  1.00  0.00     0.092 A 
HETATM   29  C23 UNL     1       1.313  -0.157  -1.188  1.00  0.00     0.024 A 
BRANCH  27  30
HETATM   30  C15 UNL     1       4.059  -2.045   0.385  1.00  0.00     0.221 C 
BRANCH  30  31
HETATM   31  C16 UNL     1       5.356  -1.443  -0.005  1.00  0.00    -0.086 C 
HETATM   32  C17 UNL     1       6.406  -0.938  -0.314  1.00  0.00    -0.096 C 
BRANCH  32  33
HETATM   33  C18 UNL     1       7.669  -0.312  -0.670  1.00  0.00     0.013 C 
HETATM   34  C19 UNL     1       8.444   0.073   0.589  1.00  0.00     0.028 C 
HETATM   35  C20 UNL     1       8.493  -1.223  -1.545  1.00  0.00     0.028 C 
HETATM   36  C21 UNL     1       7.450   0.979  -1.456  1.00  0.00     0.028 C 
ENDBRANCH  32  33
ENDBRANCH  30  31
ENDBRANCH  27  30
ENDBRANCH  23  24
ENDBRANCH  22  23
ENDBRANCH  16  22
TORSDOF 6
