REMARK  4 active torsions:
REMARK  status: ('A' for Active; 'I' for Inactive)
REMARK    1  A    between atoms: C2_2  and  C3_3 
REMARK    2  A    between atoms: C3_3  and  C4_4 
REMARK    3  A    between atoms: C18_20  and  N1_21 
REMARK       I    between atoms: N1_21  and  C19_22 
REMARK       I    between atoms: C19_22  and  N2_24 
REMARK    4  A    between atoms: N2_24  and  N3_26 
ROOT
HETATM    1  C4  UNL     1       2.630  -0.079   0.228  1.00  0.00     0.012 C 
HETATM    2  C5  UNL     1       3.710  -0.402  -0.710  1.00  0.00     0.063 C 
HETATM    3 BR1  UNL     1       5.189   0.866  -0.770  1.00  0.00    -0.091 Br
HETATM    4  C6  UNL     1       3.309  -0.564  -2.165  1.00  0.00     0.016 C 
HETATM    5  C7  UNL     1       1.921  -1.111  -2.214  1.00  0.00     0.007 C 
HETATM    6  C8  UNL     1       0.897  -0.180  -1.610  1.00  0.00    -0.001 C 
HETATM    7  C9  UNL     1      -0.250  -1.028  -1.220  1.00  0.00     0.003 C 
HETATM    8  C10 UNL     1      -0.761  -1.948  -2.301  1.00  0.00     0.013 C 
HETATM    9  C11 UNL     1      -1.490  -3.042  -1.552  1.00  0.00     0.079 C 
HETATM   10  C12 UNL     1      -2.013  -2.612  -0.268  1.00  0.00     0.136 C 
HETATM   11  O1  UNL     1      -2.583  -3.472   0.412  1.00  0.00    -0.297 OA
HETATM   12  C13 UNL     1      -1.962  -1.239   0.368  1.00  0.00     0.027 C 
HETATM   13  C14 UNL     1      -3.413  -1.024   0.808  1.00  0.00     0.024 C 
HETATM   14  C15 UNL     1      -1.023  -1.249   1.538  1.00  0.00     0.018 C 
HETATM   15  C16 UNL     1      -0.020  -0.182   1.690  1.00  0.00     0.010 C 
HETATM   16  C17 UNL     1       0.279   0.738   0.623  1.00  0.00     0.031 C 
HETATM   17  C18 UNL     1      -1.019   1.039  -0.211  1.00  0.00     0.183 C 
HETATM   18  C20 UNL     1      -1.477  -0.300  -0.669  1.00  0.00     0.007 C 
HETATM   19  C21 UNL     1      -2.450  -0.052  -1.806  1.00  0.00     0.020 C 
HETATM   20  C22 UNL     1       1.384   0.534  -0.356  1.00  0.00    -0.029 C 
HETATM   21  C23 UNL     1       1.806   1.905  -0.904  1.00  0.00     0.016 C 
ENDROOT
BRANCH  17  22
HETATM   22  N1  UNL     1      -1.847   1.927   0.410  1.00  0.00    -0.389 NA
HETATM   23  C19 UNL     1      -2.683   2.825   1.039  1.00  0.00     0.408 C 
HETATM   24  O2  UNL     1      -2.289   3.931   1.554  1.00  0.00    -0.229 OA
HETATM   25  N2  UNL     1      -4.119   2.596   1.164  1.00  0.00    -0.226 N 
ATOM     26  H2  UNL     1      -4.541   1.754   0.771  1.00  0.00     0.194 HD
BRANCH  25  27
HETATM   27  N3  UNL     1      -4.893   3.516   1.810  1.00  0.00    -0.245 N 
HETATM   28  N4  UNL     1      -5.567   3.159   2.828  1.00  0.00    -0.331 N 
ATOM     29  H42 UNL     1      -5.518   2.191   3.145  1.00  0.00     0.178 HD
ATOM     30  H41 UNL     1      -6.145   3.847   3.311  1.00  0.00     0.178 HD
ATOM     31  H3  UNL     1      -4.931   4.480   1.480  1.00  0.00     0.208 HD
ENDBRANCH  25  27
ENDBRANCH  17  22
BRANCH   1  32
HETATM   32  C3  UNL     1       3.173   0.691   1.389  1.00  0.00     0.033 C 
BRANCH  32  33
HETATM   33  C2  UNL     1       4.202  -0.027   2.178  1.00  0.00    -0.036 C 
HETATM   34  C1  UNL     1       4.031  -0.230   3.468  1.00  0.00     0.007 C 
ENDBRANCH  32  33
ENDBRANCH   1  32
TORSDOF 4
