REMARK  9 active torsions:
REMARK  status: ('A' for Active; 'I' for Inactive)
REMARK       I    between atoms: C2_4  and  N2_5 
REMARK       I    between atoms: C2_4  and  N7_31 
REMARK    1  A    between atoms: N2_5  and  C3_7 
REMARK    2  A    between atoms: C3_7  and  C4_8 
REMARK    3  A    between atoms: C4_8  and  N3_9 
REMARK    4  A    between atoms: N3_9  and  C5_10 
REMARK    5  A    between atoms: C5_10  and  N4_12 
REMARK    6  A    between atoms: C8_15  and  N5_16 
REMARK    7  A    between atoms: N5_16  and  C9_18 
REMARK    8  A    between atoms: C9_18  and  N6_20 
REMARK    9  A    between atoms: N6_20  and  C10_22 
ROOT
HETATM    1  N4  UNL     1       0.659   1.011   0.594  1.00  0.00    -0.344 N 
HETATM    2  C6  UNL     1       1.506   1.635   1.536  1.00  0.00     0.128 C 
HETATM    3  C7  UNL     1       2.895   1.897   0.932  1.00  0.00     0.048 C 
HETATM    4  C8  UNL     1       3.404   0.587   0.466  1.00  0.00     0.126 C 
HETATM    5  C15 UNL     1       2.578   0.042  -0.657  1.00  0.00     0.136 C 
HETATM    6  C16 UNL     1       2.751  -1.487  -0.744  1.00  0.00     0.055 C 
HETATM    7  F1  UNL     1       3.059   0.556  -1.884  1.00  0.00    -0.239 F 
HETATM    8  C17 UNL     1       1.122   0.292  -0.533  1.00  0.00     0.171 C 
ENDROOT
BRANCH   1   9
HETATM    9  C5  UNL     1      -0.794   1.066   0.772  1.00  0.00     0.246 C 
HETATM   10  S1  UNL     1      -1.317   1.792   2.177  1.00  0.00    -0.025 SA
BRANCH   9  11
HETATM   11  N3  UNL     1      -1.534   0.524  -0.141  1.00  0.00    -0.392 NA
BRANCH  11  12
HETATM   12  C4  UNL     1      -2.210   0.034  -0.948  1.00  0.00     0.178 C 
BRANCH  12  13
HETATM   13  C3  UNL     1      -3.563  -0.586  -0.574  1.00  0.00     0.197 C 
BRANCH  13  14
HETATM   14  N2  UNL     1      -4.289   0.543  -0.053  1.00  0.00    -0.221 N 
HETATM   15  C2  UNL     1      -5.663   0.677  -0.472  1.00  0.00     0.671 C 
HETATM   16  N1  UNL     1      -5.814   1.379  -1.508  1.00  0.00    -0.231 N 
HETATM   17  N7  UNL     1      -6.613   0.007   0.302  1.00  0.00    -0.218 N 
HETATM   18  C1  UNL     1      -7.000   1.730  -2.219  1.00  0.00     0.165 C 
ATOM     19  H1  UNL     1      -4.951   1.756  -1.900  1.00  0.00     0.177 HD
HETATM   20  C18 UNL     1      -7.746   0.684   0.960  1.00  0.00     0.141 C 
HETATM   21  C22 UNL     1      -6.545  -1.420   0.571  1.00  0.00     0.141 C 
HETATM   22  C19 UNL     1      -9.015   0.060   0.473  1.00  0.00     0.020 C 
HETATM   23  C20 UNL     1      -8.956  -1.441   0.767  1.00  0.00     0.003 C 
HETATM   24  C21 UNL     1      -7.806  -2.003  -0.069  1.00  0.00     0.020 C 
ATOM     25  H2  UNL     1      -3.854   1.214   0.580  1.00  0.00     0.178 HD
ENDBRANCH  13  14
ENDBRANCH  12  13
ENDBRANCH  11  12
ENDBRANCH   9  11
ENDBRANCH   1   9
BRANCH   4  26
HETATM   26  N5  UNL     1       4.805   0.493   0.276  1.00  0.00    -0.359 N 
ATOM     27  H5  UNL     1       5.280  -0.293   0.721  1.00  0.00     0.162 HD
BRANCH  26  28
HETATM   28  C9  UNL     1       5.594   1.371  -0.460  1.00  0.00     0.168 C 
HETATM   29  S2  UNL     1       4.989   2.698  -1.201  1.00  0.00    -0.041 SA
BRANCH  28  30
HETATM   30  N6  UNL     1       6.967   1.156  -0.594  1.00  0.00    -0.363 N 
ATOM     31  H6  UNL     1       7.505   1.839  -1.128  1.00  0.00     0.162 HD
BRANCH  30  32
HETATM   32  C10 UNL     1       7.667   0.051  -0.038  1.00  0.00     0.083 C 
HETATM   33  C11 UNL     1       7.374  -1.310  -0.560  1.00  0.00     0.025 C 
HETATM   34  C12 UNL     1       8.608  -2.105  -0.147  1.00  0.00     0.002 C 
HETATM   35  C13 UNL     1       9.627  -1.078   0.346  1.00  0.00     0.002 C 
HETATM   36  C14 UNL     1       9.174   0.151  -0.393  1.00  0.00     0.025 C 
ENDBRANCH  30  32
ENDBRANCH  28  30
ENDBRANCH  26  28
ENDBRANCH   4  26
TORSDOF 9
