REMARK  3 active torsions:
REMARK  status: ('A' for Active; 'I' for Inactive)
REMARK    1  A    between atoms: N1_1  and  C1_5 
REMARK    2  A    between atoms: C1_5  and  C2_6 
REMARK    3  A    between atoms: C2_6  and  N2_7 
ROOT
HETATM    1  C2  UNL     1       0.661   0.412   0.003  1.00  0.00     0.120 C 
HETATM    2  C3  UNL     1      -0.171  -0.315  -1.029  1.00  0.00     0.039 C 
HETATM    3  C4  UNL     1      -1.618   0.121  -1.010  1.00  0.00     0.003 C 
HETATM    4  C5  UNL     1      -2.237  -0.512   0.238  1.00  0.00     0.000 C 
HETATM    5  C6  UNL     1      -1.276  -0.366   1.399  1.00  0.00     0.003 C 
HETATM    6  C7  UNL     1      -0.266   0.734   1.153  1.00  0.00     0.039 C 
ENDROOT
BRANCH   1   7
HETATM    7  C1  UNL     1       1.774  -0.520   0.423  1.00  0.00     0.267 C 
BRANCH   7   8
HETATM    8  N1  UNL     1       2.635  -0.793  -0.711  1.00  0.00    -0.077 N 
ATOM      9  H13 UNL     1       2.114  -1.152  -1.511  1.00  0.00     0.274 HD
ATOM     10  H12 UNL     1       2.990   0.062  -1.139  1.00  0.00     0.274 HD
ATOM     11  H11 UNL     1       3.386  -1.422  -0.428  1.00  0.00     0.274 HD
ENDBRANCH   7   8
ENDBRANCH   1   7
BRANCH   1  12
HETATM   12  N2  UNL     1       1.211   1.634  -0.473  1.00  0.00    -0.143 N 
HETATM   13  O1  UNL     1       2.447   1.771  -0.480  1.00  0.00    -0.536 OA
HETATM   14  O2  UNL     1       0.474   2.699  -0.935  1.00  0.00    -0.536 OA
ENDBRANCH   1  12
TORSDOF 3
