REMARK  2 active torsions:
REMARK  status: ('A' for Active; 'I' for Inactive)
REMARK    1  A    between atoms: C2_5  and  N3_6 
REMARK    2  A    between atoms: N3_6  and  C3_8 
ROOT
HETATM    1  N1  UNL     1       5.282   1.194   0.143  1.00  0.00    -0.172 NA
HETATM    2  C1  UNL     1       4.168   0.857   0.089  1.00  0.00     0.182 C 
HETATM    3  N2  UNL     1       2.828   0.476   0.026  1.00  0.00    -0.290 N 
ATOM      4  H2  UNL     1       2.114   1.105   0.393  1.00  0.00     0.178 HD
HETATM    5  C2  UNL     1       2.471  -0.647  -0.482  1.00  0.00     0.188 C 
ENDROOT
BRANCH   5   6
HETATM    6  N3  UNL     1       1.124  -1.079  -0.569  1.00  0.00    -0.359 N 
ATOM      7  H3  UNL     1       0.867  -1.677  -1.354  1.00  0.00     0.162 HD
BRANCH   6   8
HETATM    8  C3  UNL     1       0.104  -0.735   0.366  1.00  0.00     0.221 C 
HETATM    9  C4  UNL     1      -0.146   0.747   0.473  1.00  0.00     0.054 C 
HETATM   10  C5  UNL     1      -1.568   0.941   0.955  1.00  0.00     0.006 C 
HETATM   11  C6  UNL     1      -2.487   0.447  -0.137  1.00  0.00     0.026 C 
HETATM   12  C7  UNL     1      -1.958  -0.855  -0.684  1.00  0.00     0.170 C 
HETATM   13  O1  UNL     1      -1.033  -1.462   0.138  1.00  0.00    -0.367 OA
ENDBRANCH   6   8
ENDBRANCH   5   6
TORSDOF 2
