REMARK  3 active torsions:
REMARK  status: ('A' for Active; 'I' for Inactive)
REMARK    1  A    between atoms: C5_5  and  C6_6 
REMARK    2  A    between atoms: C6_6  and  S1_7 
REMARK    3  A    between atoms: S1_7  and  O1_8 
ROOT
HETATM    1  C1  UNL     1      -2.830   0.614  -0.131  1.00  0.00     0.032 C 
HETATM    2  C2  UNL     1      -1.758  -0.144   0.650  1.00  0.00     0.076 C 
HETATM    3  C3  UNL     1      -0.715   0.838   1.066  1.00  0.00     0.025 C 
HETATM    4  C4  UNL     1       0.495   0.875   0.170  1.00  0.00     0.013 C 
HETATM    5  C5  UNL     1       0.968  -0.521  -0.122  1.00  0.00     0.035 C 
HETATM    6  C7  UNL     1      -0.172  -1.228  -0.820  1.00  0.00     0.061 C 
HETATM    7  N1  UNL     1      -1.358  -1.261  -0.077  1.00  0.00    -0.398 N 
ATOM      8  H1  UNL     1      -1.930  -2.105  -0.069  1.00  0.00     0.159 HD
ENDROOT
BRANCH   5   9
HETATM    9  C6  UNL     1       2.207  -0.508  -0.975  1.00  0.00     0.114 C 
BRANCH   9  10
HETATM   10  S1  UNL     1       3.571   0.336  -0.227  1.00  0.00    -0.015 SA
BRANCH  10  11
HETATM   11  O1  UNL     1       3.988  -0.260   1.096  1.00  0.00    -0.330 OA
ATOM     12  H1  UNL     1       4.720   0.193   1.498  1.00  0.00     0.227 HD
ENDBRANCH  10  11
ENDBRANCH   9  10
ENDBRANCH   5   9
TORSDOF 3
