REMARK  4 active torsions:
REMARK  status: ('A' for Active; 'I' for Inactive)
REMARK    1  A    between atoms: C2_2  and  C4_4 
REMARK    2  A    between atoms: C4_4  and  N1_5 
REMARK    3  A    between atoms: C13_14  and  C14_15 
REMARK    4  A    between atoms: C14_15  and  N2_16 
ROOT
HETATM    1  N1  UNL     1      -0.234   1.372  -0.387  1.00  0.00     0.102 N 
HETATM    2  C5  UNL     1      -1.574   0.853  -0.613  1.00  0.00     0.283 C 
HETATM    3  C6  UNL     1      -1.585  -0.530   0.085  1.00  0.00    -0.012 C 
HETATM    4  C7  UNL     1      -1.570  -1.659  -0.890  1.00  0.00     0.011 C 
HETATM    5  C8  UNL     1      -2.348  -2.856  -0.359  1.00  0.00     0.001 C 
HETATM    6  C9  UNL     1      -3.748  -2.529  -0.034  1.00  0.00     0.000 C 
HETATM    7  C10 UNL     1      -3.934  -1.036   0.186  1.00  0.00     0.001 C 
HETATM    8  C11 UNL     1      -2.715  -0.616   1.044  1.00  0.00     0.011 C 
HETATM    9  C12 UNL     1      -0.194  -0.512   0.793  1.00  0.00     0.052 C 
HETATM   10  C13 UNL     1       0.572   0.225  -0.245  1.00  0.00     0.266 C 
ENDROOT
BRANCH  10  11
HETATM   11  C14 UNL     1       2.006   0.425  -0.220  1.00  0.00     0.145 C 
BRANCH  11  12
HETATM   12  N2  UNL     1       2.876  -0.694  -0.115  1.00  0.00    -0.210 N 
HETATM   13  N3  UNL     1       3.096  -1.615  -1.059  1.00  0.00    -0.290 N 
HETATM   14  C15 UNL     1       4.182  -2.388  -0.654  1.00  0.00     0.135 A 
ATOM     15  H3  UNL     1       2.564  -1.731  -1.921  1.00  0.00     0.188 HD
HETATM   16  C16 UNL     1       4.587  -1.880   0.542  1.00  0.00     0.040 A 
HETATM   17  C17 UNL     1       5.787  -2.240   1.360  1.00  0.00     0.071 C 
HETATM   18  N4  UNL     1       3.786  -0.872   0.851  1.00  0.00    -0.283 N 
ATOM     19  H4  UNL     1       3.852  -0.312   1.701  1.00  0.00     0.188 HD
ENDBRANCH  11  12
ENDBRANCH  10  11
BRANCH   1  20
HETATM   20  C4  UNL     1      -0.122   2.331   0.633  1.00  0.00     0.306 C 
BRANCH  20  21
HETATM   21  C2  UNL     1      -0.550   3.771   0.213  1.00  0.00    -0.065 C 
HETATM   22  C1  UNL     1      -1.494   4.359   0.640  1.00  0.00     0.015 C 
HETATM   23  C3  UNL     1       0.504   4.341  -0.777  1.00  0.00     0.044 C 
ENDBRANCH  20  21
ENDBRANCH   1  20
TORSDOF 4
