REMARK  4 active torsions:
REMARK  status: ('A' for Active; 'I' for Inactive)
REMARK    1  A    between atoms: C2_2  and  C4_4 
REMARK    2  A    between atoms: C4_4  and  C5_5 
REMARK    3  A    between atoms: C5_5  and  C8_8 
REMARK    4  A    between atoms: C9_11  and  C10_12 
ROOT
HETATM    1  C5  UNL     1      -0.162  -0.241   0.499  1.00  0.00     0.028 C 
HETATM    2  C6  UNL     1       0.472   0.430   1.683  1.00  0.00     0.025 C 
HETATM    3  C7  UNL     1      -0.637  -1.572   1.023  1.00  0.00     0.025 C 
ENDROOT
BRANCH   1   4
HETATM    4  C4  UNL     1      -1.286   0.521  -0.181  1.00  0.00    -0.020 C 
HETATM    5  C14 UNL     1      -2.365   0.675   0.866  1.00  0.00     0.041 C 
HETATM    6  C15 UNL     1      -3.475  -0.294   0.844  1.00  0.00     0.272 C 
HETATM    7  N3  UNL     1      -3.957  -0.730  -0.398  1.00  0.00     0.084 N 
HETATM    8  C16 UNL     1      -4.549  -2.053  -0.274  1.00  0.00     0.309 C 
HETATM    9  C17 UNL     1      -3.160  -0.584  -1.546  1.00  0.00     0.272 C 
HETATM   10  C18 UNL     1      -1.702  -0.336  -1.356  1.00  0.00     0.041 C 
BRANCH   4  11
HETATM   11  C2  UNL     1      -0.861   1.835  -0.743  1.00  0.00    -0.013 C 
HETATM   12  C1  UNL     1      -1.959   2.624  -1.413  1.00  0.00     0.010 C 
HETATM   13  C3  UNL     1      -0.160   2.823   0.128  1.00  0.00     0.010 C 
ENDBRANCH   4  11
ENDBRANCH   1   4
BRANCH   1  14
HETATM   14  C8  UNL     1       0.951  -0.543  -0.455  1.00  0.00     0.157 A 
HETATM   15  N1  UNL     1       2.205  -0.810   0.010  1.00  0.00    -0.326 N 
HETATM   16  C9  UNL     1       3.007  -1.046  -1.043  1.00  0.00     0.108 A 
ATOM     17  H1  UNL     1       2.487  -0.828   0.990  1.00  0.00     0.169 HD
HETATM   18  N2  UNL     1       2.228  -0.918  -2.109  1.00  0.00    -0.247 N 
HETATM   19  O1  UNL     1       1.035  -0.623  -1.728  1.00  0.00    -0.222 OA
ATOM     20  H2  UNL     1       2.527  -1.035  -3.077  1.00  0.00     0.196 HD
BRANCH  16  21
HETATM   21  C10 UNL     1       4.461  -1.352  -0.959  1.00  0.00     0.055 C 
HETATM   22  C11 UNL     1       5.320  -0.120  -1.327  1.00  0.00     0.012 C 
HETATM   23  C12 UNL     1       5.216   0.258   0.136  1.00  0.00     0.002 C 
HETATM   24  C13 UNL     1       5.046  -1.246   0.424  1.00  0.00     0.012 C 
ENDBRANCH  16  21
ENDBRANCH   1  14
TORSDOF 4
