REMARK  5 active torsions:
REMARK  status: ('A' for Active; 'I' for Inactive)
REMARK    1  A    between atoms: C2_2  and  C3_3 
REMARK    2  A    between atoms: C3_3  and  C4_4 
REMARK    3  A    between atoms: C7_7  and  C8_8 
REMARK    4  A    between atoms: C9_9  and  C10_10 
REMARK    5  A    between atoms: C18_20  and  O3_21 
ROOT
HETATM    1  C4  UNL     1       3.211   1.286  -0.168  1.00  0.00    -0.016 C 
HETATM    2  C5  UNL     1       2.128   0.614  -0.465  1.00  0.00    -0.023 C 
HETATM    3  C6  UNL     1       0.954   0.507   0.387  1.00  0.00     0.027 C 
HETATM    4  C7  UNL     1      -0.306   0.265  -0.102  1.00  0.00     0.039 C 
HETATM    5  C15 UNL     1      -0.333   0.129  -1.537  1.00  0.00     0.294 C 
HETATM    6  O1  UNL     1      -1.425  -0.094  -2.108  1.00  0.00    -0.259 OA
HETATM    7  O2  UNL     1       0.811   0.231  -2.359  1.00  0.00    -0.298 OA
HETATM    8  C16 UNL     1       2.050  -0.097  -1.775  1.00  0.00     0.126 A 
HETATM    9  C17 UNL     1       3.210  -0.377  -2.605  1.00  0.00     0.081 A 
HETATM   10  C18 UNL     1       2.451  -1.511  -1.914  1.00  0.00     0.161 A 
ENDROOT
BRANCH   4  11
HETATM   11  C8  UNL     1      -1.396   0.178   0.828  1.00  0.00     0.014 C 
HETATM   12  C9  UNL     1      -2.619  -0.002   0.958  1.00  0.00    -0.021 C 
BRANCH  12  13
HETATM   13  C10 UNL     1      -3.929  -0.254   0.450  1.00  0.00     0.008 C 
HETATM   14  C11 UNL     1      -4.534  -1.539   1.088  1.00  0.00     0.008 C 
HETATM   15  C12 UNL     1      -5.944  -1.466   0.544  1.00  0.00     0.001 C 
HETATM   16  C13 UNL     1      -5.828  -0.749  -0.795  1.00  0.00     0.001 C 
HETATM   17  C14 UNL     1      -4.318  -0.452  -0.944  1.00  0.00     0.008 C 
ENDBRANCH  12  13
ENDBRANCH   4  11
BRANCH   1  18
HETATM   18  C3  UNL     1       3.380   2.035   1.096  1.00  0.00     0.027 C 
BRANCH  18  19
HETATM   19  C2  UNL     1       4.530   1.541   1.929  1.00  0.00    -0.001 C 
HETATM   20  C1  UNL     1       5.852   1.641   1.217  1.00  0.00     0.005 C 
ENDBRANCH  18  19
ENDBRANCH   1  18
BRANCH  10  21
HETATM   21  O3  UNL     1       1.701  -2.364  -2.746  1.00  0.00    -0.392 OA
ATOM     22  H3  UNL     1       1.959  -3.274  -2.835  1.00  0.00     0.210 HD
ENDBRANCH  10  21
TORSDOF 5
