REMARK  5 active torsions:
REMARK  status: ('A' for Active; 'I' for Inactive)
REMARK    1  A    between atoms: C2_2  and  C3_3 
REMARK    2  A    between atoms: C3_3  and  C4_4 
REMARK    3  A    between atoms: C3_3  and  C6_6 
REMARK    4  A    between atoms: C6_6  and  O2_8 
REMARK    5  A    between atoms: O2_8  and  C7_9 
ROOT
HETATM    1  C7  UNL     1       0.574   0.613   0.118  1.00  0.00     0.296 C 
HETATM    2  C8  UNL     1      -0.111   1.572   1.065  1.00  0.00     0.232 C 
HETATM    3  O3  UNL     1      -1.210   0.909   1.556  1.00  0.00    -0.350 OA
HETATM    4  C9  UNL     1      -1.545   0.040   0.496  1.00  0.00     0.171 C 
HETATM    5  C10 UNL     1      -2.379  -1.066   1.083  1.00  0.00     0.073 C 
HETATM    6  C11 UNL     1      -3.488  -1.507   0.158  1.00  0.00    -0.013 C 
HETATM    7  C12 UNL     1      -4.231  -2.632   0.894  1.00  0.00     0.010 C 
HETATM    8  C13 UNL     1      -4.440  -0.369  -0.071  1.00  0.00     0.009 C 
HETATM    9  C14 UNL     1      -3.732   0.949  -0.072  1.00  0.00    -0.009 C 
HETATM   10  C15 UNL     1      -4.479   2.010  -0.846  1.00  0.00     0.010 C 
HETATM   11  C16 UNL     1      -2.287   0.846  -0.518  1.00  0.00     0.048 C 
HETATM   12  C17 UNL     1      -2.199   0.284  -1.915  1.00  0.00     0.016 C 
HETATM   13  O4  UNL     1      -0.326  -0.441   0.032  1.00  0.00    -0.322 OA
ENDROOT
BRANCH   1  14
HETATM   14  O2  UNL     1       1.799   0.236   0.722  1.00  0.00    -0.287 OA
BRANCH  14  15
HETATM   15  C6  UNL     1       3.004   0.429   0.095  1.00  0.00     0.265 C 
HETATM   16  O1  UNL     1       2.944   0.969  -1.061  1.00  0.00    -0.265 OA
BRANCH  15  17
HETATM   17  C3  UNL     1       4.319   0.075   0.634  1.00  0.00     0.085 C 
BRANCH  17  18
HETATM   18  C2  UNL     1       4.451  -1.407   0.921  1.00  0.00     0.010 C 
HETATM   19  C1  UNL     1       4.346  -2.254  -0.299  1.00  0.00     0.006 C 
ENDBRANCH  17  18
BRANCH  17  20
HETATM   20  C4  UNL     1       5.441   0.442  -0.319  1.00  0.00     0.010 C 
HETATM   21  C5  UNL     1       5.401   1.914  -0.674  1.00  0.00     0.006 C 
ENDBRANCH  17  20
ENDBRANCH  15  17
ENDBRANCH  14  15
ENDBRANCH   1  14
TORSDOF 5
