REMARK  5 active torsions:
REMARK  status: ('A' for Active; 'I' for Inactive)
REMARK    1  A    between atoms: C2_2  and  C3_3 
REMARK    2  A    between atoms: C3_3  and  C4_4 
REMARK    3  A    between atoms: C6_8  and  N2_9 
REMARK    4  A    between atoms: N2_9  and  C8_11 
REMARK    5  A    between atoms: N3_13  and  C10_14 
ROOT
HETATM    1  C4  UNL     1       3.156  -0.857  -0.615  1.00  0.00     0.009 C 
HETATM    2  C5  UNL     1       1.954  -0.308  -0.441  1.00  0.00     0.114 A 
HETATM    3  N1  UNL     1       1.633   1.028  -0.144  1.00  0.00    -0.186 N 
ATOM      4  H1  UNL     1       2.316   1.775  -0.020  1.00  0.00     0.184 HD
HETATM    5  C6  UNL     1       0.356   1.178  -0.050  1.00  0.00     0.686 A 
HETATM    6  N3  UNL     1      -0.324  -0.049  -0.274  1.00  0.00    -0.141 N 
HETATM    7  C17 UNL     1       0.686  -1.019  -0.528  1.00  0.00     0.289 A 
HETATM    8  O1  UNL     1       0.584  -2.238  -0.779  1.00  0.00    -0.265 OA
ENDROOT
BRANCH   6   9
HETATM    9  C10 UNL     1      -1.756  -0.336  -0.262  1.00  0.00     0.111 C 
HETATM   10  C11 UNL     1      -2.035  -1.239   0.889  1.00  0.00     0.026 C 
HETATM   11  C12 UNL     1      -3.504  -1.253   1.293  1.00  0.00     0.002 C 
HETATM   12  C13 UNL     1      -4.418  -1.247   0.096  1.00  0.00     0.000 C 
HETATM   13  C14 UNL     1      -4.020  -2.400  -0.786  1.00  0.00     0.000 C 
HETATM   14  C15 UNL     1      -2.850  -2.136  -1.663  1.00  0.00     0.002 C 
HETATM   15  C16 UNL     1      -2.274  -0.771  -1.577  1.00  0.00     0.026 C 
ENDBRANCH   6   9
BRANCH   5  16
HETATM   16  N2  UNL     1      -0.259   2.413   0.239  1.00  0.00    -0.222 N 
HETATM   17  C7  UNL     1      -1.173   3.000  -0.716  1.00  0.00     0.168 C 
BRANCH  16  18
HETATM   18  C8  UNL     1       0.012   3.101   1.483  1.00  0.00     0.136 C 
HETATM   19  C9  UNL     1       0.790   4.383   1.252  1.00  0.00     0.027 C 
ENDBRANCH  16  18
ENDBRANCH   5  16
BRANCH   1  20
HETATM   20  C3  UNL     1       4.413  -0.112  -0.520  1.00  0.00     0.029 C 
BRANCH  20  21
HETATM   21  C2  UNL     1       5.334  -0.639   0.567  1.00  0.00    -0.001 C 
HETATM   22  C1  UNL     1       5.729  -2.068   0.367  1.00  0.00     0.005 C 
ENDBRANCH  20  21
ENDBRANCH   1  20
TORSDOF 5
