REMARK  6 active torsions:
REMARK  status: ('A' for Active; 'I' for Inactive)
REMARK    1  A    between atoms: C2_2  and  C3_3 
REMARK    2  A    between atoms: C3_3  and  C4_4 
REMARK    3  A    between atoms: C4_4  and  C5_5 
REMARK    4  A    between atoms: C5_5  and  N1_6 
REMARK    5  A    between atoms: C9_12  and  N3_13 
REMARK    6  A    between atoms: C16_23  and  N6_24 
ROOT
HETATM    1  N3  UNL     1      -3.059   0.323  -0.584  1.00  0.00    -0.348 N 
HETATM    2  C10 UNL     1      -3.116  -1.068  -0.950  1.00  0.00     0.126 C 
HETATM    3  C11 UNL     1      -4.514  -1.553  -1.230  1.00  0.00     0.020 C 
HETATM    4  C12 UNL     1      -5.554  -0.727  -0.514  1.00  0.00     0.004 C 
HETATM    5  C13 UNL     1      -5.469   0.732  -0.866  1.00  0.00     0.040 C 
HETATM    6  C14 UNL     1      -4.074   1.218  -1.085  1.00  0.00     0.193 C 
HETATM    7  C15 UNL     1      -3.799   1.527  -2.490  1.00  0.00     0.084 C 
HETATM    8  N4  UNL     1      -3.566   1.785  -3.597  1.00  0.00    -0.195 NA
ENDROOT
BRANCH   1   9
HETATM    9  C9  UNL     1      -1.997   0.757   0.260  1.00  0.00     0.151 A 
HETATM   10  C8  UNL     1      -0.669   0.613  -0.126  1.00  0.00     0.124 A 
HETATM   11  N2  UNL     1      -0.097   0.113  -1.217  1.00  0.00    -0.340 N 
HETATM   12  C17 UNL     1       0.371   1.024   0.673  1.00  0.00     0.155 A 
HETATM   13  C6  UNL     1       1.272   0.204  -1.112  1.00  0.00     0.081 A 
ATOM     14  H2  UNL     1      -0.598  -0.280  -2.014  1.00  0.00     0.167 HD
HETATM   15  N1  UNL     1       1.577   0.765   0.052  1.00  0.00    -0.321 N 
HETATM   16  C7  UNL     1       2.165  -0.263  -2.216  1.00  0.00     0.089 C 
HETATM   17  N7  UNL     1       0.060   1.579   1.861  1.00  0.00    -0.174 N 
HETATM   18  C16 UNL     1      -1.238   1.722   2.245  1.00  0.00     0.679 A 
ATOM     19  H7  UNL     1       0.806   1.896   2.480  1.00  0.00     0.186 HD
HETATM   20  N5  UNL     1      -2.252   1.323   1.470  1.00  0.00    -0.175 N 
ATOM     21  H5  UNL     1      -3.215   1.443   1.786  1.00  0.00     0.186 HD
BRANCH  15  22
HETATM   22  C5  UNL     1       2.850   1.065   0.659  1.00  0.00     0.132 C 
BRANCH  22  23
HETATM   23  C4  UNL     1       3.393   0.074   1.595  1.00  0.00     0.020 C 
BRANCH  23  24
HETATM   24  C3  UNL     1       3.773  -1.274   1.156  1.00  0.00     0.001 C 
BRANCH  24  25
HETATM   25  C2  UNL     1       4.902  -1.391   0.191  1.00  0.00    -0.004 C 
HETATM   26  C1  UNL     1       6.197  -0.827   0.752  1.00  0.00     0.005 C 
ENDBRANCH  24  25
ENDBRANCH  23  24
ENDBRANCH  22  23
ENDBRANCH  15  22
BRANCH  18  27
HETATM   27  N6  UNL     1      -1.544   2.258   3.393  1.00  0.00    -0.234 N 
ATOM     28  H62 UNL     1      -2.517   2.365   3.681  1.00  0.00     0.174 HD
ATOM     29  H61 UNL     1      -0.771   2.562   3.984  1.00  0.00     0.174 HD
ENDBRANCH  18  27
ENDBRANCH   1   9
TORSDOF 6
