REMARK  5 active torsions:
REMARK  status: ('A' for Active; 'I' for Inactive)
REMARK    1  A    between atoms: C2_2  and  C3_3 
REMARK    2  A    between atoms: C3_3  and  C4_4 
REMARK    3  A    between atoms: C4_4  and  C5_5 
REMARK    4  A    between atoms: C5_5  and  C6_6 
REMARK    5  A    between atoms: C8_12  and  N3_13 
ROOT
HETATM    1  C6  UNL     1      -0.501  -1.116   1.588  1.00  0.00     0.005 A 
HETATM    2  C7  UNL     1      -1.094  -2.256   2.117  1.00  0.00     0.118 A 
HETATM    3  N1  UNL     1      -0.343  -3.320   1.782  1.00  0.00    -0.310 N 
ATOM      4  H1  UNL     1      -0.534  -4.290   2.032  1.00  0.00     0.186 HD
HETATM    5  N2  UNL     1       0.674  -2.894   1.080  1.00  0.00    -0.285 N 
ATOM      6  H2  UNL     1       1.406  -3.491   0.696  1.00  0.00     0.188 HD
HETATM    7  C8  UNL     1       0.619  -1.534   0.933  1.00  0.00     0.139 A 
ENDROOT
BRANCH   7   8
HETATM    8  N3  UNL     1       1.583  -0.775   0.225  1.00  0.00    -0.236 N 
HETATM    9  C9  UNL     1       1.614  -0.791  -1.127  1.00  0.00     0.189 A 
HETATM   10  S1  UNL     1       0.487  -1.723  -1.895  1.00  0.00    -0.040 SA
HETATM   11  N4  UNL     1       2.484  -0.113  -1.862  1.00  0.00    -0.312 N 
HETATM   12  C10 UNL     1       3.435   0.672  -1.256  1.00  0.00     0.168 A 
ATOM     13  H4  UNL     1       2.447  -0.174  -2.880  1.00  0.00     0.170 HD
HETATM   14  C11 UNL     1       3.405   0.690   0.113  1.00  0.00     0.122 A 
HETATM   15  O2  UNL     1       4.380   1.418  -1.862  1.00  0.00    -0.324 OA
HETATM   16  C12 UNL     1       2.498  -0.018   0.856  1.00  0.00     0.277 A 
HETATM   17  S2  UNL     1       4.779   1.794   0.545  1.00  0.00    -0.093 SA
HETATM   18  O1  UNL     1       2.552   0.063   2.091  1.00  0.00    -0.266 OA
HETATM   19  C13 UNL     1       5.558   1.655  -1.126  1.00  0.00     0.257 C 
ENDBRANCH   7   8
BRANCH   1  20
HETATM   20  C5  UNL     1      -1.000   0.266   1.714  1.00  0.00     0.044 C 
BRANCH  20  21
HETATM   21  C4  UNL     1      -1.683   0.751   0.443  1.00  0.00     0.005 C 
BRANCH  21  22
HETATM   22  C3  UNL     1      -2.862  -0.144   0.124  1.00  0.00    -0.000 C 
BRANCH  22  23
HETATM   23  C2  UNL     1      -3.569   0.298  -1.129  1.00  0.00    -0.005 C 
HETATM   24  C1  UNL     1      -4.117   1.692  -1.058  1.00  0.00     0.005 C 
ENDBRANCH  22  23
ENDBRANCH  21  22
ENDBRANCH  20  21
ENDBRANCH   1  20
TORSDOF 5
