REMARK  5 active torsions:
REMARK  status: ('A' for Active; 'I' for Inactive)
REMARK    1  A    between atoms: O1_2  and  C2_3 
REMARK    2  A    between atoms: C4_5  and  C5_6 
REMARK    3  A    between atoms: C6_7  and  C7_8 
REMARK    4  A    between atoms: C9_15  and  N3_16 
REMARK    5  A    between atoms: C12_19  and  N4_20 
ROOT
HETATM    1  C7  UNL     1      -0.831  -0.510  -0.135  1.00  0.00     0.071 A 
HETATM    2  N1  UNL     1      -0.845  -1.821  -0.397  1.00  0.00    -0.331 N 
ATOM      3  H1  UNL     1       0.033  -2.329  -0.504  1.00  0.00     0.168 HD
HETATM    4  C8  UNL     1      -1.999  -2.460  -0.518  1.00  0.00     0.178 A 
HETATM    5  S1  UNL     1      -1.998  -4.078  -0.841  1.00  0.00    -0.040 SA
HETATM    6  N2  UNL     1      -3.126  -1.776  -0.375  1.00  0.00    -0.317 N 
ATOM      7  H2  UNL     1      -4.009  -2.277  -0.471  1.00  0.00     0.170 HD
HETATM    8  C9  UNL     1      -3.169  -0.430  -0.105  1.00  0.00     0.140 A 
HETATM    9  C12 UNL     1      -1.998   0.246   0.023  1.00  0.00     0.173 A 
ENDROOT
BRANCH   1  10
HETATM   10  C6  UNL     1       0.458   0.173  -0.014  1.00  0.00     0.033 C 
HETATM   11  C5  UNL     1       1.602  -0.511  -0.112  1.00  0.00     0.015 C 
BRANCH  11  12
HETATM   12  C4  UNL     1       2.884   0.154   0.005  1.00  0.00    -0.017 A 
HETATM   13  C3  UNL     1       4.133  -0.407  -0.033  1.00  0.00     0.068 A 
HETATM   14  C2  UNL     1       5.056   0.627   0.099  1.00  0.00     0.142 A 
HETATM   15  N5  UNL     1       4.400   1.793   0.216  1.00  0.00    -0.346 N 
HETATM   16  C13 UNL     1       3.069   1.516   0.160  1.00  0.00     0.101 A 
ATOM     17  H5  UNL     1       4.821   2.715   0.326  1.00  0.00     0.167 HD
BRANCH  14  18
HETATM   18  O1  UNL     1       6.444   0.468   0.109  1.00  0.00    -0.341 OA
HETATM   19  C1  UNL     1       7.044  -0.811  -0.012  1.00  0.00     0.211 C 
ENDBRANCH  14  18
ENDBRANCH  11  12
ENDBRANCH   1  10
BRANCH   9  20
HETATM   20  N4  UNL     1      -1.896   1.633   0.285  1.00  0.00    -0.109 N 
HETATM   21  O2  UNL     1      -1.662   2.053   1.450  1.00  0.00    -0.532 OA
HETATM   22  O3  UNL     1      -2.052   2.573  -0.689  1.00  0.00    -0.532 OA
ENDBRANCH   9  20
BRANCH   8  23
HETATM   23  N3  UNL     1      -4.429   0.180   0.056  1.00  0.00    -0.374 N 
HETATM   24  C10 UNL     1      -5.007   1.167  -0.824  1.00  0.00     0.150 C 
HETATM   25  C11 UNL     1      -5.207  -0.266   1.216  1.00  0.00     0.150 C 
ENDBRANCH   8  23
TORSDOF 5
