REMARK  7 active torsions:
REMARK  status: ('A' for Active; 'I' for Inactive)
REMARK    1  A    between atoms: O1_2  and  C2_3 
REMARK    2  A    between atoms: C5_6  and  O2_7 
REMARK    3  A    between atoms: C7_9  and  C8_10 
REMARK    4  A    between atoms: C8_10  and  C10_12 
REMARK    5  A    between atoms: C10_12  and  O3_14 
REMARK    6  A    between atoms: C13_17  and  O4_18 
REMARK    7  A    between atoms: C17_24  and  O5_25 
ROOT
HETATM    1  C2  UNL     1       2.983   0.514  -0.687  1.00  0.00     0.103 A 
HETATM    2  C3  UNL     1       1.656   0.740  -0.875  1.00  0.00     0.055 A 
HETATM    3  C4  UNL     1       0.714  -0.095  -0.307  1.00  0.00     0.015 A 
HETATM    4  C5  UNL     1      -0.638   0.164  -0.504  1.00  0.00     0.086 A 
HETATM    5  C7  UNL     1      -1.621  -0.622   0.048  1.00  0.00    -0.015 A 
HETATM    6  C12 UNL     1      -1.182  -1.685   0.804  1.00  0.00     0.047 A 
HETATM    7  C13 UNL     1       0.176  -1.972   1.019  1.00  0.00     0.079 A 
HETATM    8  C14 UNL     1       1.122  -1.170   0.458  1.00  0.00     0.034 A 
HETATM    9  C15 UNL     1       2.435  -1.425   0.664  1.00  0.00     0.094 A 
HETATM   10  C16 UNL     1       2.903  -2.542   1.450  1.00  0.00     0.103 C 
HETATM   11  N1  UNL     1       3.318  -3.440   2.083  1.00  0.00    -0.191 NA
HETATM   12  C17 UNL     1       3.355  -0.560   0.075  1.00  0.00     0.123 A 
ENDROOT
BRANCH  12  13
HETATM   13  O5  UNL     1       4.730  -0.795   0.272  1.00  0.00    -0.352 OA
HETATM   14  C18 UNL     1       5.263  -0.146   1.428  1.00  0.00     0.210 C 
ENDBRANCH  12  13
BRANCH   7  15
HETATM   15  O4  UNL     1       0.454  -3.073   1.802  1.00  0.00    -0.360 OA
ATOM     16  H4  UNL     1       1.373  -3.267   1.947  1.00  0.00     0.217 HD
ENDBRANCH   7  15
BRANCH   1  17
HETATM   17  O1  UNL     1       3.933   1.328  -1.236  1.00  0.00    -0.353 OA
HETATM   18  C1  UNL     1       3.690   2.460  -2.036  1.00  0.00     0.210 C 
ENDBRANCH   1  17
BRANCH   4  19
HETATM   19  O2  UNL     1      -0.964   1.247  -1.282  1.00  0.00    -0.354 OA
HETATM   20  C6  UNL     1      -1.081   1.065  -2.688  1.00  0.00     0.210 C 
ENDBRANCH   4  19
BRANCH   5  21
HETATM   21  C8  UNL     1      -3.033  -0.262  -0.133  1.00  0.00     0.046 C 
HETATM   22  C9  UNL     1      -3.999  -1.438   0.053  1.00  0.00     0.017 C 
BRANCH  21  23
HETATM   23  C10 UNL     1      -3.352   0.745   0.983  1.00  0.00     0.122 C 
HETATM   24  C11 UNL     1      -4.774   1.216   0.942  1.00  0.00     0.040 C 
BRANCH  23  25
HETATM   25  O3  UNL     1      -2.495   1.788   0.924  1.00  0.00    -0.395 OA
ATOM     26  H3  UNL     1      -2.692   2.411   1.614  1.00  0.00     0.210 HD
ENDBRANCH  23  25
ENDBRANCH  21  23
ENDBRANCH   5  21
TORSDOF 7
