REMARK  4 active torsions:
REMARK  status: ('A' for Active; 'I' for Inactive)
REMARK    1  A    between atoms: O1_2  and  C2_3 
REMARK    2  A    between atoms: C4_5  and  C5_6 
REMARK    3  A    between atoms: C8_9  and  C9_10 
REMARK    4  A    between atoms: C11_12  and  C12_13 
ROOT
HETATM    1  C2  UNL     1      -3.714  -0.160  -0.081  1.00  0.00     0.119 A 
HETATM    2  C3  UNL     1      -2.831  -0.930  -0.791  1.00  0.00     0.051 A 
HETATM    3  C4  UNL     1      -1.453  -0.709  -0.725  1.00  0.00    -0.023 A 
HETATM    4  C8  UNL     1      -0.979   0.273   0.048  1.00  0.00     0.069 A 
HETATM    5  N4  UNL     1      -1.890   1.031   0.751  1.00  0.00    -0.332 N 
ATOM      6  H4  UNL     1      -1.527   1.781   1.340  1.00  0.00     0.168 HD
HETATM    7  C16 UNL     1      -3.204   0.858   0.719  1.00  0.00     0.176 A 
HETATM    8  O2  UNL     1      -4.009   1.610   1.421  1.00  0.00    -0.339 OA
HETATM    9  C17 UNL     1      -4.789   2.347   2.107  1.00  0.00     0.211 C 
ENDROOT
BRANCH   1  10
HETATM   10  O1  UNL     1      -5.093  -0.300  -0.087  1.00  0.00    -0.352 OA
HETATM   11  C1  UNL     1      -5.636  -1.315  -0.898  1.00  0.00     0.210 C 
ENDBRANCH   1  10
BRANCH   4  12
HETATM   12  C9  UNL     1       0.424   0.576   0.239  1.00  0.00     0.077 A 
HETATM   13  C10 UNL     1       1.606   0.016  -0.116  1.00  0.00     0.061 A 
HETATM   14  C11 UNL     1       2.655   0.696   0.483  1.00  0.00     0.058 A 
HETATM   15  N2  UNL     1       2.083   1.663   1.190  1.00  0.00    -0.302 N 
HETATM   16  N3  UNL     1       0.795   1.615   1.067  1.00  0.00    -0.298 N 
ATOM     17  H2  UNL     1       2.588   2.348   1.752  1.00  0.00     0.186 HD
ATOM     18  H3  UNL     1       0.144   2.257   1.520  1.00  0.00     0.187 HD
BRANCH  14  19
HETATM   19  C12 UNL     1       4.107   0.380   0.443  1.00  0.00     0.236 C 
HETATM   20  C13 UNL     1       4.562   0.067   1.886  1.00  0.00     0.041 C 
HETATM   21  C14 UNL     1       6.046   0.281   1.728  1.00  0.00     0.030 C 
HETATM   22  C15 UNL     1       6.124   1.488   0.828  1.00  0.00     0.233 C 
HETATM   23  N1  UNL     1       4.892   1.508   0.083  1.00  0.00    -0.065 N 
ATOM     24  H12 UNL     1       5.050   1.564  -0.923  1.00  0.00     0.278 HD
ATOM     25  H11 UNL     1       4.384   2.385   0.199  1.00  0.00     0.278 HD
ENDBRANCH  14  19
ENDBRANCH   4  12
BRANCH   3  26
HETATM   26  C5  UNL     1      -0.668  -1.586  -1.618  1.00  0.00     0.013 C 
HETATM   27  C6  UNL     1      -1.474  -2.897  -1.861  1.00  0.00     0.015 C 
HETATM   28  C7  UNL     1      -0.671  -0.961  -3.045  1.00  0.00     0.015 C 
ENDBRANCH   3  26
TORSDOF 4
