REMARK  4 active torsions:
REMARK  status: ('A' for Active; 'I' for Inactive)
REMARK    1  A    between atoms: C2_2  and  N1_4 
REMARK    2  A    between atoms: C6_7  and  N2_8 
REMARK    3  A    between atoms: C9_11  and  C10_12 
REMARK    4  A    between atoms: C11_13  and  C12_15 
ROOT
HETATM    1  N1  UNL     1       1.487   0.311  -0.533  1.00  0.00    -0.383 N 
HETATM    2  C4  UNL     1       1.682  -0.935   0.077  1.00  0.00     0.062 C 
HETATM    3  C5  UNL     1       0.399  -1.558   0.520  1.00  0.00     0.087 C 
HETATM    4  C6  UNL     1      -0.825  -0.816   0.067  1.00  0.00     0.180 C 
HETATM    5  C9  UNL     1      -0.727   0.623   0.525  1.00  0.00     0.074 C 
HETATM    6  C13 UNL     1       0.195   0.819  -0.661  1.00  0.00     0.104 C 
HETATM    7  C14 UNL     1      -0.687  -0.247  -1.333  1.00  0.00     0.011 C 
HETATM    8  C15 UNL     1       0.008  -1.081  -2.347  1.00  0.00     0.020 C 
HETATM    9  C16 UNL     1      -1.979   0.394  -1.758  1.00  0.00     0.020 C 
ENDROOT
BRANCH   5  10
HETATM   10  C10 UNL     1      -0.208   0.862   1.852  1.00  0.00     0.026 C 
HETATM   11  C11 UNL     1      -0.700   1.765   2.665  1.00  0.00     0.154 C 
HETATM   12  F1  UNL     1      -0.123   1.912   3.921  1.00  0.00    -0.205 F 
BRANCH  11  13
HETATM   13  C12 UNL     1      -1.821   2.687   2.437  1.00  0.00     0.414 C 
HETATM   14  F2  UNL     1      -2.863   2.504   3.322  1.00  0.00    -0.207 F 
HETATM   15  F3  UNL     1      -1.426   4.024   2.626  1.00  0.00    -0.207 F 
ENDBRANCH  11  13
ENDBRANCH   5  10
BRANCH   4  16
HETATM   16  N2  UNL     1      -2.074  -1.449   0.249  1.00  0.00     0.091 N 
HETATM   17  C7  UNL     1      -2.290  -2.669  -0.444  1.00  0.00     0.310 C 
HETATM   18  C8  UNL     1      -2.498  -1.638   1.617  1.00  0.00     0.310 C 
ENDBRANCH   4  16
BRANCH   1  19
HETATM   19  C2  UNL     1       2.591   1.123  -0.832  1.00  0.00     0.075 C 
HETATM   20  C1  UNL     1       3.556   0.501  -1.840  1.00  0.00     0.032 C 
HETATM   21  C3  UNL     1       3.386   1.611   0.343  1.00  0.00     0.032 C 
ENDBRANCH   1  19
TORSDOF 4
