REMARK  4 active torsions:
REMARK  status: ('A' for Active; 'I' for Inactive)
REMARK    1  A    between atoms: C2_2  and  C4_4 
REMARK    2  A    between atoms: C4_4  and  N1_5 
REMARK    3  A    between atoms: N2_8  and  C7_9 
REMARK    4  A    between atoms: C7_9  and  C9_11 
ROOT
HETATM    1  N1  UNL     1      -1.042  -0.774   0.190  1.00  0.00     0.106 N 
HETATM    2  C5  UNL     1      -0.225  -1.186   1.292  1.00  0.00     0.318 C 
HETATM    3  C6  UNL     1       1.236  -1.009   1.102  1.00  0.00     0.093 C 
HETATM    4  N2  UNL     1       1.675  -0.293  -0.016  1.00  0.00    -0.362 N 
HETATM    5  C10 UNL     1       0.765   0.484  -0.745  1.00  0.00     0.099 C 
HETATM    6  C11 UNL     1      -0.645   0.525  -0.226  1.00  0.00     0.258 C 
HETATM    7  C12 UNL     1      -0.779   1.600   0.797  1.00  0.00     0.049 C 
ENDROOT
BRANCH   4   8
HETATM    8  C7  UNL     1       2.944   0.341   0.089  1.00  0.00     0.138 C 
HETATM    9  C8  UNL     1       3.215   1.087  -1.226  1.00  0.00     0.037 C 
BRANCH   8  10
HETATM   10  C9  UNL     1       4.107  -0.565   0.299  1.00  0.00     0.208 C 
HETATM   11 CL1  UNL     1       4.228  -1.709  -1.080  1.00  0.00    -0.082 Cl
HETATM   12 CL2  UNL     1       5.582   0.467   0.193  1.00  0.00    -0.082 Cl
HETATM   13 CL3  UNL     1       4.167  -1.370   1.845  1.00  0.00    -0.082 Cl
ENDBRANCH   8  10
ENDBRANCH   4   8
BRANCH   1  14
HETATM   14  C4  UNL     1      -2.425  -0.788   0.667  1.00  0.00     0.306 C 
BRANCH  14  15
HETATM   15  C2  UNL     1      -3.382  -0.386  -0.355  1.00  0.00    -0.065 C 
HETATM   16  C1  UNL     1      -4.157   0.664  -0.165  1.00  0.00     0.015 C 
HETATM   17  C3  UNL     1      -3.502  -1.146  -1.617  1.00  0.00     0.044 C 
ENDBRANCH  14  15
ENDBRANCH   1  14
TORSDOF 4
