REMARK  3 active torsions:
REMARK  status: ('A' for Active; 'I' for Inactive)
REMARK    1  A    between atoms: O1_2  and  C2_3 
REMARK    2  A    between atoms: C2_3  and  C3_5 
REMARK    3  A    between atoms: C6_8  and  C7_10 
ROOT
HETATM    1  C3  UNL     1       0.111  -0.445  -0.219  1.00  0.00     0.070 C 
HETATM    2  C4  UNL     1       0.026  -1.669  -1.078  1.00  0.00     0.031 C 
HETATM    3  C5  UNL     1      -0.446   0.794  -0.881  1.00  0.00     0.058 C 
HETATM    4  C6  UNL     1      -1.901   0.709  -0.508  1.00  0.00     0.098 C 
HETATM    5 CL1  UNL     1      -2.847  -0.243  -1.660  1.00  0.00    -0.111 Cl
HETATM    6  C8  UNL     1      -1.872   0.119   0.834  1.00  0.00     0.018 C 
HETATM    7 BR1  UNL     1      -3.246   0.246   2.179  1.00  0.00    -0.053 Br
HETATM    8  C9  UNL     1      -0.735  -0.540   1.012  1.00  0.00    -0.050 C 
HETATM    9  C10 UNL     1      -0.352  -1.269   2.253  1.00  0.00     0.046 C 
ENDROOT
BRANCH   1  10
HETATM   10  C2  UNL     1       1.538  -0.229   0.134  1.00  0.00     0.271 C 
HETATM   11  O2  UNL     1       1.855  -0.235   1.350  1.00  0.00    -0.264 OA
BRANCH  10  12
HETATM   12  O1  UNL     1       2.514  -0.026  -0.798  1.00  0.00    -0.326 OA
HETATM   13  C1  UNL     1       3.879   0.184  -0.514  1.00  0.00     0.213 C 
ENDBRANCH  10  12
ENDBRANCH   1  10
BRANCH   4  14
HETATM   14  C7  UNL     1      -2.481   2.119  -0.505  1.00  0.00     0.253 C 
HETATM   15  F1  UNL     1      -2.310   2.603  -1.790  1.00  0.00    -0.253 F 
ENDBRANCH   4  14
TORSDOF 3
