REMARK  9 active torsions:
REMARK  status: ('A' for Active; 'I' for Inactive)
REMARK    1  A    between atoms: C3_3  and  N1_4 
REMARK    2  A    between atoms: C5_7  and  C6_8 
REMARK    3  A    between atoms: C7_9  and  C8_10 
REMARK    4  A    between atoms: C10_12  and  O2_13 
REMARK    5  A    between atoms: C12_17  and  O4_18 
REMARK    6  A    between atoms: C12_17  and  C13_20 
REMARK    7  A    between atoms: C14_21  and  C15_22 
REMARK    8  A    between atoms: C19_27  and  O6_28 
REMARK    9  A    between atoms: C19_27  and  C20_30 
ROOT
HETATM    1  C1  UNL     1      -6.517  -2.620   1.310  1.00  0.00     0.014 C 
HETATM    2  C2  UNL     1      -5.777  -2.351   0.400  1.00  0.00    -0.097 C 
HETATM    3  C3  UNL     1      -4.866  -2.038  -0.684  1.00  0.00     0.224 C 
ENDROOT
BRANCH   3   4
HETATM    4  N1  UNL     1      -4.195  -0.769  -0.549  1.00  0.00    -0.283 N 
HETATM    5  C4  UNL     1      -2.950  -0.627   0.131  1.00  0.00     0.257 C 
HETATM    6  O1  UNL     1      -2.246  -1.597   0.586  1.00  0.00    -0.270 OA
HETATM    7  C5  UNL     1      -2.674   0.807   0.189  1.00  0.00     0.241 C 
HETATM    8  O5  UNL     1      -3.394   1.339  -0.844  1.00  0.00    -0.319 OA
HETATM    9  C19 UNL     1      -4.516   0.544  -1.007  1.00  0.00     0.255 C 
BRANCH   7  10
HETATM   10  C6  UNL     1      -1.217   1.127   0.112  1.00  0.00     0.011 C 
HETATM   11  C7  UNL     1      -0.313   0.620   0.892  1.00  0.00    -0.023 C 
BRANCH  11  12
HETATM   12  C8  UNL     1       1.119   0.941   0.809  1.00  0.00     0.011 C 
HETATM   13  C9  UNL     1       1.501   2.064  -0.084  1.00  0.00     0.043 C 
HETATM   14  C10 UNL     1       2.077   1.573  -1.400  1.00  0.00     0.148 C 
HETATM   15  C11 UNL     1       3.428   0.944  -1.114  1.00  0.00     0.164 C 
HETATM   16  O3  UNL     1       3.654  -0.239  -1.794  1.00  0.00    -0.343 OA
HETATM   17  C17 UNL     1       3.355   0.195   0.181  1.00  0.00     0.084 C 
HETATM   18  C12 UNL     1       4.198  -0.769  -0.620  1.00  0.00     0.187 C 
HETATM   19  C18 UNL     1       1.970  -0.286   0.528  1.00  0.00     0.021 C 
BRANCH  14  20
HETATM   20  O2  UNL     1       1.272   0.681  -2.063  1.00  0.00    -0.393 OA
ATOM     21  H2  UNL     1       1.632   0.374  -2.887  1.00  0.00     0.210 HD
ENDBRANCH  14  20
BRANCH  18  22
HETATM   22  O4  UNL     1       3.796  -2.073  -0.424  1.00  0.00    -0.362 OA
ATOM     23  H4  UNL     1       4.166  -2.433   0.374  1.00  0.00     0.213 HD
ENDBRANCH  18  22
BRANCH  18  24
HETATM   24  C13 UNL     1       5.638  -0.498  -0.464  1.00  0.00     0.037 C 
HETATM   25  C14 UNL     1       6.158  -0.438   0.757  1.00  0.00    -0.026 C 
BRANCH  25  26
HETATM   26  C15 UNL     1       7.621  -0.162   0.917  1.00  0.00     0.022 C 
HETATM   27  C16 UNL     1       8.288  -1.304   1.633  1.00  0.00     0.009 C 
ENDBRANCH  25  26
ENDBRANCH  18  24
ENDBRANCH  11  12
ENDBRANCH   7  10
BRANCH   9  28
HETATM   28  O6  UNL     1      -4.742   0.419  -2.408  1.00  0.00    -0.348 OA
ATOM     29  H6  UNL     1      -4.956   1.293  -2.713  1.00  0.00     0.215 HD
ENDBRANCH   9  28
BRANCH   9  30
HETATM   30  C20 UNL     1      -5.719   1.189  -0.389  1.00  0.00     0.063 C 
HETATM   31  C21 UNL     1      -5.675   1.354   1.091  1.00  0.00     0.017 C 
HETATM   32  C22 UNL     1      -7.004   0.566  -0.874  1.00  0.00     0.017 C 
ENDBRANCH   9  30
ENDBRANCH   3   4
TORSDOF 9
