REMARK  9 active torsions:
REMARK  status: ('A' for Active; 'I' for Inactive)
REMARK    1  A    between atoms: C3_3  and  O1_4 
REMARK    2  A    between atoms: O1_4  and  C4_5 
REMARK    3  A    between atoms: C9_11  and  N2_12 
REMARK    4  A    between atoms: N2_12  and  C10_14 
REMARK    5  A    between atoms: N4_18  and  C12_20 
REMARK    6  A    between atoms: C15_25  and  N6_26 
REMARK    7  A    between atoms: N6_26  and  C16_28 
REMARK    8  A    between atoms: C19_33  and  C20_34 
REMARK    9  A    between atoms: C20_34  and  O2_35 
ROOT
HETATM    1  C1  UNL     1       7.792  -0.747  -2.517  1.00  0.00     0.014 C 
HETATM    2  C2  UNL     1       7.066  -0.612  -1.561  1.00  0.00    -0.091 C 
HETATM    3  C3  UNL     1       6.161  -0.451  -0.404  1.00  0.00     0.268 C 
ENDROOT
BRANCH   3   4
HETATM    4  O1  UNL     1       5.031   0.270  -0.824  1.00  0.00    -0.337 OA
BRANCH   4   5
HETATM    5  C4  UNL     1       3.968   0.617  -0.038  1.00  0.00     0.101 A 
HETATM    6  C5  UNL     1       4.036   1.823   0.646  1.00  0.00     0.078 A 
HETATM    7  C6  UNL     1       5.198   2.645   0.505  1.00  0.00     0.102 C 
HETATM    8  C7  UNL     1       2.994   2.223   1.452  1.00  0.00     0.028 A 
HETATM    9  N1  UNL     1       6.148   3.308   0.407  1.00  0.00    -0.191 NA
HETATM   10  C8  UNL     1       1.908   1.399   1.551  1.00  0.00     0.032 A 
HETATM   11  C9  UNL     1       1.820   0.188   0.874  1.00  0.00     0.060 A 
HETATM   12  C19 UNL     1       2.851  -0.222   0.068  1.00  0.00     0.027 A 
BRANCH  11  13
HETATM   13  N2  UNL     1       0.681  -0.593   1.026  1.00  0.00    -0.190 N 
ATOM     14  H2  UNL     1       0.806  -1.507   1.461  1.00  0.00     0.184 HD
BRANCH  13  15
HETATM   15  C10 UNL     1      -0.531  -0.275   0.668  1.00  0.00     0.711 A 
HETATM   16  N3  UNL     1      -1.539  -1.170   0.897  1.00  0.00    -0.021 N 
HETATM   17  C11 UNL     1      -2.812  -0.932   0.558  1.00  0.00     0.707 A 
ATOM     18  H3  UNL     1      -1.311  -2.057   1.345  1.00  0.00     0.203 HD
HETATM   19  N4  UNL     1      -3.784  -1.749   0.757  1.00  0.00    -0.221 N 
HETATM   20  N5  UNL     1      -3.060   0.276  -0.040  1.00  0.00    -0.021 N 
ATOM     21  H4  UNL     1      -4.702  -1.431   0.446  1.00  0.00     0.178 HD
HETATM   22  C15 UNL     1      -2.111   1.183  -0.285  1.00  0.00     0.707 A 
ATOM     23  H5  UNL     1      -4.019   0.493  -0.312  1.00  0.00     0.203 HD
HETATM   24  N7  UNL     1      -0.836   0.891   0.078  1.00  0.00    -0.021 N 
ATOM     25  H7  UNL     1      -0.096   1.570  -0.101  1.00  0.00     0.203 HD
BRANCH  19  26
HETATM   26  C12 UNL     1      -3.747  -3.037   1.354  1.00  0.00     0.091 C 
HETATM   27  C13 UNL     1      -3.351  -2.899   2.808  1.00  0.00     0.032 C 
HETATM   28  C14 UNL     1      -2.901  -4.044   0.633  1.00  0.00     0.032 C 
ENDBRANCH  19  26
BRANCH  22  29
HETATM   29  N6  UNL     1      -2.356   2.309  -0.845  1.00  0.00    -0.221 N 
ATOM     30  H6  UNL     1      -1.570   2.942  -0.993  1.00  0.00     0.178 HD
BRANCH  29  31
HETATM   31  C16 UNL     1      -3.645   2.746  -1.278  1.00  0.00     0.091 C 
HETATM   32  C17 UNL     1      -3.621   4.274  -1.299  1.00  0.00     0.032 C 
HETATM   33  C18 UNL     1      -3.961   2.196  -2.654  1.00  0.00     0.032 C 
ENDBRANCH  29  31
ENDBRANCH  22  29
ENDBRANCH  13  15
ENDBRANCH  11  13
BRANCH  12  34
HETATM   34  C20 UNL     1       2.783  -1.501  -0.659  1.00  0.00     0.208 C 
BRANCH  34  35
HETATM   35  O2  UNL     1       1.604  -2.158  -0.405  1.00  0.00    -0.396 OA
ATOM     36  H2  UNL     1       1.560  -2.983  -0.874  1.00  0.00     0.209 HD
ENDBRANCH  34  35
ENDBRANCH  12  34
ENDBRANCH   4   5
ENDBRANCH   3   4
TORSDOF 9
