REMARK  7 active torsions:
REMARK  status: ('A' for Active; 'I' for Inactive)
REMARK    1  A    between atoms: C2_2  and  C4_4 
REMARK    2  A    between atoms: C4_4  and  O1_5 
REMARK    3  A    between atoms: C6_8  and  O2_9 
REMARK    4  A    between atoms: C9_14  and  C10_15 
REMARK       I    between atoms: N1_23  and  C18_24 
REMARK    5  A    between atoms: C18_24  and  C19_26 
REMARK    6  A    between atoms: C20_27  and  C21_28 
REMARK    7  A    between atoms: C21_28  and  O5_29 
ROOT
HETATM    1  C10 UNL     1      -0.417  -0.694   0.091  1.00  0.00     0.006 C 
HETATM    2  C11 UNL     1       0.454  -1.485  -0.848  1.00  0.00     0.008 C 
HETATM    3  C12 UNL     1       1.864  -1.135  -0.958  1.00  0.00     0.026 C 
HETATM    4  C13 UNL     1       2.634  -0.800   0.255  1.00  0.00     0.088 C 
HETATM    5  C14 UNL     1       2.198  -1.483   1.515  1.00  0.00     0.027 C 
HETATM    6  C15 UNL     1       1.431  -0.387   2.226  1.00  0.00     0.027 C 
HETATM    7  C16 UNL     1       1.308   0.739   1.255  1.00  0.00     0.088 C 
HETATM    8  C17 UNL     1       0.230   0.650   0.241  1.00  0.00     0.031 C 
HETATM    9  N1  UNL     1       2.608   0.628   0.572  1.00  0.00    -0.339 N 
HETATM   10  C18 UNL     1       3.547   1.635   0.308  1.00  0.00     0.243 C 
HETATM   11  O4  UNL     1       3.303   2.804   0.682  1.00  0.00    -0.268 OA
ENDROOT
BRANCH   1  12
HETATM   12  C9  UNL     1      -1.801  -0.699  -0.450  1.00  0.00     0.058 C 
HETATM   13  C4  UNL     1      -2.906  -0.189   0.366  1.00  0.00     0.078 C 
HETATM   14  C5  UNL     1      -4.162  -0.866  -0.244  1.00  0.00     0.077 C 
HETATM   15  C6  UNL     1      -3.604  -1.838  -1.210  1.00  0.00     0.068 C 
HETATM   16  C7  UNL     1      -3.060  -1.102  -2.427  1.00  0.00     0.117 C 
HETATM   17  C22 UNL     1      -2.273  -2.173  -0.549  1.00  0.00     0.059 C 
HETATM   18  C8  UNL     1      -1.907  -0.326  -1.885  1.00  0.00     0.141 C 
HETATM   19  O3  UNL     1      -1.263   0.432  -2.585  1.00  0.00    -0.297 OA
BRANCH  13  20
HETATM   20  C2  UNL     1      -3.172   1.221   0.590  1.00  0.00     0.013 C 
HETATM   21  C1  UNL     1      -3.312   2.119  -0.603  1.00  0.00     0.012 C 
HETATM   22  C3  UNL     1      -4.585   1.271   1.252  1.00  0.00     0.012 C 
ENDBRANCH  13  20
BRANCH  13  23
HETATM   23  O1  UNL     1      -2.811  -0.805   1.641  1.00  0.00    -0.388 OA
ATOM     24  H1  UNL     1      -2.637  -1.727   1.494  1.00  0.00     0.210 HD
ENDBRANCH  13  23
BRANCH  15  25
HETATM   25  O2  UNL     1      -4.361  -2.917  -1.504  1.00  0.00    -0.389 OA
ATOM     26  H2  UNL     1      -4.003  -3.541  -2.124  1.00  0.00     0.210 HD
ENDBRANCH  15  25
ENDBRANCH   1  12
BRANCH  10  27
HETATM   27  C19 UNL     1       4.787   1.329  -0.390  1.00  0.00     0.072 C 
HETATM   28  C20 UNL     1       5.676   2.292  -0.637  1.00  0.00     0.004 C 
BRANCH  28  29
HETATM   29  C21 UNL     1       6.942   2.043  -1.336  1.00  0.00     0.191 C 
BRANCH  29  30
HETATM   30  O5  UNL     1       6.987   0.673  -1.652  1.00  0.00    -0.397 OA
ATOM     31  H5  UNL     1       7.807   0.512  -2.105  1.00  0.00     0.209 HD
ENDBRANCH  29  30
ENDBRANCH  28  29
ENDBRANCH  10  27
TORSDOF 7
