REMARK  6 active torsions:
REMARK  status: ('A' for Active; 'I' for Inactive)
REMARK       I    between atoms: C1_2  and  N3_13 
REMARK    1  A    between atoms: N2_3  and  O1_5 
REMARK    2  A    between atoms: O1_5  and  C2_6 
REMARK    3  A    between atoms: C2_6  and  C3_7 
REMARK    4  A    between atoms: N3_13  and  C9_15 
REMARK    5  A    between atoms: C9_15  and  C10_16 
REMARK    6  A    between atoms: C23_30  and  N4_31 
ROOT
HETATM    1  C10 UNL     1      -1.560   0.448  -0.911  1.00  0.00     0.034 C 
HETATM    2  C11 UNL     1      -1.256   1.908  -0.702  1.00  0.00     0.175 C 
HETATM    3  O2  UNL     1      -0.338   2.138   0.329  1.00  0.00    -0.379 OA
HETATM    4  C12 UNL     1      -0.833   3.141   1.226  1.00  0.00     0.261 C 
HETATM    5  C13 UNL     1      -2.121   2.679   1.637  1.00  0.00    -0.081 C 
HETATM    6  C14 UNL     1      -3.111   2.249   1.908  1.00  0.00    -0.104 C 
HETATM    7  C15 UNL     1      -4.350   1.639   2.190  1.00  0.00     0.099 C 
HETATM    8  C16 UNL     1      -4.768   0.659   1.101  1.00  0.00     0.002 C 
HETATM    9  C17 UNL     1      -4.646  -0.781   1.466  1.00  0.00     0.012 C 
HETATM   10  C18 UNL     1      -4.554  -1.562   0.143  1.00  0.00     0.017 C 
HETATM   11  C19 UNL     1      -5.466  -0.870  -0.884  1.00  0.00     0.007 C 
HETATM   12  C20 UNL     1      -4.775   0.377  -1.315  1.00  0.00     0.006 C 
HETATM   13  C21 UNL     1      -3.906   0.851  -0.138  1.00  0.00    -0.003 C 
HETATM   14  C22 UNL     1      -2.678  -0.013  -0.056  1.00  0.00     0.028 C 
HETATM   15  C23 UNL     1      -3.133  -1.453  -0.354  1.00  0.00     0.192 C 
ENDROOT
BRANCH   1  16
HETATM   16  C9  UNL     1      -0.255  -0.263  -0.488  1.00  0.00     0.129 C 
BRANCH  16  17
HETATM   17  N3  UNL     1       0.814   0.220  -1.366  1.00  0.00    -0.363 N 
HETATM   18  C1  UNL     1       2.190   0.009  -1.166  1.00  0.00     0.208 C 
HETATM   19  N1  UNL     1       3.049   1.147  -1.430  1.00  0.00    -0.062 NA
HETATM   20  N2  UNL     1       2.725  -1.067  -0.765  1.00  0.00    -0.238 N 
ATOM     21  H2  UNL     1       2.078  -1.837  -0.595  1.00  0.00     0.197 HD
ATOM     22  H3  UNL     1       0.537   0.753  -2.190  1.00  0.00     0.162 HD
BRANCH  20  23
HETATM   23  O1  UNL     1       4.019  -1.344  -0.531  1.00  0.00    -0.273 OA
BRANCH  23  24
HETATM   24  C2  UNL     1       5.101  -0.485  -0.632  1.00  0.00     0.240 C 
BRANCH  24  25
HETATM   25  C3  UNL     1       6.419  -1.074  -0.278  1.00  0.00    -0.032 A 
HETATM   26  C4  UNL     1       7.477  -0.161  -0.255  1.00  0.00     0.009 A 
HETATM   27  C5  UNL     1       8.750  -0.559   0.061  1.00  0.00     0.001 A 
HETATM   28  C6  UNL     1       9.017  -1.879   0.366  1.00  0.00     0.000 A 
HETATM   29  C7  UNL     1       7.972  -2.775   0.343  1.00  0.00     0.001 A 
HETATM   30  C8  UNL     1       6.678  -2.366   0.020  1.00  0.00     0.009 A 
ENDBRANCH  24  25
ENDBRANCH  23  24
ENDBRANCH  20  23
ENDBRANCH  16  17
ENDBRANCH   1  16
BRANCH  15  31
HETATM   31  N4  UNL     1      -2.925  -1.847  -1.702  1.00  0.00    -0.074 N 
ATOM     32  H43 UNL     1      -3.274  -2.795  -1.847  1.00  0.00     0.274 HD
ATOM     33  H42 UNL     1      -3.551  -1.328  -2.318  1.00  0.00     0.274 HD
ATOM     34  H41 UNL     1      -1.965  -1.773  -2.038  1.00  0.00     0.274 HD
ENDBRANCH  15  31
TORSDOF 6
