REMARK  6 active torsions:
REMARK  status: ('A' for Active; 'I' for Inactive)
REMARK    1  A    between atoms: C2_2  and  O1_5 
REMARK    2  A    between atoms: O1_5  and  C5_6 
REMARK       I    between atoms: C5_6  and  N1_8 
REMARK    3  A    between atoms: N1_8  and  C6_10 
REMARK    4  A    between atoms: C6_10  and  C7_11 
REMARK    5  A    between atoms: C6_10  and  C15_26 
REMARK       I    between atoms: C7_11  and  N2_13 
REMARK    6  A    between atoms: N2_13  and  C8_15 
ROOT
HETATM    1  C6  UNL     1      -0.619  -0.026   0.193  1.00  0.00     0.183 C 
ENDROOT
BRANCH   1   2
HETATM    2  N1  UNL     1      -1.766  -0.117   1.030  1.00  0.00    -0.323 N 
HETATM    3  C5  UNL     1      -2.788   0.862   0.948  1.00  0.00     0.362 C 
HETATM    4  O2  UNL     1      -2.705   1.840   0.127  1.00  0.00    -0.238 OA
ATOM      5  H1  UNL     1      -1.853  -0.889   1.691  1.00  0.00     0.165 HD
BRANCH   3   6
HETATM    6  O1  UNL     1      -3.929   0.829   1.735  1.00  0.00    -0.294 OA
BRANCH   6   7
HETATM    7  C2  UNL     1      -4.912   1.836   1.603  1.00  0.00     0.061 C 
HETATM    8  C1  UNL     1      -4.300   3.207   1.913  1.00  0.00     0.046 C 
HETATM    9  C3  UNL     1      -6.084   1.599   2.498  1.00  0.00     0.046 C 
HETATM   10  C4  UNL     1      -5.381   1.851   0.162  1.00  0.00     0.046 C 
ENDBRANCH   6   7
ENDBRANCH   3   6
ENDBRANCH   1   2
BRANCH   1  11
HETATM   11  C7  UNL     1       0.651   0.060   0.947  1.00  0.00     0.241 C 
HETATM   12  O3  UNL     1       0.568   0.034   2.208  1.00  0.00    -0.271 OA
HETATM   13  N2  UNL     1       1.892   0.167   0.274  1.00  0.00    -0.340 N 
ATOM     14  H2  UNL     1       1.907   0.186  -0.746  1.00  0.00     0.163 HD
BRANCH  13  15
HETATM   15  C8  UNL     1       3.161   0.252   1.015  1.00  0.00     0.246 C 
HETATM   16  C9  UNL     1       3.888   1.490   0.588  1.00  0.00     0.158 C 
HETATM   17  O4  UNL     1       3.040   2.358   0.356  1.00  0.00    -0.295 OA
HETATM   18  C10 UNL     1       5.224   2.021   0.353  1.00  0.00     0.081 C 
HETATM   19  C11 UNL     1       6.200   1.051  -0.258  1.00  0.00     0.009 C 
HETATM   20  C12 UNL     1       5.877   0.719  -1.688  1.00  0.00     0.020 C 
HETATM   21  C13 UNL     1       4.929  -0.416  -1.857  1.00  0.00     0.122 C 
HETATM   22  N3  UNL     1       4.716  -1.163  -0.627  1.00  0.00    -0.359 N 
HETATM   23  C14 UNL     1       3.966  -0.914   0.565  1.00  0.00     0.247 C 
ATOM     24  H3  UNL     1       5.207  -2.057  -0.611  1.00  0.00     0.162 HD
HETATM   25  O5  UNL     1       4.002  -1.872   1.380  1.00  0.00    -0.271 OA
ENDBRANCH  13  15
ENDBRANCH   1  11
BRANCH   1  26
HETATM   26  C15 UNL     1      -0.486  -1.192  -0.761  1.00  0.00     0.018 C 
HETATM   27  C16 UNL     1      -1.732  -1.204  -1.633  1.00  0.00     0.007 C 
HETATM   28  C17 UNL     1      -1.605  -2.430  -2.536  1.00  0.00     0.000 C 
HETATM   29  C18 UNL     1      -1.700  -3.659  -1.694  1.00  0.00     0.000 C 
HETATM   30  C19 UNL     1      -1.442  -3.427  -0.234  1.00  0.00     0.000 C 
HETATM   31  C20 UNL     1      -0.255  -2.493  -0.063  1.00  0.00     0.007 C 
ENDBRANCH   1  26
TORSDOF 6
