REMARK  6 active torsions:
REMARK  status: ('A' for Active; 'I' for Inactive)
REMARK    1  A    between atoms: C2_2  and  N1_3 
REMARK    2  A    between atoms: N1_3  and  C3_4 
REMARK       I    between atoms: N1_3  and  C5_6 
REMARK    3  A    between atoms: C5_6  and  C6_8 
REMARK    4  A    between atoms: C8_10  and  C9_11 
REMARK    5  A    between atoms: C11_13  and  O2_14 
REMARK    6  A    between atoms: C17_21  and  O3_22 
ROOT
HETATM    1  C9  UNL     1      -0.839  -0.676   0.892  1.00  0.00     0.019 C 
HETATM    2  C10 UNL     1      -1.511  -2.014   1.270  1.00  0.00     0.039 C 
HETATM    3  C11 UNL     1      -2.939  -1.938   0.802  1.00  0.00     0.124 C 
HETATM    4  C12 UNL     1      -3.068  -0.485   0.430  1.00  0.00     0.031 C 
HETATM    5  C13 UNL     1      -4.336  -0.050  -0.102  1.00  0.00    -0.039 C 
HETATM    6  C14 UNL     1      -5.071   0.921   0.856  1.00  0.00     0.015 C 
HETATM    7  C15 UNL     1      -5.358  -1.210  -0.202  1.00  0.00     0.015 C 
HETATM    8  C16 UNL     1      -4.436   0.610  -1.435  1.00  0.00     0.041 C 
HETATM    9  C17 UNL     1      -3.650   1.851  -1.614  1.00  0.00     0.118 C 
HETATM   10  C18 UNL     1      -2.183   1.651  -1.768  1.00  0.00     0.032 C 
HETATM   11  C19 UNL     1      -1.631   1.273  -0.408  1.00  0.00     0.012 C 
HETATM   12  C20 UNL     1      -1.762  -0.194  -0.222  1.00  0.00    -0.032 C 
HETATM   13  C21 UNL     1      -1.412  -0.987  -1.425  1.00  0.00     0.016 C 
ENDROOT
BRANCH   1  14
HETATM   14  C8  UNL     1       0.552  -0.956   0.512  1.00  0.00     0.090 C 
HETATM   15  C7  UNL     1       1.440   0.200   0.189  1.00  0.00     0.049 C 
HETATM   16  C6  UNL     1       2.854  -0.345   0.516  1.00  0.00     0.171 C 
HETATM   17  C22 UNL     1       2.514  -0.959   1.844  1.00  0.00     0.231 C 
HETATM   18  N2  UNL     1       1.224  -1.584   1.663  1.00  0.00    -0.355 N 
HETATM   19  O4  UNL     1       3.115  -0.992   2.921  1.00  0.00    -0.273 OA
ATOM     20  H2  UNL     1       0.842  -2.336   2.237  1.00  0.00     0.162 HD
BRANCH  16  21
HETATM   21  C5  UNL     1       3.826   0.740   0.619  1.00  0.00     0.233 C 
HETATM   22  N1  UNL     1       5.223   0.583   0.674  1.00  0.00    -0.352 N 
HETATM   23  O1  UNL     1       3.350   1.924   0.664  1.00  0.00    -0.272 OA
BRANCH  22  24
HETATM   24  C2  UNL     1       6.072   1.779   0.810  1.00  0.00     0.121 C 
HETATM   25  C1  UNL     1       6.448   2.326  -0.545  1.00  0.00     0.026 C 
ENDBRANCH  22  24
BRANCH  22  26
HETATM   26  C3  UNL     1       5.811  -0.718   0.579  1.00  0.00     0.121 C 
HETATM   27  C4  UNL     1       6.125  -1.107  -0.852  1.00  0.00     0.026 C 
ENDBRANCH  22  26
ENDBRANCH  16  21
ENDBRANCH   1  14
BRANCH   3  28
HETATM   28  O2  UNL     1      -3.277  -2.841  -0.139  1.00  0.00    -0.395 OA
ATOM     29  H2  UNL     1      -4.179  -2.793  -0.434  1.00  0.00     0.210 HD
ENDBRANCH   3  28
BRANCH   9  30
HETATM   30  O3  UNL     1      -3.860   2.797  -0.618  1.00  0.00    -0.396 OA
ATOM     31  H3  UNL     1      -3.355   3.594  -0.733  1.00  0.00     0.210 HD
ENDBRANCH   9  30
TORSDOF 6
