REMARK  2 active torsions:
REMARK  status: ('A' for Active; 'I' for Inactive)
REMARK    1  A    between atoms: C2_2  and  O1_4 
REMARK    2  A    between atoms: O1_4  and  C4_5 
ROOT
HETATM    1  C4  UNL     1       1.894  -0.393  -0.643  1.00  0.00     0.128 C 
HETATM    2  C5  UNL     1       0.841  -1.490  -0.871  1.00  0.00     0.039 C 
HETATM    3  C6  UNL     1      -0.326  -0.850  -0.230  1.00  0.00     0.020 C 
HETATM    4  C7  UNL     1      -1.644  -1.475  -0.439  1.00  0.00     0.049 C 
HETATM    5  C8  UNL     1      -2.661  -0.554   0.187  1.00  0.00    -0.013 A 
HETATM    6  C9  UNL     1      -3.868  -1.060   0.598  1.00  0.00     0.099 A 
HETATM    7  N1  UNL     1      -4.805  -0.291   1.158  1.00  0.00    -0.350 N 
ATOM      8  H1  UNL     1      -5.692  -0.699   1.453  1.00  0.00     0.166 HD
HETATM    9  C10 UNL     1      -4.577   1.025   1.333  1.00  0.00     0.140 A 
HETATM   10  N2  UNL     1      -5.452   1.797   1.866  1.00  0.00    -0.383 N 
ATOM     11  H21 UNL     1      -5.279   2.794   1.999  1.00  0.00     0.157 HD
ATOM     12  H22 UNL     1      -6.339   1.391   2.162  1.00  0.00     0.157 HD
HETATM   13  C11 UNL     1      -3.376   1.575   0.932  1.00  0.00     0.186 A 
HETATM   14  F1  UNL     1      -3.113   2.907   1.095  1.00  0.00    -0.200 F 
HETATM   15  C12 UNL     1      -2.407   0.785   0.355  1.00  0.00     0.079 A 
HETATM   16  N3  UNL     1      -1.147   1.366  -0.065  1.00  0.00    -0.377 N 
ATOM     17  H3  UNL     1      -0.857   2.303   0.213  1.00  0.00     0.160 HD
HETATM   18  C13 UNL     1      -0.337   0.525  -0.902  1.00  0.00     0.036 C 
HETATM   19  C14 UNL     1      -0.957   0.478  -2.267  1.00  0.00     0.039 C 
HETATM   20  C15 UNL     1       1.106   0.871  -0.929  1.00  0.00     0.038 C 
HETATM   21  C16 UNL     1       1.558   1.338  -2.318  1.00  0.00     0.015 C 
ENDROOT
BRANCH   1  22
HETATM   22  O1  UNL     1       2.242  -0.346   0.704  1.00  0.00    -0.381 OA
BRANCH  22  23
HETATM   23  C2  UNL     1       3.587  -0.480   0.936  1.00  0.00     0.113 C 
HETATM   24  C1  UNL     1       4.113   0.699   1.763  1.00  0.00     0.039 C 
HETATM   25  C3  UNL     1       3.805  -1.722   1.775  1.00  0.00     0.039 C 
ENDBRANCH  22  23
ENDBRANCH   1  22
TORSDOF 2
