REMARK  4 active torsions:
REMARK  status: ('A' for Active; 'I' for Inactive)
REMARK    1  A    between atoms: C2_2  and  C3_3 
REMARK    2  A    between atoms: C3_3  and  C4_4 
REMARK    3  A    between atoms: C4_4  and  C5_5 
REMARK    4  A    between atoms: C6_6  and  C7_7 
ROOT
HETATM    1  C7  UNL     1      -0.034   2.322  -1.000  1.00  0.00     0.041 C 
HETATM    2  C8  UNL     1      -0.374   3.566  -0.787  1.00  0.00     0.096 C 
HETATM    3  C9  UNL     1       0.469   4.613  -1.385  1.00  0.00     0.088 C 
HETATM    4  N1  UNL     1       1.115   5.447  -1.849  1.00  0.00    -0.192 NA
ENDROOT
BRANCH   1   5
HETATM    5  C6  UNL     1      -0.794   1.212  -0.459  1.00  0.00     0.043 A 
HETATM    6  C5  UNL     1      -0.342  -0.095  -0.647  1.00  0.00    -0.017 A 
HETATM    7  C14 UNL     1      -1.204  -1.096  -0.156  1.00  0.00     0.030 A 
HETATM    8  C11 UNL     1      -2.391  -0.775   0.457  1.00  0.00     0.115 A 
HETATM    9  C13 UNL     1      -1.120  -2.461  -0.152  1.00  0.00     0.088 A 
HETATM   10  C10 UNL     1      -2.805   0.527   0.628  1.00  0.00     0.273 A 
HETATM   11  N3  UNL     1      -3.030  -1.919   0.834  1.00  0.00    -0.338 N 
HETATM   12  N2  UNL     1      -1.986   1.479   0.160  1.00  0.00    -0.321 N 
HETATM   13  O1  UNL     1      -3.900   0.820   1.195  1.00  0.00    -0.266 OA
ATOM     14  H2  UNL     1      -2.265   2.454   0.271  1.00  0.00     0.169 HD
HETATM   15  C12 UNL     1      -2.275  -2.958   0.474  1.00  0.00     0.139 A 
ATOM     16  H3  UNL     1      -3.931  -1.971   1.310  1.00  0.00     0.167 HD
HETATM   17  N4  UNL     1      -2.578  -4.330   0.683  1.00  0.00    -0.081 NA
HETATM   18 CL1  UNL     1       0.122  -3.496  -0.773  1.00  0.00    -0.080 Cl
BRANCH   6  19
HETATM   19  C4  UNL     1       0.955  -0.468  -1.229  1.00  0.00     0.042 C 
BRANCH  19  20
HETATM   20  C3  UNL     1       2.115  -0.553  -0.314  1.00  0.00     0.004 C 
BRANCH  20  21
HETATM   21  C2  UNL     1       2.519   0.674   0.447  1.00  0.00    -0.004 C 
HETATM   22  C1  UNL     1       3.742   0.382   1.325  1.00  0.00     0.005 C 
ENDBRANCH  20  21
ENDBRANCH  19  20
ENDBRANCH   6  19
ENDBRANCH   1   5
TORSDOF 4
