REMARK  6 active torsions:
REMARK  status: ('A' for Active; 'I' for Inactive)
REMARK    1  A    between atoms: C2_2  and  N1_5 
REMARK       I    between atoms: N1_5  and  C4_7 
REMARK    2  A    between atoms: C4_7  and  C5_9 
REMARK    3  A    between atoms: C7_11  and  C8_12 
REMARK    4  A    between atoms: C8_12  and  O2_13 
REMARK    5  A    between atoms: C8_12  and  C9_15 
REMARK    6  A    between atoms: C9_15  and  O3_16 
ROOT
HETATM    1  C5  UNL     1      -0.291  -0.777   0.714  1.00  0.00     0.050 C 
HETATM    2  C6  UNL     1      -0.414  -1.216   2.166  1.00  0.00     0.027 C 
HETATM    3  C7  UNL     1      -1.467   0.141   0.492  1.00  0.00     0.035 C 
HETATM    4  C10 UNL     1      -2.048  -0.243  -0.858  1.00  0.00     0.009 C 
HETATM    5  C11 UNL     1      -1.572  -1.629  -1.160  1.00  0.00     0.010 C 
HETATM    6  C12 UNL     1      -0.562  -2.008  -0.092  1.00  0.00    -0.031 C 
HETATM    7  C13 UNL     1       0.632  -2.588  -0.786  1.00  0.00     0.016 C 
HETATM    8  C14 UNL     1      -1.178  -3.133   0.716  1.00  0.00     0.016 C 
ENDROOT
BRANCH   1   9
HETATM    9  C4  UNL     1       1.005  -0.160   0.528  1.00  0.00     0.228 C 
HETATM   10  N1  UNL     1       1.505   0.382  -0.697  1.00  0.00    -0.339 N 
ATOM     11  H1  UNL     1       0.901   0.334  -1.518  1.00  0.00     0.164 HD
HETATM   12  O1  UNL     1       1.805  -0.066   1.500  1.00  0.00    -0.273 OA
BRANCH  10  13
HETATM   13  C2  UNL     1       2.784   0.983  -0.853  1.00  0.00     0.102 C 
HETATM   14  C1  UNL     1       3.009   1.456  -2.274  1.00  0.00     0.056 C 
HETATM   15  C3  UNL     1       3.023   2.176   0.041  1.00  0.00     0.056 C 
HETATM   16 CL1  UNL     1       4.121  -0.168  -0.507  1.00  0.00    -0.096 Cl
ENDBRANCH  10  13
ENDBRANCH   1   9
BRANCH   3  17
HETATM   17  C8  UNL     1      -1.151   1.589   0.469  1.00  0.00     0.147 C 
BRANCH  17  18
HETATM   18  O2  UNL     1      -0.584   2.075   1.632  1.00  0.00    -0.393 OA
ATOM     19  H2  UNL     1      -0.381   3.003   1.617  1.00  0.00     0.210 HD
ENDBRANCH  17  18
BRANCH  17  20
HETATM   20  C9  UNL     1      -2.500   2.316   0.364  1.00  0.00     0.196 C 
BRANCH  20  21
HETATM   21  O3  UNL     1      -3.279   2.021   1.483  1.00  0.00    -0.398 OA
ATOM     22  H3  UNL     1      -4.113   2.471   1.418  1.00  0.00     0.209 HD
ENDBRANCH  20  21
ENDBRANCH  17  20
ENDBRANCH   3  17
TORSDOF 6
