REMARK  5 active torsions:
REMARK  status: ('A' for Active; 'I' for Inactive)
REMARK    1  A    between atoms: C9_9  and  C10_10 
REMARK    2  A    between atoms: C9_9  and  C14_17 
REMARK    3  A    between atoms: C10_10  and  C11_11 
REMARK    4  A    between atoms: C14_17  and  O1_18 
REMARK    5  A    between atoms: N2_20  and  O2_22 
ROOT
HETATM    1  C1  UNL     1      -3.021   1.965  -0.196  1.00  0.00     0.011 C 
HETATM    2  C2  UNL     1      -2.058   0.990   0.445  1.00  0.00    -0.009 C 
HETATM    3  C3  UNL     1      -2.618  -0.407   0.516  1.00  0.00    -0.010 C 
HETATM    4  C4  UNL     1      -2.993  -0.959  -0.818  1.00  0.00     0.009 C 
HETATM    5  C5  UNL     1      -1.767  -0.905  -1.703  1.00  0.00    -0.013 C 
HETATM    6  C6  UNL     1      -0.717  -1.797  -1.118  1.00  0.00     0.010 C 
HETATM    7  C7  UNL     1      -0.295  -1.286   0.224  1.00  0.00     0.003 C 
HETATM    8  C8  UNL     1      -1.510  -1.272   1.125  1.00  0.00     0.011 C 
HETATM    9  C9  UNL     1       0.287   0.116   0.166  1.00  0.00     0.035 C 
HETATM   10  C15 UNL     1      -0.786   0.993  -0.376  1.00  0.00     0.007 C 
HETATM   11  C16 UNL     1      -1.184   0.503  -1.751  1.00  0.00     0.011 C 
ENDROOT
BRANCH   9  12
HETATM   12  C10 UNL     1       1.497   0.243  -0.675  1.00  0.00     0.026 C 
BRANCH  12  13
HETATM   13  C11 UNL     1       2.700  -0.578  -0.263  1.00  0.00     0.038 C 
HETATM   14  C12 UNL     1       3.806  -0.306  -1.295  1.00  0.00     0.238 C 
HETATM   15  N1  UNL     1       4.501   0.591  -0.437  1.00  0.00    -0.074 N 
HETATM   16  C13 UNL     1       3.681   0.118   0.654  1.00  0.00     0.238 C 
ATOM     17  H12 UNL     1       5.519   0.567  -0.372  1.00  0.00     0.277 HD
ATOM     18  H11 UNL     1       4.553   1.586  -0.656  1.00  0.00     0.277 HD
ENDBRANCH  12  13
ENDBRANCH   9  12
BRANCH   9  19
HETATM   19  C14 UNL     1       0.643   0.423   1.579  1.00  0.00     0.145 C 
HETATM   20  N2  UNL     1       0.471   1.526   2.171  1.00  0.00    -0.250 N 
ATOM     21  H2  UNL     1       0.049   2.300   1.657  1.00  0.00     0.196 HD
BRANCH  19  22
HETATM   22  O1  UNL     1       1.229  -0.620   2.316  1.00  0.00    -0.347 OA
ATOM     23  H1  UNL     1       1.456  -0.424   3.217  1.00  0.00     0.219 HD
ENDBRANCH  19  22
BRANCH  20  24
HETATM   24  O2  UNL     1       0.831   1.720   3.479  1.00  0.00    -0.288 OA
ATOM     25  H2  UNL     1       0.702   2.549   3.924  1.00  0.00     0.244 HD
ENDBRANCH  20  24
ENDBRANCH   9  19
TORSDOF 5
