REMARK  9 active torsions:
REMARK  status: ('A' for Active; 'I' for Inactive)
REMARK    1  A    between atoms: C11_13  and  C12_14 
REMARK    2  A    between atoms: C12_14  and  C15_17 
REMARK    3  A    between atoms: C15_17  and  O3_18 
REMARK    4  A    between atoms: O3_18  and  C16_19 
REMARK    5  A    between atoms: C20_24  and  O5_25 
REMARK    6  A    between atoms: O5_25  and  C21_26 
REMARK    7  A    between atoms: C21_26  and  C22_28 
REMARK    8  A    between atoms: C28_34  and  O7_35 
REMARK    9  A    between atoms: O7_35  and  C29_36 
ROOT
HETATM    1  C1  UNL     1      -3.772  -5.513  -0.475  1.00  0.00     0.025 C 
HETATM    2  C2  UNL     1      -3.761  -4.217  -0.447  1.00  0.00     0.015 C 
HETATM    3  C3  UNL     1      -4.831  -3.318  -0.820  1.00  0.00     0.289 C 
HETATM    4  O1  UNL     1      -5.957  -3.568  -1.318  1.00  0.00    -0.260 OA
HETATM    5  O2  UNL     1      -4.431  -1.990  -0.533  1.00  0.00    -0.309 OA
HETATM    6  C4  UNL     1      -3.379  -2.118   0.380  1.00  0.00     0.171 C 
HETATM    7  C5  UNL     1      -2.629  -3.356  -0.020  1.00  0.00     0.056 C 
HETATM    8  C6  UNL     1      -1.802  -3.134  -1.228  1.00  0.00     0.018 C 
HETATM    9  C7  UNL     1      -0.961  -1.934  -1.169  1.00  0.00     0.004 C 
HETATM   10  C8  UNL     1       0.304  -2.032  -0.359  1.00  0.00     0.002 C 
HETATM   11  C9  UNL     1       1.347  -2.771  -1.144  1.00  0.00     0.006 C 
HETATM   12  C10 UNL     1       1.814  -1.705  -2.099  1.00  0.00     0.007 C 
HETATM   13  C11 UNL     1       1.950  -0.543  -1.121  1.00  0.00     0.006 C 
HETATM   14  C18 UNL     1       0.798  -0.572  -0.280  1.00  0.00    -0.008 C 
HETATM   15  C19 UNL     1       1.276  -0.443   1.191  1.00  0.00     0.019 C 
HETATM   16  C20 UNL     1      -0.428   0.213  -0.514  1.00  0.00     0.152 C 
HETATM   17  C26 UNL     1      -1.627  -0.672  -0.650  1.00  0.00     0.017 C 
HETATM   18  C27 UNL     1      -2.544  -0.244  -1.818  1.00  0.00     0.021 C 
HETATM   19  C28 UNL     1      -2.509  -0.873   0.500  1.00  0.00     0.173 C 
ENDROOT
BRANCH  13  20
HETATM   20  C12 UNL     1       2.522   0.618  -1.819  1.00  0.00    -0.021 C 
HETATM   21  C13 UNL     1       1.803   1.188  -2.984  1.00  0.00     0.017 C 
HETATM   22  C14 UNL     1       3.820   0.019  -2.450  1.00  0.00     0.017 C 
BRANCH  20  23
HETATM   23  C15 UNL     1       3.064   1.721  -0.977  1.00  0.00     0.187 C 
BRANCH  23  24
HETATM   24  O3  UNL     1       4.122   1.232  -0.149  1.00  0.00    -0.321 OA
BRANCH  24  25
HETATM   25  C16 UNL     1       4.800   2.052   0.730  1.00  0.00     0.254 C 
HETATM   26  C17 UNL     1       5.888   1.478   1.558  1.00  0.00     0.126 C 
HETATM   27  O4  UNL     1       4.481   3.263   0.810  1.00  0.00    -0.266 OA
ENDBRANCH  24  25
ENDBRANCH  23  24
ENDBRANCH  20  23
ENDBRANCH  13  20
BRANCH  16  28
HETATM   28  O5  UNL     1      -0.553   1.185   0.504  1.00  0.00    -0.311 OA
BRANCH  28  29
HETATM   29  C21 UNL     1      -0.679   2.525   0.287  1.00  0.00     0.289 C 
HETATM   30  O6  UNL     1      -0.694   2.863  -0.947  1.00  0.00    -0.260 OA
BRANCH  29  31
HETATM   31  C22 UNL     1      -0.795   3.585   1.278  1.00  0.00     0.009 C 
HETATM   32  C23 UNL     1      -0.773   3.358   2.742  1.00  0.00     0.054 C 
HETATM   33  C24 UNL     1      -0.921   4.858   0.860  1.00  0.00    -0.018 C 
HETATM   34  C25 UNL     1      -1.044   5.995   1.765  1.00  0.00     0.036 C 
ENDBRANCH  29  31
ENDBRANCH  28  29
ENDBRANCH  16  28
BRANCH  19  35
HETATM   35  O7  UNL     1      -1.941  -0.949   1.772  1.00  0.00    -0.313 OA
BRANCH  35  36
HETATM   36  C29 UNL     1      -2.339  -0.164   2.812  1.00  0.00     0.255 C 
HETATM   37  C30 UNL     1      -1.721  -0.254   4.183  1.00  0.00     0.126 C 
HETATM   38  O8  UNL     1      -3.264   0.696   2.672  1.00  0.00    -0.266 OA
ENDBRANCH  35  36
ENDBRANCH  19  35
TORSDOF 9
