REMARK  10 active torsions:
REMARK  status: ('A' for Active; 'I' for Inactive)
REMARK    1  A    between atoms: O1_2  and  C2_3 
REMARK    2  A    between atoms: C2_3  and  C3_5 
REMARK    3  A    between atoms: C3_5  and  C4_6 
REMARK    4  A    between atoms: C4_6  and  C5_7 
REMARK    5  A    between atoms: C5_7  and  O4_9 
REMARK    6  A    between atoms: O4_9  and  C6_10 
REMARK    7  A    between atoms: C7_11  and  O5_12 
REMARK    8  A    between atoms: O5_12  and  C8_13 
REMARK    9  A    between atoms: C13_19  and  O7_20 
REMARK   10  A    between atoms: O7_20  and  C14_21 
ROOT
HETATM    1  C6  UNL     1       1.354  -0.141  -0.524  1.00  0.00     0.170 C 
HETATM    2  C7  UNL     1       0.765  -1.123   0.420  1.00  0.00     0.170 C 
HETATM    3  C10 UNL     1      -0.628  -0.923   0.829  1.00  0.00    -0.008 C 
HETATM    4  C11 UNL     1      -0.674  -1.137   2.356  1.00  0.00     0.018 C 
HETATM    5  C12 UNL     1      -1.545  -2.044   0.304  1.00  0.00     0.045 C 
HETATM    6  C13 UNL     1      -2.881  -1.267   0.241  1.00  0.00     0.137 C 
HETATM    7  C16 UNL     1      -2.352  -0.058  -0.478  1.00  0.00     0.022 C 
HETATM    8  C17 UNL     1      -3.261   0.878  -1.098  1.00  0.00     0.021 C 
HETATM    9  C18 UNL     1      -4.012   1.918  -0.415  1.00  0.00    -0.020 C 
HETATM   10  C19 UNL     1      -4.481   2.975  -1.411  1.00  0.00     0.020 C 
HETATM   11  C20 UNL     1      -5.190   1.576   0.462  1.00  0.00     0.018 C 
HETATM   12  C21 UNL     1      -4.629   2.669   1.384  1.00  0.00     0.036 C 
HETATM   13  C22 UNL     1      -3.324   2.604   0.700  1.00  0.00    -0.075 C 
HETATM   14  C23 UNL     1      -2.072   2.954   0.905  1.00  0.00    -0.023 C 
HETATM   15  C24 UNL     1      -0.780   2.835   0.147  1.00  0.00     0.033 C 
HETATM   16  C25 UNL     1      -0.454   1.397  -0.222  1.00  0.00     0.005 C 
HETATM   17  C26 UNL     1      -1.277   0.382   0.448  1.00  0.00     0.008 C 
HETATM   18  C27 UNL     1       1.044   1.252  -0.058  1.00  0.00    -0.014 C 
HETATM   19  C28 UNL     1       1.536   1.554   1.309  1.00  0.00     0.018 C 
HETATM   20  C29 UNL     1       1.673   2.197  -1.094  1.00  0.00     0.018 C 
ENDROOT
BRANCH   1  21
HETATM   21  O4  UNL     1       2.786  -0.262  -0.457  1.00  0.00    -0.312 OA
BRANCH  21  22
HETATM   22  C5  UNL     1       3.586  -0.526  -1.531  1.00  0.00     0.259 C 
HETATM   23  O3  UNL     1       3.064  -0.680  -2.663  1.00  0.00    -0.265 OA
BRANCH  22  24
HETATM   24  C4  UNL     1       5.068  -0.629  -1.361  1.00  0.00     0.121 C 
BRANCH  24  25
HETATM   25  C3  UNL     1       5.475  -0.241   0.053  1.00  0.00     0.121 C 
BRANCH  25  26
HETATM   26  C2  UNL     1       6.947  -0.368   0.170  1.00  0.00     0.258 C 
HETATM   27  O2  UNL     1       7.577  -1.431  -0.065  1.00  0.00    -0.265 OA
BRANCH  26  28
HETATM   28  O1  UNL     1       7.733   0.738   0.563  1.00  0.00    -0.326 OA
HETATM   29  C1  UNL     1       9.127   0.588   0.668  1.00  0.00     0.213 C 
ENDBRANCH  26  28
ENDBRANCH  25  26
ENDBRANCH  24  25
ENDBRANCH  22  24
ENDBRANCH  21  22
ENDBRANCH   1  21
BRANCH   2  30
HETATM   30  O5  UNL     1       0.872  -2.410  -0.208  1.00  0.00    -0.313 OA
BRANCH  30  31
HETATM   31  C8  UNL     1       1.720  -3.407   0.254  1.00  0.00     0.255 C 
HETATM   32  C9  UNL     1       1.806  -4.740  -0.419  1.00  0.00     0.126 C 
HETATM   33  O6  UNL     1       2.426  -3.163   1.267  1.00  0.00    -0.266 OA
ENDBRANCH  30  31
ENDBRANCH   2  30
BRANCH   6  34
HETATM   34  O7  UNL     1      -3.831  -1.954  -0.534  1.00  0.00    -0.316 OA
BRANCH  34  35
HETATM   35  C14 UNL     1      -5.022  -2.445  -0.069  1.00  0.00     0.255 C 
HETATM   36  C15 UNL     1      -5.934  -3.152  -1.017  1.00  0.00     0.126 C 
HETATM   37  O8  UNL     1      -5.320  -2.293   1.133  1.00  0.00    -0.266 OA
ENDBRANCH  34  35
ENDBRANCH   6  34
TORSDOF 10
