REMARK  9 active torsions:
REMARK  status: ('A' for Active; 'I' for Inactive)
REMARK    1  A    between atoms: C5_6  and  O2_7 
REMARK    2  A    between atoms: O2_7  and  C6_8 
REMARK    3  A    between atoms: C22_26  and  C23_27 
REMARK    4  A    between atoms: C23_27  and  O5_28 
REMARK    5  A    between atoms: O5_28  and  C24_29 
REMARK    6  A    between atoms: C24_29  and  C25_31 
REMARK    7  A    between atoms: C25_31  and  C26_32 
REMARK    8  A    between atoms: C26_32  and  C27_33 
REMARK    9  A    between atoms: C29_36  and  O8_37 
ROOT
HETATM    1  C1  UNL     1       0.649  -3.552  -3.338  1.00  0.00     0.017 C 
HETATM    2  C2  UNL     1       1.028  -2.942  -2.260  1.00  0.00    -0.056 C 
HETATM    3  C3  UNL     1       1.973  -1.801  -2.470  1.00  0.00     0.097 C 
HETATM    4  C4  UNL     1       1.426  -0.521  -1.794  1.00  0.00     0.268 C 
HETATM    5  O1  UNL     1       0.045  -0.690  -2.132  1.00  0.00    -0.330 OA
HETATM    6  C5  UNL     1      -0.567  -0.459  -0.875  1.00  0.00     0.272 C 
HETATM    7  C16 UNL     1      -0.239  -1.420   0.149  1.00  0.00     0.019 C 
HETATM    8  C17 UNL     1      -1.542  -1.981   0.744  1.00  0.00     0.021 C 
HETATM    9  C18 UNL     1       0.650  -2.557   0.041  1.00  0.00     0.032 C 
HETATM   10  C19 UNL     1       0.908  -2.797   1.478  1.00  0.00     0.016 C 
HETATM   11  C20 UNL     1       1.517  -1.377   1.708  1.00  0.00     0.031 A 
HETATM   12  C21 UNL     1       0.421  -0.586   1.273  1.00  0.00     0.043 A 
HETATM   13  C22 UNL     1       1.847  -0.431   0.634  1.00  0.00     0.095 A 
HETATM   14  O7  UNL     1       1.733  -0.202  -0.609  1.00  0.00    -0.347 OA
HETATM   15  C29 UNL     1       0.419  -3.533  -1.015  1.00  0.00     0.151 C 
ENDROOT
BRANCH   6  16
HETATM   16  O2  UNL     1      -1.921  -0.188  -1.130  1.00  0.00    -0.352 OA
BRANCH  16  17
HETATM   17  C6  UNL     1      -2.244   1.138  -1.138  1.00  0.00     0.156 C 
HETATM   18  C7  UNL     1      -2.736   1.621  -2.508  1.00  0.00     0.035 C 
HETATM   19  C8  UNL     1      -3.943   0.829  -2.950  1.00  0.00     0.009 C 
HETATM   20  C9  UNL     1      -5.074   1.025  -1.960  1.00  0.00     0.013 C 
HETATM   21  C10 UNL     1      -5.655   2.393  -2.030  1.00  0.00     0.012 C 
HETATM   22  C11 UNL     1      -4.556   0.618  -0.613  1.00  0.00     0.160 C 
HETATM   23  O3  UNL     1      -5.389   0.922   0.436  1.00  0.00    -0.348 OA
HETATM   24  C15 UNL     1      -3.349   1.485  -0.221  1.00  0.00     0.183 C 
HETATM   25  C12 UNL     1      -4.570   1.127   1.534  1.00  0.00     0.158 C 
HETATM   26  C13 UNL     1      -4.829   2.457   2.221  1.00  0.00     0.078 C 
HETATM   27  C14 UNL     1      -4.772   0.037   2.572  1.00  0.00     0.078 C 
HETATM   28  O4  UNL     1      -3.249   1.159   1.093  1.00  0.00    -0.345 OA
ENDBRANCH  16  17
ENDBRANCH   6  16
BRANCH  15  29
HETATM   29  O8  UNL     1      -0.902  -3.812  -1.344  1.00  0.00    -0.391 OA
ATOM     30  H8  UNL     1      -1.286  -4.185  -0.559  1.00  0.00     0.210 HD
ENDBRANCH  15  29
BRANCH  13  31
HETATM   31  C23 UNL     1       2.506   0.844   1.241  1.00  0.00     0.217 C 
BRANCH  31  32
HETATM   32  O5  UNL     1       3.765   1.073   0.641  1.00  0.00    -0.318 OA
BRANCH  32  33
HETATM   33  C24 UNL     1       4.777   0.144   0.717  1.00  0.00     0.258 C 
HETATM   34  O6  UNL     1       4.565  -0.926   1.337  1.00  0.00    -0.265 OA
BRANCH  33  35
HETATM   35  C25 UNL     1       6.109   0.418   0.068  1.00  0.00     0.111 C 
BRANCH  35  36
HETATM   36  C26 UNL     1       7.079   0.900   1.154  1.00  0.00     0.009 C 
BRANCH  36  37
HETATM   37  C27 UNL     1       6.552   2.166   1.797  1.00  0.00    -0.004 C 
HETATM   38  C28 UNL     1       7.541   2.597   2.854  1.00  0.00     0.005 C 
ENDBRANCH  36  37
ENDBRANCH  35  36
ENDBRANCH  33  35
ENDBRANCH  32  33
ENDBRANCH  31  32
ENDBRANCH  13  31
TORSDOF 9
