REMARK  14 active torsions:
REMARK  status: ('A' for Active; 'I' for Inactive)
REMARK    1  A    between atoms: S1_2  and  N1_5 
REMARK    2  A    between atoms: N1_5  and  N2_7 
REMARK    3  A    between atoms: N2_7  and  C2_9 
REMARK    4  A    between atoms: C3_12  and  N4_13 
REMARK    5  A    between atoms: N6_20  and  C6_21 
REMARK    6  A    between atoms: C7_23  and  C8_24 
REMARK    7  A    between atoms: C8_24  and  O4_25 
REMARK    8  A    between atoms: C8_24  and  C9_27 
REMARK    9  A    between atoms: C9_27  and  O5_28 
REMARK   10  A    between atoms: C10_30  and  O6_31 
REMARK   11  A    between atoms: C10_30  and  C11_33 
REMARK   12  A    between atoms: C11_33  and  O7_34 
REMARK   13  A    between atoms: C12_36  and  O8_37 
REMARK   14  A    between atoms: C13_39  and  O9_40 
REMARK       I    between atoms: N7_43  and  C15_44 
ROOT
HETATM    1  C2  UNL     1       3.396  -0.298   0.999  1.00  0.00     0.709 A 
HETATM    2  N3  UNL     1       4.014  -1.442   0.718  1.00  0.00    -0.173 N 
ATOM      3  H3  UNL     1       4.977  -1.578   1.025  1.00  0.00     0.186 HD
HETATM    4  C3  UNL     1       3.398  -2.419   0.040  1.00  0.00     0.145 A 
HETATM    5  C4  UNL     1       2.113  -2.265  -0.383  1.00  0.00     0.123 A 
HETATM    6  N5  UNL     1       1.260  -3.049  -1.065  1.00  0.00    -0.346 N 
ATOM      7  H5  UNL     1       1.454  -3.987  -1.415  1.00  0.00     0.167 HD
HETATM    8  C5  UNL     1       0.145  -2.397  -1.198  1.00  0.00     0.188 A 
HETATM    9  N6  UNL     1       0.203  -1.152  -0.613  1.00  0.00    -0.296 N 
HETATM   10  C14 UNL     1       1.441  -1.069  -0.100  1.00  0.00     0.168 A 
HETATM   11  N7  UNL     1       2.101  -0.133   0.577  1.00  0.00    -0.100 N 
HETATM   12  C15 UNL     1       1.490   1.108   0.905  1.00  0.00     0.210 C 
HETATM   13  N8  UNL     1       1.498   2.053   0.045  1.00  0.00    -0.373 N 
ATOM     14  H81 UNL     1       1.060   2.943   0.280  1.00  0.00     0.158 HD
ATOM     15  H82 UNL     1       1.904   1.913  -0.880  1.00  0.00     0.158 HD
HETATM   16  N9  UNL     1       0.927   1.302   2.189  1.00  0.00    -0.062 NA
ENDROOT
BRANCH   9  17
HETATM   17  C6  UNL     1      -0.885  -0.206  -0.608  1.00  0.00     0.262 C 
HETATM   18  O3  UNL     1      -2.021  -1.071  -0.296  1.00  0.00    -0.352 OA
HETATM   19  C7  UNL     1      -3.072  -0.256   0.154  1.00  0.00     0.194 C 
HETATM   20  C10 UNL     1      -3.288   0.910  -0.693  1.00  0.00     0.136 C 
HETATM   21  C12 UNL     1      -2.529   0.965  -2.002  1.00  0.00     0.190 C 
HETATM   22  C13 UNL     1      -1.260   0.237  -2.004  1.00  0.00     0.199 C 
BRANCH  19  23
HETATM   23  C8  UNL     1      -4.184  -1.210   0.459  1.00  0.00     0.173 C 
BRANCH  23  24
HETATM   24  O4  UNL     1      -3.621  -2.182   1.388  1.00  0.00    -0.391 OA
ATOM     25  H4  UNL     1      -4.327  -2.788   1.582  1.00  0.00     0.210 HD
ENDBRANCH  23  24
BRANCH  23  26
HETATM   26  C9  UNL     1      -5.270  -0.623   1.373  1.00  0.00     0.198 C 
BRANCH  26  27
HETATM   27  O5  UNL     1      -4.659  -0.038   2.464  1.00  0.00    -0.398 OA
ATOM     28  H5  UNL     1      -5.331   0.325   3.029  1.00  0.00     0.209 HD
ENDBRANCH  26  27
ENDBRANCH  23  26
ENDBRANCH  19  23
BRANCH  20  29
HETATM   29  O6  UNL     1      -2.919   2.070   0.067  1.00  0.00    -0.382 OA
ATOM     30  H6  UNL     1      -3.060   2.830  -0.485  1.00  0.00     0.210 HD
ENDBRANCH  20  29
BRANCH  20  31
HETATM   31  C11 UNL     1      -4.716   1.252  -1.065  1.00  0.00     0.207 C 
BRANCH  31  32
HETATM   32  O7  UNL     1      -5.362   0.311  -1.817  1.00  0.00    -0.398 OA
ATOM     33  H7  UNL     1      -6.258   0.525  -2.050  1.00  0.00     0.209 HD
ENDBRANCH  31  32
ENDBRANCH  20  31
BRANCH  21  34
HETATM   34  O8  UNL     1      -2.364   2.325  -2.345  1.00  0.00    -0.390 OA
ATOM     35  H8  UNL     1      -1.888   2.360  -3.166  1.00  0.00     0.210 HD
ENDBRANCH  21  34
BRANCH  22  36
HETATM   36  O9  UNL     1      -0.238   0.824  -2.724  1.00  0.00    -0.388 OA
ATOM     37  H9  UNL     1      -0.474   1.102  -3.601  1.00  0.00     0.210 HD
ENDBRANCH  22  36
ENDBRANCH   9  17
BRANCH   4  38
HETATM   38  N4  UNL     1       4.009  -3.525  -0.226  1.00  0.00    -0.383 N 
ATOM     39  H42 UNL     1       4.972  -3.640   0.091  1.00  0.00     0.157 HD
ATOM     40  H41 UNL     1       3.540  -4.269  -0.742  1.00  0.00     0.157 HD
ENDBRANCH   4  38
BRANCH   1  41
HETATM   41  N2  UNL     1       3.953   0.674   1.651  1.00  0.00    -0.122 N 
ATOM     42  H2  UNL     1       3.403   1.516   1.821  1.00  0.00     0.206 HD
BRANCH  41  43
HETATM   43  N1  UNL     1       5.242   0.636   2.127  1.00  0.00    -0.213 N 
ATOM     44  H1  UNL     1       5.446   0.066   2.948  1.00  0.00     0.200 HD
BRANCH  43  45
HETATM   45  S1  UNL     1       6.521   1.513   1.390  1.00  0.00     0.240 S 
HETATM   46  C1  UNL     1       7.266   0.482   0.153  1.00  0.00     0.187 C 
HETATM   47  O1  UNL     1       6.014   2.767   0.756  1.00  0.00    -0.205 OA
HETATM   48  O2  UNL     1       7.504   1.908   2.451  1.00  0.00    -0.205 OA
ENDBRANCH  43  45
ENDBRANCH  41  43
ENDBRANCH   1  41
TORSDOF 14
