REMARK  14 active torsions:
REMARK  status: ('A' for Active; 'I' for Inactive)
REMARK    1  A    between atoms: C2_3  and  C3_4 
REMARK       I    between atoms: C3_4  and  N2_6 
REMARK    2  A    between atoms: N2_6  and  N3_8 
REMARK    3  A    between atoms: N3_8  and  C4_9 
REMARK    4  A    between atoms: C7_15  and  O2_16 
REMARK    5  A    between atoms: O2_16  and  C8_17 
REMARK    6  A    between atoms: C9_20  and  C10_21 
REMARK    7  A    between atoms: C10_21  and  O3_22 
REMARK    8  A    between atoms: C11_24  and  N6_25 
REMARK    9  A    between atoms: C12_29  and  O4_30 
REMARK   10  A    between atoms: C13_32  and  O5_33 
REMARK   11  A    between atoms: N7_38  and  N8_39 
REMARK   12  A    between atoms: N9_44  and  C16_45 
REMARK   13  A    between atoms: C16_45  and  C17_46 
REMARK   14  A    between atoms: C17_46  and  O9_47 
ROOT
HETATM    1  C4  UNL     1      -0.061   0.832  -0.377  1.00  0.00     0.440 C 
HETATM    2  N4  UNL     1       0.702   0.462  -1.557  1.00  0.00    -0.032 N 
ATOM      3  H41 UNL     1       1.247  -0.393  -1.443  1.00  0.00     0.281 HD
ATOM      4  H42 UNL     1       1.490   1.081  -1.748  1.00  0.00     0.281 HD
HETATM    5  C5  UNL     1      -0.281   0.398  -2.650  1.00  0.00     0.242 C 
HETATM    6  C6  UNL     1      -1.236  -0.719  -2.302  1.00  0.00     0.088 C 
HETATM    7  C7  UNL     1      -1.893  -0.442  -0.971  1.00  0.00     0.268 C 
HETATM    8  O6  UNL     1      -0.970  -0.138   0.020  1.00  0.00    -0.315 OA
ENDROOT
BRANCH   1   9
HETATM    9  N3  UNL     1       0.720   1.387   0.679  1.00  0.00    -0.077 NA
BRANCH   9  10
HETATM   10  N2  UNL     1       1.701   0.452   1.070  1.00  0.00    -0.265 N 
HETATM   11  C3  UNL     1       3.018   0.560   0.615  1.00  0.00     0.276 C 
HETATM   12  O1  UNL     1       3.256   1.562  -0.174  1.00  0.00    -0.266 OA
ATOM     13  H2  UNL     1       1.446  -0.314   1.694  1.00  0.00     0.185 HD
BRANCH  11  14
HETATM   14  C2  UNL     1       4.115  -0.324   0.938  1.00  0.00     0.144 A 
HETATM   15  C1  UNL     1       5.379  -0.062   0.383  1.00  0.00     0.144 A 
HETATM   16  N1  UNL     1       5.482   1.074  -0.472  1.00  0.00    -0.081 NA
HETATM   17  N9  UNL     1       6.462  -0.814   0.616  1.00  0.00    -0.283 N 
HETATM   18  C15 UNL     1       6.326  -1.867   1.420  1.00  0.00     0.351 A 
HETATM   19  N7  UNL     1       5.147  -2.174   1.983  1.00  0.00    -0.174 N 
HETATM   20  O8  UNL     1       7.331  -2.604   1.665  1.00  0.00    -0.244 OA
HETATM   21  C14 UNL     1       4.020  -1.420   1.761  1.00  0.00     0.289 A 
HETATM   22  O7  UNL     1       2.944  -1.750   2.311  1.00  0.00    -0.265 OA
BRANCH  17  23
HETATM   23  C16 UNL     1       7.738  -0.462  -0.008  1.00  0.00     0.161 C 
BRANCH  23  24
HETATM   24  C17 UNL     1       8.524   0.488   0.907  1.00  0.00     0.184 C 
BRANCH  24  25
HETATM   25  O9  UNL     1       9.714   0.784   0.264  1.00  0.00    -0.399 OA
ATOM     26  H9  UNL     1      10.200   1.372   0.830  1.00  0.00     0.209 HD
ENDBRANCH  24  25
ENDBRANCH  23  24
ENDBRANCH  17  23
BRANCH  19  27
HETATM   27  N8  UNL     1       4.983  -3.273   2.829  1.00  0.00    -0.332 N 
ATOM     28  H82 UNL     1       4.087  -3.506   3.257  1.00  0.00     0.177 HD
ATOM     29  H81 UNL     1       5.820  -3.833   2.994  1.00  0.00     0.177 HD
ENDBRANCH  19  27
ENDBRANCH  11  14
ENDBRANCH   9  10
ENDBRANCH   1   9
BRANCH   7  30
HETATM   30  O2  UNL     1      -2.840   0.534  -1.014  1.00  0.00    -0.335 OA
BRANCH  30  31
HETATM   31  C8  UNL     1      -4.135   0.168  -0.693  1.00  0.00     0.251 C 
HETATM   32  N5  UNL     1      -4.473   0.888   0.513  1.00  0.00    -0.386 N 
HETATM   33  C9  UNL     1      -5.776   0.641   1.030  1.00  0.00     0.135 C 
ATOM     34  H5  UNL     1      -3.821   1.530   0.964  1.00  0.00     0.156 HD
HETATM   35  C11 UNL     1      -6.847   0.923   0.018  1.00  0.00     0.238 C 
HETATM   36  C12 UNL     1      -6.522   0.196  -1.257  1.00  0.00     0.183 C 
HETATM   37  C13 UNL     1      -5.131   0.521  -1.758  1.00  0.00     0.197 C 
BRANCH  33  38
HETATM   38  C10 UNL     1      -5.949  -0.707   1.685  1.00  0.00     0.191 C 
BRANCH  38  39
HETATM   39  O3  UNL     1      -5.086  -0.862   2.756  1.00  0.00    -0.399 OA
ATOM     40  H3  UNL     1      -5.195  -1.711   3.168  1.00  0.00     0.209 HD
ENDBRANCH  38  39
ENDBRANCH  33  38
BRANCH  35  41
HETATM   41  N6  UNL     1      -6.939   2.336  -0.281  1.00  0.00    -0.070 N 
ATOM     42  H63 UNL     1      -7.072   2.888   0.566  1.00  0.00     0.274 HD
ATOM     43  H62 UNL     1      -6.039   2.714  -0.576  1.00  0.00     0.274 HD
ATOM     44  H61 UNL     1      -7.667   2.528  -0.969  1.00  0.00     0.274 HD
ENDBRANCH  35  41
BRANCH  36  45
HETATM   45  O4  UNL     1      -6.800  -1.152  -1.229  1.00  0.00    -0.391 OA
ATOM     46  H4  UNL     1      -6.595  -1.611  -2.035  1.00  0.00     0.210 HD
ENDBRANCH  36  45
BRANCH  37  47
HETATM   47  O5  UNL     1      -5.100   1.901  -1.977  1.00  0.00    -0.389 OA
ATOM     48  H5  UNL     1      -5.731   2.125  -2.651  1.00  0.00     0.210 HD
ENDBRANCH  37  47
ENDBRANCH  30  31
ENDBRANCH   7  30
TORSDOF 14
