REMARK  14 active torsions:
REMARK  status: ('A' for Active; 'I' for Inactive)
REMARK    1  A    between atoms: O1_2  and  C2_3 
REMARK    2  A    between atoms: C7_12  and  O3_13 
REMARK    3  A    between atoms: C8_16  and  C9_17 
REMARK    4  A    between atoms: C8_16  and  S1_22 
REMARK    5  A    between atoms: C9_17  and  O5_18 
REMARK    6  A    between atoms: C9_17  and  O6_20 
REMARK    7  A    between atoms: C11_31  and  N3_32 
REMARK    8  A    between atoms: N3_32  and  C12_34 
REMARK    9  A    between atoms: C12_34  and  O11_35 
REMARK   10  A    between atoms: C12_34  and  C13_37 
REMARK   11  A    between atoms: C13_37  and  O12_38 
REMARK   12  A    between atoms: C13_37  and  C14_40 
REMARK   13  A    between atoms: C14_40  and  O13_41 
REMARK   14  A    between atoms: C15_43  and  O14_44 
ROOT
HETATM    1  C2  UNL     1       1.682   1.592  -2.521  1.00  0.00     0.177 C 
HETATM    2  C3  UNL     1       0.838   2.472  -1.631  1.00  0.00     0.208 C 
HETATM    3  O2  UNL     1      -0.256   1.683  -1.206  1.00  0.00    -0.329 OA
HETATM    4  C4  UNL     1      -0.033   1.244   0.098  1.00  0.00     0.369 C 
HETATM    5  N1  UNL     1       0.032   2.464   0.918  1.00  0.00    -0.014 N 
ATOM      6  H11 UNL     1       0.500   3.239   0.448  1.00  0.00     0.283 HD
ATOM      7  H12 UNL     1       0.674   2.384   1.707  1.00  0.00     0.283 HD
HETATM    8  C5  UNL     1      -1.328   2.776   1.318  1.00  0.00     0.251 C 
HETATM    9  C6  UNL     1      -2.210   1.760   0.691  1.00  0.00     0.105 C 
HETATM   10  C7  UNL     1      -3.328   1.255   1.544  1.00  0.00     0.269 C 
HETATM   11  O4  UNL     1      -3.843   0.059   1.159  1.00  0.00    -0.306 OA
HETATM   12  C8  UNL     1      -3.123  -0.791   0.432  1.00  0.00     0.400 C 
HETATM   13  N2  UNL     1      -1.891  -0.390  -0.147  1.00  0.00    -0.008 N 
ATOM     14  H21 UNL     1      -2.020  -0.055  -1.102  1.00  0.00     0.283 HD
ATOM     15  H22 UNL     1      -1.292  -1.193  -0.340  1.00  0.00     0.283 HD
HETATM   16  C10 UNL     1      -1.229   0.567   0.649  1.00  0.00     0.293 C 
HETATM   17  O10 UNL     1       1.155   0.560   0.230  1.00  0.00    -0.304 OA
HETATM   18  C11 UNL     1       1.472  -0.209  -0.892  1.00  0.00     0.255 C 
HETATM   19  C15 UNL     1       2.440   0.546  -1.712  1.00  0.00     0.197 C 
ENDROOT
BRANCH  18  20
HETATM   20  N3  UNL     1       1.762  -1.513  -0.503  1.00  0.00    -0.367 N 
ATOM     21  H3  UNL     1       1.151  -2.262  -0.830  1.00  0.00     0.158 HD
BRANCH  20  22
HETATM   22  C12 UNL     1       2.835  -1.848   0.304  1.00  0.00     0.246 C 
BRANCH  22  23
HETATM   23  O11 UNL     1       2.789  -3.261   0.483  1.00  0.00    -0.374 OA
ATOM     24  H11 UNL     1       3.526  -3.491   1.037  1.00  0.00     0.212 HD
ENDBRANCH  22  23
BRANCH  22  25
HETATM   25  C13 UNL     1       2.867  -1.291   1.695  1.00  0.00     0.190 C 
BRANCH  25  26
HETATM   26  O12 UNL     1       1.727  -1.718   2.407  1.00  0.00    -0.389 OA
ATOM     27  H12 UNL     1       1.747  -1.365   3.289  1.00  0.00     0.210 HD
ENDBRANCH  25  26
BRANCH  25  28
HETATM   28  C14 UNL     1       4.073  -1.941   2.391  1.00  0.00     0.200 C 
BRANCH  28  29
HETATM   29  O13 UNL     1       4.172  -1.557   3.706  1.00  0.00    -0.398 OA
ATOM     30  H13 UNL     1       4.918  -1.959   4.136  1.00  0.00     0.209 HD
ENDBRANCH  28  29
ENDBRANCH  25  28
ENDBRANCH  22  25
ENDBRANCH  20  22
ENDBRANCH  18  20
BRANCH   1  31
HETATM   31  O1  UNL     1       2.538   2.321  -3.329  1.00  0.00    -0.386 OA
HETATM   32  C1  UNL     1       2.281   2.167  -4.679  1.00  0.00     0.202 C 
ENDBRANCH   1  31
BRANCH  10  33
HETATM   33  O3  UNL     1      -4.339   2.212   1.587  1.00  0.00    -0.371 OA
ATOM     34  H3  UNL     1      -5.050   1.891   2.129  1.00  0.00     0.212 HD
ENDBRANCH  10  33
BRANCH  12  35
HETATM   35  C9  UNL     1      -4.000  -1.306  -0.721  1.00  0.00     0.338 C 
BRANCH  35  36
HETATM   36  O5  UNL     1      -3.393  -2.380  -1.355  1.00  0.00    -0.366 OA
ATOM     37  H5  UNL     1      -3.935  -2.698  -2.067  1.00  0.00     0.212 HD
ENDBRANCH  35  36
BRANCH  35  38
HETATM   38  O6  UNL     1      -5.193  -1.765  -0.171  1.00  0.00    -0.366 OA
ATOM     39  H6  UNL     1      -5.735  -2.083  -0.883  1.00  0.00     0.212 HD
ENDBRANCH  35  38
ENDBRANCH  12  35
BRANCH  12  40
HETATM   40  S1  UNL     1      -2.787  -2.250   1.431  1.00  0.00     0.172 S 
HETATM   41  O7  UNL     1      -2.046  -1.824   2.651  1.00  0.00    -0.591 OA
HETATM   42  O8  UNL     1      -1.923  -3.216   0.674  1.00  0.00    -0.591 OA
HETATM   43  O9  UNL     1      -4.223  -2.983   1.893  1.00  0.00    -0.591 OA
ENDBRANCH  12  40
BRANCH  19  44
HETATM   44  O14 UNL     1       3.148  -0.202  -2.636  1.00  0.00    -0.389 OA
ATOM     45  H14 UNL     1       3.620  -0.854  -2.132  1.00  0.00     0.210 HD
ENDBRANCH  19  44
TORSDOF 14
