REMARK  9 active torsions:
REMARK  status: ('A' for Active; 'I' for Inactive)
REMARK    1  A    between atoms: C3_3  and  C5_5 
REMARK    2  A    between atoms: C5_5  and  O2_7 
REMARK    3  A    between atoms: O2_7  and  C6_8 
REMARK    4  A    between atoms: C11_14  and  O4_16 
REMARK    5  A    between atoms: C16_21  and  C17_22 
REMARK    6  A    between atoms: C20_25  and  O5_26 
REMARK    7  A    between atoms: C24_31  and  O6_32 
REMARK    8  A    between atoms: O6_32  and  C25_33 
REMARK    9  A    between atoms: C25_33  and  C26_35 
ROOT
HETATM    1  C6  UNL     1       0.752  -0.844  -0.570  1.00  0.00     0.186 C 
HETATM    2  C7  UNL     1       0.752  -2.023  -1.504  1.00  0.00     0.046 C 
HETATM    3  C8  UNL     1       2.174  -2.081  -2.190  1.00  0.00     0.026 C 
HETATM    4  C9  UNL     1       0.671  -3.400  -1.029  1.00  0.00     0.026 C 
HETATM    5  C10 UNL     1      -0.109  -1.855  -2.707  1.00  0.00     0.171 C 
HETATM    6  O3  UNL     1       0.169  -2.257  -3.825  1.00  0.00    -0.294 OA
HETATM    7  C11 UNL     1      -1.451  -1.146  -2.645  1.00  0.00     0.122 C 
HETATM    8  C12 UNL     1      -2.433  -2.345  -2.840  1.00  0.00     0.055 C 
HETATM    9  C13 UNL     1      -1.552  -0.745  -1.262  1.00  0.00     0.077 C 
HETATM   10  C14 UNL     1      -2.887  -0.444  -0.657  1.00  0.00     0.030 C 
HETATM   11  C15 UNL     1      -2.961  -1.357   0.521  1.00  0.00    -0.014 C 
HETATM   12  C16 UNL     1      -1.939  -0.980   1.301  1.00  0.00    -0.042 C 
HETATM   13  C20 UNL     1      -1.279   0.210   0.717  1.00  0.00     0.124 C 
HETATM   14  C21 UNL     1      -2.614   0.801   0.213  1.00  0.00    -0.002 C 
HETATM   15  C22 UNL     1      -2.813   2.040  -0.423  1.00  0.00     0.019 C 
HETATM   16  C23 UNL     1      -3.564   0.776   1.438  1.00  0.00     0.019 C 
HETATM   17  C24 UNL     1      -0.490   0.037  -0.587  1.00  0.00     0.141 C 
ENDROOT
BRANCH   1  18
HETATM   18  O2  UNL     1       1.617  -0.761   0.425  1.00  0.00    -0.308 OA
BRANCH  18  19
HETATM   19  C5  UNL     1       2.804  -0.212   0.661  1.00  0.00     0.289 C 
HETATM   20  O1  UNL     1       3.141   0.368  -0.384  1.00  0.00    -0.260 OA
BRANCH  19  21
HETATM   21  C3  UNL     1       3.672  -0.182   1.806  1.00  0.00     0.009 C 
HETATM   22  C2  UNL     1       4.828   0.475   1.722  1.00  0.00    -0.018 C 
HETATM   23  C1  UNL     1       5.779   0.548   2.857  1.00  0.00     0.036 C 
HETATM   24  C4  UNL     1       3.389  -0.841   3.107  1.00  0.00     0.054 C 
ENDBRANCH  19  21
ENDBRANCH  18  19
ENDBRANCH   1  18
BRANCH  17  25
HETATM   25  O6  UNL     1      -0.213   1.337  -0.767  1.00  0.00    -0.299 OA
BRANCH  25  26
HETATM   26  C25 UNL     1       0.324   2.216  -1.594  1.00  0.00     0.289 C 
HETATM   27  O7  UNL     1       0.673   1.582  -2.606  1.00  0.00    -0.260 OA
BRANCH  26  28
HETATM   28  C26 UNL     1       0.538   3.651  -1.488  1.00  0.00     0.009 C 
HETATM   29  C27 UNL     1       0.199   4.355  -0.250  1.00  0.00     0.054 C 
HETATM   30  C28 UNL     1       1.082   4.326  -2.487  1.00  0.00    -0.018 C 
HETATM   31  C29 UNL     1       1.279   5.783  -2.330  1.00  0.00     0.036 C 
ENDBRANCH  26  28
ENDBRANCH  25  26
ENDBRANCH  17  25
BRANCH  13  32
HETATM   32  O5  UNL     1      -0.663   1.024   1.618  1.00  0.00    -0.381 OA
ATOM     33  H5  UNL     1      -0.240   1.787   1.243  1.00  0.00     0.211 HD
ENDBRANCH  13  32
BRANCH   7  34
HETATM   34  O4  UNL     1      -1.714  -0.316  -3.667  1.00  0.00    -0.382 OA
ATOM     35  H4  UNL     1      -2.553   0.127  -3.628  1.00  0.00     0.211 HD
ENDBRANCH   7  34
BRANCH  12  36
HETATM   36  C17 UNL     1      -1.705  -1.680   2.576  1.00  0.00     0.009 C 
HETATM   37  C18 UNL     1      -2.737  -2.762   2.862  1.00  0.00     0.014 C 
HETATM   38  C19 UNL     1      -0.401  -2.396   2.745  1.00  0.00     0.014 C 
ENDBRANCH  12  36
TORSDOF 9
