REMARK  8 active torsions:
REMARK  status: ('A' for Active; 'I' for Inactive)
REMARK    1  A    between atoms: C2_2  and  C3_3 
REMARK    2  A    between atoms: C3_3  and  O1_4 
REMARK    3  A    between atoms: O1_4  and  N1_5 
REMARK    4  A    between atoms: C9_12  and  C10_13 
REMARK    5  A    between atoms: C10_13  and  O2_14 
REMARK    6  A    between atoms: C10_13  and  C13_18 
REMARK    7  A    between atoms: O2_14  and  C11_15 
REMARK    8  A    between atoms: C16_22  and  O5_23 
ROOT
HETATM    1  N1  UNL     1       3.614   2.404   1.766  1.00  0.00    -0.248 N 
ATOM      2  H1  UNL     1       3.595   3.005   2.590  1.00  0.00     0.196 HD
HETATM    3  C4  UNL     1       2.752   1.466   1.688  1.00  0.00     0.138 C 
HETATM    4  C5  UNL     1       1.709   1.163   2.700  1.00  0.00     0.087 C 
HETATM    5  C6  UNL     1       1.161  -0.228   2.462  1.00  0.00     0.020 C 
HETATM    6  C7  UNL     1       0.563  -0.342   1.053  1.00  0.00    -0.007 C 
HETATM    7  C8  UNL     1      -0.726   0.485   1.030  1.00  0.00     0.020 C 
HETATM    8  C9  UNL     1      -1.511   0.202  -0.161  1.00  0.00     0.021 C 
HETATM    9  C17 UNL     1      -1.819  -1.303  -0.145  1.00  0.00    -0.003 C 
HETATM   10  C18 UNL     1      -2.197  -1.879   1.152  1.00  0.00     0.006 C 
HETATM   11  C19 UNL     1      -2.072  -3.388   0.844  1.00  0.00     0.009 C 
HETATM   12  C20 UNL     1      -1.051  -3.481  -0.270  1.00  0.00    -0.043 C 
HETATM   13  C21 UNL     1      -1.842  -3.822  -1.539  1.00  0.00     0.015 C 
HETATM   14  C22 UNL     1      -0.042  -4.532  -0.051  1.00  0.00     0.015 C 
HETATM   15  C23 UNL     1      -0.531  -2.086  -0.439  1.00  0.00     0.003 C 
HETATM   16  C24 UNL     1       0.521  -1.671   0.493  1.00  0.00     0.012 C 
HETATM   17  C25 UNL     1       1.830  -1.406  -0.227  1.00  0.00    -0.015 C 
HETATM   18  C26 UNL     1       3.054  -1.964   0.416  1.00  0.00     0.018 C 
HETATM   19  C27 UNL     1       1.834  -1.627  -1.705  1.00  0.00     0.018 C 
HETATM   20  C28 UNL     1       1.576   0.083   0.050  1.00  0.00     0.147 C 
HETATM   21  O6  UNL     1       2.759   0.639   0.580  1.00  0.00    -0.331 OA
ENDROOT
BRANCH   8  22
HETATM   22  C10 UNL     1      -2.630   0.939  -0.670  1.00  0.00     0.151 C 
BRANCH  22  23
HETATM   23  O2  UNL     1      -3.699   0.983   0.279  1.00  0.00    -0.315 OA
BRANCH  23  24
HETATM   24  C11 UNL     1      -4.925   0.393   0.133  1.00  0.00     0.255 C 
HETATM   25  C12 UNL     1      -6.011   0.464   1.141  1.00  0.00     0.126 C 
HETATM   26  O3  UNL     1      -5.164  -0.254  -0.918  1.00  0.00    -0.266 OA
ENDBRANCH  23  24
ENDBRANCH  22  23
BRANCH  22  27
HETATM   27  C13 UNL     1      -2.602   2.269  -1.249  1.00  0.00     0.054 C 
HETATM   28  C14 UNL     1      -4.020   2.667  -1.705  1.00  0.00     0.025 C 
HETATM   29  C15 UNL     1      -1.611   2.742  -2.209  1.00  0.00     0.187 C 
HETATM   30  O4  UNL     1      -0.858   3.358  -1.163  1.00  0.00    -0.359 OA
HETATM   31  C16 UNL     1      -2.093   3.474  -0.517  1.00  0.00     0.269 C 
BRANCH  31  32
HETATM   32  O5  UNL     1      -2.150   3.537   0.829  1.00  0.00    -0.370 OA
ATOM     33  H5  UNL     1      -1.827   4.301   1.293  1.00  0.00     0.212 HD
ENDBRANCH  31  32
ENDBRANCH  22  27
ENDBRANCH   8  22
BRANCH   1  34
HETATM   34  O1  UNL     1       4.545   2.647   0.827  1.00  0.00    -0.279 OA
BRANCH  34  35
HETATM   35  C3  UNL     1       4.768   1.998  -0.381  1.00  0.00     0.201 C 
BRANCH  35  36
HETATM   36  C2  UNL     1       5.959   2.698  -1.043  1.00  0.00     0.024 C 
HETATM   37  C1  UNL     1       7.168   2.585  -0.129  1.00  0.00     0.007 C 
ENDBRANCH  35  36
ENDBRANCH  34  35
ENDBRANCH   1  34
TORSDOF 8
