REMARK  9 active torsions:
REMARK  status: ('A' for Active; 'I' for Inactive)
REMARK    1  A    between atoms: C3_3  and  O1_6 
REMARK    2  A    between atoms: O1_6  and  C6_7 
REMARK    3  A    between atoms: C6_7  and  C7_9 
REMARK    4  A    between atoms: C12_15  and  N1_16 
REMARK       I    between atoms: N1_16  and  C13_18 
REMARK    5  A    between atoms: C13_18  and  C14_20 
REMARK    6  A    between atoms: C14_20  and  N2_21 
REMARK    7  A    between atoms: N2_21  and  N3_22 
REMARK       I    between atoms: N2_21  and  C19_28 
REMARK    8  A    between atoms: N3_22  and  C15_24 
REMARK    9  A    between atoms: C19_28  and  C20_30 
ROOT
HETATM    1  C1  UNL     1       5.317  -0.597  -3.279  1.00  0.00     0.015 C 
HETATM    2  C2  UNL     1       4.753  -0.010  -2.402  1.00  0.00    -0.079 C 
HETATM    3  C3  UNL     1       4.049   0.716  -1.344  1.00  0.00     0.125 C 
HETATM    4  C4  UNL     1       3.048   1.704  -1.908  1.00  0.00     0.061 C 
HETATM    5  C5  UNL     1       5.090   1.554  -0.597  1.00  0.00     0.061 C 
ENDROOT
BRANCH   3   6
HETATM    6  O1  UNL     1       3.378  -0.149  -0.483  1.00  0.00    -0.294 OA
BRANCH   6   7
HETATM    7  C6  UNL     1       3.869  -1.134   0.305  1.00  0.00     0.297 C 
HETATM    8  O2  UNL     1       5.149  -1.279   0.232  1.00  0.00    -0.259 OA
BRANCH   7   9
HETATM    9  C7  UNL     1       3.164  -2.023   1.205  1.00  0.00     0.068 A 
HETATM   10  C8  UNL     1       3.942  -2.868   2.007  1.00  0.00     0.044 A 
HETATM   11  C9  UNL     1       3.367  -3.679   2.955  1.00  0.00     0.035 A 
HETATM   12 CL1  UNL     1       4.363  -4.731   3.945  1.00  0.00    -0.084 Cl
HETATM   13  C10 UNL     1       2.008  -3.690   3.151  1.00  0.00     0.026 A 
HETATM   14  C11 UNL     1       1.225  -2.868   2.372  1.00  0.00     0.032 A 
HETATM   15  C12 UNL     1       1.786  -2.031   1.396  1.00  0.00     0.051 A 
BRANCH  15  16
HETATM   16  N1  UNL     1       0.981  -1.279   0.531  1.00  0.00    -0.325 N 
HETATM   17  C13 UNL     1      -0.342  -0.835   0.695  1.00  0.00     0.242 C 
HETATM   18  O3  UNL     1      -0.984  -1.072   1.725  1.00  0.00    -0.271 OA
ATOM     19  H1  UNL     1       1.421  -1.014  -0.350  1.00  0.00     0.169 HD
BRANCH  17  20
HETATM   20  C14 UNL     1      -1.007  -0.057  -0.380  1.00  0.00     0.254 C 
BRANCH  20  21
HETATM   21  N2  UNL     1      -2.377   0.345   0.030  1.00  0.00    -0.256 N 
HETATM   22  C19 UNL     1      -3.377  -0.573  -0.299  1.00  0.00     0.237 C 
HETATM   23  O4  UNL     1      -4.572  -0.371  -0.003  1.00  0.00    -0.272 OA
BRANCH  21  24
HETATM   24  N3  UNL     1      -2.425   1.551   0.654  1.00  0.00    -0.322 N 
ATOM     25  H3  UNL     1      -1.748   1.732   1.395  1.00  0.00     0.181 HD
BRANCH  24  26
HETATM   26  C15 UNL     1      -3.336   2.553   0.349  1.00  0.00     0.035 C 
HETATM   27  C16 UNL     1      -4.620   2.421   1.146  1.00  0.00     0.039 C 
HETATM   28  C17 UNL     1      -3.661   2.672  -1.140  1.00  0.00     0.039 C 
HETATM   29  C18 UNL     1      -2.698   3.902   0.722  1.00  0.00     0.039 C 
ENDBRANCH  24  26
ENDBRANCH  21  24
BRANCH  22  30
HETATM   30  C20 UNL     1      -3.080  -1.834  -1.017  1.00  0.00     0.100 C 
HETATM   31  C21 UNL     1      -4.357  -2.607  -1.273  1.00  0.00     0.014 C 
ENDBRANCH  22  30
ENDBRANCH  20  21
ENDBRANCH  17  20
ENDBRANCH  15  16
ENDBRANCH   7   9
ENDBRANCH   6   7
ENDBRANCH   3   6
TORSDOF 9
