REMARK  8 active torsions:
REMARK  status: ('A' for Active; 'I' for Inactive)
REMARK    1  A    between atoms: C2_2  and  N1_3 
REMARK    2  A    between atoms: N1_3  and  C3_4 
REMARK    3  A    between atoms: N1_3  and  C5_6 
REMARK    4  A    between atoms: C5_6  and  C6_7 
REMARK    5  A    between atoms: C6_7  and  N2_8 
REMARK    6  A    between atoms: N2_8  and  C7_10 
REMARK    7  A    between atoms: C8_13  and  N4_14 
REMARK    8  A    between atoms: N4_14  and  C9_16 
ROOT
HETATM    1  C7  UNL     1       1.112  -0.368  -0.528  1.00  0.00     0.683 A 
HETATM    2  N3  UNL     1      -0.247  -0.096  -0.463  1.00  0.00    -0.176 N 
ATOM      3  H3  UNL     1      -0.537   0.869  -0.622  1.00  0.00     0.186 HD
HETATM    4  C8  UNL     1      -1.204  -0.984  -0.212  1.00  0.00     0.130 A 
HETATM    5  C16 UNL     1      -0.774  -2.304   0.004  1.00  0.00     0.043 A 
HETATM    6  C17 UNL     1      -1.639  -3.328   0.291  1.00  0.00    -0.024 A 
HETATM    7  C18 UNL     1      -3.067  -3.102   0.391  1.00  0.00     0.051 C 
HETATM    8  C19 UNL     1      -1.114  -4.621   0.508  1.00  0.00     0.041 A 
HETATM    9 CL1  UNL     1      -2.273  -5.896   0.883  1.00  0.00    -0.084 Cl
HETATM   10  C20 UNL     1       0.210  -4.920   0.450  1.00  0.00     0.026 A 
HETATM   11  C21 UNL     1       1.073  -3.895   0.164  1.00  0.00     0.033 A 
HETATM   12  C22 UNL     1       0.570  -2.608  -0.054  1.00  0.00     0.063 A 
HETATM   13  N6  UNL     1       1.459  -1.649  -0.314  1.00  0.00    -0.191 N 
ATOM     14  H6  UNL     1       2.447  -1.899  -0.352  1.00  0.00     0.184 HD
ENDROOT
BRANCH   4  15
HETATM   15  N4  UNL     1      -2.405  -0.710  -0.154  1.00  0.00    -0.369 N 
ATOM     16  H4  UNL     1      -2.926  -1.564   0.047  1.00  0.00     0.161 HD
BRANCH  15  17
HETATM   17  C9  UNL     1      -3.301   0.343  -0.264  1.00  0.00     0.111 C 
HETATM   18  C10 UNL     1      -2.920   1.625  -0.928  1.00  0.00     0.027 C 
HETATM   19  C11 UNL     1      -4.036   2.508  -1.369  1.00  0.00     0.004 C 
HETATM   20  C12 UNL     1      -5.118   2.814  -0.431  1.00  0.00     0.030 C 
HETATM   21  C13 UNL     1      -5.493   1.837   0.605  1.00  0.00     0.272 C 
HETATM   22  N5  UNL     1      -5.719   0.526   0.095  1.00  0.00     0.086 N 
HETATM   23  C14 UNL     1      -6.005  -0.440   1.112  1.00  0.00     0.310 C 
HETATM   24  C15 UNL     1      -4.683   0.034  -0.800  1.00  0.00     0.296 C 
ENDBRANCH  15  17
ENDBRANCH   4  15
BRANCH   1  25
HETATM   25  N2  UNL     1       1.849   0.568  -0.767  1.00  0.00    -0.203 N 
ATOM     26  H2  UNL     1       1.240   1.380  -0.869  1.00  0.00     0.183 HD
BRANCH  25  27
HETATM   27  C6  UNL     1       3.113   1.030  -0.961  1.00  0.00     0.109 C 
BRANCH  27  28
HETATM   28  C5  UNL     1       4.127   0.665   0.125  1.00  0.00     0.317 C 
BRANCH  28  29
HETATM   29  N1  UNL     1       5.429   1.256  -0.100  1.00  0.00     0.092 N 
BRANCH  29  30
HETATM   30  C2  UNL     1       5.351   2.657   0.195  1.00  0.00     0.268 C 
HETATM   31  C1  UNL     1       6.598   3.364  -0.336  1.00  0.00     0.037 C 
ENDBRANCH  29  30
BRANCH  29  32
HETATM   32  C3  UNL     1       6.436   0.572   0.630  1.00  0.00     0.268 C 
HETATM   33  C4  UNL     1       6.568  -0.850   0.179  1.00  0.00     0.037 C 
ENDBRANCH  29  32
ENDBRANCH  28  29
ENDBRANCH  27  28
ENDBRANCH  25  27
ENDBRANCH   1  25
TORSDOF 8
