REMARK  7 active torsions:
REMARK  status: ('A' for Active; 'I' for Inactive)
REMARK    1  A    between atoms: N1_2  and  C2_5 
REMARK    2  A    between atoms: C2_5  and  C4_7 
REMARK       I    between atoms: C4_7  and  N2_9 
REMARK    3  A    between atoms: N2_9  and  C5_11 
REMARK    4  A    between atoms: C7_15  and  C8_16 
REMARK    5  A    between atoms: N4_19  and  C11_20 
REMARK    6  A    between atoms: C11_20  and  C12_21 
REMARK    7  A    between atoms: C21_31  and  C22_32 
ROOT
HETATM    1  C5  UNL     1      -3.538  -0.564   0.012  1.00  0.00     0.121 A 
HETATM    2  N3  UNL     1      -3.121  -0.951   1.218  1.00  0.00    -0.351 N 
ATOM      3  H3  UNL     1      -3.766  -0.862   2.003  1.00  0.00     0.166 HD
HETATM    4  C6  UNL     1      -1.890  -1.454   1.455  1.00  0.00     0.097 A 
HETATM    5  C7  UNL     1      -0.970  -1.595   0.409  1.00  0.00    -0.037 A 
HETATM    6  C20 UNL     1      -1.381  -1.204  -0.834  1.00  0.00     0.027 A 
HETATM    7  C21 UNL     1      -2.662  -0.684  -1.061  1.00  0.00     0.046 A 
ENDROOT
BRANCH   5   8
HETATM    8  C8  UNL     1       0.367  -2.152   0.717  1.00  0.00     0.024 C 
HETATM    9  C9  UNL     1       1.152  -1.011   1.361  1.00  0.00     0.029 C 
HETATM   10  C10 UNL     1       1.957  -0.238   0.359  1.00  0.00     0.119 C 
HETATM   11  N4  UNL     1       2.898  -1.110  -0.258  1.00  0.00    -0.395 N 
HETATM   12  C18 UNL     1       2.550  -2.472  -0.367  1.00  0.00     0.177 C 
HETATM   13 CL1  UNL     1       3.277  -3.366   1.010  1.00  0.00    -0.103 Cl
HETATM   14  C19 UNL     1       1.083  -2.802  -0.397  1.00  0.00     0.050 C 
BRANCH  11  15
HETATM   15  C11 UNL     1       3.678  -0.527  -1.293  1.00  0.00     0.122 C 
BRANCH  15  16
HETATM   16  C12 UNL     1       4.616   0.490  -0.664  1.00  0.00     0.003 C 
HETATM   17  C13 UNL     1       5.487   1.171  -1.677  1.00  0.00     0.006 C 
HETATM   18  C14 UNL     1       6.106   2.369  -0.976  1.00  0.00     0.000 C 
HETATM   19  C15 UNL     1       6.809   1.884   0.262  1.00  0.00     0.000 C 
HETATM   20  C16 UNL     1       6.814   0.381   0.392  1.00  0.00     0.000 C 
HETATM   21  C17 UNL     1       5.437  -0.226   0.379  1.00  0.00     0.006 C 
ENDBRANCH  15  16
ENDBRANCH  11  15
ENDBRANCH   5   8
BRANCH   7  22
HETATM   22  C22 UNL     1      -3.012  -0.301  -2.419  1.00  0.00     0.273 C 
HETATM   23  O2  UNL     1      -2.185  -0.428  -3.343  1.00  0.00    -0.301 OA
ENDBRANCH   7  22
BRANCH   1  24
HETATM   24  N2  UNL     1      -4.693  -0.079  -0.181  1.00  0.00    -0.311 N 
HETATM   25  C4  UNL     1      -5.730   0.160   0.710  1.00  0.00     0.253 C 
HETATM   26  O1  UNL     1      -5.977  -0.426   1.790  1.00  0.00    -0.271 OA
ATOM     27  H2  UNL     1      -4.893   0.177  -1.148  1.00  0.00     0.170 HD
BRANCH  25  28
HETATM   28  C2  UNL     1      -6.693   1.276   0.332  1.00  0.00     0.273 C 
HETATM   29  C3  UNL     1      -7.400   0.889  -0.955  1.00  0.00     0.050 C 
BRANCH  28  30
HETATM   30  N1  UNL     1      -7.577   1.474   1.433  1.00  0.00    -0.067 N 
HETATM   31  C1  UNL     1      -8.466   2.579   1.259  1.00  0.00     0.267 C 
ATOM     32  H12 UNL     1      -7.054   1.565   2.304  1.00  0.00     0.277 HD
ATOM     33  H11 UNL     1      -8.097   0.621   1.636  1.00  0.00     0.277 HD
ENDBRANCH  28  30
ENDBRANCH  25  28
ENDBRANCH   1  24
TORSDOF 7
