REMARK  9 active torsions:
REMARK  status: ('A' for Active; 'I' for Inactive)
REMARK    1  A    between atoms: C2_2  and  C5_5 
REMARK    2  A    between atoms: C5_5  and  C6_6 
REMARK    3  A    between atoms: C6_6  and  C7_7 
REMARK    4  A    between atoms: C7_7  and  N1_8 
REMARK    5  A    between atoms: N1_8  and  C8_10 
REMARK    6  A    between atoms: C15_22  and  N4_23 
REMARK    7  A    between atoms: N4_23  and  C16_25 
REMARK    8  A    between atoms: C16_25  and  C17_26 
REMARK    9  A    between atoms: C17_26  and  N5_27 
ROOT
HETATM    1  C8  UNL     1      -1.058   1.692  -0.686  1.00  0.00     0.146 A 
HETATM    2  N2  UNL     1      -1.312   2.988  -0.943  1.00  0.00    -0.338 N 
ATOM      3  H2  UNL     1      -2.278   3.312  -0.899  1.00  0.00     0.167 HD
HETATM    4  C9  UNL     1      -0.357   3.872  -1.253  1.00  0.00     0.060 A 
HETATM    5  C10 UNL     1      -0.713   5.192  -1.503  1.00  0.00     0.033 A 
HETATM    6  C11 UNL     1       0.275   6.123  -1.828  1.00  0.00     0.026 A 
HETATM    7  C12 UNL     1       1.601   5.730  -1.900  1.00  0.00     0.036 A 
HETATM    8 CL1  UNL     1       2.839   6.904  -2.309  1.00  0.00    -0.084 Cl
HETATM    9  C13 UNL     1       1.904   4.402  -1.642  1.00  0.00     0.055 A 
HETATM   10  C14 UNL     1       0.959   3.470  -1.322  1.00  0.00     0.062 A 
HETATM   11  N3  UNL     1       1.250   2.161  -1.067  1.00  0.00    -0.338 N 
ATOM     12  H3  UNL     1       2.219   1.845  -1.113  1.00  0.00     0.167 HD
HETATM   13  C15 UNL     1       0.283   1.281  -0.756  1.00  0.00     0.146 A 
ENDROOT
BRANCH  13  14
HETATM   14  N4  UNL     1       0.544   0.045  -0.516  1.00  0.00    -0.371 N 
ATOM     15  H4  UNL     1      -0.245  -0.561  -0.289  1.00  0.00     0.161 HD
BRANCH  14  16
HETATM   16  C16 UNL     1       1.851  -0.560  -0.539  1.00  0.00     0.151 C 
BRANCH  16  17
HETATM   17  C17 UNL     1       2.544  -0.523   0.779  1.00  0.00     0.292 C 
BRANCH  17  18
HETATM   18  N5  UNL     1       3.840  -1.122   0.750  1.00  0.00     0.092 N 
HETATM   19  C18 UNL     1       4.495  -1.018   2.051  1.00  0.00     0.274 C 
HETATM   20  C19 UNL     1       5.838  -1.693   1.947  1.00  0.00     0.056 C 
HETATM   21  C20 UNL     1       6.572  -1.370   0.687  1.00  0.00     0.169 C 
HETATM   22  O1  UNL     1       5.905  -1.656  -0.474  1.00  0.00    -0.389 OA
HETATM   23  C21 UNL     1       5.101  -2.769  -0.428  1.00  0.00     0.198 C 
HETATM   24  C22 UNL     1       3.848  -2.522   0.417  1.00  0.00     0.298 C 
ENDBRANCH  17  18
ENDBRANCH  16  17
ENDBRANCH  14  16
ENDBRANCH  13  14
BRANCH   1  25
HETATM   25  N1  UNL     1      -1.973   0.834  -0.383  1.00  0.00    -0.373 N 
ATOM     26  H1  UNL     1      -1.720  -0.137  -0.199  1.00  0.00     0.161 HD
BRANCH  25  27
HETATM   27  C7  UNL     1      -3.339   1.243  -0.305  1.00  0.00     0.121 C 
BRANCH  27  28
HETATM   28  C6  UNL     1      -4.220   0.222   0.383  1.00  0.00     0.020 C 
BRANCH  28  29
HETATM   29  C5  UNL     1      -4.207  -1.103  -0.341  1.00  0.00     0.010 C 
BRANCH  29  30
HETATM   30  C2  UNL     1      -5.079  -2.130   0.335  1.00  0.00    -0.051 C 
HETATM   31  C1  UNL     1      -5.038  -3.443  -0.420  1.00  0.00     0.014 C 
HETATM   32  C3  UNL     1      -4.690  -2.398   1.749  1.00  0.00     0.014 C 
HETATM   33  C4  UNL     1      -6.531  -1.669   0.315  1.00  0.00     0.014 C 
ENDBRANCH  29  30
ENDBRANCH  28  29
ENDBRANCH  27  28
ENDBRANCH  25  27
ENDBRANCH   1  25
TORSDOF 9
