REMARK  8 active torsions:
REMARK  status: ('A' for Active; 'I' for Inactive)
REMARK    1  A    between atoms: C2_2  and  N1_4 
REMARK    2  A    between atoms: N2_7  and  C5_8 
REMARK    3  A    between atoms: C5_8  and  C6_9 
REMARK    4  A    between atoms: C6_9  and  C7_10 
REMARK    5  A    between atoms: C7_10  and  C8_11 
REMARK       I    between atoms: C8_11  and  N3_13 
REMARK    6  A    between atoms: N3_13  and  C9_15 
REMARK    7  A    between atoms: C9_15  and  N4_17 
REMARK    8  A    between atoms: N4_17  and  C10_19 
ROOT
HETATM    1  C8  UNL     1       0.733   1.133  -1.346  1.00  0.00     0.223 C 
HETATM    2  O1  UNL     1       0.313   0.079  -1.871  1.00  0.00    -0.273 OA
HETATM    3  N3  UNL     1       0.001   1.939  -0.441  1.00  0.00    -0.304 N 
ATOM      4  H3  UNL     1       0.465   2.775  -0.086  1.00  0.00     0.171 HD
ENDROOT
BRANCH   3   5
HETATM    5  C9  UNL     1      -1.286   1.696   0.006  1.00  0.00     0.174 C 
HETATM    6  S1  UNL     1      -1.928   2.795   1.072  1.00  0.00    -0.041 SA
BRANCH   5   7
HETATM    7  N4  UNL     1      -2.080   0.613  -0.345  1.00  0.00    -0.362 N 
ATOM      8  H4  UNL     1      -1.702  -0.085  -0.986  1.00  0.00     0.162 HD
BRANCH   7   9
HETATM    9  C10 UNL     1      -3.450   0.433   0.174  1.00  0.00     0.083 C 
HETATM   10  C11 UNL     1      -4.289   1.549  -0.392  1.00  0.00     0.025 C 
HETATM   11  C12 UNL     1      -5.192   2.187   0.644  1.00  0.00     0.002 C 
HETATM   12  C13 UNL     1      -6.616   1.928   0.262  1.00  0.00     0.000 C 
HETATM   13  C14 UNL     1      -7.351   0.976   1.137  1.00  0.00     0.000 C 
HETATM   14  C15 UNL     1      -6.554  -0.184   1.634  1.00  0.00     0.000 C 
HETATM   15  C16 UNL     1      -6.191  -1.182   0.559  1.00  0.00     0.000 C 
HETATM   16  C17 UNL     1      -4.752  -1.627   0.775  1.00  0.00     0.002 C 
HETATM   17  C18 UNL     1      -3.924  -0.925  -0.278  1.00  0.00     0.025 C 
ENDBRANCH   7   9
ENDBRANCH   5   7
ENDBRANCH   3   5
BRANCH   1  18
HETATM   18  C7  UNL     1       2.130   1.516  -1.751  1.00  0.00     0.105 C 
BRANCH  18  19
HETATM   19  C6  UNL     1       2.850   0.504  -2.547  1.00  0.00     0.029 C 
BRANCH  19  20
HETATM   20  C5  UNL     1       3.112  -0.805  -1.876  1.00  0.00     0.117 C 
BRANCH  20  21
HETATM   21  N2  UNL     1       3.905  -0.673  -0.679  1.00  0.00    -0.409 N 
HETATM   22  C4  UNL     1       5.257  -0.281  -0.886  1.00  0.00     0.147 C 
HETATM   23  C3  UNL     1       6.287  -1.339  -0.577  1.00  0.00     0.293 C 
HETATM   24  N1  UNL     1       6.137  -1.903   0.734  1.00  0.00     0.109 N 
HETATM   25  C20 UNL     1       4.838  -1.680   1.311  1.00  0.00     0.293 C 
HETATM   26  C19 UNL     1       3.738  -1.715   0.278  1.00  0.00     0.147 C 
BRANCH  24  27
HETATM   27  C2  UNL     1       7.222  -1.655   1.617  1.00  0.00     0.314 C 
HETATM   28  C1  UNL     1       7.471  -0.217   1.942  1.00  0.00     0.060 C 
HETATM   29 CL1  UNL     1       8.671  -2.474   0.977  1.00  0.00    -0.092 Cl
ENDBRANCH  24  27
ENDBRANCH  20  21
ENDBRANCH  19  20
ENDBRANCH  18  19
ENDBRANCH   1  18
TORSDOF 8
