REMARK  6 active torsions:
REMARK  status: ('A' for Active; 'I' for Inactive)
REMARK    1  A    between atoms: C3_3  and  C4_4 
REMARK    2  A    between atoms: C4_4  and  N1_5 
REMARK       I    between atoms: N1_5  and  C5_7 
REMARK    3  A    between atoms: C5_7  and  C6_9 
REMARK    4  A    between atoms: C16_19  and  C17_20 
REMARK       I    between atoms: C17_20  and  N2_22 
REMARK    5  A    between atoms: N2_22  and  C18_24 
REMARK    6  A    between atoms: C18_24  and  C19_25 
ROOT
HETATM    1  C1  UNL     1      -3.242  -3.284   1.886  1.00  0.00     0.069 C 
HETATM    2  C2  UNL     1      -3.241  -2.248   0.824  1.00  0.00     0.017 A 
HETATM    3  C3  UNL     1      -2.107  -1.489   0.438  1.00  0.00     0.000 A 
HETATM    4  C16 UNL     1      -2.537  -0.678  -0.555  1.00  0.00     0.075 A 
HETATM    5  C20 UNL     1      -3.908  -0.919  -0.778  1.00  0.00     0.088 A 
HETATM    6  N3  UNL     1      -4.305  -1.859   0.056  1.00  0.00    -0.343 N 
HETATM    7  C21 UNL     1      -5.703  -2.208  -0.029  1.00  0.00     0.140 C 
HETATM    8  C22 UNL     1      -6.216  -2.030  -1.437  1.00  0.00     0.101 C 
HETATM    9  S1  UNL     1      -5.297  -0.448  -1.775  1.00  0.00    -0.109 SA
ENDROOT
BRANCH   3  10
HETATM   10  C4  UNL     1      -0.829  -1.701   1.092  1.00  0.00     0.164 C 
BRANCH  10  11
HETATM   11  N1  UNL     1       0.250  -0.823   0.813  1.00  0.00    -0.356 N 
HETATM   12  C5  UNL     1       1.557  -1.190   1.304  1.00  0.00     0.226 C 
HETATM   13  O1  UNL     1       1.736  -2.242   1.949  1.00  0.00    -0.273 OA
ATOM     14  H1  UNL     1       0.107   0.037   0.284  1.00  0.00     0.162 HD
BRANCH  12  15
HETATM   15  C6  UNL     1       2.668  -0.264   1.007  1.00  0.00     0.042 C 
HETATM   16  C7  UNL     1       2.295   1.078   1.601  1.00  0.00     0.024 C 
HETATM   17  C8  UNL     1       3.329   2.089   1.217  1.00  0.00    -0.013 C 
HETATM   18  C9  UNL     1       3.406   2.148  -0.281  1.00  0.00     0.009 C 
HETATM   19  C13 UNL     1       4.652   1.685   1.836  1.00  0.00     0.009 C 
HETATM   20  C10 UNL     1       3.887   0.834  -0.822  1.00  0.00    -0.013 C 
HETATM   21  C11 UNL     1       5.193   0.466  -0.195  1.00  0.00     0.009 C 
HETATM   22  C15 UNL     1       2.864  -0.222  -0.477  1.00  0.00     0.024 C 
HETATM   23  C12 UNL     1       5.012   0.311   1.312  1.00  0.00    -0.013 C 
HETATM   24  C14 UNL     1       3.962  -0.722   1.630  1.00  0.00     0.024 C 
ENDBRANCH  12  15
ENDBRANCH  10  11
ENDBRANCH   3  10
BRANCH   4  25
HETATM   25  C17 UNL     1      -1.869   0.214  -1.481  1.00  0.00     0.255 C 
HETATM   26  O2  UNL     1      -0.766  -0.047  -1.961  1.00  0.00    -0.268 OA
HETATM   27  N2  UNL     1      -2.502   1.424  -1.847  1.00  0.00    -0.354 N 
ATOM     28  H2  UNL     1      -3.417   1.644  -1.453  1.00  0.00     0.162 HD
BRANCH  27  29
HETATM   29  C18 UNL     1      -1.891   2.354  -2.761  1.00  0.00     0.154 C 
BRANCH  29  30
HETATM   30  C19 UNL     1      -2.822   3.535  -2.934  1.00  0.00     0.241 C 
HETATM   31  F1  UNL     1      -2.244   4.425  -3.806  1.00  0.00    -0.254 F 
ENDBRANCH  29  30
ENDBRANCH  27  29
ENDBRANCH   4  25
TORSDOF 6
