REMARK  8 active torsions:
REMARK  status: ('A' for Active; 'I' for Inactive)
REMARK    1  A    between atoms: C2_2  and  C3_3 
REMARK    2  A    between atoms: C6_7  and  C7_8 
REMARK    3  A    between atoms: C10_11  and  C11_12 
REMARK    4  A    between atoms: C11_12  and  N1_13 
REMARK    5  A    between atoms: C11_12  and  C15_21 
REMARK    6  A    between atoms: N1_13  and  C12_15 
REMARK    7  A    between atoms: C12_15  and  O1_16 
REMARK    8  A    between atoms: C12_15  and  C13_18 
REMARK       I    between atoms: C15_21  and  N3_23 
ROOT
HETATM    1  C13 UNL     1      -0.932  -3.227   2.119  1.00  0.00     0.207 C 
HETATM    2  C14 UNL     1      -1.483  -4.567   1.809  1.00  0.00     0.067 C 
HETATM    3  N2  UNL     1      -1.931  -5.621   1.543  1.00  0.00    -0.197 NA
ENDROOT
BRANCH   1   4
HETATM    4  C12 UNL     1      -1.057  -2.336   0.978  1.00  0.00     0.125 C 
BRANCH   4   5
HETATM    5  N1  UNL     1      -0.766  -0.971   0.915  1.00  0.00    -0.356 N 
ATOM      6  H1  UNL     1      -0.410  -0.465   1.726  1.00  0.00     0.162 HD
BRANCH   5   7
HETATM    7  C11 UNL     1      -0.996  -0.288  -0.381  1.00  0.00     0.210 C 
BRANCH   7   8
HETATM    8  C10 UNL     1      -2.259   0.438  -0.092  1.00  0.00    -0.014 A 
HETATM    9  C3  UNL     1      -2.349   1.542   0.698  1.00  0.00    -0.006 A 
HETATM   10  C4  UNL     1      -3.641   2.066   0.964  1.00  0.00     0.045 A 
HETATM   11 CL1  UNL     1      -3.851   3.402   2.065  1.00  0.00    -0.083 Cl
HETATM   12  C5  UNL     1      -4.772   1.488   0.448  1.00  0.00     0.031 A 
HETATM   13  C6  UNL     1      -4.687   0.377  -0.344  1.00  0.00    -0.056 A 
HETATM   14  C9  UNL     1      -3.425  -0.137  -0.609  1.00  0.00     0.017 A 
BRANCH   9  15
HETATM   15  C2  UNL     1      -1.229   2.215   1.262  1.00  0.00     0.003 C 
HETATM   16  C1  UNL     1      -1.128   3.504   1.501  1.00  0.00     0.012 C 
ENDBRANCH   9  15
BRANCH  13  17
HETATM   17  C7  UNL     1      -5.912  -0.270  -0.868  1.00  0.00     0.034 C 
HETATM   18  C8  UNL     1      -6.294   0.233  -2.236  1.00  0.00     0.010 C 
ENDBRANCH  13  17
ENDBRANCH   7   8
BRANCH   7  19
HETATM   19  C15 UNL     1       0.140   0.486  -0.857  1.00  0.00     0.250 C 
HETATM   20  O2  UNL     1       0.088   1.681  -1.178  1.00  0.00    -0.270 OA
HETATM   21  N3  UNL     1       1.363  -0.158  -0.945  1.00  0.00    -0.313 N 
HETATM   22  C16 UNL     1       2.555  -0.076  -0.717  1.00  0.00     0.103 C 
ATOM     23  H3  UNL     1       1.197  -1.068  -1.374  1.00  0.00     0.170 HD
HETATM   24  C17 UNL     1       3.384  -1.281  -1.119  1.00  0.00     0.245 C 
HETATM   25  N4  UNL     1       3.211   1.039  -0.124  1.00  0.00    -0.375 N 
HETATM   26  O3  UNL     1       4.694  -1.039  -1.237  1.00  0.00    -0.372 OA
HETATM   27  C18 UNL     1       5.289  -0.054  -0.511  1.00  0.00     0.070 C 
HETATM   28  C19 UNL     1       5.617  -0.380   0.907  1.00  0.00     0.047 C 
HETATM   29  C20 UNL     1       6.638   0.221  -1.219  1.00  0.00     0.047 C 
HETATM   30  C21 UNL     1       4.581   1.288  -0.526  1.00  0.00     0.158 C 
ATOM     31  H4  UNL     1       2.738   1.636   0.554  1.00  0.00     0.160 HD
ENDBRANCH   7  19
ENDBRANCH   5   7
ENDBRANCH   4   5
BRANCH   4  32
HETATM   32  O1  UNL     1      -1.516  -2.899  -0.112  1.00  0.00    -0.349 OA
ATOM     33  H1  UNL     1      -1.714  -3.827  -0.069  1.00  0.00     0.219 HD
ENDBRANCH   4  32
ENDBRANCH   1   4
TORSDOF 8
