REMARK  5 active torsions:
REMARK  status: ('A' for Active; 'I' for Inactive)
REMARK    1  A    between atoms: N1_1  and  C1_4 
REMARK    2  A    between atoms: C2_7  and  N3_8 
REMARK    3  A    between atoms: N3_8  and  C3_10 
REMARK    4  A    between atoms: N5_21  and  C12_22 
REMARK    5  A    between atoms: C12_22  and  C13_23 
ROOT
HETATM    1  C1  UNL     1      -0.840   0.769   1.361  1.00  0.00     0.678 A 
HETATM    2  N2  UNL     1      -1.925   0.271   0.735  1.00  0.00    -0.176 N 
ATOM      3  H2  UNL     1      -2.790   0.137   1.259  1.00  0.00     0.186 HD
HETATM    4  C2  UNL     1      -1.885  -0.051  -0.567  1.00  0.00     0.134 A 
HETATM    5  C9  UNL     1      -0.729   0.123  -1.284  1.00  0.00     0.041 A 
HETATM    6  C10 UNL     1      -0.666  -0.201  -2.623  1.00  0.00     0.037 A 
HETATM    7  C11 UNL     1       0.513  -0.012  -3.308  1.00  0.00     0.129 A 
HETATM    8  N4  UNL     1       1.595   0.486  -2.680  1.00  0.00    -0.187 N 
HETATM    9  O1  UNL     1       2.854   0.878  -2.675  1.00  0.00    -0.144 OA
HETATM   10  N5  UNL     1       2.835   1.195  -1.419  1.00  0.00    -0.208 N 
HETATM   11  C18 UNL     1       1.553   0.808  -1.375  1.00  0.00     0.187 A 
HETATM   12  C19 UNL     1       0.403   0.638  -0.650  1.00  0.00     0.111 A 
HETATM   13  N7  UNL     1       0.315   0.945   0.653  1.00  0.00    -0.187 N 
ATOM     14  H7  UNL     1       1.135   1.321   1.129  1.00  0.00     0.184 HD
ENDROOT
BRANCH   4  15
HETATM   15  N3  UNL     1      -2.934  -0.526  -1.148  1.00  0.00    -0.341 N 
ATOM     16  H3  UNL     1      -2.880  -0.764  -2.138  1.00  0.00     0.167 HD
BRANCH  15  17
HETATM   17  C3  UNL     1      -4.162  -0.731  -0.464  1.00  0.00     0.033 A 
HETATM   18  C4  UNL     1      -4.291  -1.882   0.286  1.00  0.00     0.029 A 
HETATM   19  C5  UNL     1      -5.464  -2.126   0.969  1.00  0.00     0.002 A 
HETATM   20  C6  UNL     1      -6.532  -1.224   0.915  1.00  0.00     0.000 A 
HETATM   21  C7  UNL     1      -6.396  -0.073   0.161  1.00  0.00     0.002 A 
HETATM   22  C8  UNL     1      -5.218   0.154  -0.513  1.00  0.00     0.029 A 
ENDBRANCH  15  17
ENDBRANCH   4  15
BRANCH   1  23
HETATM   23  N1  UNL     1      -0.882   1.080   2.623  1.00  0.00    -0.234 N 
ATOM     24  H12 UNL     1      -1.744   0.949   3.152  1.00  0.00     0.174 HD
ATOM     25  H11 UNL     1      -0.061   1.457   3.097  1.00  0.00     0.174 HD
ENDBRANCH   1  23
BRANCH  10  26
HETATM   26  C12 UNL     1       3.825   1.734  -0.518  1.00  0.00     0.199 C 
BRANCH  26  27
HETATM   27  C13 UNL     1       4.606   0.677   0.160  1.00  0.00    -0.035 A 
HETATM   28  C14 UNL     1       4.185   0.158   1.362  1.00  0.00     0.026 A 
HETATM   29  C15 UNL     1       4.941  -0.835   1.976  1.00  0.00     0.088 A 
HETATM   30  N6  UNL     1       6.074  -1.306   1.432  1.00  0.00    -0.375 N 
HETATM   31  C16 UNL     1       6.511  -0.810   0.245  1.00  0.00     0.088 A 
ATOM     32  H6  UNL     1       6.606  -2.034   1.909  1.00  0.00     0.164 HD
HETATM   33  C17 UNL     1       5.765   0.189  -0.387  1.00  0.00     0.026 A 
ENDBRANCH  26  27
ENDBRANCH  10  26
TORSDOF 5
