REMARK  4 active torsions:
REMARK  status: ('A' for Active; 'I' for Inactive)
REMARK    1  A    between atoms: C11_16  and  N4_17 
REMARK    2  A    between atoms: N4_17  and  C12_19 
REMARK    3  A    between atoms: C15_22  and  S1_23 
REMARK    4  A    between atoms: S1_23  and  N5_24 
ROOT
HETATM    1  N1  UNL     1      -1.401  -4.677  -1.027  1.00  0.00    -0.188 NA
HETATM    2  C1  UNL     1      -1.499  -3.552  -0.771  1.00  0.00     0.137 C 
HETATM    3  C2  UNL     1      -1.635  -2.152  -0.432  1.00  0.00     0.190 A 
HETATM    4  N2  UNL     1      -2.839  -1.571  -0.282  1.00  0.00    -0.331 N 
ATOM      5  H2  UNL     1      -3.680  -2.134  -0.411  1.00  0.00     0.168 HD
HETATM    6  C3  UNL     1      -2.966  -0.266   0.034  1.00  0.00     0.077 A 
HETATM    7  C4  UNL     1      -1.852   0.527   0.214  1.00  0.00     0.105 A 
HETATM    8  N3  UNL     1      -2.298   1.757   0.514  1.00  0.00    -0.351 N 
ATOM      9  H3  UNL     1      -1.697   2.560   0.701  1.00  0.00     0.166 HD
HETATM   10  C5  UNL     1      -3.642   1.790   0.535  1.00  0.00     0.045 A 
HETATM   11  C6  UNL     1      -4.579   2.776   0.780  1.00  0.00     0.030 A 
HETATM   12  C7  UNL     1      -5.918   2.458   0.716  1.00  0.00     0.002 A 
HETATM   13  C8  UNL     1      -6.344   1.179   0.412  1.00  0.00     0.001 A 
HETATM   14  C9  UNL     1      -5.422   0.192   0.166  1.00  0.00     0.016 A 
HETATM   15  C10 UNL     1      -4.083   0.518   0.233  1.00  0.00     0.020 A 
HETATM   16  C11 UNL     1      -0.617  -0.069   0.059  1.00  0.00     0.137 A 
HETATM   17  N6  UNL     1      -0.552  -1.374  -0.255  1.00  0.00    -0.318 N 
ATOM     18  H6  UNL     1       0.369  -1.798  -0.365  1.00  0.00     0.169 HD
ENDROOT
BRANCH  16  19
HETATM   19  N4  UNL     1       0.416   0.680   0.230  1.00  0.00    -0.341 N 
ATOM     20  H4  UNL     1       0.251   1.658   0.467  1.00  0.00     0.167 HD
BRANCH  19  21
HETATM   21  C12 UNL     1       1.745   0.262   0.118  1.00  0.00     0.033 A 
HETATM   22  C13 UNL     1       2.542   0.645  -0.926  1.00  0.00     0.031 A 
HETATM   23  C14 UNL     1       3.866   0.222  -1.029  1.00  0.00     0.027 A 
HETATM   24  C15 UNL     1       4.403  -0.595  -0.078  1.00  0.00     0.079 A 
HETATM   25  C16 UNL     1       3.611  -0.988   0.979  1.00  0.00     0.027 A 
HETATM   26  C17 UNL     1       2.284  -0.562   1.079  1.00  0.00     0.031 A 
BRANCH  24  27
HETATM   27  S1  UNL     1       6.075  -1.154  -0.169  1.00  0.00     0.256 S 
HETATM   28  O1  UNL     1       6.233  -2.478   0.508  1.00  0.00    -0.201 OA
HETATM   29  O2  UNL     1       6.526  -1.243  -1.598  1.00  0.00    -0.201 OA
BRANCH  27  30
HETATM   30  N5  UNL     1       7.075   0.007   0.668  1.00  0.00    -0.324 N 
ATOM     31  H52 UNL     1       6.738   0.855   1.124  1.00  0.00     0.169 HD
ATOM     32  H51 UNL     1       8.041  -0.316   0.615  1.00  0.00     0.169 HD
ENDBRANCH  27  30
ENDBRANCH  24  27
ENDBRANCH  19  21
ENDBRANCH  16  19
TORSDOF 4
