REMARK  3 active torsions:
REMARK  status: ('A' for Active; 'I' for Inactive)
REMARK    1  A    between atoms: C3_4  and  C4_5 
REMARK    2  A    between atoms: C5_8  and  C6_9 
REMARK    3  A    between atoms: N3_14  and  C11_16 
ROOT
HETATM    1  C6  UNL     1      -0.367  -0.874   0.265  1.00  0.00    -0.007 A 
HETATM    2  C7  UNL     1      -0.550   0.390  -0.202  1.00  0.00     0.015 A 
HETATM    3  C8  UNL     1      -1.833   0.865  -0.364  1.00  0.00     0.018 A 
HETATM    4  C9  UNL     1      -2.946   0.116  -0.072  1.00  0.00     0.037 A 
HETATM    5  C10 UNL     1      -4.310   0.332  -0.136  1.00  0.00     0.134 A 
HETATM    6  N3  UNL     1      -4.837   1.428  -0.537  1.00  0.00    -0.320 N 
ATOM      7  H3  UNL     1      -4.215   2.184  -0.824  1.00  0.00     0.169 HD
HETATM    8  N5  UNL     1      -4.873  -0.798   0.290  1.00  0.00    -0.284 N 
ATOM      9  H5  UNL     1      -5.878  -0.958   0.360  1.00  0.00     0.188 HD
HETATM   10  N6  UNL     1      -3.946  -1.678   0.607  1.00  0.00    -0.298 N 
ATOM     11  H6  UNL     1      -4.134  -2.617   0.959  1.00  0.00     0.187 HD
HETATM   12  C12 UNL     1      -2.706  -1.164   0.401  1.00  0.00     0.063 A 
HETATM   13  C13 UNL     1      -1.436  -1.669   0.574  1.00  0.00     0.045 A 
ENDROOT
BRANCH   1  14
HETATM   14  C5  UNL     1       1.017  -1.400   0.444  1.00  0.00     0.050 A 
HETATM   15  N2  UNL     1       2.057  -0.676   0.163  1.00  0.00    -0.349 N 
HETATM   16  C4  UNL     1       3.270  -1.167   0.331  1.00  0.00     0.087 A 
ATOM     17  H2  UNL     1       1.936   0.274  -0.188  1.00  0.00     0.166 HD
HETATM   18  S2  UNL     1       2.957  -2.736   0.918  1.00  0.00    -0.081 SA
HETATM   19  C14 UNL     1       1.251  -2.672   0.915  1.00  0.00     0.082 A 
BRANCH  16  20
HETATM   20  C3  UNL     1       4.573  -0.501   0.069  1.00  0.00     0.032 A 
HETATM   21  C2  UNL     1       4.722   0.777  -0.408  1.00  0.00     0.125 A 
HETATM   22  N1  UNL     1       6.029   1.045  -0.523  1.00  0.00    -0.307 N 
HETATM   23  C1  UNL     1       6.666   2.283  -0.991  1.00  0.00     0.177 C 
HETATM   24  N7  UNL     1       6.676  -0.046  -0.125  1.00  0.00    -0.310 N 
HETATM   25  C15 UNL     1       5.816  -1.013   0.245  1.00  0.00     0.123 A 
ATOM     26  H7  UNL     1       7.692  -0.138  -0.103  1.00  0.00     0.186 HD
ENDBRANCH  16  20
ENDBRANCH   1  14
BRANCH   6  27
HETATM   27  C11 UNL     1      -6.226   1.650  -0.604  1.00  0.00     0.186 C 
HETATM   28  N4  UNL     1      -7.070   1.657   0.544  1.00  0.00    -0.070 NA
HETATM   29  S1  UNL     1      -6.973   1.924  -2.050  1.00  0.00    -0.044 SA
ENDBRANCH   6  27
TORSDOF 3
