REMARK  5 active torsions:
REMARK  status: ('A' for Active; 'I' for Inactive)
REMARK    1  A    between atoms: N1_2  and  C2_4 
REMARK    2  A    between atoms: C3_7  and  N3_8 
REMARK    3  A    between atoms: N3_8  and  C4_10 
REMARK    4  A    between atoms: C11_20  and  N6_21 
REMARK    5  A    between atoms: N6_21  and  C12_23 
ROOT
HETATM    1  C4  UNL     1      -3.993  -0.078   1.409  1.00  0.00     0.049 A 
HETATM    2  C5  UNL     1      -4.733  -1.182   1.116  1.00  0.00     0.031 A 
HETATM    3  C6  UNL     1      -6.028  -1.090   0.642  1.00  0.00     0.025 A 
HETATM    4  C7  UNL     1      -6.579   0.156   0.464  1.00  0.00     0.044 A 
HETATM    5  C8  UNL     1      -7.925   0.221  -0.029  1.00  0.00     0.099 C 
HETATM    6  N4  UNL     1      -9.010   0.257  -0.414  1.00  0.00    -0.191 NA
HETATM    7  C9  UNL     1      -5.837   1.283   0.757  1.00  0.00     0.025 A 
HETATM    8  C10 UNL     1      -4.550   1.180   1.228  1.00  0.00     0.031 A 
ENDROOT
BRANCH   1   9
HETATM    9  N3  UNL     1      -2.669  -0.255   1.892  1.00  0.00    -0.191 N 
ATOM     10  H3  UNL     1      -2.512  -0.482   2.874  1.00  0.00     0.184 HD
BRANCH   9  11
HETATM   11  C3  UNL     1      -1.664  -0.129   1.091  1.00  0.00     0.711 A 
HETATM   12  N2  UNL     1      -1.809   0.171  -0.221  1.00  0.00    -0.021 N 
HETATM   13  C2  UNL     1      -0.751   0.299  -1.043  1.00  0.00     0.706 A 
ATOM     14  H2  UNL     1      -2.748   0.304  -0.598  1.00  0.00     0.203 HD
HETATM   15  N8  UNL     1       0.475   0.119  -0.520  1.00  0.00    -0.021 N 
HETATM   16  C11 UNL     1       0.681  -0.177   0.760  1.00  0.00     0.711 A 
ATOM     17  H8  UNL     1       1.284   0.214  -1.134  1.00  0.00     0.203 HD
HETATM   18  N5  UNL     1      -0.412  -0.297   1.554  1.00  0.00    -0.021 N 
ATOM     19  H5  UNL     1      -0.280  -0.523   2.540  1.00  0.00     0.203 HD
BRANCH  13  20
HETATM   20  N1  UNL     1      -0.955   0.588  -2.289  1.00  0.00    -0.229 N 
HETATM   21  C1  UNL     1       0.086   0.748  -3.252  1.00  0.00     0.165 C 
ATOM     22  H1  UNL     1      -1.919   0.709  -2.601  1.00  0.00     0.177 HD
ENDBRANCH  13  20
BRANCH  16  23
HETATM   23  N6  UNL     1       1.822  -0.359   1.308  1.00  0.00    -0.190 N 
ATOM     24  H6  UNL     1       1.805  -0.580   2.304  1.00  0.00     0.184 HD
BRANCH  23  25
HETATM   25  C12 UNL     1       3.072  -0.296   0.730  1.00  0.00     0.061 A 
HETATM   26  C13 UNL     1       3.725  -1.437   0.328  1.00  0.00    -0.033 A 
HETATM   27  C14 UNL     1       3.121  -2.772   0.498  1.00  0.00     0.050 C 
HETATM   28  C15 UNL     1       4.991  -1.378  -0.259  1.00  0.00     0.031 A 
HETATM   29  C16 UNL     1       5.600  -0.173  -0.442  1.00  0.00     0.045 A 
HETATM   30  C17 UNL     1       6.909  -0.032  -1.042  1.00  0.00     0.099 C 
HETATM   31  C18 UNL     1       4.972   0.976  -0.052  1.00  0.00     0.031 A 
HETATM   32  N7  UNL     1       7.960   0.066  -1.537  1.00  0.00    -0.191 NA
HETATM   33  C19 UNL     1       3.705   0.902   0.534  1.00  0.00    -0.033 A 
HETATM   34  C20 UNL     1       3.051   2.145   0.945  1.00  0.00     0.050 C 
ENDBRANCH  23  25
ENDBRANCH  16  23
ENDBRANCH   9  11
ENDBRANCH   1   9
TORSDOF 5
