REMARK  11 active torsions:
REMARK  status: ('A' for Active; 'I' for Inactive)
REMARK    1  A    between atoms: C2_2  and  C3_3 
REMARK    2  A    between atoms: C3_3  and  C4_4 
REMARK    3  A    between atoms: C9_16  and  O3_17 
REMARK    4  A    between atoms: C9_16  and  C10_19 
REMARK    5  A    between atoms: C10_19  and  O4_20 
REMARK    6  A    between atoms: C10_19  and  C11_22 
REMARK    7  A    between atoms: C11_22  and  O5_23 
REMARK    8  A    between atoms: N4_28  and  O6_29 
REMARK    9  A    between atoms: N5_33  and  C16_34 
REMARK   10  A    between atoms: C16_34  and  C17_35 
REMARK   11  A    between atoms: C18_36  and  N6_37 
ROOT
HETATM    1  C4  UNL     1       5.143   1.935  -0.576  1.00  0.00     0.126 A 
HETATM    2  N1  UNL     1       4.309   1.439  -1.541  1.00  0.00    -0.332 N 
ATOM      3  H1  UNL     1       4.450   1.499  -2.549  1.00  0.00     0.168 HD
HETATM    4  C5  UNL     1       3.281   0.865  -0.923  1.00  0.00     0.155 A 
HETATM    5  C6  UNL     1       2.157   0.212  -1.435  1.00  0.00     0.286 A 
HETATM    6  O1  UNL     1       2.103   0.155  -2.655  1.00  0.00    -0.265 OA
HETATM    7  N2  UNL     1       1.226  -0.302  -0.621  1.00  0.00    -0.244 N 
HETATM    8  C7  UNL     1       1.411  -0.167   0.716  1.00  0.00     0.133 A 
HETATM    9  N3  UNL     1       2.517   0.474   1.222  1.00  0.00    -0.321 N 
ATOM     10  H3  UNL     1       2.621   0.554   2.234  1.00  0.00     0.169 HD
HETATM   11  C8  UNL     1       3.461   0.996   0.431  1.00  0.00     0.183 A 
HETATM   12  O2  UNL     1       4.591   1.645   0.579  1.00  0.00    -0.278 OA
HETATM   13  C9  UNL     1       0.434  -0.685   1.693  1.00  0.00     0.149 A 
HETATM   14  C12 UNL     1      -0.705  -1.443   1.175  1.00  0.00     0.110 A 
HETATM   15  C13 UNL     1      -0.820  -1.509  -0.302  1.00  0.00     0.067 A 
HETATM   16  C14 UNL     1       0.098  -0.979  -1.184  1.00  0.00     0.172 A 
HETATM   17  N4  UNL     1      -0.291  -1.216  -2.442  1.00  0.00    -0.153 N 
HETATM   18  C15 UNL     1      -1.467  -1.901  -2.348  1.00  0.00     0.355 A 
HETATM   19  O7  UNL     1      -2.142  -2.302  -3.338  1.00  0.00    -0.244 OA
HETATM   20  N5  UNL     1      -1.788  -2.079  -1.070  1.00  0.00    -0.294 N 
ENDROOT
BRANCH  20  21
HETATM   21  C16 UNL     1      -2.962  -2.759  -0.534  1.00  0.00     0.162 C 
BRANCH  21  22
HETATM   22  C17 UNL     1      -4.074  -1.826  -0.347  1.00  0.00     0.010 C 
HETATM   23  C18 UNL     1      -4.003  -0.547  -0.631  1.00  0.00     0.083 C 
BRANCH  23  24
HETATM   24  N6  UNL     1      -5.065   0.359  -0.455  1.00  0.00    -0.386 N 
HETATM   25  C19 UNL     1      -6.374   0.022  -0.940  1.00  0.00     0.148 C 
HETATM   26  C20 UNL     1      -6.836   1.155  -1.839  1.00  0.00     0.187 C 
HETATM   27  O8  UNL     1      -6.532   2.394  -1.336  1.00  0.00    -0.388 OA
HETATM   28  C21 UNL     1      -6.158   2.421  -0.015  1.00  0.00     0.187 C 
HETATM   29  C22 UNL     1      -4.867   1.619   0.202  1.00  0.00     0.148 C 
ENDBRANCH  23  24
ENDBRANCH  21  22
ENDBRANCH  20  21
BRANCH  17  30
HETATM   30  O6  UNL     1       0.248  -0.909  -3.652  1.00  0.00    -0.277 OA
ATOM     31  H6  UNL     1      -0.028  -1.077  -4.545  1.00  0.00     0.245 HD
ENDBRANCH  17  30
BRANCH  13  32
HETATM   32  O3  UNL     1      -0.079   0.482   2.334  1.00  0.00    -0.379 OA
ATOM     33  H3  UNL     1      -0.708   0.149   2.963  1.00  0.00     0.211 HD
ENDBRANCH  13  32
BRANCH  13  34
HETATM   34  C10 UNL     1       1.250  -1.461   2.726  1.00  0.00     0.184 C 
BRANCH  34  35
HETATM   35  O4  UNL     1       1.774  -2.609   2.152  1.00  0.00    -0.390 OA
ATOM     36  H4  UNL     1       2.281  -3.091   2.794  1.00  0.00     0.210 HD
ENDBRANCH  34  35
BRANCH  34  37
HETATM   37  C11 UNL     1       0.453  -1.759   3.957  1.00  0.00     0.199 C 
BRANCH  37  38
HETATM   38  O5  UNL     1       1.303  -2.378   4.870  1.00  0.00    -0.398 OA
ATOM     39  H5  UNL     1       0.797  -2.567   5.651  1.00  0.00     0.209 HD
ENDBRANCH  37  38
ENDBRANCH  34  37
ENDBRANCH  13  34
BRANCH   1  40
HETATM   40  C3  UNL     1       6.428   2.663  -0.804  1.00  0.00     0.084 C 
BRANCH  40  41
HETATM   41  C2  UNL     1       7.562   1.671  -0.853  1.00  0.00     0.003 C 
HETATM   42  C1  UNL     1       8.860   2.431  -1.085  1.00  0.00     0.005 C 
ENDBRANCH  40  41
ENDBRANCH   1  40
TORSDOF 11
