REMARK  15 active torsions:
REMARK  status: ('A' for Active; 'I' for Inactive)
REMARK    1  A    between atoms: O1_2  and  C2_3 
REMARK    2  A    between atoms: C4_6  and  O3_7 
REMARK    3  A    between atoms: O3_7  and  C5_8 
REMARK    4  A    between atoms: C6_10  and  C7_11 
REMARK    5  A    between atoms: C7_11  and  C8_12 
REMARK    6  A    between atoms: C7_11  and  O6_15 
REMARK    7  A    between atoms: C8_12  and  O5_13 
REMARK    8  A    between atoms: O6_15  and  C9_16 
REMARK    9  A    between atoms: C11_19  and  O8_20 
REMARK   10  A    between atoms: O8_20  and  C12_21 
REMARK   11  A    between atoms: C12_21  and  O10_23 
REMARK   12  A    between atoms: O10_23  and  C13_24 
REMARK   13  A    between atoms: C17_28  and  O11_29 
REMARK   14  A    between atoms: C18_31  and  C19_32 
REMARK   15  A    between atoms: C19_32  and  O12_33 
ROOT
HETATM    1  C5  UNL     1      -0.999  -0.074   0.849  1.00  0.00     0.269 C 
HETATM    2  O4  UNL     1      -0.596  -1.326   0.340  1.00  0.00    -0.350 OA
HETATM    3  C6  UNL     1       0.773  -1.410   0.177  1.00  0.00     0.188 C 
HETATM    4  C11 UNL     1       1.609  -0.364   0.794  1.00  0.00     0.195 C 
HETATM    5  C17 UNL     1       1.046   0.354   1.992  1.00  0.00     0.161 C 
HETATM    6  C18 UNL     1      -0.417  -0.023   2.210  1.00  0.00     0.096 C 
ENDROOT
BRANCH   1   7
HETATM    7  O3  UNL     1      -2.343   0.093   0.817  1.00  0.00    -0.351 OA
BRANCH   7   8
HETATM    8  C4  UNL     1      -2.792   1.027  -0.066  1.00  0.00     0.177 C 
HETATM    9  C3  UNL     1      -3.436   0.226  -1.231  1.00  0.00     0.208 C 
HETATM   10  O2  UNL     1      -3.912   1.117  -2.190  1.00  0.00    -0.336 OA
HETATM   11  C2  UNL     1      -4.910   1.880  -1.570  1.00  0.00     0.413 C 
HETATM   12  O13 UNL     1      -4.244   2.787  -0.729  1.00  0.00    -0.331 OA
HETATM   13  C20 UNL     1      -3.763   2.048   0.368  1.00  0.00     0.154 C 
HETATM   14  C21 UNL     1      -4.999   1.528   1.061  1.00  0.00     0.042 C 
BRANCH  11  15
HETATM   15  O1  UNL     1      -5.594   2.532  -2.571  1.00  0.00    -0.344 OA
HETATM   16  C1  UNL     1      -6.912   2.138  -2.561  1.00  0.00     0.207 C 
ENDBRANCH  11  15
ENDBRANCH   7   8
ENDBRANCH   1   7
BRANCH   6  17
HETATM   17  C19 UNL     1      -1.124   0.891   3.133  1.00  0.00     0.176 C 
BRANCH  17  18
HETATM   18  O12 UNL     1      -2.433   0.452   3.289  1.00  0.00    -0.400 OA
ATOM     19  H12 UNL     1      -2.887   1.039   3.882  1.00  0.00     0.209 HD
ENDBRANCH  17  18
ENDBRANCH   6  17
BRANCH   3  20
HETATM   20  C7  UNL     1       1.145  -2.820   0.584  1.00  0.00     0.187 C 
BRANCH  20  21
HETATM   21  C8  UNL     1       2.588  -3.180   0.306  1.00  0.00     0.199 C 
BRANCH  21  22
HETATM   22  O5  UNL     1       2.722  -4.547   0.676  1.00  0.00    -0.398 OA
ATOM     23  H5  UNL     1       3.628  -4.773   0.501  1.00  0.00     0.209 HD
ENDBRANCH  21  22
ENDBRANCH  20  21
BRANCH  20  24
HETATM   24  O6  UNL     1       0.403  -3.752  -0.251  1.00  0.00    -0.311 OA
BRANCH  24  25
HETATM   25  C9  UNL     1      -0.480  -4.655   0.321  1.00  0.00     0.255 C 
HETATM   26  C10 UNL     1      -1.267  -5.631  -0.475  1.00  0.00     0.126 C 
HETATM   27  O7  UNL     1      -0.616  -4.644   1.556  1.00  0.00    -0.266 OA
ENDBRANCH  24  25
ENDBRANCH  20  24
ENDBRANCH   3  20
BRANCH   5  28
HETATM   28  O11 UNL     1       1.804   0.096   3.129  1.00  0.00    -0.392 OA
ATOM     29  H11 UNL     1       1.449   0.549   3.885  1.00  0.00     0.210 HD
ENDBRANCH   5  28
BRANCH   4  30
HETATM   30  O8  UNL     1       1.973   0.643  -0.146  1.00  0.00    -0.287 OA
BRANCH  30  31
HETATM   31  C12 UNL     1       3.304   0.850  -0.431  1.00  0.00     0.407 C 
HETATM   32  O9  UNL     1       4.162   0.141   0.149  1.00  0.00    -0.229 OA
BRANCH  31  33
HETATM   33  O10 UNL     1       3.766   1.794  -1.321  1.00  0.00    -0.288 OA
BRANCH  33  34
HETATM   34  C13 UNL     1       5.167   1.951  -1.567  1.00  0.00     0.062 C 
HETATM   35  C14 UNL     1       5.900   2.316  -0.283  1.00  0.00     0.046 C 
HETATM   36  C15 UNL     1       5.675   0.653  -2.136  1.00  0.00     0.046 C 
HETATM   37  C16 UNL     1       5.414   3.058  -2.561  1.00  0.00     0.046 C 
ENDBRANCH  33  34
ENDBRANCH  31  33
ENDBRANCH  30  31
ENDBRANCH   4  30
TORSDOF 15
