REMARK  12 active torsions:
REMARK  status: ('A' for Active; 'I' for Inactive)
REMARK    1  A    between atoms: C1_2  and  C2_3 
REMARK    2  A    between atoms: C1_2  and  O6_16 
REMARK    3  A    between atoms: C2_3  and  C3_4 
REMARK    4  A    between atoms: C4_6  and  C5_7 
REMARK    5  A    between atoms: C5_7  and  O3_8 
REMARK    6  A    between atoms: C8_13  and  O5_14 
REMARK    7  A    between atoms: O6_16  and  C9_17 
REMARK    8  A    between atoms: C9_17  and  C10_18 
REMARK    9  A    between atoms: C10_18  and  O8_20 
REMARK   10  A    between atoms: O8_20  and  C11_21 
REMARK   11  A    between atoms: C15_28  and  N1_29 
REMARK   12  A    between atoms: N3_39  and  O12_41 
ROOT
HETATM    1  C11 UNL     1      -1.198   0.834  -0.480  1.00  0.00     0.191 C 
HETATM    2  C12 UNL     1      -1.692   2.017  -0.813  1.00  0.00     0.063 C 
HETATM    3  C13 UNL     1      -2.972   2.164  -1.518  1.00  0.00     0.206 C 
HETATM    4  O9  UNL     1      -3.799   1.098  -1.498  1.00  0.00    -0.324 OA
HETATM    5  C14 UNL     1      -3.401  -0.059  -0.918  1.00  0.00     0.336 C 
HETATM    6  O10 UNL     1      -1.998  -0.243  -0.859  1.00  0.00    -0.262 OA
HETATM    7  O11 UNL     1      -3.837  -0.071   0.404  1.00  0.00    -0.290 OA
HETATM    8  C15 UNL     1      -4.931  -0.875   0.525  1.00  0.00     0.369 C 
HETATM    9  C20 UNL     1      -4.705  -1.965  -0.483  1.00  0.00     0.127 C 
HETATM   10  C21 UNL     1      -4.075  -1.197  -1.588  1.00  0.00     0.106 C 
HETATM   11  N3  UNL     1      -4.150  -1.520  -2.822  1.00  0.00    -0.269 N 
ATOM     12  H3  UNL     1      -4.677  -2.363  -3.051  1.00  0.00     0.193 HD
ENDROOT
BRANCH   1  13
HETATM   13  O8  UNL     1       0.001   0.638   0.184  1.00  0.00    -0.254 OA
BRANCH  13  14
HETATM   14  C10 UNL     1       1.214   0.473  -0.434  1.00  0.00     0.290 C 
HETATM   15  O7  UNL     1       1.234   0.505  -1.693  1.00  0.00    -0.262 OA
BRANCH  14  16
HETATM   16  C9  UNL     1       2.491   0.262   0.293  1.00  0.00     0.290 C 
BRANCH  16  17
HETATM   17  O6  UNL     1       3.578   0.124  -0.627  1.00  0.00    -0.311 OA
BRANCH  17  18
HETATM   18  C1  UNL     1       4.874  -0.085  -0.196  1.00  0.00     0.265 C 
HETATM   19  O1  UNL     1       5.039  -0.147   1.059  1.00  0.00    -0.265 OA
BRANCH  18  20
HETATM   20  C2  UNL     1       6.020  -0.232  -1.133  1.00  0.00     0.179 C 
BRANCH  20  21
HETATM   21  C3  UNL     1       7.295  -0.451  -0.439  1.00  0.00     0.099 A 
HETATM   22  O2  UNL     1       8.185   0.493  -0.312  1.00  0.00    -0.314 OA
HETATM   23  C4  UNL     1       9.338   0.274   0.322  1.00  0.00     0.080 A 
HETATM   24  C6  UNL     1       9.660  -0.943   0.874  1.00  0.00     0.092 A 
HETATM   25  C7  UNL     1       8.747  -1.966   0.760  1.00  0.00     0.209 A 
HETATM   26  O4  UNL     1       8.944  -3.108   1.227  1.00  0.00    -0.285 OA
HETATM   27  C8  UNL     1       7.568  -1.687   0.095  1.00  0.00     0.146 A 
BRANCH  23  28
HETATM   28  C5  UNL     1      10.298   1.377   0.432  1.00  0.00     0.229 C 
BRANCH  28  29
HETATM   29  O3  UNL     1       9.805   2.543  -0.162  1.00  0.00    -0.394 OA
ATOM     30  H3  UNL     1      10.427   3.258  -0.091  1.00  0.00     0.209 HD
ENDBRANCH  28  29
ENDBRANCH  23  28
BRANCH  27  31
HETATM   31  O5  UNL     1       6.644  -2.719  -0.021  1.00  0.00    -0.355 OA
ATOM     32  H5  UNL     1       6.833  -3.574   0.348  1.00  0.00     0.218 HD
ENDBRANCH  27  31
ENDBRANCH  20  21
ENDBRANCH  18  20
ENDBRANCH  17  18
ENDBRANCH  16  17
ENDBRANCH  14  16
ENDBRANCH  13  14
ENDBRANCH   1  13
BRANCH   8  33
HETATM   33  N1  UNL     1      -6.187  -0.182   0.330  1.00  0.00     0.120 N 
HETATM   34  C16 UNL     1      -7.324  -1.035   0.487  1.00  0.00     0.303 C 
HETATM   35  C17 UNL     1      -8.497  -0.179   0.923  1.00  0.00     0.262 C 
HETATM   36  N2  UNL     1      -8.252   0.229   2.298  1.00  0.00    -0.072 N 
HETATM   37  C18 UNL     1      -6.908   0.673   2.502  1.00  0.00     0.262 C 
ATOM     38  H22 UNL     1      -8.923   0.937   2.597  1.00  0.00     0.277 HD
ATOM     39  H21 UNL     1      -8.497  -0.514   2.952  1.00  0.00     0.277 HD
HETATM   40  C19 UNL     1      -6.235   0.984   1.182  1.00  0.00     0.303 C 
ENDBRANCH   8  33
BRANCH  11  41
HETATM   41  O12 UNL     1      -3.590  -0.841  -3.855  1.00  0.00    -0.290 OA
ATOM     42  H12 UNL     1      -3.646  -1.081  -4.772  1.00  0.00     0.244 HD
ENDBRANCH  11  41
TORSDOF 12
