REMARK  7 active torsions:
REMARK  status: ('A' for Active; 'I' for Inactive)
REMARK    1  A    between atoms: O1_2  and  C2_3 
REMARK    2  A    between atoms: N3_10  and  N4_11 
REMARK    3  A    between atoms: N10_30  and  C12_31 
REMARK    4  A    between atoms: C12_31  and  C13_32 
REMARK    5  A    between atoms: C13_32  and  C14_33 
REMARK    6  A    between atoms: C14_33  and  C15_34 
REMARK    7  A    between atoms: C15_34  and  N11_35 
ROOT
HETATM    1  N4  UNL     1       3.636   0.589   0.709  1.00  0.00    -0.269 N 
ATOM      2  H4  UNL     1       3.371   1.275   1.416  1.00  0.00     0.189 HD
HETATM    3  C5  UNL     1       2.665   0.210   0.013  1.00  0.00     0.124 C 
HETATM    4  C6  UNL     1       2.866  -0.711  -0.979  1.00  0.00     0.132 C 
HETATM    5  N5  UNL     1       4.042  -0.875  -1.454  1.00  0.00    -0.383 N 
ATOM      6  H51 UNL     1       4.192  -1.561  -2.193  1.00  0.00     0.157 HD
ATOM      7  H52 UNL     1       4.757  -0.281  -1.034  1.00  0.00     0.157 HD
HETATM    8  N6  UNL     1       1.906  -1.508  -1.542  1.00  0.00    -0.318 N 
ATOM      9  H6  UNL     1       2.179  -2.464  -1.770  1.00  0.00     0.169 HD
HETATM   10  C7  UNL     1       0.619  -1.151  -1.829  1.00  0.00     0.191 C 
HETATM   11  C8  UNL     1      -0.083  -2.009  -2.736  1.00  0.00     0.137 C 
HETATM   12  N7  UNL     1      -0.648  -2.715  -3.467  1.00  0.00    -0.188 NA
HETATM   13  N8  UNL     1      -0.073  -0.074  -1.354  1.00  0.00    -0.318 N 
ATOM     14  H8  UNL     1      -0.903   0.197  -1.881  1.00  0.00     0.169 HD
HETATM   15  C9  UNL     1       0.209   0.659  -0.289  1.00  0.00     0.140 A 
HETATM   16  C10 UNL     1       1.428   0.792   0.334  1.00  0.00     0.110 A 
HETATM   17  N9  UNL     1       1.218   1.634   1.367  1.00  0.00    -0.347 N 
ATOM     18  H9  UNL     1       1.921   1.946   2.036  1.00  0.00     0.167 HD
HETATM   19  C11 UNL     1      -0.090   1.994   1.362  1.00  0.00     0.185 A 
HETATM   20  N10 UNL     1      -0.742   1.404   0.345  1.00  0.00    -0.327 N 
ENDROOT
BRANCH  20  21
HETATM   21  C12 UNL     1      -2.139   1.521  -0.022  1.00  0.00     0.131 C 
BRANCH  21  22
HETATM   22  C13 UNL     1      -3.013   0.480   0.648  1.00  0.00     0.022 C 
BRANCH  22  23
HETATM   23  C14 UNL     1      -4.462   0.640   0.229  1.00  0.00     0.032 C 
BRANCH  23  24
HETATM   24  C15 UNL     1      -5.290  -0.411   0.916  1.00  0.00     0.272 C 
BRANCH  24  25
HETATM   25  N11 UNL     1      -6.672  -0.362   0.596  1.00  0.00     0.091 N 
HETATM   26  C16 UNL     1      -7.009  -0.707  -0.739  1.00  0.00     0.300 C 
HETATM   27  C17 UNL     1      -8.489  -0.556  -0.962  1.00  0.00     0.262 C 
HETATM   28  N12 UNL     1      -9.092   0.064   0.186  1.00  0.00    -0.072 N 
HETATM   29  C18 UNL     1      -8.940  -0.808   1.350  1.00  0.00     0.262 C 
ATOM     30 2H12 UNL     1      -8.724   1.000   0.356  1.00  0.00     0.277 HD
ATOM     31 1H12 UNL     1     -10.066   0.318   0.019  1.00  0.00     0.277 HD
HETATM   32  C19 UNL     1      -7.459  -1.072   1.593  1.00  0.00     0.300 C 
ENDBRANCH  24  25
ENDBRANCH  23  24
ENDBRANCH  22  23
ENDBRANCH  21  22
ENDBRANCH  20  21
BRANCH   1  33
HETATM   33  N3  UNL     1       4.961   0.293   0.735  1.00  0.00    -0.140 N 
HETATM   34  N2  UNL     1       5.368  -0.823   1.341  1.00  0.00    -0.217 N 
HETATM   35  N1  UNL     1       6.629  -1.186   1.429  1.00  0.00    -0.282 N 
ATOM     36  H2  UNL     1       4.662  -1.429   1.760  1.00  0.00     0.210 HD
HETATM   37  C4  UNL     1       7.566  -0.406   0.887  1.00  0.00     0.086 A 
ATOM     38  H1  UNL     1       6.887  -2.051   1.904  1.00  0.00     0.188 HD
HETATM   39  C3  UNL     1       8.943  -0.514   0.815  1.00  0.00     0.089 A 
HETATM   40  C21 UNL     1       7.205   0.763   0.246  1.00  0.00     0.135 A 
HETATM   41  C2  UNL     1       9.406   0.590   0.131  1.00  0.00     0.144 A 
HETATM   42  N13 UNL     1       8.355   1.348  -0.204  1.00  0.00    -0.331 N 
ATOM     43  H13 UNL     1       8.405   2.228  -0.717  1.00  0.00     0.168 HD
HETATM   44  C20 UNL     1       5.879   1.111   0.174  1.00  0.00     0.311 A 
HETATM   45  O2  UNL     1       5.555   2.168  -0.405  1.00  0.00    -0.262 OA
BRANCH  41  46
HETATM   46  O1  UNL     1      10.706   0.903  -0.176  1.00  0.00    -0.341 OA
HETATM   47  C1  UNL     1      11.821   0.126   0.165  1.00  0.00     0.211 C 
ENDBRANCH  41  46
ENDBRANCH   1  33
TORSDOF 7
