REMARK  16 active torsions:
REMARK  status: ('A' for Active; 'I' for Inactive)
REMARK    1  A    between atoms: C2_2  and  O2_4 
REMARK    2  A    between atoms: O2_4  and  C3_5 
REMARK    3  A    between atoms: C3_5  and  C4_6 
REMARK    4  A    between atoms: C3_5  and  C14_23 
REMARK    5  A    between atoms: C4_6  and  C5_7 
REMARK    6  A    between atoms: C5_7  and  C6_9 
REMARK    7  A    between atoms: C7_10  and  C8_11 
REMARK    8  A    between atoms: C10_13  and  O4_14 
REMARK    9  A    between atoms: C11_16  and  O5_17 
REMARK   10  A    between atoms: C12_19  and  O6_20 
REMARK   11  A    between atoms: C16_26  and  O8_27 
REMARK   12  A    between atoms: C16_26  and  C17_29 
REMARK   13  A    between atoms: C17_29  and  O9_30 
REMARK   14  A    between atoms: C18_32  and  O10_33 
REMARK   15  A    between atoms: C18_32  and  C19_35 
REMARK   16  A    between atoms: C22_40  and  O13_42 
ROOT
HETATM    1  C3  UNL     1      -0.729  -1.177  -1.446  1.00  0.00     0.153 C 
ENDROOT
BRANCH   1   2
HETATM    2  O2  UNL     1      -0.548  -2.557  -1.192  1.00  0.00    -0.315 OA
BRANCH   2   3
HETATM    3  C2  UNL     1      -0.387  -3.532  -2.134  1.00  0.00     0.255 C 
HETATM    4  C1  UNL     1      -0.200  -4.930  -1.674  1.00  0.00     0.126 C 
HETATM    5  O1  UNL     1      -0.402  -3.218  -3.349  1.00  0.00    -0.266 OA
ENDBRANCH   2   3
ENDBRANCH   1   2
BRANCH   1   6
HETATM    6  C4  UNL     1       0.261  -0.385  -0.689  1.00  0.00     0.116 C 
BRANCH   6   7
HETATM    7  C5  UNL     1       1.678  -0.663  -0.990  1.00  0.00     0.151 C 
HETATM    8  O3  UNL     1       2.010  -1.510  -1.833  1.00  0.00    -0.293 OA
BRANCH   7   9
HETATM    9  C6  UNL     1       2.728   0.065  -0.288  1.00  0.00     0.051 C 
HETATM   10  C7  UNL     1       4.004  -0.154  -0.525  1.00  0.00     0.015 C 
BRANCH  10  11
HETATM   11  C8  UNL     1       5.104   0.526   0.129  1.00  0.00    -0.031 A 
HETATM   12  C9  UNL     1       6.424   0.223  -0.187  1.00  0.00     0.051 A 
HETATM   13  C10 UNL     1       7.499   0.846   0.410  1.00  0.00     0.102 A 
HETATM   14  C11 UNL     1       7.297   1.816   1.367  1.00  0.00     0.132 A 
HETATM   15  C12 UNL     1       6.001   2.133   1.696  1.00  0.00     0.102 A 
HETATM   16  C13 UNL     1       4.925   1.495   1.084  1.00  0.00     0.051 A 
BRANCH  13  17
HETATM   17  O4  UNL     1       8.798   0.516   0.067  1.00  0.00    -0.358 OA
ATOM     18  H4  UNL     1       9.539   0.945   0.478  1.00  0.00     0.217 HD
ENDBRANCH  13  17
BRANCH  14  19
HETATM   19  O5  UNL     1       8.393   2.432   1.956  1.00  0.00    -0.356 OA
ATOM     20  H5  UNL     1       8.254   3.101   2.616  1.00  0.00     0.218 HD
ENDBRANCH  14  19
BRANCH  15  21
HETATM   21  O6  UNL     1       5.805   3.114   2.664  1.00  0.00    -0.358 OA
ATOM     22  H6  UNL     1       4.909   3.333   2.891  1.00  0.00     0.217 HD
ENDBRANCH  15  21
ENDBRANCH  10  11
ENDBRANCH   7   9
ENDBRANCH   6   7
ENDBRANCH   1   6
BRANCH   1  23
HETATM   23  C14 UNL     1      -2.181  -0.899  -1.077  1.00  0.00     0.130 C 
HETATM   24  C15 UNL     1      -2.581   0.507  -1.283  1.00  0.00     0.177 C 
HETATM   25  O7  UNL     1      -1.952   1.343  -1.908  1.00  0.00    -0.294 OA
HETATM   26  C16 UNL     1      -3.858   0.965  -0.688  1.00  0.00     0.185 C 
HETATM   27  C18 UNL     1      -3.806   0.774   0.803  1.00  0.00     0.221 C 
HETATM   28  C21 UNL     1      -3.168  -0.494   1.189  1.00  0.00     0.206 C 
HETATM   29  O12 UNL     1      -3.083  -0.766   2.369  1.00  0.00    -0.291 OA
HETATM   30  C22 UNL     1      -2.614  -1.477   0.220  1.00  0.00     0.131 C 
HETATM   31  C23 UNL     1      -3.740  -2.501   0.000  1.00  0.00     0.055 C 
BRANCH  26  32
HETATM   32  O8  UNL     1      -4.868   0.145  -1.195  1.00  0.00    -0.376 OA
ATOM     33  H8  UNL     1      -5.687   0.439  -0.813  1.00  0.00     0.211 HD
ENDBRANCH  26  32
BRANCH  26  34
HETATM   34  C17 UNL     1      -4.149   2.425  -0.966  1.00  0.00     0.214 C 
BRANCH  34  35
HETATM   35  O9  UNL     1      -4.239   2.626  -2.363  1.00  0.00    -0.397 OA
ATOM     36  H9  UNL     1      -4.422   3.542  -2.537  1.00  0.00     0.209 HD
ENDBRANCH  34  35
ENDBRANCH  26  34
BRANCH  27  37
HETATM   37  O10 UNL     1      -5.086   0.839   1.362  1.00  0.00    -0.372 OA
ATOM     38  H10 UNL     1      -5.053   0.718   2.304  1.00  0.00     0.211 HD
ENDBRANCH  27  37
BRANCH  27  39
HETATM   39  C19 UNL     1      -3.017   1.880   1.402  1.00  0.00     0.168 C 
HETATM   40  C20 UNL     1      -3.579   2.823   2.398  1.00  0.00     0.095 C 
HETATM   41  O11 UNL     1      -1.858   2.009   1.053  1.00  0.00    -0.294 OA
ENDBRANCH  27  39
BRANCH  30  42
HETATM   42  O13 UNL     1      -1.565  -2.143   0.855  1.00  0.00    -0.381 OA
ATOM     43  H13 UNL     1      -1.842  -2.513   1.685  1.00  0.00     0.211 HD
ENDBRANCH  30  42
ENDBRANCH   1  23
TORSDOF 16
