REMARK  16 active torsions:
REMARK  status: ('A' for Active; 'I' for Inactive)
REMARK    1  A    between atoms: N1_2  and  C2_3 
REMARK    2  A    between atoms: N1_2  and  C15_26 
REMARK    3  A    between atoms: C2_3  and  C3_4 
REMARK    4  A    between atoms: N2_11  and  C10_13 
REMARK    5  A    between atoms: C10_13  and  O1_14 
REMARK    6  A    between atoms: C10_13  and  O2_16 
REMARK    7  A    between atoms: C11_18  and  C12_19 
REMARK    8  A    between atoms: C13_20  and  N3_21 
REMARK    9  A    between atoms: N7_34  and  C19_35 
REMARK   10  A    between atoms: C19_35  and  O3_36 
REMARK   11  A    between atoms: O3_36  and  C20_37 
REMARK   12  A    between atoms: C20_37  and  C21_38 
REMARK   13  A    between atoms: C20_37  and  C22_41 
REMARK   14  A    between atoms: C21_38  and  O4_39 
REMARK   15  A    between atoms: C22_41  and  O5_42 
REMARK   16  A    between atoms: C24_46  and  N9_47 
ROOT
HETATM    1  C1  UNL     1       0.804  -2.000  -1.686  1.00  0.00     0.151 C 
HETATM    2  N1  UNL     1      -0.049  -1.025  -1.053  1.00  0.00    -0.364 N 
ENDROOT
BRANCH   2   3
HETATM    3  C2  UNL     1       0.352   0.350  -0.890  1.00  0.00     0.162 C 
BRANCH   3   4
HETATM    4  C3  UNL     1       1.579   0.507  -0.086  1.00  0.00    -0.039 A 
HETATM    5  C4  UNL     1       1.589   0.649   1.284  1.00  0.00     0.010 A 
HETATM    6  C5  UNL     1       2.753   0.794   2.008  1.00  0.00     0.015 A 
HETATM    7  C6  UNL     1       3.960   0.800   1.354  1.00  0.00     0.002 A 
HETATM    8  C7  UNL     1       3.989   0.658  -0.036  1.00  0.00     0.005 A 
HETATM    9  C14 UNL     1       5.317   0.933   1.847  1.00  0.00     0.078 A 
HETATM   10  C8  UNL     1       2.814   0.515  -0.740  1.00  0.00     0.023 A 
HETATM   11  C9  UNL     1       5.399   0.708  -0.391  1.00  0.00     0.064 A 
HETATM   12  N2  UNL     1       5.943   0.625  -1.518  1.00  0.00    -0.340 N 
HETATM   13  C11 UNL     1       6.189   0.886   0.872  1.00  0.00     0.071 A 
ATOM     14  H2  UNL     1       6.960   0.691  -1.481  1.00  0.00     0.164 HD
HETATM   15  N4  UNL     1       5.729   1.100   3.222  1.00  0.00    -0.100 NA
BRANCH  12  16
HETATM   16  C10 UNL     1       5.444   0.460  -2.823  1.00  0.00     0.365 C 
BRANCH  16  17
HETATM   17  O1  UNL     1       6.503   0.139  -3.736  1.00  0.00    -0.355 OA
ATOM     18  H1  UNL     1       6.166   0.028  -4.617  1.00  0.00     0.214 HD
ENDBRANCH  16  17
BRANCH  16  19
HETATM   19  O2  UNL     1       4.861   1.650  -3.323  1.00  0.00    -0.355 OA
ATOM     20  H2  UNL     1       4.524   1.539  -4.204  1.00  0.00     0.214 HD
ENDBRANCH  16  19
ENDBRANCH  12  16
BRANCH  13  21
HETATM   21  C12 UNL     1       7.621   0.978   0.924  1.00  0.00    -0.040 C 
HETATM   22  C13 UNL     1       8.841   1.049   0.971  1.00  0.00     0.009 C 
BRANCH  22  23
HETATM   23  N3  UNL     1      10.237   1.147   1.010  1.00  0.00    -0.359 N 
ATOM     24  H32 UNL     1       9.428   1.575   0.560  1.00  0.00     0.166 HD
ATOM     25  H31 UNL     1      11.255   1.206   1.049  1.00  0.00     0.166 HD
ENDBRANCH  22  23
ENDBRANCH  13  21
ENDBRANCH   3   4
ENDBRANCH   2   3
BRANCH   2  26
HETATM   26  C15 UNL     1      -1.314  -1.436  -0.580  1.00  0.00     0.149 A 
HETATM   27  N5  UNL     1      -2.418  -0.880  -1.050  1.00  0.00    -0.322 N 
HETATM   28  C16 UNL     1      -3.614  -1.313  -0.561  1.00  0.00     0.157 A 
ATOM     29  H5  UNL     1      -2.376  -0.148  -1.759  1.00  0.00     0.169 HD
HETATM   30  C17 UNL     1      -3.712  -2.290   0.389  1.00  0.00     0.155 A 
HETATM   31  N7  UNL     1      -4.880  -0.928  -0.856  1.00  0.00    -0.304 N 
HETATM   32  N6  UNL     1      -5.013  -2.516   0.685  1.00  0.00    -0.335 N 
HETATM   33  N8  UNL     1      -2.563  -2.850   0.861  1.00  0.00    -0.318 N 
HETATM   34  C18 UNL     1      -5.707  -1.662  -0.098  1.00  0.00     0.188 A 
ATOM     35  H6  UNL     1      -5.389  -3.187   1.355  1.00  0.00     0.168 HD
HETATM   36  C23 UNL     1      -2.663  -3.884   1.865  1.00  0.00     0.159 C 
HETATM   37  C24 UNL     1      -1.381  -2.418   0.373  1.00  0.00     0.147 A 
BRANCH  37  38
HETATM   38  N9  UNL     1      -0.282  -2.933   0.803  1.00  0.00    -0.382 N 
ATOM     39  H92 UNL     1       0.611  -2.607   0.434  1.00  0.00     0.157 HD
ATOM     40  H91 UNL     1      -0.332  -3.664   1.513  1.00  0.00     0.157 HD
ENDBRANCH  37  38
BRANCH  31  41
HETATM   41  C19 UNL     1      -5.161   0.072  -1.842  1.00  0.00     0.301 C 
BRANCH  41  42
HETATM   42  O3  UNL     1      -5.124   1.337  -1.318  1.00  0.00    -0.362 OA
BRANCH  42  43
HETATM   43  C20 UNL     1      -6.054   1.586  -0.365  1.00  0.00     0.170 C 
BRANCH  43  44
HETATM   44  C21 UNL     1      -5.393   1.901   0.976  1.00  0.00     0.198 C 
BRANCH  44  45
HETATM   45  O4  UNL     1      -6.321   2.153   1.958  1.00  0.00    -0.398 OA
ATOM     46  H4  UNL     1      -5.910   2.349   2.792  1.00  0.00     0.209 HD
ENDBRANCH  44  45
ENDBRANCH  43  44
BRANCH  43  47
HETATM   47  C22 UNL     1      -6.953   2.765  -0.704  1.00  0.00     0.198 C 
BRANCH  47  48
HETATM   48  O5  UNL     1      -7.856   2.920   0.329  1.00  0.00    -0.398 OA
ATOM     49  H5  UNL     1      -8.418   3.656   0.117  1.00  0.00     0.209 HD
ENDBRANCH  47  48
ENDBRANCH  43  47
ENDBRANCH  42  43
ENDBRANCH  41  42
ENDBRANCH  31  41
ENDBRANCH   2  26
TORSDOF 16
