REMARK  12 active torsions:
REMARK  status: ('A' for Active; 'I' for Inactive)
REMARK    1  A    between atoms: S1_2  and  C2_3 
REMARK    2  A    between atoms: C3_6  and  N2_7 
REMARK    3  A    between atoms: C6_15  and  N5_16 
REMARK    4  A    between atoms: N5_16  and  N6_18 
REMARK    5  A    between atoms: C7_20  and  C8_21 
REMARK    6  A    between atoms: C7_20  and  C10_24 
REMARK    7  A    between atoms: C10_24  and  C11_25 
REMARK    8  A    between atoms: C10_24  and  C14_37 
REMARK       I    between atoms: C11_25  and  N7_27 
REMARK    9  A    between atoms: N7_27  and  C12_29 
REMARK   10  A    between atoms: C12_29  and  C13_30 
REMARK       I    between atoms: C13_30  and  N8_32 
REMARK   11  A    between atoms: N8_32  and  N9_34 
REMARK   12  A    between atoms: C14_37  and  N10_40 
ROOT
HETATM    1  N6  UNL     1      -0.670  -0.560  -0.625  1.00  0.00    -0.299 N 
ATOM      2  H6  UNL     1      -0.828   0.387  -0.971  1.00  0.00     0.186 HD
HETATM    3  C7  UNL     1      -1.436  -0.761   0.341  1.00  0.00     0.086 C 
ENDROOT
BRANCH   1   4
HETATM    4  N5  UNL     1       0.249  -1.111  -1.347  1.00  0.00    -0.283 N 
ATOM      5  H5  UNL     1      -0.198  -1.623  -2.108  1.00  0.00     0.188 HD
BRANCH   4   6
HETATM    6  C6  UNL     1       1.496  -1.244  -1.451  1.00  0.00     0.152 A 
HETATM    7  C5  UNL     1       2.416  -0.669  -0.564  1.00  0.00     0.139 A 
HETATM    8  N4  UNL     1       2.258   0.092   0.529  1.00  0.00    -0.184 N 
HETATM    9  C18 UNL     1       3.777  -0.823  -0.702  1.00  0.00     0.163 A 
HETATM   10  C4  UNL     1       3.468   0.415   1.072  1.00  0.00     0.686 A 
ATOM     11  H4  UNL     1       1.357   0.389   0.903  1.00  0.00     0.184 HD
HETATM   12  N2  UNL     1       4.397  -0.163   0.293  1.00  0.00    -0.113 N 
HETATM   13  N3  UNL     1       3.665   1.137   2.130  1.00  0.00    -0.234 N 
ATOM     14  H32 UNL     1       4.569   1.378   2.536  1.00  0.00     0.174 HD
ATOM     15  H31 UNL     1       2.959   1.576   2.722  1.00  0.00     0.174 HD
HETATM   16  N12 UNL     1       4.207  -1.558  -1.735  1.00  0.00    -0.336 N 
HETATM   17  C17 UNL     1       3.340  -2.118  -2.597  1.00  0.00     0.183 A 
ATOM     18  H12 UNL     1       5.209  -1.695  -1.870  1.00  0.00     0.168 HD
HETATM   19  N11 UNL     1       2.039  -1.969  -2.463  1.00  0.00    -0.336 N 
ATOM     20  H11 UNL     1       1.419  -2.412  -3.141  1.00  0.00     0.168 HD
BRANCH  12  21
HETATM   21  C3  UNL     1       5.812  -0.108   0.461  1.00  0.00     0.155 A 
HETATM   22  N1  UNL     1       6.738   0.342  -0.419  1.00  0.00    -0.315 N 
HETATM   23  C2  UNL     1       7.943   0.207   0.161  1.00  0.00     0.188 A 
ATOM     24  H1  UNL     1       6.555   0.715  -1.351  1.00  0.00     0.170 HD
HETATM   25  O4  UNL     1       7.780  -0.304   1.351  1.00  0.00    -0.296 OA
HETATM   26  C19 UNL     1       6.506  -0.516   1.587  1.00  0.00     0.194 A 
BRANCH  23  27
HETATM   27  S1  UNL     1       9.500   0.656  -0.581  1.00  0.00    -0.091 SA
HETATM   28  C1  UNL     1       9.836   2.391  -0.155  1.00  0.00     0.099 C 
ENDBRANCH  23  27
ENDBRANCH  12  21
ENDBRANCH   4   6
ENDBRANCH   1   4
BRANCH   3  29
HETATM   29  C8  UNL     1      -1.439  -2.026   1.042  1.00  0.00     0.170 C 
HETATM   30  C9  UNL     1      -0.562  -3.156   0.673  1.00  0.00     0.098 C 
HETATM   31  O1  UNL     1      -2.211  -2.204   2.014  1.00  0.00    -0.291 OA
ENDBRANCH   3  29
BRANCH   3  32
HETATM   32  C10 UNL     1      -2.420   0.267   0.836  1.00  0.00     0.167 C 
BRANCH  32  33
HETATM   33  C11 UNL     1      -3.782  -0.308   0.707  1.00  0.00     0.230 C 
HETATM   34  O2  UNL     1      -3.939  -1.309  -0.078  1.00  0.00    -0.273 OA
HETATM   35  N7  UNL     1      -4.935   0.141   1.366  1.00  0.00    -0.352 N 
ATOM     36  H7  UNL     1      -4.839   0.932   2.003  1.00  0.00     0.162 HD
BRANCH  35  37
HETATM   37  C12 UNL     1      -6.231  -0.429   1.210  1.00  0.00     0.227 C 
BRANCH  37  38
HETATM   38  C13 UNL     1      -6.785  -0.370  -0.161  1.00  0.00     0.253 C 
HETATM   39  O3  UNL     1      -6.149   0.156  -1.100  1.00  0.00    -0.270 OA
HETATM   40  N8  UNL     1      -8.064  -0.916  -0.441  1.00  0.00    -0.275 N 
ATOM     41  H8  UNL     1      -8.600  -1.350   0.310  1.00  0.00     0.189 HD
BRANCH  40  42
HETATM   42  N9  UNL     1      -8.608  -0.867  -1.748  1.00  0.00    -0.343 N 
ATOM     43  H92 UNL     1      -8.059  -0.429  -2.488  1.00  0.00     0.176 HD
ATOM     44  H91 UNL     1      -9.528  -1.260  -1.949  1.00  0.00     0.176 HD
ENDBRANCH  40  42
ENDBRANCH  37  38
ENDBRANCH  35  37
ENDBRANCH  32  33
BRANCH  32  45
HETATM   45  C14 UNL     1      -2.335   1.524   0.009  1.00  0.00     0.134 C 
HETATM   46  C15 UNL     1      -1.005   2.193   0.011  1.00  0.00     0.047 C 
HETATM   47  C16 UNL     1      -3.355   2.544   0.462  1.00  0.00     0.047 C 
BRANCH  45  48
HETATM   48  N10 UNL     1      -2.699   1.182  -1.376  1.00  0.00    -0.070 N 
ATOM     49 3H10 UNL     1      -2.136   0.421  -1.756  1.00  0.00     0.275 HD
ATOM     50 2H10 UNL     1      -3.609   0.726  -1.444  1.00  0.00     0.275 HD
ATOM     51 1H10 UNL     1      -2.641   2.033  -1.936  1.00  0.00     0.275 HD
ENDBRANCH  45  48
ENDBRANCH  32  45
ENDBRANCH   3  32
TORSDOF 12
