REMARK  11 active torsions:
REMARK  status: ('A' for Active; 'I' for Inactive)
REMARK    1  A    between atoms: N1_2  and  C2_4 
REMARK    2  A    between atoms: C3_5  and  C4_6 
REMARK    3  A    between atoms: N5_17  and  C9_18 
REMARK    4  A    between atoms: C10_22  and  C11_23 
REMARK       I    between atoms: C11_23  and  N7_25 
REMARK    5  A    between atoms: N7_25  and  N8_27 
REMARK    6  A    between atoms: N8_27  and  C12_29 
REMARK    7  A    between atoms: C12_29  and  N9_31 
REMARK    8  A    between atoms: N9_31  and  N10_33 
REMARK    9  A    between atoms: N10_33  and  C13_35 
REMARK   10  A    between atoms: C13_35  and  C14_36 
REMARK   11  A    between atoms: C16_42  and  N13_43 
ROOT
HETATM    1  C9  UNL     1      -0.421   0.274  -0.987  1.00  0.00     0.729 A 
HETATM    2  N6  UNL     1       0.545   0.126  -1.900  1.00  0.00    -0.087 N 
ATOM      3  H6  UNL     1       0.676   0.711  -2.725  1.00  0.00     0.214 HD
HETATM    4  O1  UNL     1       1.300  -0.898  -1.561  1.00  0.00    -0.199 OA
HETATM    5  C10 UNL     1       0.865  -1.438  -0.447  1.00  0.00     0.255 A 
HETATM    6  N14 UNL     1      -0.221  -0.696  -0.087  1.00  0.00    -0.159 N 
ATOM      7  H14 UNL     1      -0.794  -0.856   0.742  1.00  0.00     0.186 HD
ENDROOT
BRANCH   5   8
HETATM    8  C11 UNL     1       1.416  -2.583   0.260  1.00  0.00     0.314 C 
HETATM    9  O2  UNL     1       0.862  -2.996   1.300  1.00  0.00    -0.262 OA
HETATM   10  N7  UNL     1       2.574  -3.241  -0.212  1.00  0.00    -0.261 N 
ATOM     11  H7  UNL     1       3.037  -2.910  -1.059  1.00  0.00     0.190 HD
BRANCH  10  12
HETATM   12  N8  UNL     1       3.081  -4.329   0.468  1.00  0.00    -0.272 N 
ATOM     13  H8  UNL     1       2.557  -5.198   0.368  1.00  0.00     0.189 HD
BRANCH  12  14
HETATM   14  C12 UNL     1       4.217  -4.395   1.275  1.00  0.00     0.205 C 
HETATM   15  S1  UNL     1       4.532  -5.911   1.944  1.00  0.00    -0.038 SA
BRANCH  14  16
HETATM   16  N9  UNL     1       5.098  -3.343   1.569  1.00  0.00    -0.275 N 
ATOM     17  H9  UNL     1       5.890  -3.553   2.177  1.00  0.00     0.189 HD
BRANCH  16  18
HETATM   18  N10 UNL     1       4.985  -2.073   1.114  1.00  0.00    -0.307 N 
ATOM     19  H10 UNL     1       5.253  -1.824   0.162  1.00  0.00     0.186 HD
BRANCH  18  20
HETATM   20  C13 UNL     1       4.483  -1.112   2.010  1.00  0.00     0.140 C 
BRANCH  20  21
HETATM   21  C14 UNL     1       4.428   0.230   1.365  1.00  0.00     0.101 A 
HETATM   22  N11 UNL     1       4.802   0.517   0.114  1.00  0.00    -0.348 N 
HETATM   23  C15 UNL     1       4.581   1.838  -0.044  1.00  0.00     0.182 A 
ATOM     24  H11 UNL     1       5.178  -0.130  -0.579  1.00  0.00     0.167 HD
HETATM   25  N12 UNL     1       4.081   2.360   1.085  1.00  0.00    -0.332 N 
HETATM   26  C16 UNL     1       3.969   1.362   2.008  1.00  0.00     0.203 A 
ATOM     27  H12 UNL     1       3.827   3.337   1.229  1.00  0.00     0.168 HD
BRANCH  26  28
HETATM   28  N13 UNL     1       3.478   1.507   3.335  1.00  0.00    -0.095 N 
HETATM   29  O3  UNL     1       2.659   2.411   3.597  1.00  0.00    -0.530 OA
HETATM   30  O4  UNL     1       3.868   0.686   4.353  1.00  0.00    -0.530 OA
ENDBRANCH  26  28
ENDBRANCH  20  21
ENDBRANCH  18  20
ENDBRANCH  16  18
ENDBRANCH  14  16
ENDBRANCH  12  14
ENDBRANCH  10  12
ENDBRANCH   5   8
BRANCH   1  31
HETATM   31  N5  UNL     1      -1.447   1.258  -0.967  1.00  0.00    -0.051 N 
HETATM   32  C2  UNL     1      -2.815   1.027  -0.890  1.00  0.00     0.171 A 
HETATM   33  C3  UNL     1      -3.466   2.220  -0.885  1.00  0.00     0.106 A 
HETATM   34  N3  UNL     1      -2.476   3.172  -0.965  1.00  0.00    -0.281 N 
HETATM   35  N4  UNL     1      -1.319   2.565  -1.010  1.00  0.00    -0.219 N 
ATOM     36  H3  UNL     1      -2.620   4.182  -0.986  1.00  0.00     0.188 HD
ATOM     37  H4  UNL     1      -0.423   3.049  -1.071  1.00  0.00     0.209 HD
BRANCH  32  38
HETATM   38  N1  UNL     1      -3.320  -0.280  -0.907  1.00  0.00    -0.377 N 
HETATM   39  C1  UNL     1      -4.696  -0.667  -1.021  1.00  0.00     0.148 C 
ATOM     40  H1  UNL     1      -2.638  -1.035  -0.830  1.00  0.00     0.160 HD
ENDBRANCH  32  38
BRANCH  33  41
HETATM   41  C4  UNL     1      -4.880   2.558  -0.822  1.00  0.00    -0.002 A 
HETATM   42  C5  UNL     1      -5.463   3.352  -1.820  1.00  0.00     0.031 A 
HETATM   43  C6  UNL     1      -6.767   3.770  -1.796  1.00  0.00     0.088 A 
HETATM   44  N2  UNL     1      -7.544   3.403  -0.760  1.00  0.00    -0.375 N 
HETATM   45  C7  UNL     1      -7.033   2.640   0.226  1.00  0.00     0.088 A 
ATOM     46  H2  UNL     1      -8.518   3.702  -0.721  1.00  0.00     0.164 HD
HETATM   47  C8  UNL     1      -5.724   2.212   0.218  1.00  0.00     0.031 A 
ENDBRANCH  33  41
ENDBRANCH   1  31
TORSDOF 11
