REMARK  16 active torsions:
REMARK  status: ('A' for Active; 'I' for Inactive)
REMARK    1  A    between atoms: C2_2  and  O1_4 
REMARK    2  A    between atoms: C2_2  and  C4_6 
REMARK    3  A    between atoms: C5_7  and  C6_8 
REMARK    4  A    between atoms: C6_8  and  N1_9 
REMARK    5  A    between atoms: C7_10  and  C8_11 
REMARK    6  A    between atoms: N3_14  and  C9_15 
REMARK    7  A    between atoms: C9_15  and  C10_16 
REMARK    8  A    between atoms: C10_16  and  C11_17 
REMARK    9  A    between atoms: C11_17  and  C12_18 
REMARK   10  A    between atoms: C12_18  and  C13_19 
REMARK   11  A    between atoms: C13_19  and  C14_20 
REMARK   12  A    between atoms: C14_20  and  O2_21 
REMARK   13  A    between atoms: C15_23  and  N4_24 
REMARK   14  A    between atoms: N4_24  and  N5_26 
REMARK   15  A    between atoms: C17_37  and  N10_38 
REMARK   16  A    between atoms: C19_43  and  N11_44 
ROOT
HETATM    1  N1  UNL     1      -1.852   1.542   0.829  1.00  0.00    -0.150 N 
HETATM    2  C7  UNL     1      -1.101   2.049  -0.157  1.00  0.00     0.186 A 
HETATM    3  N7  UNL     1      -1.975   2.661  -0.972  1.00  0.00    -0.259 N 
ATOM      4  H7  UNL     1      -1.713   3.150  -1.828  1.00  0.00     0.190 HD
HETATM    5  N8  UNL     1      -3.216   2.552  -0.530  1.00  0.00    -0.066 N 
HETATM    6  C16 UNL     1      -4.428   3.005  -1.014  1.00  0.00     0.168 A 
HETATM    7  N9  UNL     1      -4.627   3.704  -2.114  1.00  0.00    -0.320 N 
ATOM      8  H9  UNL     1      -3.846   3.969  -2.713  1.00  0.00     0.169 HD
HETATM    9  C17 UNL     1      -5.871   4.054  -2.422  1.00  0.00     0.144 A 
HETATM   10  S1  UNL     1      -6.790   3.391  -1.143  1.00  0.00    -0.047 SA
HETATM   11  C18 UNL     1      -5.515   2.684  -0.259  1.00  0.00     0.099 A 
HETATM   12  C19 UNL     1      -5.409   1.942   0.931  1.00  0.00     0.136 A 
HETATM   13  N12 UNL     1      -4.197   1.510   1.380  1.00  0.00    -0.173 N 
ATOM     14  H12 UNL     1      -4.083   0.970   2.238  1.00  0.00     0.186 HD
HETATM   15  C20 UNL     1      -3.161   1.860   0.589  1.00  0.00     0.711 A 
ENDROOT
BRANCH   2  16
HETATM   16  C8  UNL     1       0.349   1.990  -0.373  1.00  0.00     0.182 A 
HETATM   17  N2  UNL     1       1.268   1.407   0.379  1.00  0.00    -0.265 N 
HETATM   18  N3  UNL     1       2.477   1.559  -0.130  1.00  0.00    -0.121 N 
ATOM     19  H2  UNL     1       1.068   0.903   1.243  1.00  0.00     0.189 HD
HETATM   20  C15 UNL     1       2.336   2.270  -1.260  1.00  0.00     0.715 A 
HETATM   21  N6  UNL     1       1.025   2.533  -1.405  1.00  0.00    -0.169 N 
ATOM     22  H6  UNL     1       0.609   3.059  -2.173  1.00  0.00     0.186 HD
BRANCH  18  23
HETATM   23  C9  UNL     1       3.693   1.042   0.452  1.00  0.00     0.168 C 
BRANCH  23  24
HETATM   24  C10 UNL     1       4.013  -0.328  -0.038  1.00  0.00     0.022 C 
BRANCH  24  25
HETATM   25  C11 UNL     1       2.933  -1.331   0.281  1.00  0.00     0.002 C 
BRANCH  25  26
HETATM   26  C12 UNL     1       3.248  -2.705  -0.207  1.00  0.00     0.002 C 
BRANCH  26  27
HETATM   27  C13 UNL     1       4.498  -3.286   0.368  1.00  0.00     0.026 C 
BRANCH  27  28
HETATM   28  C14 UNL     1       4.419  -3.388   1.875  1.00  0.00     0.164 C 
BRANCH  28  29
HETATM   29  O2  UNL     1       5.603  -3.934   2.369  1.00  0.00    -0.401 OA
ATOM     30  H2  UNL     1       5.553  -3.998   3.316  1.00  0.00     0.209 HD
ENDBRANCH  28  29
ENDBRANCH  27  28
ENDBRANCH  26  27
ENDBRANCH  25  26
ENDBRANCH  24  25
ENDBRANCH  23  24
ENDBRANCH  18  23
BRANCH  20  31
HETATM   31  N4  UNL     1       3.288   2.646  -2.080  1.00  0.00    -0.137 N 
ATOM     32  H4  UNL     1       4.250   2.386  -1.864  1.00  0.00     0.205 HD
BRANCH  31  33
HETATM   33  N5  UNL     1       3.042   3.377  -3.219  1.00  0.00    -0.331 N 
ATOM     34  H52 UNL     1       2.074   3.629  -3.419  1.00  0.00     0.177 HD
ATOM     35  H51 UNL     1       3.782   3.669  -3.857  1.00  0.00     0.177 HD
ENDBRANCH  31  33
ENDBRANCH  20  31
ENDBRANCH   2  16
BRANCH   1  36
HETATM   36  C6  UNL     1      -1.343   0.789   1.959  1.00  0.00     0.243 C 
BRANCH  36  37
HETATM   37  C5  UNL     1      -1.292  -0.657   1.669  1.00  0.00    -0.083 C 
HETATM   38  C4  UNL     1      -1.255  -1.839   1.431  1.00  0.00    -0.067 C 
BRANCH  38  39
HETATM   39  C2  UNL     1      -1.235  -3.281   1.145  1.00  0.00     0.114 C 
HETATM   40  C1  UNL     1      -2.613  -3.807   1.504  1.00  0.00     0.060 C 
HETATM   41  C3  UNL     1      -0.998  -3.564  -0.320  1.00  0.00     0.060 C 
BRANCH  39  42
HETATM   42  O1  UNL     1      -0.256  -3.948   1.872  1.00  0.00    -0.378 OA
ATOM     43  H1  UNL     1       0.606  -3.619   1.647  1.00  0.00     0.211 HD
ENDBRANCH  39  42
ENDBRANCH  38  39
ENDBRANCH  36  37
ENDBRANCH   1  36
BRANCH  12  44
HETATM   44  N11 UNL     1      -6.491   1.696   1.562  1.00  0.00    -0.384 N 
ATOM     45 2H11 UNL     1      -7.398   2.019   1.226  1.00  0.00     0.157 HD
ATOM     46 1H11 UNL     1      -6.414   1.158   2.425  1.00  0.00     0.157 HD
ENDBRANCH  12  44
BRANCH   9  47
HETATM   47  N10 UNL     1      -6.301   4.744  -3.458  1.00  0.00    -0.380 N 
ATOM     48 2H10 UNL     1      -5.752   5.140  -4.221  1.00  0.00     0.158 HD
ATOM     49 1H10 UNL     1      -7.256   5.013  -3.694  1.00  0.00     0.158 HD
ENDBRANCH   9  47
TORSDOF 16
