REMARK  12 active torsions:
REMARK  status: ('A' for Active; 'I' for Inactive)
REMARK    1  A    between atoms: C2_2  and  C6_12 
REMARK    2  A    between atoms: N1_3  and  N2_5 
REMARK       I    between atoms: N2_5  and  C3_6 
REMARK    3  A    between atoms: C3_6  and  C4_8 
REMARK    4  A    between atoms: C4_8  and  O2_9 
REMARK    5  A    between atoms: O2_9  and  C5_10 
REMARK    6  A    between atoms: C7_13  and  C8_14 
REMARK       I    between atoms: C8_14  and  N3_16 
REMARK    7  A    between atoms: N3_16  and  S1_18 
REMARK    8  A    between atoms: S1_18  and  C9_21 
REMARK    9  A    between atoms: C12_24  and  N4_25 
REMARK   10  A    between atoms: C16_31  and  O9_32 
REMARK   11  A    between atoms: C17_34  and  O10_35 
REMARK   12  A    between atoms: C18_37  and  O11_38 
ROOT
HETATM    1  C6  UNL     1      -1.528  -1.077   0.403  1.00  0.00     0.040 A 
HETATM    2  C7  UNL     1      -0.199  -1.234   0.148  1.00  0.00     0.050 A 
HETATM    3  C15 UNL     1       0.294  -2.532  -0.044  1.00  0.00     0.057 A 
HETATM    4  C16 UNL     1      -0.494  -3.647   0.017  1.00  0.00     0.102 A 
HETATM    5  C17 UNL     1      -1.822  -3.513   0.275  1.00  0.00     0.133 A 
HETATM    6  C18 UNL     1      -2.379  -2.229   0.477  1.00  0.00     0.115 A 
ENDROOT
BRANCH   2   7
HETATM    7  C8  UNL     1       0.769  -0.150   0.150  1.00  0.00     0.266 C 
HETATM    8  O4  UNL     1       1.167   0.273   1.307  1.00  0.00    -0.267 OA
HETATM    9  N3  UNL     1       1.313   0.464  -0.995  1.00  0.00    -0.246 N 
ATOM     10  H3  UNL     1       1.027   0.158  -1.925  1.00  0.00     0.182 HD
BRANCH   9  11
HETATM   11  S1  UNL     1       2.467   1.739  -0.817  1.00  0.00     0.265 S 
HETATM   12  O5  UNL     1       2.049   2.488   0.440  1.00  0.00    -0.200 OA
HETATM   13  O6  UNL     1       2.416   2.734  -1.923  1.00  0.00    -0.200 OA
BRANCH  11  14
HETATM   14  C9  UNL     1       4.092   1.169  -0.608  1.00  0.00     0.080 A 
HETATM   15  C10 UNL     1       4.976   1.086  -1.691  1.00  0.00     0.028 A 
HETATM   16  C11 UNL     1       6.276   0.629  -1.490  1.00  0.00     0.037 A 
HETATM   17  C12 UNL     1       6.706   0.253  -0.220  1.00  0.00     0.102 A 
HETATM   18  C13 UNL     1       5.848   0.334   0.831  1.00  0.00     0.037 A 
HETATM   19  C14 UNL     1       4.559   0.791   0.609  1.00  0.00     0.028 A 
BRANCH  17  20
HETATM   20  N4  UNL     1       8.026  -0.199  -0.031  1.00  0.00    -0.116 N 
HETATM   21  O7  UNL     1       8.426  -0.491   1.111  1.00  0.00    -0.532 OA
HETATM   22  O8  UNL     1       8.871  -0.307  -1.105  1.00  0.00    -0.532 OA
ENDBRANCH  17  20
ENDBRANCH  11  14
ENDBRANCH   9  11
ENDBRANCH   2   7
BRANCH   1  23
HETATM   23  C2  UNL     1      -2.218   0.187   0.476  1.00  0.00     0.049 C 
HETATM   24  C1  UNL     1      -1.664   1.490   0.103  1.00  0.00     0.072 C 
HETATM   25  N1  UNL     1      -3.497   0.223   0.807  1.00  0.00    -0.236 N 
ATOM     26  H1  UNL     1      -3.927  -0.663   1.073  1.00  0.00     0.201 HD
BRANCH  25  27
HETATM   27  N2  UNL     1      -4.254   1.263   0.827  1.00  0.00    -0.285 NA
HETATM   28  C3  UNL     1      -5.063   2.388   0.853  1.00  0.00     0.336 C 
HETATM   29  O1  UNL     1      -4.751   3.513   1.341  1.00  0.00    -0.253 OA
BRANCH  28  30
HETATM   30  C4  UNL     1      -6.454   2.346   0.278  1.00  0.00     0.299 C 
BRANCH  30  31
HETATM   31  O2  UNL     1      -6.694   1.087  -0.262  1.00  0.00    -0.318 OA
BRANCH  31  32
HETATM   32  C5  UNL     1      -6.059   0.621  -1.378  1.00  0.00     0.398 C 
HETATM   33  O3  UNL     1      -5.224   1.374  -1.970  1.00  0.00    -0.276 OA
ENDBRANCH  31  32
ENDBRANCH  30  31
ENDBRANCH  28  30
ENDBRANCH  25  27
ENDBRANCH   1  23
BRANCH   6  34
HETATM   34  O11 UNL     1      -3.681  -2.224   0.722  1.00  0.00    -0.357 OA
ATOM     35  H11 UNL     1      -4.245  -2.987   0.771  1.00  0.00     0.217 HD
ENDBRANCH   6  34
BRANCH   4  36
HETATM   36  O9  UNL     1       0.018  -4.946  -0.177  1.00  0.00    -0.358 OA
ATOM     37  H9  UNL     1      -0.530  -5.721  -0.135  1.00  0.00     0.217 HD
ENDBRANCH   4  36
BRANCH   5  38
HETATM   38  O10 UNL     1      -2.667  -4.635   0.348  1.00  0.00    -0.356 OA
ATOM     39  H10 UNL     1      -3.595  -4.541   0.528  1.00  0.00     0.218 HD
ENDBRANCH   5  38
TORSDOF 12
