REMARK  12 active torsions:
REMARK  status: ('A' for Active; 'I' for Inactive)
REMARK    1  A    between atoms: O1_2  and  C2_3 
REMARK    2  A    between atoms: C4_5  and  C5_6 
REMARK    3  A    between atoms: N1_7  and  N2_9 
REMARK    4  A    between atoms: N2_9  and  C6_11 
REMARK    5  A    between atoms: C7_14  and  N4_15 
REMARK    6  A    between atoms: C8_20  and  N6_21 
REMARK    7  A    between atoms: C12_28  and  N8_29 
REMARK       I    between atoms: N8_29  and  C13_31 
REMARK    8  A    between atoms: C13_31  and  C14_33 
REMARK    9  A    between atoms: C14_33  and  S1_34 
REMARK   10  A    between atoms: S1_34  and  C15_35 
REMARK   11  A    between atoms: C18_41  and  O5_42 
REMARK   12  A    between atoms: C20_44  and  O6_45 
ROOT
HETATM    1  C6  UNL     1       0.570  -1.330  -0.647  1.00  0.00     0.170 C 
HETATM    2  N3  UNL     1      -0.301  -1.896  -1.485  1.00  0.00    -0.173 N 
ATOM      3  H3  UNL     1      -1.055  -1.303  -1.832  1.00  0.00     0.186 HD
HETATM    4  C7  UNL     1      -0.285  -3.171  -1.918  1.00  0.00     0.679 C 
HETATM    5  N5  UNL     1       0.605  -4.162  -1.737  1.00  0.00    -0.176 N 
ATOM      6  H5  UNL     1       0.313  -5.093  -2.034  1.00  0.00     0.186 HD
HETATM    7  C8  UNL     1       1.846  -4.063  -1.204  1.00  0.00     0.129 C 
HETATM    8  C9  UNL     1       2.439  -2.957  -0.630  1.00  0.00     0.071 A 
HETATM    9  C10 UNL     1       3.740  -2.851  -0.185  1.00  0.00     0.112 A 
HETATM   10  C11 UNL     1       4.721  -3.895  -0.242  1.00  0.00     0.105 C 
HETATM   11  N7  UNL     1       5.527  -4.724  -0.281  1.00  0.00    -0.191 NA
HETATM   12  C12 UNL     1       3.939  -1.577   0.324  1.00  0.00     0.172 A 
HETATM   13  O4  UNL     1       2.795  -0.955   0.182  1.00  0.00    -0.287 OA
HETATM   14  C16 UNL     1       1.882  -1.715  -0.370  1.00  0.00     0.139 A 
ENDROOT
BRANCH  12  15
HETATM   15  N8  UNL     1       5.159  -1.085   0.879  1.00  0.00    -0.305 N 
HETATM   16  C13 UNL     1       5.272   0.233   1.375  1.00  0.00     0.233 C 
HETATM   17  O2  UNL     1       4.276   0.980   1.322  1.00  0.00    -0.272 OA
ATOM     18  H8  UNL     1       5.971  -1.702   0.918  1.00  0.00     0.171 HD
BRANCH  16  19
HETATM   19  C14 UNL     1       6.541   0.713   1.941  1.00  0.00     0.186 C 
BRANCH  19  20
HETATM   20  S1  UNL     1       6.352   2.419   2.476  1.00  0.00    -0.063 SA
BRANCH  20  21
HETATM   21  C15 UNL     1       6.078   3.532   1.136  1.00  0.00     0.293 C 
HETATM   22  N9  UNL     1       5.912   4.919   1.396  1.00  0.00    -0.051 NA
HETATM   23  O3  UNL     1       6.025   3.136  -0.054  1.00  0.00    -0.264 OA
ENDBRANCH  20  21
ENDBRANCH  19  20
ENDBRANCH  16  19
ENDBRANCH  12  15
BRANCH   7  24
HETATM   24  N6  UNL     1       2.564  -5.110  -1.228  1.00  0.00    -0.384 N 
ATOM     25  H62 UNL     1       2.126  -5.927  -1.652  1.00  0.00     0.157 HD
ATOM     26  H61 UNL     1       3.499  -5.035  -0.827  1.00  0.00     0.157 HD
ENDBRANCH   7  24
BRANCH   1  27
HETATM   27  N2  UNL     1       0.199  -0.305   0.003  1.00  0.00    -0.283 N 
ATOM     28  H2  UNL     1       0.896   0.095   0.632  1.00  0.00     0.188 HD
BRANCH  27  29
HETATM   29  N1  UNL     1      -1.012   0.337  -0.026  1.00  0.00    -0.309 N 
HETATM   30  C5  UNL     1      -2.135  -0.142   0.348  1.00  0.00     0.118 C 
ATOM     31  H1  UNL     1      -1.016   1.293  -0.382  1.00  0.00     0.186 HD
BRANCH  30  32
HETATM   32  C4  UNL     1      -3.378   0.606   0.285  1.00  0.00    -0.014 A 
HETATM   33  C3  UNL     1      -3.363   1.918  -0.205  1.00  0.00     0.052 A 
HETATM   34  C2  UNL     1      -4.532   2.642  -0.271  1.00  0.00     0.104 A 
HETATM   35  C20 UNL     1      -5.712   2.086   0.140  1.00  0.00     0.133 A 
HETATM   36  C18 UNL     1      -5.739   0.792   0.626  1.00  0.00     0.104 A 
HETATM   37  C17 UNL     1      -4.572   0.063   0.694  1.00  0.00     0.052 A 
BRANCH  34  38
HETATM   38  O1  UNL     1      -4.540   3.961  -0.759  1.00  0.00    -0.353 OA
HETATM   39  C1  UNL     1      -3.318   4.527  -1.182  1.00  0.00     0.210 C 
ENDBRANCH  34  38
BRANCH  35  40
HETATM   40  O6  UNL     1      -6.928   2.792   0.090  1.00  0.00    -0.356 OA
ATOM     41  H6  UNL     1      -7.748   2.406   0.375  1.00  0.00     0.218 HD
ENDBRANCH  35  40
BRANCH  36  42
HETATM   42  O5  UNL     1      -6.958   0.254   1.037  1.00  0.00    -0.353 OA
HETATM   43  C19 UNL     1      -7.078  -1.059   1.546  1.00  0.00     0.210 C 
ENDBRANCH  36  42
ENDBRANCH  30  32
ENDBRANCH  27  29
ENDBRANCH   1  27
BRANCH   4  44
HETATM   44  N4  UNL     1      -1.322  -3.481  -2.640  1.00  0.00    -0.234 N 
ATOM     45  H42 UNL     1      -1.997  -2.729  -2.777  1.00  0.00     0.174 HD
ATOM     46  H41 UNL     1      -1.310  -4.447  -2.968  1.00  0.00     0.174 HD
ENDBRANCH   4  44
TORSDOF 12
