REMARK  12 active torsions:
REMARK  status: ('A' for Active; 'I' for Inactive)
REMARK    1  A    between atoms: C2_2  and  O1_3 
REMARK    2  A    between atoms: O1_3  and  C3_4 
REMARK    3  A    between atoms: C3_4  and  C4_6 
REMARK    4  A    between atoms: N2_9  and  C5_10 
REMARK    5  A    between atoms: C9_23  and  N7_24 
REMARK    6  A    between atoms: C11_31  and  C12_32 
REMARK    7  A    between atoms: C12_32  and  S1_33 
REMARK    8  A    between atoms: S1_33  and  C13_34 
REMARK    9  A    between atoms: C15_36  and  N10_37 
REMARK   10  A    between atoms: N10_37  and  C16_39 
REMARK   11  A    between atoms: C16_39  and  C17_40 
REMARK   12  A    between atoms: C17_40  and  N11_41 
ROOT
HETATM    1  C4  UNL     1      -1.371  -2.394  -0.434  1.00  0.00     0.132 A 
HETATM    2  N1  UNL     1      -1.880  -1.150  -0.351  1.00  0.00    -0.273 N 
ATOM      3  H1  UNL     1      -2.652  -0.806  -0.923  1.00  0.00     0.188 HD
HETATM    4  N2  UNL     1      -1.254  -0.429   0.565  1.00  0.00    -0.087 N 
HETATM    5  C11 UNL     1      -0.287  -1.187   1.131  1.00  0.00     0.070 A 
HETATM    6  C18 UNL     1      -0.367  -2.437   0.492  1.00  0.00    -0.002 A 
HETATM    7  C19 UNL     1       0.511  -3.560   0.852  1.00  0.00     0.053 C 
ENDROOT
BRANCH   4   8
HETATM    8  C5  UNL     1      -1.654   0.903   0.886  1.00  0.00     0.720 C 
HETATM    9  N3  UNL     1      -1.825   1.808  -0.103  1.00  0.00    -0.129 N 
HETATM   10  N4  UNL     1      -2.838   2.689  -0.149  1.00  0.00    -0.269 N 
ATOM     11  H3  UNL     1      -1.143   1.823  -0.861  1.00  0.00     0.205 HD
HETATM   12  C6  UNL     1      -3.780   3.022   0.755  1.00  0.00     0.155 A 
ATOM     13  H4  UNL     1      -2.907   3.199  -1.029  1.00  0.00     0.189 HD
HETATM   14  C7  UNL     1      -3.909   2.592   2.072  1.00  0.00     0.100 A 
HETATM   15  N9  UNL     1      -4.796   3.871   0.512  1.00  0.00    -0.278 N 
HETATM   16  C8  UNL     1      -3.077   1.708   2.706  1.00  0.00     0.132 C 
HETATM   17  C9  UNL     1      -5.011   3.197   2.602  1.00  0.00     0.131 A 
HETATM   18  N5  UNL     1      -3.470   1.269   3.842  1.00  0.00    -0.384 N 
HETATM   19  N6  UNL     1      -1.887   1.230   2.199  1.00  0.00    -0.173 N 
ATOM     20  H52 UNL     1      -4.350   1.623   4.217  1.00  0.00     0.157 HD
ATOM     21  H51 UNL     1      -2.850   0.611   4.314  1.00  0.00     0.157 HD
ATOM     22  H6  UNL     1      -1.115   1.109   2.855  1.00  0.00     0.186 HD
HETATM   23  N8  UNL     1      -5.540   3.988   1.597  1.00  0.00    -0.281 N 
ATOM     24  H8  UNL     1      -6.374   4.570   1.681  1.00  0.00     0.189 HD
HETATM   25  C10 UNL     1      -5.000   4.538  -0.768  1.00  0.00     0.179 C 
BRANCH  17  26
HETATM   26  N7  UNL     1      -5.495   3.119   3.773  1.00  0.00    -0.384 N 
ATOM     27  H72 UNL     1      -5.105   2.536   4.514  1.00  0.00     0.157 HD
ATOM     28  H71 UNL     1      -6.319   3.571   4.169  1.00  0.00     0.157 HD
ENDBRANCH  17  26
ENDBRANCH   4   8
BRANCH   5  29
HETATM   29  C12 UNL     1       0.588  -0.740   2.223  1.00  0.00     0.141 C 
BRANCH  29  30
HETATM   30  S1  UNL     1       2.323  -1.024   2.027  1.00  0.00    -0.105 SA
BRANCH  30  31
HETATM   31  C13 UNL     1       3.064  -0.257   0.637  1.00  0.00     0.088 A 
HETATM   32  C14 UNL     1       4.442  -0.347   0.379  1.00  0.00     0.087 A 
HETATM   33  C15 UNL     1       4.634   0.336  -0.796  1.00  0.00     0.118 A 
HETATM   34  N12 UNL     1       3.445   0.801  -1.208  1.00  0.00    -0.285 N 
HETATM   35  N13 UNL     1       2.507   0.447  -0.351  1.00  0.00    -0.293 N 
ATOM     36  H12 UNL     1       3.290   1.346  -2.056  1.00  0.00     0.188 HD
ATOM     37  H13 UNL     1       1.516   0.674  -0.430  1.00  0.00     0.187 HD
BRANCH  33  38
HETATM   38  N10 UNL     1       5.730   0.515  -1.403  1.00  0.00    -0.374 N 
ATOM     39  H10 UNL     1       5.710   1.045  -2.274  1.00  0.00     0.161 HD
BRANCH  38  40
HETATM   40  C16 UNL     1       7.011   0.018  -0.945  1.00  0.00     0.148 C 
BRANCH  40  41
HETATM   41  C17 UNL     1       7.679   1.186  -0.252  1.00  0.00     0.249 C 
BRANCH  41  42
HETATM   42  N11 UNL     1       7.852   2.292  -1.149  1.00  0.00    -0.078 N 
ATOM     43 3H11 UNL     1       8.358   2.016  -1.991  1.00  0.00     0.274 HD
ATOM     44 2H11 UNL     1       6.969   2.567  -1.580  1.00  0.00     0.274 HD
ATOM     45 1H11 UNL     1       8.302   3.079  -0.682  1.00  0.00     0.274 HD
ENDBRANCH  41  42
ENDBRANCH  40  41
ENDBRANCH  38  40
ENDBRANCH  33  38
ENDBRANCH  30  31
ENDBRANCH  29  30
ENDBRANCH   5  29
BRANCH   1  46
HETATM   46  C3  UNL     1      -1.792  -3.456  -1.327  1.00  0.00     0.312 C 
HETATM   47  O2  UNL     1      -1.287  -4.591  -1.396  1.00  0.00    -0.258 OA
BRANCH  46  48
HETATM   48  O1  UNL     1      -2.867  -3.245  -2.224  1.00  0.00    -0.317 OA
BRANCH  48  49
HETATM   49  C2  UNL     1      -3.334  -4.196  -3.128  1.00  0.00     0.175 C 
HETATM   50  C1  UNL     1      -2.358  -4.617  -4.183  1.00  0.00     0.034 C 
ENDBRANCH  48  49
ENDBRANCH  46  48
ENDBRANCH   1  46
TORSDOF 12
