REMARK  6 active torsions:
REMARK  status: ('A' for Active; 'I' for Inactive)
REMARK    1  A    between atoms: C2_2  and  N1_3 
REMARK    2  A    between atoms: C5_7  and  C6_8 
REMARK    3  A    between atoms: C6_8  and  C7_9 
REMARK    4  A    between atoms: C7_9  and  O2_10 
REMARK    5  A    between atoms: C7_9  and  C8_12 
REMARK    6  A    between atoms: C8_12  and  C9_13 
ROOT
HETATM    1  N1  UNL     1      -2.005   0.620   0.092  1.00  0.00     0.092 N 
HETATM    2  C3  UNL     1      -2.435  -0.657  -0.377  1.00  0.00     0.298 C 
HETATM    3  C4  UNL     1      -1.392  -1.711  -0.426  1.00  0.00     0.198 C 
HETATM    4  O1  UNL     1      -0.408  -1.634   0.535  1.00  0.00    -0.382 OA
HETATM    5  C5  UNL     1       0.161  -0.378   0.646  1.00  0.00     0.152 C 
HETATM    6  C10 UNL     1      -0.888   0.626   0.974  1.00  0.00     0.304 C 
ENDROOT
BRANCH   5   7
HETATM    7  C6  UNL     1       0.987  -0.017  -0.550  1.00  0.00     0.065 C 
BRANCH   7   8
HETATM    8  C7  UNL     1       2.133  -0.931  -0.813  1.00  0.00     0.121 C 
BRANCH   8   9
HETATM    9  O2  UNL     1       1.780  -2.251  -1.035  1.00  0.00    -0.395 OA
ATOM     10  H2  UNL     1       2.511  -2.834  -1.203  1.00  0.00     0.210 HD
ENDBRANCH   8   9
BRANCH   8  11
HETATM   11  C8  UNL     1       3.265  -0.818   0.169  1.00  0.00     0.043 C 
BRANCH  11  12
HETATM   12  C9  UNL     1       3.847   0.599   0.168  1.00  0.00     0.088 C 
HETATM   13  S1  UNL     1       5.210   0.683   1.362  1.00  0.00    -0.098 SA
ENDBRANCH  11  12
ENDBRANCH   8  11
ENDBRANCH   7   8
ENDBRANCH   5   7
BRANCH   1  14
HETATM   14  C2  UNL     1      -3.134   1.334   0.620  1.00  0.00     0.268 C 
HETATM   15  C1  UNL     1      -4.092   1.716  -0.512  1.00  0.00     0.037 C 
ENDBRANCH   1  14
TORSDOF 6
