REMARK  8 active torsions:
REMARK  status: ('A' for Active; 'I' for Inactive)
REMARK    1  A    between atoms: C2_2  and  C3_3 
REMARK    2  A    between atoms: C3_3  and  C4_4 
REMARK    3  A    between atoms: C4_4  and  C5_5 
REMARK    4  A    between atoms: C5_5  and  C6_6 
REMARK    5  A    between atoms: C7_8  and  C8_9 
REMARK    6  A    between atoms: C8_9  and  O2_11 
REMARK    7  A    between atoms: C10_13  and  O3_14 
REMARK    8  A    between atoms: C11_16  and  O4_17 
ROOT
HETATM    1  C6  UNL     1       0.317  -1.137   0.808  1.00  0.00     0.153 C 
HETATM    2  O1  UNL     1       0.527   0.094   0.209  1.00  0.00    -0.373 OA
HETATM    3  C7  UNL     1       1.754   0.453   0.764  1.00  0.00     0.181 C 
HETATM    4  C10 UNL     1       2.607  -0.703   0.378  1.00  0.00     0.180 C 
HETATM    5  C11 UNL     1       1.681  -1.842   0.782  1.00  0.00     0.178 C 
ENDROOT
BRANCH   1   6
HETATM    6  C5  UNL     1      -0.758  -1.974   0.234  1.00  0.00     0.035 C 
BRANCH   6   7
HETATM    7  C4  UNL     1      -2.120  -1.357   0.289  1.00  0.00     0.002 C 
BRANCH   7   8
HETATM    8  C3  UNL     1      -2.290  -0.062  -0.432  1.00  0.00    -0.000 C 
BRANCH   8   9
HETATM    9  C2  UNL     1      -3.774   0.325  -0.248  1.00  0.00    -0.005 C 
HETATM   10  C1  UNL     1      -3.992   1.636  -0.966  1.00  0.00     0.005 C 
ENDBRANCH   8   9
ENDBRANCH   7   8
ENDBRANCH   6   7
ENDBRANCH   1   6
BRANCH   5  11
HETATM   11  O4  UNL     1       1.686  -2.863  -0.161  1.00  0.00    -0.390 OA
ATOM     12  H4  UNL     1       2.530  -3.299  -0.177  1.00  0.00     0.210 HD
ENDBRANCH   5  11
BRANCH   3  13
HETATM   13  C8  UNL     1       2.224   1.797   0.416  1.00  0.00     0.145 C 
HETATM   14  C9  UNL     1       2.372   2.123  -1.021  1.00  0.00     0.042 C 
BRANCH  13  15
HETATM   15  O2  UNL     1       3.459   2.011   1.042  1.00  0.00    -0.393 OA
ATOM     16  H2  UNL     1       3.764   2.882   0.816  1.00  0.00     0.210 HD
ENDBRANCH  13  15
ENDBRANCH   3  13
BRANCH   4  17
HETATM   17  O3  UNL     1       2.779  -0.824  -1.001  1.00  0.00    -0.390 OA
ATOM     18  H3  UNL     1       3.324  -1.562  -1.248  1.00  0.00     0.210 HD
ENDBRANCH   4  17
TORSDOF 8
