REMARK  8 active torsions:
REMARK  status: ('A' for Active; 'I' for Inactive)
REMARK    1  A    between atoms: C2_2  and  C3_3 
REMARK    2  A    between atoms: C3_3  and  C4_4 
REMARK    3  A    between atoms: C4_4  and  S1_5 
REMARK    4  A    between atoms: S1_5  and  C5_6 
REMARK    5  A    between atoms: C5_6  and  C6_7 
REMARK    6  A    between atoms: C7_8  and  O1_9 
REMARK    7  A    between atoms: C8_11  and  O2_12 
REMARK    8  A    between atoms: N1_15  and  O3_16 
ROOT
HETATM    1  C6  UNL     1       1.315  -0.073   0.083  1.00  0.00     0.126 C 
HETATM    2  C7  UNL     1       2.356  -1.138   0.230  1.00  0.00     0.168 C 
HETATM    3  C8  UNL     1       3.654  -0.324   0.111  1.00  0.00     0.163 C 
HETATM    4  C9  UNL     1       3.221   0.672  -0.946  1.00  0.00     0.155 C 
HETATM    5  N1  UNL     1       1.950   1.106  -0.453  1.00  0.00    -0.189 NA
ENDROOT
BRANCH   1   6
HETATM    6  C5  UNL     1       0.211  -0.534  -0.856  1.00  0.00     0.098 C 
BRANCH   6   7
HETATM    7  S1  UNL     1      -1.070   0.701  -1.072  1.00  0.00    -0.167 SA
BRANCH   7   8
HETATM    8  C4  UNL     1      -1.998   1.008   0.443  1.00  0.00     0.074 C 
BRANCH   8   9
HETATM    9  C3  UNL     1      -2.764  -0.254   0.780  1.00  0.00     0.010 C 
BRANCH   9  10
HETATM   10  C2  UNL     1      -3.699  -0.578  -0.361  1.00  0.00    -0.004 C 
HETATM   11  C1  UNL     1      -4.657   0.570  -0.556  1.00  0.00     0.005 C 
ENDBRANCH   9  10
ENDBRANCH   8   9
ENDBRANCH   7   8
ENDBRANCH   6   7
ENDBRANCH   1   6
BRANCH   2  12
HETATM   12  O1  UNL     1       2.292  -1.855   1.394  1.00  0.00    -0.391 OA
ATOM     13  H1  UNL     1       2.953  -2.531   1.487  1.00  0.00     0.210 HD
ENDBRANCH   2  12
BRANCH   5  14
HETATM   14  O3  UNL     1       2.101   2.076   0.490  1.00  0.00    -0.313 OA
ATOM     15  H3  UNL     1       2.519   2.853   0.137  1.00  0.00     0.237 HD
ENDBRANCH   5  14
BRANCH   3  16
HETATM   16  O2  UNL     1       3.972   0.276   1.312  1.00  0.00    -0.392 OA
ATOM     17  H2  UNL     1       4.774   0.779   1.238  1.00  0.00     0.210 HD
ENDBRANCH   3  16
TORSDOF 8
