REMARK  10 active torsions:
REMARK  status: ('A' for Active; 'I' for Inactive)
REMARK    1  A    between atoms: C17_19  and  O3_20 
REMARK    2  A    between atoms: C19_23  and  O4_24 
REMARK    3  A    between atoms: C19_23  and  C20_26 
REMARK    4  A    between atoms: C21_30  and  O5_31 
REMARK    5  A    between atoms: O5_31  and  C22_32 
REMARK    6  A    between atoms: C22_32  and  C23_34 
REMARK    7  A    between atoms: C23_34  and  C24_35 
REMARK    8  A    between atoms: C24_35  and  C25_36 
REMARK    9  A    between atoms: C25_36  and  C26_37 
REMARK   10  A    between atoms: C26_37  and  O7_38 
ROOT
HETATM    1  C1  UNL     1      -5.492  -1.226  -3.463  1.00  0.00     0.046 C 
HETATM    2  C2  UNL     1      -5.611  -0.864  -2.203  1.00  0.00     0.038 C 
HETATM    3  C3  UNL     1      -7.006  -0.988  -1.724  1.00  0.00     0.073 C 
HETATM    4  C4  UNL     1      -7.047  -1.655  -0.342  1.00  0.00     0.117 C 
HETATM    5  C5  UNL     1      -6.851  -0.640   0.728  1.00  0.00     0.259 C 
HETATM    6  O1  UNL     1      -7.667  -0.764   1.704  1.00  0.00    -0.265 OA
HETATM    7  O2  UNL     1      -5.987   0.411   0.915  1.00  0.00    -0.313 OA
HETATM    8  C6  UNL     1      -4.857   0.985   0.237  1.00  0.00     0.161 C 
HETATM    9  C7  UNL     1      -4.077   1.701   1.330  1.00  0.00     0.036 C 
HETATM   10  C8  UNL     1      -3.241   0.637   2.031  1.00  0.00     0.012 C 
HETATM   11  C9  UNL     1      -2.121   0.122   1.238  1.00  0.00    -0.031 C 
HETATM   12  C10 UNL     1      -1.968  -1.370   1.600  1.00  0.00     0.016 C 
HETATM   13  C11 UNL     1      -2.584   0.147  -0.228  1.00  0.00     0.026 C 
HETATM   14  C12 UNL     1      -1.719  -0.714  -1.082  1.00  0.00     0.009 C 
HETATM   15  C13 UNL     1      -0.294  -0.792  -0.642  1.00  0.00     0.013 C 
HETATM   16  C14 UNL     1       0.063   0.512   0.086  1.00  0.00    -0.007 C 
HETATM   17  C15 UNL     1       0.084   1.535  -0.987  1.00  0.00     0.018 C 
HETATM   18  C16 UNL     1      -0.791   0.751   1.294  1.00  0.00     0.034 C 
HETATM   19  C17 UNL     1      -0.670   2.193   1.657  1.00  0.00     0.127 C 
HETATM   20  C18 UNL     1       0.783   2.548   1.831  1.00  0.00     0.082 C 
HETATM   21  C19 UNL     1       1.779   1.470   1.642  1.00  0.00     0.185 C 
HETATM   22  C21 UNL     1       1.505   0.430   0.615  1.00  0.00     0.184 C 
HETATM   23  C28 UNL     1      -4.056  -0.232  -0.256  1.00  0.00     0.163 C 
HETATM   24  O8  UNL     1      -4.429  -0.456  -1.616  1.00  0.00    -0.348 OA
ENDROOT
BRANCH  22  25
HETATM   25  O5  UNL     1       2.448   0.321  -0.409  1.00  0.00    -0.312 OA
BRANCH  25  26
HETATM   26  C22 UNL     1       3.248  -0.815  -0.606  1.00  0.00     0.259 C 
HETATM   27  O6  UNL     1       3.086  -1.763   0.201  1.00  0.00    -0.265 OA
BRANCH  26  28
HETATM   28  C23 UNL     1       4.242  -0.951  -1.676  1.00  0.00     0.111 C 
BRANCH  28  29
HETATM   29  C24 UNL     1       5.597  -1.289  -1.057  1.00  0.00     0.012 C 
BRANCH  29  30
HETATM   30  C25 UNL     1       6.649  -1.444  -2.129  1.00  0.00     0.027 C 
BRANCH  30  31
HETATM   31  C26 UNL     1       7.998  -1.749  -1.485  1.00  0.00     0.167 C 
BRANCH  31  32
HETATM   32  O7  UNL     1       8.363  -0.689  -0.630  1.00  0.00    -0.396 OA
HETATM   33  C27 UNL     1       9.597  -0.962  -0.047  1.00  0.00     0.201 C 
ENDBRANCH  31  32
ENDBRANCH  30  31
ENDBRANCH  29  30
ENDBRANCH  28  29
ENDBRANCH  26  28
ENDBRANCH  25  26
ENDBRANCH  22  25
BRANCH  21  34
HETATM   34  O4  UNL     1       2.070   0.886   2.902  1.00  0.00    -0.378 OA
ATOM     35  H4  UNL     1       2.709   0.194   2.781  1.00  0.00     0.211 HD
ENDBRANCH  21  34
BRANCH  21  36
HETATM   36  C20 UNL     1       3.100   2.179   1.287  1.00  0.00     0.420 C 
HETATM   37  F1  UNL     1       3.004   2.917   0.153  1.00  0.00    -0.168 F 
HETATM   38  F2  UNL     1       4.178   1.361   1.391  1.00  0.00    -0.168 F 
HETATM   39  F3  UNL     1       3.243   3.120   2.328  1.00  0.00    -0.168 F 
ENDBRANCH  21  36
BRANCH  19  40
HETATM   40  O3  UNL     1      -1.298   2.538   2.858  1.00  0.00    -0.395 OA
ATOM     41  H3  UNL     1      -1.221   3.456   3.089  1.00  0.00     0.210 HD
ENDBRANCH  19  40
TORSDOF 10
