REMARK  9 active torsions:
REMARK  status: ('A' for Active; 'I' for Inactive)
REMARK    1  A    between atoms: O1_2  and  C2_3 
REMARK    2  A    between atoms: C2_3  and  C3_4 
REMARK    3  A    between atoms: C5_8  and  C6_9 
REMARK    4  A    between atoms: C7_11  and  C8_12 
REMARK    5  A    between atoms: C10_15  and  C11_17 
REMARK    6  A    between atoms: C16_25  and  O7_26 
REMARK    7  A    between atoms: O7_26  and  C17_27 
REMARK    8  A    between atoms: C17_27  and  C18_29 
REMARK    9  A    between atoms: C18_29  and  O9_32 
ROOT
HETATM    1  C3  UNL     1       1.602   3.024   1.041  1.00  0.00     0.164 C 
HETATM    2  O2  UNL     1       1.702   2.294   2.249  1.00  0.00    -0.310 OA
HETATM    3  C4  UNL     1       2.056   1.013   1.864  1.00  0.00     0.303 C 
HETATM    4  O3  UNL     1       2.694   0.201   2.559  1.00  0.00    -0.261 OA
HETATM    5  C5  UNL     1       1.561   0.747   0.494  1.00  0.00     0.227 C 
HETATM    6  O5  UNL     1       0.523  -0.175   0.439  1.00  0.00    -0.212 OA
HETATM    7  O6  UNL     1      -0.051  -0.145  -0.718  1.00  0.00    -0.228 OA
HETATM    8  C13 UNL     1      -0.870   0.974  -0.931  1.00  0.00     0.099 C 
HETATM    9  C14 UNL     1      -0.507   1.521  -2.296  1.00  0.00     0.050 C 
HETATM   10  C15 UNL     1      -2.315   0.614  -0.957  1.00  0.00     0.074 C 
HETATM   11  C16 UNL     1      -2.611  -0.021   0.409  1.00  0.00     0.135 C 
HETATM   12  C21 UNL     1      -2.531   1.104   1.394  1.00  0.00     0.033 C 
HETATM   13  C22 UNL     1      -1.173   1.735   1.450  1.00  0.00     0.011 C 
HETATM   14  C23 UNL     1      -0.530   2.006   0.156  1.00  0.00     0.033 C 
HETATM   15  C24 UNL     1       0.955   2.087   0.122  1.00  0.00     0.078 C 
ENDROOT
BRANCH   5  16
HETATM   16  C6  UNL     1       2.665   0.321  -0.375  1.00  0.00     0.057 C 
HETATM   17 CL1  UNL     1       3.988   1.413  -0.808  1.00  0.00    -0.085 Cl
HETATM   18  C7  UNL     1       2.676  -0.923  -0.834  1.00  0.00     0.011 C 
BRANCH  18  19
HETATM   19  C8  UNL     1       3.744  -1.463  -1.721  1.00  0.00     0.114 A 
HETATM   20  C9  UNL     1       5.155  -1.291  -1.385  1.00  0.00     0.163 A 
HETATM   21  O4  UNL     1       6.228  -0.710  -1.259  1.00  0.00    -0.295 OA
HETATM   22  C10 UNL     1       4.493  -2.627  -1.183  1.00  0.00     0.128 A 
HETATM   23 CL2  UNL     1       4.282  -3.164   0.483  1.00  0.00    -0.108 Cl
BRANCH  22  24
HETATM   24  C11 UNL     1       5.030  -3.684  -2.130  1.00  0.00     0.110 C 
HETATM   25  C12 UNL     1       5.748  -4.750  -1.328  1.00  0.00     0.029 C 
HETATM   26 CL3  UNL     1       3.603  -4.462  -2.885  1.00  0.00    -0.123 Cl
ENDBRANCH  22  24
ENDBRANCH  18  19
ENDBRANCH   5  16
BRANCH   1  27
HETATM   27  C2  UNL     1       1.075   4.395   1.161  1.00  0.00     0.200 C 
BRANCH  27  28
HETATM   28  O1  UNL     1       1.943   5.111   2.019  1.00  0.00    -0.393 OA
HETATM   29  C1  UNL     1       1.420   6.407   2.116  1.00  0.00     0.201 C 
ENDBRANCH  27  28
ENDBRANCH   1  27
BRANCH  11  30
HETATM   30  O7  UNL     1      -3.886  -0.572   0.346  1.00  0.00    -0.314 OA
BRANCH  30  31
HETATM   31  C17 UNL     1      -4.045  -1.938   0.526  1.00  0.00     0.293 C 
HETATM   32  O8  UNL     1      -3.065  -2.697   0.746  1.00  0.00    -0.262 OA
BRANCH  31  33
HETATM   33  C18 UNL     1      -5.385  -2.579   0.468  1.00  0.00     0.138 C 
HETATM   34  C19 UNL     1      -5.600  -3.284   1.795  1.00  0.00     0.056 C 
HETATM   35  C20 UNL     1      -5.340  -3.648  -0.610  1.00  0.00     0.056 C 
BRANCH  33  36
HETATM   36  O9  UNL     1      -6.390  -1.647   0.219  1.00  0.00    -0.380 OA
ATOM     37  H9  UNL     1      -7.246  -2.057   0.182  1.00  0.00     0.211 HD
ENDBRANCH  33  36
ENDBRANCH  31  33
ENDBRANCH  30  31
ENDBRANCH  11  30
TORSDOF 9
