REMARK  9 active torsions:
REMARK  status: ('A' for Active; 'I' for Inactive)
REMARK    1  A    between atoms: O1_2  and  C2_3 
REMARK    2  A    between atoms: C2_3  and  C3_4 
REMARK    3  A    between atoms: C3_4  and  C4_5 
REMARK    4  A    between atoms: C3_4  and  N2_18 
REMARK       I    between atoms: N1_8  and  C7_9 
REMARK    5  A    between atoms: C7_9  and  O3_11 
REMARK    6  A    between atoms: O3_11  and  C8_12 
REMARK    7  A    between atoms: C15_24  and  C16_25 
REMARK    8  A    between atoms: N5_28  and  C19_29 
REMARK    9  A    between atoms: C24_39  and  C25_40 
ROOT
HETATM    1  N2  UNL     1       0.380  -0.267   0.986  1.00  0.00    -0.272 N 
HETATM    2  N3  UNL     1       0.998  -1.313   1.513  1.00  0.00    -0.292 N 
ATOM      3  H3  UNL     1       1.986  -1.339   1.766  1.00  0.00     0.188 HD
HETATM    4  C14 UNL     1       0.141  -2.332   1.667  1.00  0.00     0.199 A 
HETATM    5  N4  UNL     1      -1.042  -1.912   1.225  1.00  0.00    -0.340 N 
ATOM      6  H4  UNL     1      -1.904  -2.458   1.208  1.00  0.00     0.168 HD
HETATM    7  C15 UNL     1      -0.900  -0.622   0.798  1.00  0.00     0.104 A 
ENDROOT
BRANCH   7   8
HETATM    8  C16 UNL     1      -2.038   0.143   0.245  1.00  0.00     0.058 C 
HETATM    9  C17 UNL     1      -3.150   0.146   1.291  1.00  0.00     0.032 C 
HETATM   10  C18 UNL     1      -4.419   0.704   0.620  1.00  0.00     0.123 C 
HETATM   11  N5  UNL     1      -4.937  -0.426  -0.173  1.00  0.00    -0.380 N 
HETATM   12  C26 UNL     1      -3.865  -1.284  -0.697  1.00  0.00     0.123 C 
HETATM   13  C27 UNL     1      -2.616  -0.522  -0.997  1.00  0.00     0.032 C 
BRANCH  11  14
HETATM   14  C19 UNL     1      -6.298  -0.688  -0.367  1.00  0.00     0.056 A 
HETATM   15  C20 UNL     1      -6.928  -1.563   0.539  1.00  0.00    -0.019 A 
HETATM   16  C21 UNL     1      -6.162  -2.169   1.635  1.00  0.00     0.052 C 
HETATM   17  C22 UNL     1      -8.278  -1.874   0.423  1.00  0.00     0.098 A 
HETATM   18  N6  UNL     1      -8.979  -1.330  -0.565  1.00  0.00    -0.351 N 
HETATM   19  C23 UNL     1      -8.393  -0.501  -1.427  1.00  0.00     0.116 A 
ATOM     20  H6  UNL     1      -9.970  -1.548  -0.664  1.00  0.00     0.166 HD
HETATM   21  N7  UNL     1      -9.128  -0.002  -2.368  1.00  0.00    -0.385 N 
HETATM   22  C24 UNL     1      -7.037  -0.152  -1.359  1.00  0.00     0.118 A 
ATOM     23  H72 UNL     1     -10.115  -0.256  -2.417  1.00  0.00     0.157 HD
ATOM     24  H71 UNL     1      -8.679   0.633  -3.028  1.00  0.00     0.157 HD
BRANCH  22  25
HETATM   25  C25 UNL     1      -6.499   0.792  -2.346  1.00  0.00     0.423 C 
HETATM   26  F1  UNL     1      -5.461   0.313  -3.109  1.00  0.00    -0.166 F 
HETATM   27  F2  UNL     1      -6.231   2.048  -1.798  1.00  0.00    -0.166 F 
HETATM   28  F3  UNL     1      -7.517   1.064  -3.297  1.00  0.00    -0.166 F 
ENDBRANCH  22  25
ENDBRANCH  11  14
ENDBRANCH   7   8
BRANCH   1  29
HETATM   29  C3  UNL     1       0.932   1.019   0.663  1.00  0.00     0.137 C 
BRANCH  29  30
HETATM   30  C2  UNL     1       1.223   1.843   1.897  1.00  0.00     0.194 C 
BRANCH  30  31
HETATM   31  O1  UNL     1       0.072   2.028   2.670  1.00  0.00    -0.394 OA
HETATM   32  C1  UNL     1       0.441   2.791   3.773  1.00  0.00     0.201 C 
ENDBRANCH  30  31
ENDBRANCH  29  30
BRANCH  29  33
HETATM   33  C4  UNL     1       2.193   0.855  -0.110  1.00  0.00     0.016 C 
HETATM   34  C5  UNL     1       2.838   2.103  -0.594  1.00  0.00     0.027 C 
HETATM   35  C6  UNL     1       4.343   1.812  -0.694  1.00  0.00     0.128 C 
HETATM   36  N1  UNL     1       4.445   0.511  -1.353  1.00  0.00    -0.328 N 
HETATM   37  C7  UNL     1       5.689  -0.169  -1.241  1.00  0.00     0.363 C 
HETATM   38  C12 UNL     1       3.343  -0.061  -2.081  1.00  0.00     0.128 C 
HETATM   39  O2  UNL     1       5.846  -1.304  -1.790  1.00  0.00    -0.238 OA
HETATM   40  C13 UNL     1       2.056  -0.084  -1.286  1.00  0.00     0.027 C 
BRANCH  37  41
HETATM   41  O3  UNL     1       6.767   0.342  -0.554  1.00  0.00    -0.294 OA
BRANCH  41  42
HETATM   42  C8  UNL     1       8.011  -0.306  -0.425  1.00  0.00     0.061 C 
HETATM   43  C9  UNL     1       7.916  -1.644   0.253  1.00  0.00     0.046 C 
HETATM   44  C10 UNL     1       8.692  -0.516  -1.760  1.00  0.00     0.046 C 
HETATM   45  C11 UNL     1       8.911   0.582   0.407  1.00  0.00     0.046 C 
ENDBRANCH  41  42
ENDBRANCH  37  41
ENDBRANCH  29  33
ENDBRANCH   1  29
TORSDOF 9
