REMARK  9 active torsions:
REMARK  status: ('A' for Active; 'I' for Inactive)
REMARK    1  A    between atoms: C5_8  and  C6_9 
REMARK    2  A    between atoms: N3_13  and  C8_14 
REMARK    3  A    between atoms: C8_14  and  C9_15 
REMARK    4  A    between atoms: N5_21  and  C14_22 
REMARK    5  A    between atoms: C18_28  and  C19_29 
REMARK    6  A    between atoms: C19_29  and  O2_30 
REMARK    7  A    between atoms: C19_29  and  N7_32 
REMARK    8  A    between atoms: C22_35  and  N8_36 
REMARK    9  A    between atoms: C26_43  and  C27_44 
ROOT
HETATM    1  C9  UNL     1       1.942  -0.118  -3.334  1.00  0.00     0.162 C 
HETATM    2  C10 UNL     1       3.074  -0.857  -3.970  1.00  0.00     0.062 C 
HETATM    3  N4  UNL     1       3.955  -1.432  -4.489  1.00  0.00    -0.197 NA
ENDROOT
BRANCH   1   4
HETATM    4  C8  UNL     1       1.717  -0.629  -1.938  1.00  0.00     0.098 C 
HETATM    5  C11 UNL     1       1.664  -2.189  -2.182  1.00  0.00     0.045 C 
HETATM    6  C12 UNL     1       0.486  -2.545  -3.004  1.00  0.00     0.048 C 
HETATM    7  C13 UNL     1      -0.826  -2.285  -2.306  1.00  0.00     0.069 C 
HETATM    8  N5  UNL     1      -0.551  -1.418  -1.235  1.00  0.00    -0.344 N 
HETATM    9  C25 UNL     1       0.386  -0.389  -1.329  1.00  0.00     0.102 C 
BRANCH   4  10
HETATM   10  N3  UNL     1       2.862  -0.464  -1.067  1.00  0.00    -0.271 N 
HETATM   11  N2  UNL     1       3.824  -1.402  -0.892  1.00  0.00    -0.307 N 
HETATM   12  C7  UNL     1       4.753  -1.042  -0.063  1.00  0.00     0.122 A 
ATOM     13  H2  UNL     1       3.818  -2.305  -1.367  1.00  0.00     0.186 HD
HETATM   14  C6  UNL     1       4.385   0.251   0.357  1.00  0.00     0.029 A 
HETATM   15  C26 UNL     1       3.200   0.601  -0.278  1.00  0.00     0.148 A 
BRANCH  14  16
HETATM   16  C5  UNL     1       5.201   1.044   1.274  1.00  0.00     0.033 A 
HETATM   17  C2  UNL     1       6.267   1.872   0.974  1.00  0.00     0.042 A 
HETATM   18  C1  UNL     1       6.830   2.080  -0.383  1.00  0.00     0.071 C 
HETATM   19  N1  UNL     1       6.733   2.413   2.114  1.00  0.00    -0.265 N 
HETATM   20  O1  UNL     1       6.016   1.962   3.095  1.00  0.00    -0.242 OA
ATOM     21  H1  UNL     1       7.514   3.064   2.193  1.00  0.00     0.194 HD
HETATM   22  C3  UNL     1       5.077   1.128   2.637  1.00  0.00     0.085 A 
HETATM   23  C4  UNL     1       4.110   0.447   3.515  1.00  0.00     0.079 C 
ENDBRANCH  14  16
BRANCH  15  24
HETATM   24  C27 UNL     1       2.472   1.828  -0.078  1.00  0.00     0.435 C 
HETATM   25  F1  UNL     1       1.930   2.020   1.211  1.00  0.00    -0.165 F 
HETATM   26  F2  UNL     1       3.466   2.869   0.028  1.00  0.00    -0.165 F 
HETATM   27  F3  UNL     1       1.720   2.384  -1.040  1.00  0.00    -0.165 F 
ENDBRANCH  15  24
ENDBRANCH   4  10
BRANCH   8  28
HETATM   28  C14 UNL     1      -1.206  -1.747  -0.051  1.00  0.00     0.011 C 
HETATM   29  C15 UNL     1      -0.720  -1.302   1.257  1.00  0.00     0.098 C 
HETATM   30  C16 UNL     1      -1.389  -2.183   2.305  1.00  0.00     0.061 C 
HETATM   31  N6  UNL     1      -2.528  -2.872   1.853  1.00  0.00    -0.401 N 
HETATM   32  C17 UNL     1      -3.380  -2.302   0.875  1.00  0.00     0.137 C 
ATOM     33  H6  UNL     1      -2.744  -3.793   2.234  1.00  0.00     0.158 HD
HETATM   34  C18 UNL     1      -2.711  -1.561  -0.246  1.00  0.00     0.124 C 
BRANCH  34  35
HETATM   35  C19 UNL     1      -3.164  -0.253  -0.602  1.00  0.00     0.124 C 
BRANCH  35  36
HETATM   36  O2  UNL     1      -3.237   0.072  -1.891  1.00  0.00    -0.349 OA
ATOM     37  H2  UNL     1      -3.538   0.941  -2.128  1.00  0.00     0.219 HD
ENDBRANCH  35  36
BRANCH  35  38
HETATM   38  N7  UNL     1      -3.557   0.803   0.194  1.00  0.00    -0.365 N 
HETATM   39  C20 UNL     1      -3.926   2.122  -0.454  1.00  0.00     0.126 C 
HETATM   40  C21 UNL     1      -5.384   2.342  -0.262  1.00  0.00     0.052 C 
HETATM   41  C22 UNL     1      -5.857   2.139   1.136  1.00  0.00     0.186 C 
HETATM   42  C23 UNL     1      -5.195   1.059   1.907  1.00  0.00     0.052 C 
HETATM   43  C24 UNL     1      -3.712   0.871   1.609  1.00  0.00     0.126 C 
BRANCH  41  44
HETATM   44  N8  UNL     1      -5.866   3.352   1.937  1.00  0.00    -0.075 N 
ATOM     45  H83 UNL     1      -4.946   3.793   1.930  1.00  0.00     0.274 HD
ATOM     46  H82 UNL     1      -6.410   4.082   1.477  1.00  0.00     0.274 HD
ATOM     47  H81 UNL     1      -6.190   3.213   2.894  1.00  0.00     0.274 HD
ENDBRANCH  41  44
ENDBRANCH  35  38
ENDBRANCH  34  35
ENDBRANCH   8  28
ENDBRANCH   1   4
TORSDOF 9
