REMARK  8 active torsions:
REMARK  status: ('A' for Active; 'I' for Inactive)
REMARK    1  A    between atoms: O1_2  and  C2_3 
REMARK    2  A    between atoms: C4_5  and  O2_6 
REMARK    3  A    between atoms: C6_10  and  O3_11 
REMARK    4  A    between atoms: O3_11  and  C7_12 
REMARK    5  A    between atoms: C8_13  and  O4_14 
REMARK    6  A    between atoms: C9_16  and  O5_17 
REMARK    7  A    between atoms: C24_35  and  N3_36 
REMARK    8  A    between atoms: N3_36  and  C26_38 
ROOT
HETATM    1  C7  UNL     1       2.259  -0.564  -0.288  1.00  0.00     0.206 C 
HETATM    2  C8  UNL     1       1.687  -1.909  -0.409  1.00  0.00     0.182 C 
HETATM    3  C9  UNL     1       0.227  -2.019  -0.435  1.00  0.00     0.172 C 
HETATM    4  C10 UNL     1      -0.624  -0.892  -0.012  1.00  0.00     0.120 C 
HETATM    5  C11 UNL     1      -1.727  -0.761  -1.038  1.00  0.00     0.028 C 
HETATM    6  C12 UNL     1      -2.858  -1.716  -0.892  1.00  0.00     0.002 C 
HETATM    7  C13 UNL     1      -3.241  -2.126   0.475  1.00  0.00     0.000 C 
HETATM    8  C14 UNL     1      -4.659  -2.635   0.588  1.00  0.00     0.000 C 
HETATM    9  C15 UNL     1      -5.697  -1.665   0.115  1.00  0.00     0.000 C 
HETATM   10  C16 UNL     1      -5.730  -0.360   0.860  1.00  0.00     0.000 C 
HETATM   11  C17 UNL     1      -6.071   0.739  -0.122  1.00  0.00     0.000 C 
HETATM   12  C18 UNL     1      -5.322   2.007   0.305  1.00  0.00     0.000 C 
HETATM   13  C19 UNL     1      -4.438   2.377  -0.836  1.00  0.00     0.000 C 
HETATM   14  C20 UNL     1      -3.260   3.219  -0.532  1.00  0.00     0.000 C 
HETATM   15  C21 UNL     1      -2.616   3.067   0.784  1.00  0.00     0.009 C 
HETATM   16  C22 UNL     1      -1.961   1.763   1.094  1.00  0.00     0.103 C 
HETATM   17  C23 UNL     1      -0.697   1.549   0.371  1.00  0.00     0.222 C 
HETATM   18  O6  UNL     1      -0.246   2.593  -0.246  1.00  0.00    -0.273 OA
HETATM   19  N2  UNL     1       0.046   0.351   0.290  1.00  0.00    -0.321 N 
HETATM   20  C24 UNL     1       1.485   0.418   0.514  1.00  0.00     0.224 C 
ENDROOT
BRANCH   1  21
HETATM   21  O3  UNL     1       3.525  -0.711   0.380  1.00  0.00    -0.310 OA
BRANCH  21  22
HETATM   22  C6  UNL     1       4.730  -0.369  -0.192  1.00  0.00     0.228 A 
HETATM   23  N1  UNL     1       4.840   0.136  -1.438  1.00  0.00    -0.302 N 
HETATM   24  C4  UNL     1       6.033   0.467  -1.980  1.00  0.00     0.148 A 
ATOM     25  H1  UNL     1       3.993   0.273  -1.990  1.00  0.00     0.171 HD
HETATM   26  C3  UNL     1       7.175   0.288  -1.245  1.00  0.00     0.112 A 
HETATM   27  C2  UNL     1       7.084  -0.226   0.027  1.00  0.00     0.148 A 
HETATM   28  N4  UNL     1       5.864  -0.534   0.506  1.00  0.00    -0.302 N 
ATOM     29  H4  UNL     1       5.798  -0.913   1.451  1.00  0.00     0.171 HD
BRANCH  24  30
HETATM   30  O2  UNL     1       6.154   0.989  -3.265  1.00  0.00    -0.341 OA
HETATM   31  C5  UNL     1       4.960   1.162  -4.003  1.00  0.00     0.211 C 
ENDBRANCH  24  30
BRANCH  27  32
HETATM   32  O1  UNL     1       8.240  -0.409   0.776  1.00  0.00    -0.341 OA
HETATM   33  C1  UNL     1       8.092  -0.941   2.079  1.00  0.00     0.211 C 
ENDBRANCH  27  32
ENDBRANCH  21  22
ENDBRANCH   1  21
BRANCH   2  34
HETATM   34  O4  UNL     1       2.298  -2.850   0.454  1.00  0.00    -0.390 OA
ATOM     35  H4  UNL     1       1.927  -3.721   0.376  1.00  0.00     0.210 HD
ENDBRANCH   2  34
BRANCH  20  36
HETATM   36  N3  UNL     1       1.916   0.461   1.844  1.00  0.00    -0.304 N 
HETATM   37  C25 UNL     1       1.805  -0.639   2.701  1.00  0.00     0.154 C 
BRANCH  36  38
HETATM   38  C26 UNL     1       2.336   1.683   2.416  1.00  0.00     0.483 C 
HETATM   39  F1  UNL     1       2.872   1.371   3.686  1.00  0.00    -0.150 F 
HETATM   40  F2  UNL     1       1.237   2.496   2.755  1.00  0.00    -0.150 F 
HETATM   41  F3  UNL     1       3.290   2.386   1.755  1.00  0.00    -0.150 F 
ENDBRANCH  36  38
ENDBRANCH  20  36
BRANCH   3  42
HETATM   42  O5  UNL     1      -0.161  -2.537  -1.705  1.00  0.00    -0.391 OA
ATOM     43  H5  UNL     1      -1.108  -2.608  -1.722  1.00  0.00     0.210 HD
ENDBRANCH   3  42
TORSDOF 8
