REMARK  4 active torsions:
REMARK  status: ('A' for Active; 'I' for Inactive)
REMARK    1  A    between atoms: C2_2  and  C3_3 
REMARK    2  A    between atoms: C6_6  and  N1_7 
REMARK       I    between atoms: N1_7  and  C7_9 
REMARK    3  A    between atoms: C7_9  and  O2_11 
REMARK    4  A    between atoms: O2_11  and  N2_12 
ROOT
HETATM    1  N2  UNL     1      -0.181   0.317   1.402  1.00  0.00    -0.258 N 
ATOM      2  H2  UNL     1       0.164   1.086   1.976  1.00  0.00     0.194 HD
HETATM    3  C8  UNL     1      -1.439   0.217   1.429  1.00  0.00     0.063 C 
HETATM    4  C9  UNL     1      -2.253   1.170   2.244  1.00  0.00     0.058 C 
HETATM    5 CL1  UNL     1      -1.537   1.693   3.747  1.00  0.00    -0.082 Cl
HETATM    6  C10 UNL     1      -3.439   1.581   1.816  1.00  0.00     0.031 C 
HETATM    7  C11 UNL     1      -3.812   0.997   0.496  1.00  0.00     0.160 C 
HETATM    8  O3  UNL     1      -5.167   1.056   0.219  1.00  0.00    -0.363 OA
HETATM    9  C12 UNL     1      -5.378   0.047  -0.742  1.00  0.00     0.115 C 
HETATM   10  C13 UNL     1      -6.779  -0.458  -0.623  1.00  0.00     0.054 C 
HETATM   11  C14 UNL     1      -5.078   0.532  -2.131  1.00  0.00     0.054 C 
HETATM   12  C15 UNL     1      -4.459  -1.065  -0.329  1.00  0.00     0.168 C 
HETATM   13  O4  UNL     1      -4.574  -2.165  -0.848  1.00  0.00    -0.294 OA
HETATM   14  C16 UNL     1      -3.594  -0.493   0.672  1.00  0.00     0.105 C 
HETATM   15  C17 UNL     1      -2.135  -0.847   0.654  1.00  0.00     0.012 C 
HETATM   16  C18 UNL     1      -1.568  -1.118  -0.687  1.00  0.00     0.022 C 
HETATM   17  C19 UNL     1      -2.008  -2.137   1.479  1.00  0.00     0.022 C 
ENDROOT
BRANCH   1  18
HETATM   18  O2  UNL     1       0.793  -0.345   0.801  1.00  0.00    -0.181 OA
BRANCH  18  19
HETATM   19  C7  UNL     1       2.061   0.297   0.670  1.00  0.00     0.387 C 
HETATM   20  N1  UNL     1       3.125  -0.328   0.056  1.00  0.00    -0.295 N 
ATOM     21  H1  UNL     1       2.972  -1.269  -0.308  1.00  0.00     0.172 HD
HETATM   22  O1  UNL     1       2.158   1.452   1.143  1.00  0.00    -0.236 OA
BRANCH  20  23
HETATM   23  C6  UNL     1       4.420   0.236  -0.110  1.00  0.00     0.078 A 
HETATM   24  C5  UNL     1       4.953   1.438   0.259  1.00  0.00     0.038 A 
HETATM   25  C4  UNL     1       6.231   1.692  -0.051  1.00  0.00     0.017 A 
HETATM   26  C3  UNL     1       6.925   0.724  -0.721  1.00  0.00    -0.016 A 
HETATM   27  S1  UNL     1       5.778  -0.515  -0.902  1.00  0.00    -0.077 SA
BRANCH  26  28
HETATM   28  C2  UNL     1       8.366   0.787  -1.172  1.00  0.00     0.041 C 
HETATM   29  C1  UNL     1       8.700  -0.488  -1.889  1.00  0.00     0.010 C 
ENDBRANCH  26  28
ENDBRANCH  20  23
ENDBRANCH  18  19
ENDBRANCH   1  18
TORSDOF 4
