REMARK  5 active torsions:
REMARK  status: ('A' for Active; 'I' for Inactive)
REMARK    1  A    between atoms: O1_2  and  C2_3 
REMARK    2  A    between atoms: C2_3  and  C3_5 
REMARK    3  A    between atoms: C8_12  and  C9_13 
REMARK    4  A    between atoms: C9_13  and  O5_14 
REMARK    5  A    between atoms: C9_13  and  C10_16 
ROOT
HETATM    1  C3  UNL     1       4.961  -0.919   0.202  1.00  0.00     0.154 A 
HETATM    2  C4  UNL     1       4.531   0.373   0.427  1.00  0.00     0.062 A 
HETATM    3  C5  UNL     1       3.164   0.358   0.234  1.00  0.00     0.055 A 
HETATM    4  C6  UNL     1       2.817  -0.931  -0.097  1.00  0.00     0.204 A 
HETATM    5  O3  UNL     1       3.903  -1.656  -0.106  1.00  0.00    -0.281 OA
HETATM    6  O4  UNL     1       1.501  -1.014  -0.299  1.00  0.00    -0.284 OA
HETATM    7  C7  UNL     1       0.958   0.185  -0.114  1.00  0.00     0.119 A 
HETATM    8  C8  UNL     1      -0.375   0.609  -0.212  1.00  0.00     0.040 A 
HETATM    9  C18 UNL     1      -0.603   1.935   0.042  1.00  0.00     0.091 A 
HETATM   10  C19 UNL     1       0.454   2.796   0.380  1.00  0.00     0.246 A 
HETATM   11  O6  UNL     1       0.158   4.004   0.601  1.00  0.00    -0.268 OA
HETATM   12  N1  UNL     1       1.716   2.349   0.463  1.00  0.00    -0.320 N 
ATOM     13  H1  UNL     1       2.473   2.987   0.710  1.00  0.00     0.169 HD
HETATM   14  C20 UNL     1       1.974   1.053   0.218  1.00  0.00     0.085 A 
ENDROOT
BRANCH   8  15
HETATM   15  C9  UNL     1      -1.391  -0.334  -0.586  1.00  0.00     0.089 C 
BRANCH  15  16
HETATM   16  O5  UNL     1      -0.990  -1.392  -1.229  1.00  0.00    -0.359 OA
ATOM     17  H5  UNL     1      -1.662  -2.016  -1.476  1.00  0.00     0.217 HD
ENDBRANCH  15  16
BRANCH  15  18
HETATM   18  C10 UNL     1      -2.808  -0.273  -0.353  1.00  0.00    -0.001 A 
HETATM   19  C11 UNL     1      -3.373   0.437   0.680  1.00  0.00     0.022 A 
HETATM   20  C12 UNL     1      -4.759   0.459   0.775  1.00  0.00    -0.039 A 
HETATM   21  C13 UNL     1      -5.421   1.231   1.890  1.00  0.00     0.050 C 
HETATM   22  C14 UNL     1      -5.565  -0.203  -0.125  1.00  0.00     0.045 A 
HETATM   23 CL1  UNL     1      -7.336  -0.154   0.006  1.00  0.00    -0.083 Cl
HETATM   24  C15 UNL     1      -5.019  -0.921  -1.163  1.00  0.00    -0.039 A 
HETATM   25  C16 UNL     1      -5.922  -1.627  -2.107  1.00  0.00     0.050 C 
HETATM   26  C17 UNL     1      -3.641  -0.937  -1.251  1.00  0.00     0.022 A 
ENDBRANCH  15  18
ENDBRANCH   8  15
BRANCH   1  27
HETATM   27  C2  UNL     1       6.334  -1.427   0.280  1.00  0.00     0.317 C 
HETATM   28  O2  UNL     1       6.554  -2.659   0.041  1.00  0.00    -0.257 OA
BRANCH  27  29
HETATM   29  O1  UNL     1       7.424  -0.646   0.603  1.00  0.00    -0.321 OA
HETATM   30  C1  UNL     1       8.711  -1.287   0.640  1.00  0.00     0.213 C 
ENDBRANCH  27  29
ENDBRANCH   1  27
TORSDOF 5
