REMARK  6 active torsions:
REMARK  status: ('A' for Active; 'I' for Inactive)
REMARK    1  A    between atoms: C6_6  and  C7_7 
REMARK    2  A    between atoms: C8_12  and  N3_13 
REMARK    3  A    between atoms: N3_13  and  C9_15 
REMARK    4  A    between atoms: C13_20  and  C14_21 
REMARK    5  A    between atoms: C14_21  and  O1_22 
REMARK    6  A    between atoms: O1_22  and  C15_23 
ROOT
HETATM    1  C1  UNL     1      -2.904   6.382   1.251  1.00  0.00     0.056 C 
HETATM    2  C2  UNL     1      -2.704   4.911   0.949  1.00  0.00    -0.018 A 
HETATM    3  C3  UNL     1      -1.519   4.251   0.821  1.00  0.00     0.028 A 
HETATM    4  C4  UNL     1      -1.581   2.925   0.548  1.00  0.00    -0.000 A 
HETATM    5  C5  UNL     1      -0.493   2.042   0.374  1.00  0.00     0.030 A 
HETATM    6  C6  UNL     1      -0.746   0.716   0.099  1.00  0.00     0.025 A 
HETATM    7  C13 UNL     1      -1.995   0.171  -0.021  1.00  0.00     0.047 A 
HETATM    8  N4  UNL     1      -3.023   1.044   0.152  1.00  0.00    -0.351 N 
ATOM      9  H4  UNL     1      -3.980   0.699   0.075  1.00  0.00     0.166 HD
HETATM   10  C18 UNL     1      -2.819   2.369   0.426  1.00  0.00     0.085 A 
HETATM   11  S2  UNL     1      -3.863   3.692   0.691  1.00  0.00    -0.077 SA
ENDROOT
BRANCH   6  12
HETATM   12  C7  UNL     1       0.422  -0.166  -0.074  1.00  0.00     0.104 A 
HETATM   13  N1  UNL     1       0.468  -1.452  -0.339  1.00  0.00    -0.291 N 
HETATM   14  N2  UNL     1       1.581  -2.053  -0.455  1.00  0.00    -0.279 N 
ATOM     15  H1  UNL     1      -0.401  -1.974  -0.453  1.00  0.00     0.187 HD
HETATM   16  C8  UNL     1       2.708  -1.354  -0.304  1.00  0.00     0.162 A 
ATOM     17  H2  UNL     1       1.613  -3.052  -0.660  1.00  0.00     0.189 HD
HETATM   18  S1  UNL     1       2.092   0.214   0.015  1.00  0.00    -0.033 SA
BRANCH  16  19
HETATM   19  N3  UNL     1       3.922  -1.800  -0.388  1.00  0.00    -0.361 N 
ATOM     20  H3  UNL     1       4.093  -2.785  -0.590  1.00  0.00     0.162 HD
BRANCH  19  21
HETATM   21  C9  UNL     1       5.030  -0.897  -0.194  1.00  0.00     0.021 C 
HETATM   22  C10 UNL     1       6.265  -1.575  -0.793  1.00  0.00     0.037 C 
HETATM   23  C11 UNL     1       4.858   0.415  -0.906  1.00  0.00     0.037 C 
HETATM   24  C12 UNL     1       5.341  -0.712   1.287  1.00  0.00     0.037 C 
ENDBRANCH  19  21
ENDBRANCH  16  19
ENDBRANCH   6  12
BRANCH   7  25
HETATM   25  C14 UNL     1      -2.306  -1.229  -0.311  1.00  0.00     0.228 C 
BRANCH  25  26
HETATM   26  O1  UNL     1      -3.695  -1.386  -0.353  1.00  0.00    -0.360 OA
BRANCH  26  27
HETATM   27  C15 UNL     1      -4.052  -2.704  -0.626  1.00  0.00     0.130 C 
HETATM   28  C16 UNL     1      -3.505  -3.647   0.452  1.00  0.00     0.064 C 
HETATM   29  C17 UNL     1      -5.560  -2.773  -0.510  1.00  0.00     0.064 C 
HETATM   30 CL1  UNL     1      -3.553  -3.240  -2.224  1.00  0.00    -0.089 Cl
ENDBRANCH  26  27
ENDBRANCH  25  26
ENDBRANCH   7  25
TORSDOF 6
