REMARK  6 active torsions:
REMARK  status: ('A' for Active; 'I' for Inactive)
REMARK    1  A    between atoms: C2_2  and  O1_5 
REMARK    2  A    between atoms: O1_5  and  C5_6 
REMARK       I    between atoms: C5_6  and  N1_8 
REMARK       I    between atoms: N2_10  and  C6_12 
REMARK    3  A    between atoms: C6_12  and  C7_14 
REMARK    4  A    between atoms: C7_14  and  O4_15 
REMARK    5  A    between atoms: O4_15  and  C8_16 
REMARK    6  A    between atoms: C8_16  and  C9_18 
ROOT
HETATM    1  O4  UNL     1       0.441  -0.992  -1.490  1.00  0.00    -0.308 OA
ENDROOT
BRANCH   1   2
HETATM    2  C7  UNL     1      -0.764  -0.691  -2.121  1.00  0.00     0.283 C 
BRANCH   2   3
HETATM    3  C6  UNL     1      -1.486   0.477  -1.552  1.00  0.00     0.260 C 
HETATM    4  N2  UNL     1      -0.988   1.152  -0.409  1.00  0.00    -0.264 N 
HETATM    5  N1  UNL     1      -1.652   1.674   0.505  1.00  0.00    -0.243 N 
ATOM      6  H2  UNL     1       0.027   1.217  -0.327  1.00  0.00     0.190 HD
HETATM    7  C5  UNL     1      -3.063   1.679   0.556  1.00  0.00     0.380 C 
ATOM      8  H1  UNL     1      -1.145   2.127   1.265  1.00  0.00     0.192 HD
HETATM    9  O2  UNL     1      -3.749   2.714   0.697  1.00  0.00    -0.237 OA
HETATM   10  O3  UNL     1      -2.550   0.808  -2.154  1.00  0.00    -0.269 OA
BRANCH   7  11
HETATM   11  O1  UNL     1      -3.735   0.473   0.444  1.00  0.00    -0.293 OA
BRANCH  11  12
HETATM   12  C2  UNL     1      -5.125   0.322   0.474  1.00  0.00     0.061 C 
HETATM   13  C1  UNL     1      -5.853   1.057  -0.613  1.00  0.00     0.046 C 
HETATM   14  C3  UNL     1      -5.411  -1.167   0.261  1.00  0.00     0.046 C 
HETATM   15  C4  UNL     1      -5.700   0.661   1.836  1.00  0.00     0.046 C 
ENDBRANCH  11  12
ENDBRANCH   7  11
ENDBRANCH   2   3
ENDBRANCH   1   2
BRANCH   1  16
HETATM   16  C8  UNL     1       1.556  -0.176  -1.433  1.00  0.00     0.295 C 
HETATM   17  O5  UNL     1       1.476   0.939  -2.011  1.00  0.00    -0.259 OA
BRANCH  16  18
HETATM   18  C9  UNL     1       2.791  -0.521  -0.759  1.00  0.00     0.063 A 
HETATM   19  C10 UNL     1       2.987  -1.689  -0.055  1.00  0.00     0.020 A 
HETATM   20  C11 UNL     1       4.174  -1.985   0.576  1.00  0.00     0.015 A 
HETATM   21  C12 UNL     1       5.210  -1.093   0.512  1.00  0.00    -0.008 A 
HETATM   22  C13 UNL     1       6.393  -1.403   1.151  1.00  0.00     0.017 A 
HETATM   23  C16 UNL     1       5.054   0.085  -0.181  1.00  0.00     0.066 A 
HETATM   24  C14 UNL     1       7.440  -0.497   1.084  1.00  0.00     0.042 A 
HETATM   25  C15 UNL     1       7.218   0.672   0.370  1.00  0.00     0.101 A 
HETATM   26  S1  UNL     1       8.445   1.750   0.285  1.00  0.00    -0.060 SA
HETATM   27  N3  UNL     1       6.068   0.948  -0.238  1.00  0.00    -0.345 N 
ATOM     28  H3  UNL     1       5.962   1.824  -0.750  1.00  0.00     0.167 HD
HETATM   29  C17 UNL     1       3.858   0.349  -0.799  1.00  0.00     0.077 A 
HETATM   30 CL1  UNL     1       3.729   1.870  -1.667  1.00  0.00    -0.081 Cl
ENDBRANCH  16  18
ENDBRANCH   1  16
TORSDOF 6
