REMARK  4 active torsions:
REMARK  status: ('A' for Active; 'I' for Inactive)
REMARK    1  A    between atoms: C4_4  and  C5_5 
REMARK    2  A    between atoms: C5_5  and  O1_8 
REMARK    3  A    between atoms: C12_15  and  C13_16 
REMARK    4  A    between atoms: N1_17  and  N2_19 
ROOT
HETATM    1  C1  UNL     1      -2.423   3.142   0.940  1.00  0.00     0.051 C 
HETATM    2  C2  UNL     1      -2.569   1.709   0.579  1.00  0.00    -0.027 A 
HETATM    3  C3  UNL     1      -3.823   1.157   0.396  1.00  0.00     0.019 A 
HETATM    4  C4  UNL     1      -4.016  -0.177   0.063  1.00  0.00    -0.023 A 
HETATM    5  C8  UNL     1      -2.892  -0.951  -0.083  1.00  0.00     0.026 A 
HETATM    6  C9  UNL     1      -1.608  -0.453   0.087  1.00  0.00     0.021 A 
HETATM    7  C10 UNL     1      -1.485   0.879   0.417  1.00  0.00     0.087 A 
HETATM    8  O2  UNL     1      -0.191   1.347   0.581  1.00  0.00    -0.345 OA
HETATM    9  C11 UNL     1       0.973   0.569   0.425  1.00  0.00     0.217 A 
HETATM   10  C12 UNL     1       0.763  -0.826   0.072  1.00  0.00     0.005 A 
HETATM   11  C19 UNL     1      -0.453  -1.306  -0.085  1.00  0.00     0.057 A 
HETATM   12 CL1  UNL     1      -0.661  -2.997  -0.514  1.00  0.00    -0.083 Cl
ENDROOT
BRANCH  10  13
HETATM   13  C13 UNL     1       1.919  -1.735  -0.108  1.00  0.00     0.118 C 
HETATM   14  N1  UNL     1       3.103  -1.382   0.017  1.00  0.00    -0.311 N 
ATOM     15  H1  UNL     1       3.723  -2.174  -0.155  1.00  0.00     0.186 HD
BRANCH  14  16
HETATM   16  N2  UNL     1       3.821  -0.295   0.305  1.00  0.00    -0.309 N 
HETATM   17  C14 UNL     1       4.993   0.006  -0.091  1.00  0.00     0.003 C 
HETATM   18  C15 UNL     1       5.730   1.239   0.277  1.00  0.00     0.054 C 
HETATM   19  C18 UNL     1       5.946  -0.725  -0.992  1.00  0.00     0.054 C 
HETATM   20  C16 UNL     1       7.102   0.616   0.592  1.00  0.00     0.006 C 
HETATM   21  C17 UNL     1       7.314  -0.287  -0.578  1.00  0.00     0.006 C 
ATOM     22  H2  UNL     1       3.373   0.382   0.922  1.00  0.00     0.186 HD
ENDBRANCH  14  16
ENDBRANCH  10  13
BRANCH   4  23
HETATM   23  C5  UNL     1      -5.333  -0.803  -0.141  1.00  0.00     0.078 C 
HETATM   24  C6  UNL     1      -5.326  -1.696  -1.348  1.00  0.00     0.051 C 
HETATM   25  C7  UNL     1      -6.437   0.217  -0.198  1.00  0.00     0.051 C 
BRANCH  23  26
HETATM   26  O1  UNL     1      -5.586  -1.588   1.000  1.00  0.00    -0.386 OA
ATOM     27  H1  UNL     1      -6.436  -1.992   0.868  1.00  0.00     0.211 HD
ENDBRANCH  23  26
ENDBRANCH   4  23
TORSDOF 4
