REMARK  5 active torsions:
REMARK  status: ('A' for Active; 'I' for Inactive)
REMARK    1  A    between atoms: C1_4  and  O1_5 
REMARK    2  A    between atoms: C1_4  and  C9_15 
REMARK    3  A    between atoms: O1_5  and  N2_6 
REMARK    4  A    between atoms: C9_15  and  C10_16 
REMARK    5  A    between atoms: C20_27  and  N3_28 
ROOT
HETATM    1  C9  UNL     1      -1.871   0.664  -0.341  1.00  0.00     0.085 C 
HETATM    2  C16 UNL     1      -2.646   1.924  -0.564  1.00  0.00     0.025 C 
HETATM    3  C17 UNL     1      -3.036   2.039  -2.028  1.00  0.00     0.002 C 
HETATM    4  C18 UNL     1      -4.066   0.970  -2.243  1.00  0.00     0.002 C 
HETATM    5  C19 UNL     1      -3.588  -0.404  -1.902  1.00  0.00     0.034 C 
HETATM    6  C20 UNL     1      -2.317  -0.508  -1.149  1.00  0.00     0.204 C 
ENDROOT
BRANCH   1   7
HETATM    7  C1  UNL     1      -0.474   0.980  -0.835  1.00  0.00     0.156 C 
HETATM    8  N1  UNL     1      -0.096   2.125  -1.201  1.00  0.00    -0.381 N 
ATOM      9  H12 UNL     1       0.844   2.338  -1.534  1.00  0.00     0.158 HD
ATOM     10  H11 UNL     1      -0.737   2.918  -1.179  1.00  0.00     0.158 HD
BRANCH   7  11
HETATM   11  O1  UNL     1       0.405  -0.108  -0.865  1.00  0.00    -0.224 OA
BRANCH  11  12
HETATM   12  N2  UNL     1       1.633  -0.048  -1.440  1.00  0.00    -0.268 N 
HETATM   13  C2  UNL     1       2.567  -0.849  -1.073  1.00  0.00     0.010 C 
HETATM   14  C3  UNL     1       3.894  -0.748  -1.728  1.00  0.00     0.054 C 
HETATM   15  C8  UNL     1       2.205  -1.812  -0.007  1.00  0.00     0.054 C 
HETATM   16  C4  UNL     1       5.024  -0.648  -0.724  1.00  0.00     0.006 C 
HETATM   17  C5  UNL     1       4.693   0.293   0.406  1.00  0.00     0.000 C 
HETATM   18  C6  UNL     1       3.617  -0.199   1.303  1.00  0.00     0.000 C 
HETATM   19  C7  UNL     1       3.234  -1.626   1.112  1.00  0.00     0.006 C 
ATOM     20  H2  UNL     1       1.816   0.640  -2.171  1.00  0.00     0.194 HD
ENDBRANCH  11  12
ENDBRANCH   7  11
ENDBRANCH   1   7
BRANCH   1  21
HETATM   21  C10 UNL     1      -1.755   0.437   1.119  1.00  0.00    -0.001 A 
HETATM   22  C11 UNL     1      -0.580   0.523   1.837  1.00  0.00     0.011 A 
HETATM   23  C12 UNL     1      -0.511   0.312   3.196  1.00  0.00     0.001 A 
HETATM   24  C13 UNL     1      -1.643  -0.003   3.917  1.00  0.00     0.003 A 
HETATM   25  C14 UNL     1      -2.822  -0.095   3.233  1.00  0.00     0.043 A 
HETATM   26  C15 UNL     1      -2.861   0.120   1.881  1.00  0.00     0.123 A 
HETATM   27  F1  UNL     1      -4.064   0.017   1.294  1.00  0.00    -0.206 F 
ENDBRANCH   1  21
BRANCH   6  28
HETATM   28  N3  UNL     1      -2.343  -1.766  -0.410  1.00  0.00    -0.074 N 
ATOM     29  H33 UNL     1      -1.434  -1.950   0.015  1.00  0.00     0.274 HD
ATOM     30  H32 UNL     1      -2.912  -1.675   0.432  1.00  0.00     0.274 HD
ATOM     31  H31 UNL     1      -2.648  -2.567  -0.962  1.00  0.00     0.274 HD
ENDBRANCH   6  28
TORSDOF 5
