REMARK  7 active torsions:
REMARK  status: ('A' for Active; 'I' for Inactive)
REMARK    1  A    between atoms: C4_4  and  C5_5 
REMARK    2  A    between atoms: C5_5  and  N1_6 
REMARK       I    between atoms: N1_6  and  C6_8 
REMARK    3  A    between atoms: C6_8  and  S1_10 
REMARK    4  A    between atoms: S1_10  and  S2_11 
REMARK    5  A    between atoms: S2_11  and  C7_12 
REMARK    6  A    between atoms: C7_12  and  N2_14 
REMARK    7  A    between atoms: N2_14  and  C8_16 
ROOT
HETATM    1  C7  UNL     1      -1.609   1.886  -2.230  1.00  0.00     0.150 C 
HETATM    2  S3  UNL     1      -1.076   2.407  -3.742  1.00  0.00    -0.052 SA
ENDROOT
BRANCH   1   3
HETATM    3  S2  UNL     1      -1.088   2.898  -0.884  1.00  0.00    -0.018 SA
BRANCH   3   4
HETATM    4  S1  UNL     1      -0.556   1.797   0.852  1.00  0.00     0.011 SA
BRANCH   4   5
HETATM    5  C6  UNL     1       1.186   1.368   0.826  1.00  0.00     0.291 C 
HETATM    6  N1  UNL     1       2.020   1.755  -0.250  1.00  0.00    -0.348 N 
ATOM      7  H1  UNL     1       1.610   2.286  -1.019  1.00  0.00     0.163 HD
HETATM    8  O1  UNL     1       1.599   0.719   1.804  1.00  0.00    -0.260 OA
BRANCH   6   9
HETATM    9  C5  UNL     1       3.414   1.433  -0.306  1.00  0.00     0.151 C 
BRANCH   9  10
HETATM   10  C4  UNL     1       3.665  -0.005  -0.287  1.00  0.00    -0.005 C 
HETATM   11  C2  UNL     1       4.419  -0.599   0.628  1.00  0.00    -0.090 C 
HETATM   12  C1  UNL     1       4.623  -2.097   0.574  1.00  0.00     0.042 C 
HETATM   13  C3  UNL     1       5.117   0.116   1.722  1.00  0.00     0.042 C 
ENDBRANCH   9  10
ENDBRANCH   6   9
ENDBRANCH   4   5
ENDBRANCH   3   4
ENDBRANCH   1   3
BRANCH   1  14
HETATM   14  N2  UNL     1      -2.381   0.754  -2.182  1.00  0.00    -0.339 N 
ATOM     15  H2  UNL     1      -2.498   0.273  -3.074  1.00  0.00     0.167 HD
BRANCH  14  16
HETATM   16  C8  UNL     1      -3.031   0.159  -1.100  1.00  0.00     0.072 A 
HETATM   17  C9  UNL     1      -3.527   0.929  -0.084  1.00  0.00     0.033 A 
HETATM   18  C10 UNL     1      -4.264   0.320   0.924  1.00  0.00     0.009 A 
HETATM   19  C11 UNL     1      -4.496  -1.024   0.908  1.00  0.00    -0.059 A 
HETATM   20  C12 UNL     1      -5.281  -1.682   1.980  1.00  0.00     0.048 C 
HETATM   21  C13 UNL     1      -3.997  -1.786  -0.114  1.00  0.00     0.051 A 
HETATM   22  C14 UNL     1      -3.279  -1.212  -1.100  1.00  0.00     0.143 A 
HETATM   23  F1  UNL     1      -2.781  -1.957  -2.116  1.00  0.00    -0.204 F 
ENDBRANCH  14  16
ENDBRANCH   1  14
TORSDOF 7
