REMARK  4 active torsions:
REMARK  status: ('A' for Active; 'I' for Inactive)
REMARK    1  A    between atoms: C2_2  and  N1_3 
REMARK       I    between atoms: N1_3  and  C3_5 
REMARK    2  A    between atoms: C3_5  and  C4_7 
REMARK    3  A    between atoms: C10_13  and  N2_14 
REMARK    4  A    between atoms: N2_14  and  C11_16 
ROOT
HETATM    1  C1  UNL     1      -0.633   1.611  -1.511  1.00  0.00     0.038 C 
HETATM    2  C2  UNL     1      -1.102   0.440  -0.639  1.00  0.00     0.029 C 
HETATM    3  C8  UNL     1      -0.919  -0.853  -1.377  1.00  0.00     0.032 C 
HETATM    4  C9  UNL     1       0.487  -0.961  -1.896  1.00  0.00     0.027 C 
HETATM    5  C10 UNL     1       1.524  -0.450  -0.898  1.00  0.00     0.082 C 
HETATM    6  C18 UNL     1       0.872  -0.623   0.463  1.00  0.00     0.027 C 
HETATM    7  C19 UNL     1      -0.216   0.392   0.595  1.00  0.00     0.032 C 
ENDROOT
BRANCH   5   8
HETATM    8  N2  UNL     1       2.719  -1.259  -0.979  1.00  0.00    -0.383 N 
ATOM      9  H2  UNL     1       2.681  -2.093  -1.565  1.00  0.00     0.160 HD
BRANCH   8  10
HETATM   10  C11 UNL     1       3.935  -0.990  -0.314  1.00  0.00     0.070 A 
HETATM   11  C12 UNL     1       4.084   0.158   0.412  1.00  0.00     0.072 A 
HETATM   12  C13 UNL     1       5.298   0.429   1.059  1.00  0.00     0.105 A 
HETATM   13  O2  UNL     1       5.683   1.438   1.799  1.00  0.00    -0.304 OA
HETATM   14  C15 UNL     1       6.352  -0.431   0.986  1.00  0.00     0.070 A 
HETATM   15  C14 UNL     1       6.919   1.276   2.204  1.00  0.00     0.234 A 
HETATM   16  N3  UNL     1       7.360   0.105   1.703  1.00  0.00    -0.344 N 
ATOM     17  H3  UNL     1       8.286  -0.301   1.841  1.00  0.00     0.167 HD
HETATM   18  C16 UNL     1       6.207  -1.597   0.251  1.00  0.00     0.077 A 
HETATM   19  C17 UNL     1       5.009  -1.851  -0.380  1.00  0.00     0.145 A 
HETATM   20  F1  UNL     1       4.852  -2.987  -1.102  1.00  0.00    -0.204 F 
ENDBRANCH   8  10
ENDBRANCH   5   8
BRANCH   2  21
HETATM   21  N1  UNL     1      -2.441   0.717  -0.226  1.00  0.00    -0.352 N 
HETATM   22  C3  UNL     1      -3.245  -0.104   0.593  1.00  0.00     0.226 C 
HETATM   23  O1  UNL     1      -2.782  -1.183   1.020  1.00  0.00    -0.273 OA
ATOM     24  H1  UNL     1      -2.855   1.590  -0.554  1.00  0.00     0.163 HD
BRANCH  22  25
HETATM   25  C4  UNL     1      -4.606   0.293   0.946  1.00  0.00     0.030 C 
HETATM   26  C5  UNL     1      -5.477   0.463  -0.305  1.00  0.00     0.024 C 
HETATM   27  C6  UNL     1      -4.662   1.610   1.692  1.00  0.00     0.024 C 
HETATM   28  C7  UNL     1      -5.314  -0.729   1.808  1.00  0.00     0.024 C 
ENDBRANCH  22  25
ENDBRANCH   2  21
TORSDOF 4
