REMARK  3 active torsions:
REMARK  status: ('A' for Active; 'I' for Inactive)
REMARK    1  A    between atoms: C5_5  and  N1_6 
REMARK    2  A    between atoms: N1_6  and  C6_8 
REMARK    3  A    between atoms: C15_21  and  N3_22 
ROOT
HETATM    1  C6  UNL     1      -0.316   0.025  -0.957  1.00  0.00     0.125 C 
HETATM    2  C7  UNL     1      -1.369  -0.972  -1.331  1.00  0.00     0.058 C 
HETATM    3  C8  UNL     1      -2.646  -0.991  -0.619  1.00  0.00     0.021 C 
HETATM    4  C9  UNL     1      -2.866  -2.347   0.080  1.00  0.00     0.037 C 
HETATM    5  C10 UNL     1      -3.839  -0.881  -1.584  1.00  0.00     0.037 C 
HETATM    6  N2  UNL     1      -2.847  -0.025   0.387  1.00  0.00    -0.402 N 
ATOM      7  H2  UNL     1      -3.446  -0.228   1.187  1.00  0.00     0.154 HD
HETATM    8  C11 UNL     1      -2.215   1.213   0.273  1.00  0.00     0.056 C 
HETATM    9  C12 UNL     1      -2.264   1.821   1.691  1.00  0.00     0.041 C 
HETATM   10  C13 UNL     1      -3.123   2.136  -0.542  1.00  0.00     0.041 C 
HETATM   11  C14 UNL     1      -0.814   1.231  -0.223  1.00  0.00     0.157 C 
HETATM   12 CL1  UNL     1      -0.663   2.730  -1.190  1.00  0.00    -0.097 Cl
HETATM   13 CL2  UNL     1       0.252   1.501   1.182  1.00  0.00    -0.097 Cl
ENDROOT
BRANCH   1  14
HETATM   14  N1  UNL     1       0.745  -0.689  -0.246  1.00  0.00    -0.380 N 
ATOM     15  H1  UNL     1       0.463  -1.563   0.198  1.00  0.00     0.160 HD
BRANCH  14  16
HETATM   16  C5  UNL     1       2.068  -0.348  -0.092  1.00  0.00     0.061 A 
HETATM   17  C4  UNL     1       2.631   0.654  -0.851  1.00  0.00     0.032 A 
HETATM   18  C3  UNL     1       3.977   0.975  -0.760  1.00  0.00     0.009 A 
HETATM   19  C2  UNL     1       4.793   0.292   0.102  1.00  0.00    -0.059 A 
HETATM   20  C1  UNL     1       6.261   0.619   0.221  1.00  0.00     0.048 C 
HETATM   21  C16 UNL     1       4.260  -0.697   0.858  1.00  0.00     0.045 A 
HETATM   22  C15 UNL     1       2.898  -1.029   0.772  1.00  0.00     0.129 A 
BRANCH  22  23
HETATM   23  N3  UNL     1       2.497  -2.073   1.623  1.00  0.00    -0.113 N 
HETATM   24  O1  UNL     1       1.412  -2.208   2.202  1.00  0.00    -0.532 OA
HETATM   25  O2  UNL     1       3.421  -3.082   1.882  1.00  0.00    -0.532 OA
ENDBRANCH  22  23
ENDBRANCH  14  16
ENDBRANCH   1  14
TORSDOF 3
