REMARK  16 active torsions:
REMARK  status: ('A' for Active; 'I' for Inactive)
REMARK    1  A    between atoms: C2_2  and  C3_3 
REMARK    2  A    between atoms: C3_3  and  O1_4 
REMARK    3  A    between atoms: C3_3  and  C4_6 
REMARK    4  A    between atoms: C6_10  and  C7_11 
REMARK       I    between atoms: C7_11  and  N1_13 
REMARK    5  A    between atoms: N1_13  and  C8_15 
REMARK    6  A    between atoms: C9_16  and  O3_17 
REMARK    7  A    between atoms: N3_25  and  C12_26 
REMARK    8  A    between atoms: C12_26  and  C13_27 
REMARK    9  A    between atoms: C13_27  and  N4_28 
REMARK   10  A    between atoms: C13_27  and  C14_32 
REMARK   11  A    between atoms: C14_32  and  C15_33 
REMARK   12  A    between atoms: C15_33  and  S4_34 
REMARK   13  A    between atoms: C17_36  and  N5_37 
REMARK   14  A    between atoms: C18_42  and  C19_43 
REMARK       I    between atoms: C19_43  and  N7_45 
REMARK   15  A    between atoms: N7_45  and  S5_47 
REMARK   16  A    between atoms: S5_47  and  N8_48 
ROOT
HETATM    1  C8  UNL     1       1.266  -1.758  -2.028  1.00  0.00     0.265 C 
HETATM    2  C9  UNL     1       1.895  -3.119  -2.077  1.00  0.00     0.245 C 
HETATM    3  C10 UNL     1       2.414  -3.322  -3.459  1.00  0.00     0.240 C 
HETATM    4  O4  UNL     1       2.410  -4.408  -3.955  1.00  0.00    -0.281 OA
HETATM    5  S3  UNL     1       3.036  -1.851  -4.313  1.00  0.00     0.057 SA
HETATM    6  N2  UNL     1       3.129  -0.630  -3.011  1.00  0.00    -0.150 N 
HETATM    7  C11 UNL     1       3.946   0.416  -2.807  1.00  0.00     0.373 A 
HETATM    8  O5  UNL     1       4.859   0.694  -3.626  1.00  0.00    -0.243 OA
HETATM    9  N3  UNL     1       3.578   1.010  -1.653  1.00  0.00    -0.105 N 
HETATM   10  C17 UNL     1       2.537   0.314  -1.169  1.00  0.00     0.706 A 
HETATM   11  N6  UNL     1       2.266  -0.709  -2.025  1.00  0.00    -0.079 N 
ENDROOT
BRANCH   1  12
HETATM   12  N1  UNL     1       0.321  -1.608  -0.942  1.00  0.00    -0.333 N 
HETATM   13  C7  UNL     1      -1.029  -1.215  -1.201  1.00  0.00     0.249 C 
HETATM   14  O2  UNL     1      -1.377  -0.999  -2.390  1.00  0.00    -0.271 OA
ATOM     15  H1  UNL     1       0.621  -1.784   0.017  1.00  0.00     0.164 HD
BRANCH  13  16
HETATM   16  C6  UNL     1      -2.044  -1.047  -0.139  1.00  0.00     0.224 C 
HETATM   17  C5  UNL     1      -2.293  -2.344   0.607  1.00  0.00     0.128 C 
HETATM   18  S2  UNL     1      -3.589  -3.354  -0.100  1.00  0.00    -0.094 SA
HETATM   19  S1  UNL     1      -5.241  -2.289  -0.837  1.00  0.00    -0.087 SA
HETATM   20  C4  UNL     1      -5.484  -0.684   0.015  1.00  0.00     0.125 C 
HETATM   21  C18 UNL     1      -4.071  -0.239   0.407  1.00  0.00     0.232 C 
HETATM   22  O6  UNL     1      -3.225  -0.595  -0.672  1.00  0.00    -0.360 OA
BRANCH  20  23
HETATM   23  C3  UNL     1      -6.312  -0.853   1.241  1.00  0.00     0.135 C 
BRANCH  23  24
HETATM   24  C2  UNL     1      -7.690  -1.408   0.944  1.00  0.00     0.028 C 
HETATM   25  C1  UNL     1      -8.498  -0.494   0.067  1.00  0.00     0.007 C 
ENDBRANCH  23  24
BRANCH  23  26
HETATM   26  O1  UNL     1      -5.672  -1.805   2.064  1.00  0.00    -0.394 OA
ATOM     27  H1  UNL     1      -4.808  -1.457   2.250  1.00  0.00     0.210 HD
ENDBRANCH  23  26
ENDBRANCH  20  23
BRANCH  21  28
HETATM   28  C19 UNL     1      -3.956   1.200   0.637  1.00  0.00     0.262 C 
HETATM   29  O7  UNL     1      -4.631   1.729   1.567  1.00  0.00    -0.270 OA
HETATM   30  N7  UNL     1      -3.095   1.980  -0.182  1.00  0.00    -0.235 N 
ATOM     31  H7  UNL     1      -2.563   1.528  -0.926  1.00  0.00     0.183 HD
BRANCH  30  32
HETATM   32  S5  UNL     1      -2.936   3.691   0.066  1.00  0.00     0.319 S 
HETATM   33  O8  UNL     1      -2.354   4.385  -1.107  1.00  0.00    -0.183 OA
HETATM   34  O9  UNL     1      -2.049   3.896   1.275  1.00  0.00    -0.183 OA
BRANCH  32  35
HETATM   35  N8  UNL     1      -4.486   4.368   0.424  1.00  0.00    -0.311 N 
ATOM     36  H82 UNL     1      -5.352   3.831   0.478  1.00  0.00     0.170 HD
ATOM     37  H81 UNL     1      -4.393   5.373   0.570  1.00  0.00     0.170 HD
ENDBRANCH  32  35
ENDBRANCH  30  32
ENDBRANCH  21  28
ENDBRANCH  13  16
ENDBRANCH   1  12
BRANCH   2  38
HETATM   38  O3  UNL     1       2.905  -3.278  -1.130  1.00  0.00    -0.383 OA
ATOM     39  H3  UNL     1       3.303  -4.140  -1.161  1.00  0.00     0.210 HD
ENDBRANCH   2  38
BRANCH  10  40
HETATM   40  N5  UNL     1       1.820   0.509  -0.114  1.00  0.00    -0.232 N 
ATOM     41  H52 UNL     1       2.023   1.276   0.527  1.00  0.00     0.174 HD
ATOM     42  H51 UNL     1       1.029  -0.020   0.254  1.00  0.00     0.174 HD
ENDBRANCH  10  40
BRANCH   9  43
HETATM   43  C12 UNL     1       4.169   2.154  -1.088  1.00  0.00     0.126 C 
BRANCH  43  44
HETATM   44  C13 UNL     1       5.374   1.924  -0.180  1.00  0.00     0.223 C 
BRANCH  44  45
HETATM   45  N4  UNL     1       6.366   1.262  -1.038  1.00  0.00    -0.070 N 
ATOM     46  H43 UNL     1       6.022   0.417  -1.494  1.00  0.00     0.275 HD
ATOM     47  H42 UNL     1       6.582   1.774  -1.893  1.00  0.00     0.275 HD
ATOM     48  H41 UNL     1       7.171   1.108  -0.431  1.00  0.00     0.275 HD
ENDBRANCH  44  45
BRANCH  44  49
HETATM   49  C14 UNL     1       5.060   1.155   1.025  1.00  0.00     0.048 C 
BRANCH  49  50
HETATM   50  C15 UNL     1       6.138   0.940   2.012  1.00  0.00     0.076 C 
BRANCH  50  51
HETATM   51  S4  UNL     1       7.641   0.128   1.603  1.00  0.00    -0.173 SA
HETATM   52  C16 UNL     1       8.899   1.026   0.719  1.00  0.00     0.089 C 
ENDBRANCH  50  51
ENDBRANCH  49  50
ENDBRANCH  44  49
ENDBRANCH  43  44
ENDBRANCH   9  43
TORSDOF 16
