REMARK  21 active torsions:
REMARK  status: ('A' for Active; 'I' for Inactive)
REMARK    1  A    between atoms: C2_2  and  O2_4 
REMARK    2  A    between atoms: O2_4  and  C3_5 
REMARK    3  A    between atoms: C3_5  and  C4_6 
REMARK    4  A    between atoms: C3_5  and  C5_9 
REMARK    5  A    between atoms: C5_9  and  O5_10 
REMARK    6  A    between atoms: C5_9  and  C8_14 
REMARK    7  A    between atoms: O5_10  and  C6_11 
REMARK    8  A    between atoms: C8_14  and  O7_15 
REMARK    9  A    between atoms: C8_14  and  C9_17 
REMARK   10  A    between atoms: C9_17  and  O8_18 
REMARK   11  A    between atoms: C9_17  and  C10_20 
REMARK   12  A    between atoms: C13_25  and  O11_26 
REMARK   13  A    between atoms: O11_26  and  C14_27 
REMARK   14  A    between atoms: C15_28  and  N1_29 
REMARK   15  A    between atoms: C17_34  and  O12_35 
REMARK   16  A    between atoms: C18_37  and  O13_39 
REMARK   17  A    between atoms: C21_42  and  O14_43 
REMARK   18  A    between atoms: C22_45  and  O15_46 
REMARK   19  A    between atoms: O15_46  and  C23_47 
REMARK   20  A    between atoms: C25_50  and  O17_51 
REMARK   21  A    between atoms: O17_51  and  C26_52 
ROOT
HETATM    1  C10 UNL     1       0.884  -0.632  -0.091  1.00  0.00     0.186 C 
HETATM    2  O9  UNL     1      -0.345  -0.443   0.587  1.00  0.00    -0.364 OA
HETATM    3  C11 UNL     1      -1.462  -0.626  -0.154  1.00  0.00     0.116 C 
HETATM    4  C12 UNL     1      -1.513   0.395  -1.252  1.00  0.00     0.211 C 
HETATM    5  O10 UNL     1      -2.736   0.986  -1.243  1.00  0.00    -0.358 OA
HETATM    6  C13 UNL     1      -3.540   0.483  -0.251  1.00  0.00     0.263 C 
HETATM    7  C20 UNL     1      -2.640  -0.206   0.705  1.00  0.00     0.104 C 
HETATM    8  C21 UNL     1      -1.625  -2.041  -0.668  1.00  0.00     0.187 C 
HETATM    9  C22 UNL     1      -0.318  -2.779  -0.709  1.00  0.00     0.195 C 
HETATM   10  C25 UNL     1       0.862  -1.826  -0.944  1.00  0.00     0.195 C 
ENDROOT
BRANCH   1  11
HETATM   11  C9  UNL     1       1.882  -0.628   1.083  1.00  0.00     0.181 C 
BRANCH  11  12
HETATM   12  C8  UNL     1       3.279  -0.626   0.817  1.00  0.00     0.182 C 
BRANCH  12  13
HETATM   13  C5  UNL     1       4.072   0.626   0.481  1.00  0.00     0.203 C 
BRANCH  13  14
HETATM   14  C3  UNL     1       3.639   1.463  -0.646  1.00  0.00     0.264 C 
BRANCH  14  15
HETATM   15  O2  UNL     1       4.810   2.163  -1.196  1.00  0.00    -0.303 OA
BRANCH  15  16
HETATM   16  C2  UNL     1       5.092   2.135  -2.530  1.00  0.00     0.255 C 
HETATM   17  C1  UNL     1       6.280   2.849  -3.052  1.00  0.00     0.126 C 
HETATM   18  O1  UNL     1       4.332   1.496  -3.304  1.00  0.00    -0.266 OA
ENDBRANCH  15  16
ENDBRANCH  14  15
BRANCH  14  19
HETATM   19  C4  UNL     1       2.851   2.671  -0.169  1.00  0.00     0.206 C 
HETATM   20  O3  UNL     1       1.799   2.655   0.452  1.00  0.00    -0.646 OA
HETATM   21  O4  UNL     1       3.362   3.954  -0.462  1.00  0.00    -0.646 OA
ENDBRANCH  14  19
ENDBRANCH  13  14
BRANCH  13  22
HETATM   22  O5  UNL     1       5.401   0.059   0.215  1.00  0.00    -0.310 OA
BRANCH  22  23
HETATM   23  C6  UNL     1       6.468   0.305   1.032  1.00  0.00     0.255 C 
HETATM   24  C7  UNL     1       7.822  -0.260   0.781  1.00  0.00     0.126 C 
HETATM   25  O6  UNL     1       6.280   1.042   2.036  1.00  0.00    -0.266 OA
ENDBRANCH  22  23
ENDBRANCH  13  22
ENDBRANCH  12  13
BRANCH  12  26
HETATM   26  O7  UNL     1       3.931  -0.964   2.096  1.00  0.00    -0.390 OA
ATOM     27  H7  UNL     1       3.435  -1.747   2.306  1.00  0.00     0.210 HD
ENDBRANCH  12  26
ENDBRANCH  11  12
BRANCH  11  28
HETATM   28  O8  UNL     1       1.460  -1.828   1.778  1.00  0.00    -0.390 OA
ATOM     29  H8  UNL     1       0.527  -1.829   1.956  1.00  0.00     0.210 HD
ENDBRANCH  11  28
ENDBRANCH   1  11
BRANCH  10  30
HETATM   30  O17 UNL     1       1.984  -2.643  -1.054  1.00  0.00    -0.311 OA
BRANCH  30  31
HETATM   31  C26 UNL     1       2.634  -2.888  -2.279  1.00  0.00     0.255 C 
HETATM   32  C27 UNL     1       3.813  -3.771  -2.267  1.00  0.00     0.126 C 
HETATM   33  O18 UNL     1       2.233  -2.379  -3.341  1.00  0.00    -0.266 OA
ENDBRANCH  30  31
ENDBRANCH  10  30
BRANCH   9  34
HETATM   34  O15 UNL     1      -0.106  -3.705   0.311  1.00  0.00    -0.311 OA
BRANCH  34  35
HETATM   35  C23 UNL     1       0.029  -5.046   0.208  1.00  0.00     0.255 C 
HETATM   36  C24 UNL     1       0.250  -5.877   1.410  1.00  0.00     0.126 C 
HETATM   37  O16 UNL     1      -0.036  -5.566  -0.904  1.00  0.00    -0.266 OA
ENDBRANCH  34  35
ENDBRANCH   9  34
BRANCH   8  38
HETATM   38  O14 UNL     1      -2.553  -2.684   0.139  1.00  0.00    -0.390 OA
ATOM     39  H14 UNL     1      -2.655  -3.572  -0.183  1.00  0.00     0.210 HD
ENDBRANCH   8  38
BRANCH   6  40
HETATM   40  O11 UNL     1      -4.198   1.579   0.303  1.00  0.00    -0.351 OA
BRANCH  40  41
HETATM   41  C14 UNL     1      -5.558   1.568   0.173  1.00  0.00     0.191 C 
HETATM   42  C15 UNL     1      -6.054   2.843  -0.523  1.00  0.00     0.218 C 
HETATM   43  C16 UNL     1      -5.654   3.887   0.496  1.00  0.00     0.070 C 
HETATM   44  C17 UNL     1      -5.902   3.213   1.826  1.00  0.00     0.156 C 
HETATM   45  C18 UNL     1      -6.150   1.764   1.548  1.00  0.00     0.108 C 
HETATM   46  C19 UNL     1      -5.420   0.932   2.606  1.00  0.00     0.051 C 
BRANCH  42  47
HETATM   47  N1  UNL     1      -7.477   2.833  -0.624  1.00  0.00    -0.072 N 
ATOM     48  H13 UNL     1      -7.819   1.990  -1.086  1.00  0.00     0.274 HD
ATOM     49  H12 UNL     1      -7.921   2.699   0.284  1.00  0.00     0.274 HD
ATOM     50  H11 UNL     1      -7.807   3.680  -1.087  1.00  0.00     0.274 HD
ENDBRANCH  42  47
BRANCH  44  51
HETATM   51  O12 UNL     1      -4.731   3.318   2.577  1.00  0.00    -0.392 OA
ATOM     52  H12 UNL     1      -4.887   2.894   3.413  1.00  0.00     0.210 HD
ENDBRANCH  44  51
BRANCH  45  53
HETATM   53  O13 UNL     1      -7.494   1.420   1.617  1.00  0.00    -0.385 OA
ATOM     54  H13 UNL     1      -7.866   1.543   2.482  1.00  0.00     0.210 HD
ENDBRANCH  45  53
ENDBRANCH  40  41
ENDBRANCH   6  40
TORSDOF 21
