REMARK  14 active torsions:
REMARK  status: ('A' for Active; 'I' for Inactive)
REMARK    1  A    between atoms: O1_2  and  C2_3 
REMARK    2  A    between atoms: C2_3  and  O2_4 
REMARK    3  A    between atoms: O2_4  and  C3_5 
REMARK    4  A    between atoms: C5_8  and  C6_9 
REMARK    5  A    between atoms: C6_9  and  O4_10 
REMARK    6  A    between atoms: C10_16  and  S1_17 
REMARK    7  A    between atoms: S1_17  and  C11_18 
REMARK    8  A    between atoms: C13_26  and  C14_27 
REMARK       I    between atoms: N5_30  and  C15_31 
REMARK       I    between atoms: C15_31  and  N6_33 
REMARK    9  A    between atoms: N6_33  and  S2_35 
REMARK   10  A    between atoms: S2_35  and  N7_38 
REMARK   11  A    between atoms: N7_38  and  C16_40 
REMARK   12  A    between atoms: C16_40  and  C17_41 
REMARK   13  A    between atoms: C17_41  and  N8_42 
REMARK   14  A    between atoms: C18_46  and  C19_47 
ROOT
HETATM    1  C2  UNL     1      -2.870  -2.320  -0.020  1.00  0.00     0.217 C 
HETATM    2  C5  UNL     1      -2.642  -1.474   1.216  1.00  0.00     0.210 C 
HETATM    3  O5  UNL     1      -1.745  -0.503   0.915  1.00  0.00    -0.363 OA
HETATM    4  C7  UNL     1      -0.963  -0.900  -0.182  1.00  0.00     0.114 C 
HETATM    5  C8  UNL     1      -0.978   0.317  -1.126  1.00  0.00     0.079 C 
HETATM    6  C9  UNL     1      -0.442   1.502  -0.416  1.00  0.00    -0.037 C 
HETATM    7  C10 UNL     1      -1.088   2.614  -0.211  1.00  0.00     0.059 C 
HETATM    8  C13 UNL     1       0.977   1.310   0.067  1.00  0.00     0.221 C 
HETATM    9  N5  UNL     1       1.291  -0.044   0.380  1.00  0.00    -0.297 N 
HETATM   10  C15 UNL     1       2.583  -0.296   0.938  1.00  0.00     0.335 C 
HETATM   11  O8  UNL     1       2.875  -1.518   1.200  1.00  0.00    -0.246 OA
HETATM   12  N6  UNL     1       3.570   0.653   1.229  1.00  0.00    -0.219 N 
ATOM     13  H6  UNL     1       3.419   1.647   1.059  1.00  0.00     0.185 HD
HETATM   14  C18 UNL     1       0.424  -1.212   0.264  1.00  0.00     0.227 C 
HETATM   15  C20 UNL     1      -1.734  -1.966  -0.892  1.00  0.00     0.161 C 
HETATM   16  S3  UNL     1      -2.238  -1.447  -2.587  1.00  0.00    -0.083 SA
ENDROOT
BRANCH   8  17
HETATM   17  C14 UNL     1       1.816   1.819  -1.039  1.00  0.00     0.201 C 
HETATM   18  O6  UNL     1       2.726   1.167  -1.589  1.00  0.00    -0.646 OA
HETATM   19  O7  UNL     1       1.621   3.113  -1.544  1.00  0.00    -0.646 OA
ENDBRANCH   8  17
BRANCH  14  20
HETATM   20  C19 UNL     1       1.148  -2.243  -0.472  1.00  0.00     0.200 C 
HETATM   21  O11 UNL     1       0.940  -3.481  -0.216  1.00  0.00    -0.646 OA
HETATM   22  O12 UNL     1       2.073  -2.016  -1.458  1.00  0.00    -0.646 OA
ENDBRANCH  14  20
BRANCH  12  23
HETATM   23  S2  UNL     1       5.072   0.058   1.896  1.00  0.00     0.322 S 
HETATM   24  O9  UNL     1       5.144   0.448   3.368  1.00  0.00    -0.182 OA
HETATM   25  O10 UNL     1       5.139  -1.439   1.843  1.00  0.00    -0.182 OA
BRANCH  23  26
HETATM   26  N7  UNL     1       6.444   0.699   1.104  1.00  0.00    -0.301 N 
ATOM     27  H7  UNL     1       7.136   1.284   1.571  1.00  0.00     0.173 HD
BRANCH  26  28
HETATM   28  C16 UNL     1       6.529   0.333  -0.288  1.00  0.00     0.161 C 
BRANCH  28  29
HETATM   29  C17 UNL     1       7.766   0.909  -0.935  1.00  0.00     0.250 C 
BRANCH  29  30
HETATM   30  N8  UNL     1       8.956   0.371  -0.297  1.00  0.00    -0.078 N 
ATOM     31  H83 UNL     1       8.949   0.518   0.712  1.00  0.00     0.274 HD
ATOM     32  H82 UNL     1       8.963  -0.649  -0.299  1.00  0.00     0.274 HD
ATOM     33  H81 UNL     1       9.792   0.760  -0.734  1.00  0.00     0.274 HD
ENDBRANCH  29  30
ENDBRANCH  28  29
ENDBRANCH  26  28
ENDBRANCH  23  26
ENDBRANCH  12  23
BRANCH   7  34
HETATM   34  S1  UNL     1      -2.762   2.848  -0.786  1.00  0.00    -0.063 SA
BRANCH  34  35
HETATM   35  C11 UNL     1      -3.292   4.539  -0.680  1.00  0.00     0.179 A 
HETATM   36  N1  UNL     1      -3.179   5.526  -1.594  1.00  0.00    -0.261 N 
HETATM   37  N2  UNL     1      -3.717   6.651  -1.120  1.00  0.00    -0.005 NA
ATOM     38  H1  UNL     1      -2.746   5.426  -2.512  1.00  0.00     0.186 HD
HETATM   39  N3  UNL     1      -4.168   6.355   0.099  1.00  0.00    -0.223 N 
HETATM   40  N4  UNL     1      -3.917   5.089   0.373  1.00  0.00    -0.261 N 
ATOM     41  H3  UNL     1      -4.637   7.009   0.726  1.00  0.00     0.206 HD
HETATM   42  C12 UNL     1      -4.263   4.437   1.596  1.00  0.00     0.181 C 
ENDBRANCH  34  35
ENDBRANCH   7  34
BRANCH   2  43
HETATM   43  C6  UNL     1      -2.272  -2.288   2.432  1.00  0.00     0.201 C 
BRANCH  43  44
HETATM   44  O4  UNL     1      -3.288  -3.256   2.663  1.00  0.00    -0.398 OA
ATOM     45  H4  UNL     1      -3.055  -3.768   3.428  1.00  0.00     0.209 HD
ENDBRANCH  43  44
ENDBRANCH   2  43
BRANCH   1  46
HETATM   46  O1  UNL     1      -2.634  -3.664   0.420  1.00  0.00    -0.356 OA
HETATM   47  C1  UNL     1      -2.836  -4.570  -0.608  1.00  0.00     0.205 C 
ENDBRANCH   1  46
BRANCH   1  48
HETATM   48  O2  UNL     1      -4.150  -2.350  -0.459  1.00  0.00    -0.279 OA
BRANCH  48  49
HETATM   49  C3  UNL     1      -5.044  -1.483  -0.953  1.00  0.00     0.257 C 
HETATM   50  C4  UNL     1      -6.438  -1.867  -1.369  1.00  0.00     0.126 C 
HETATM   51  O3  UNL     1      -4.651  -0.295  -1.056  1.00  0.00    -0.266 OA
ENDBRANCH  48  49
ENDBRANCH   1  48
TORSDOF 14
