REMARK  15 active torsions:
REMARK  status: ('A' for Active; 'I' for Inactive)
REMARK    1  A    between atoms: C2_2  and  C3_3 
REMARK    2  A    between atoms: C3_3  and  S1_4 
REMARK    3  A    between atoms: S1_4  and  N1_7 
REMARK       I    between atoms: N1_7  and  C4_9 
REMARK    4  A    between atoms: C4_9  and  C5_11 
REMARK    5  A    between atoms: C5_11  and  O4_12 
REMARK    6  A    between atoms: C5_11  and  C6_14 
REMARK    7  A    between atoms: C6_14  and  O5_15 
REMARK    8  A    between atoms: C6_14  and  C7_17 
REMARK    9  A    between atoms: C7_17  and  O6_18 
REMARK   10  A    between atoms: O6_18  and  C8_19 
REMARK   11  A    between atoms: C8_19  and  C9_21 
REMARK   12  A    between atoms: C11_23  and  N2_24 
REMARK   13  A    between atoms: C13_26  and  C14_27 
REMARK   14  A    between atoms: C21_41  and  N6_42 
REMARK   15  A    between atoms: N9_51  and  O10_52 
ROOT
HETATM    1  C9  UNL     1      -0.161   1.549  -1.634  1.00  0.00     0.183 C 
HETATM    2  C10 UNL     1      -1.303   0.524  -1.552  1.00  0.00     0.074 C 
HETATM    3  C11 UNL     1      -2.373   1.295  -0.810  1.00  0.00     0.241 C 
HETATM    4  N9  UNL     1      -1.611   1.916   0.227  1.00  0.00    -0.203 N 
HETATM    5  C24 UNL     1      -0.437   2.412  -0.456  1.00  0.00     0.259 C 
HETATM    6  O11 UNL     1       0.269   3.422  -0.128  1.00  0.00    -0.270 OA
ENDROOT
BRANCH   3   7
HETATM    7  N2  UNL     1      -3.493   0.523  -0.404  1.00  0.00    -0.167 N 
HETATM    8  C12 UNL     1      -3.542  -0.815  -0.361  1.00  0.00     0.129 A 
HETATM    9  C13 UNL     1      -4.648  -1.511   0.031  1.00  0.00     0.060 A 
HETATM   10  C18 UNL     1      -5.792  -0.810   0.407  1.00  0.00     0.279 A 
HETATM   11  O8  UNL     1      -6.790  -1.489   0.760  1.00  0.00    -0.266 OA
HETATM   12  N4  UNL     1      -5.743   0.533   0.363  1.00  0.00    -0.101 N 
HETATM   13  C19 UNL     1      -6.696   1.448   0.671  1.00  0.00     0.173 A 
HETATM   14  C23 UNL     1      -4.612   1.178  -0.036  1.00  0.00     0.698 A 
HETATM   15  C20 UNL     1      -7.989   1.411   1.114  1.00  0.00     0.291 A 
HETATM   16  C22 UNL     1      -6.121   2.706   0.449  1.00  0.00     0.170 A 
HETATM   17  O9  UNL     1      -8.565   0.329   1.332  1.00  0.00    -0.265 OA
HETATM   18  N5  UNL     1      -8.696   2.565   1.334  1.00  0.00    -0.154 N 
HETATM   19  C21 UNL     1      -8.136   3.767   1.119  1.00  0.00     0.680 A 
ATOM     20  H5  UNL     1      -9.659   2.510   1.665  1.00  0.00     0.187 HD
HETATM   21  N7  UNL     1      -6.865   3.808   0.683  1.00  0.00    -0.174 N 
ATOM     22  H7  UNL     1      -6.440   4.721   0.520  1.00  0.00     0.186 HD
HETATM   23  N8  UNL     1      -4.884   2.508   0.031  1.00  0.00    -0.173 N 
ATOM     24  H8  UNL     1      -4.225   3.249  -0.208  1.00  0.00     0.186 HD
BRANCH   9  25
HETATM   25  C14 UNL     1      -4.667  -2.999   0.061  1.00  0.00    -0.010 A 
HETATM   26  C15 UNL     1      -4.145  -3.709  -0.989  1.00  0.00     0.064 A 
HETATM   27  S2  UNL     1      -4.387  -5.328  -0.518  1.00  0.00    -0.086 SA
HETATM   28  C16 UNL     1      -5.138  -5.065   0.989  1.00  0.00     0.087 A 
HETATM   29  N3  UNL     1      -5.627  -6.029   1.954  1.00  0.00    -0.094 NA
HETATM   30  C17 UNL     1      -5.178  -3.697   1.080  1.00  0.00     0.047 A 
ENDBRANCH   9  25
BRANCH  19  31
HETATM   31  N6  UNL     1      -8.824   4.844   1.335  1.00  0.00    -0.234 N 
ATOM     32  H62 UNL     1      -9.788   4.813   1.666  1.00  0.00     0.174 HD
ATOM     33  H61 UNL     1      -8.399   5.757   1.172  1.00  0.00     0.174 HD
ENDBRANCH  19  31
ENDBRANCH   3   7
BRANCH   4  34
HETATM   34  O10 UNL     1      -1.827   2.064   1.550  1.00  0.00    -0.283 OA
ATOM     35  H10 UNL     1      -1.320   2.477   2.239  1.00  0.00     0.245 HD
ENDBRANCH   4  34
BRANCH   1  36
HETATM   36  C8  UNL     1       1.167   0.887  -1.374  1.00  0.00     0.272 C 
HETATM   37  O7  UNL     1       1.887   1.349  -0.453  1.00  0.00    -0.264 OA
BRANCH  36  38
HETATM   38  O6  UNL     1       1.602  -0.180  -2.098  1.00  0.00    -0.318 OA
BRANCH  38  39
HETATM   39  C7  UNL     1       2.842  -0.787  -1.869  1.00  0.00     0.213 C 
BRANCH  39  40
HETATM   40  C6  UNL     1       3.946   0.186  -2.199  1.00  0.00     0.180 C 
BRANCH  40  41
HETATM   41  C5  UNL     1       5.332  -0.427  -2.061  1.00  0.00     0.241 C 
BRANCH  41  42
HETATM   42  C4  UNL     1       5.707  -0.677  -0.648  1.00  0.00     0.262 C 
HETATM   43  N1  UNL     1       6.764   0.028  -0.015  1.00  0.00    -0.252 N 
ATOM     44  H1  UNL     1       7.282   0.726  -0.549  1.00  0.00     0.181 HD
HETATM   45  O3  UNL     1       5.100  -1.537   0.075  1.00  0.00    -0.270 OA
BRANCH  43  46
HETATM   46  S1  UNL     1       7.192  -0.255   1.604  1.00  0.00     0.233 S 
HETATM   47  O1  UNL     1       7.482   1.074   2.246  1.00  0.00    -0.206 OA
HETATM   48  O2  UNL     1       6.061  -0.866   2.392  1.00  0.00    -0.206 OA
BRANCH  46  49
HETATM   49  C3  UNL     1       8.590  -1.319   1.776  1.00  0.00     0.163 C 
BRANCH  49  50
HETATM   50  C2  UNL     1       9.815  -0.740   1.099  1.00  0.00     0.012 C 
HETATM   51  C1  UNL     1      10.173   0.587   1.701  1.00  0.00     0.006 C 
ENDBRANCH  49  50
ENDBRANCH  46  49
ENDBRANCH  43  46
ENDBRANCH  41  42
BRANCH  41  52
HETATM   52  O4  UNL     1       6.237   0.535  -2.540  1.00  0.00    -0.383 OA
ATOM     53  H4  UNL     1       5.997   0.695  -3.445  1.00  0.00     0.210 HD
ENDBRANCH  41  52
ENDBRANCH  40  41
BRANCH  40  54
HETATM   54  O5  UNL     1       3.724   0.513  -3.562  1.00  0.00    -0.390 OA
ATOM     55  H5  UNL     1       2.859   0.896  -3.648  1.00  0.00     0.210 HD
ENDBRANCH  40  54
ENDBRANCH  39  40
ENDBRANCH  38  39
ENDBRANCH  36  38
ENDBRANCH   1  36
TORSDOF 15
