REMARK  2 active torsions:
REMARK  status: ('A' for Active; 'I' for Inactive)
REMARK    1  A    between atoms: N1_1  and  N2_4 
REMARK    2  A    between atoms: C1_5  and  O1_6 
ROOT
HETATM    1  N2  UNL     1      -0.671   0.062   0.676  1.00  0.00    -0.190 NA
HETATM    2  C1  UNL     1       0.661   0.568   0.376  1.00  0.00     0.215 C 
HETATM    3  C2  UNL     1       0.910  -0.557  -0.596  1.00  0.00     0.086 C 
HETATM    4  C3  UNL     1      -0.252  -1.209   0.132  1.00  0.00     0.181 C 
HETATM    5 CL1  UNL     1       0.402  -2.215   1.466  1.00  0.00    -0.106 Cl
ENDROOT
BRANCH   1   6
HETATM    6  N1  UNL     1      -1.676   0.723  -0.007  1.00  0.00    -0.360 NA
ATOM      7  H12 UNL     1      -1.972   1.620   0.377  1.00  0.00     0.171 HD
ATOM      8  H11 UNL     1      -2.609   0.369   0.203  1.00  0.00     0.171 HD
ENDBRANCH   1   6
BRANCH   2   9
HETATM    9  O1  UNL     1       0.599   1.798  -0.302  1.00  0.00    -0.379 OA
ATOM     10  H1  UNL     1       1.468   2.128  -0.498  1.00  0.00     0.211 HD
ENDBRANCH   2   9
TORSDOF 2
