REMARK  2 active torsions:
REMARK  status: ('A' for Active; 'I' for Inactive)
REMARK    1  A    between atoms: N1_1  and  C1_5 
REMARK    2  A    between atoms: C2_6  and  O1_7 
ROOT
HETATM    1  C1  UNL     1       0.599   0.068   0.267  1.00  0.00     0.230 C 
HETATM    2  C2  UNL     1      -0.445  -0.901  -0.313  1.00  0.00     0.151 C 
HETATM    3  C3  UNL     1      -1.484   0.125   0.154  1.00  0.00     0.056 C 
HETATM    4  C4  UNL     1      -0.392   1.165  -0.132  1.00  0.00     0.117 C 
HETATM    5 CL1  UNL     1      -0.353   2.527   0.954  1.00  0.00    -0.123 Cl
ENDROOT
BRANCH   1   6
HETATM    6  N1  UNL     1       1.826   0.059  -0.446  1.00  0.00    -0.071 N 
ATOM      7  H13 UNL     1       2.203  -0.887  -0.508  1.00  0.00     0.274 HD
ATOM      8  H12 UNL     1       1.671   0.243  -1.437  1.00  0.00     0.274 HD
ATOM      9  H11 UNL     1       2.518   0.702  -0.061  1.00  0.00     0.274 HD
ENDBRANCH   1   6
BRANCH   2  10
HETATM   10  O1  UNL     1      -0.510  -2.117   0.341  1.00  0.00    -0.393 OA
ATOM     11  H1  UNL     1      -1.155  -2.716  -0.017  1.00  0.00     0.210 HD
ENDBRANCH   2  10
TORSDOF 2
