REMARK  2 active torsions:
REMARK  status: ('A' for Active; 'I' for Inactive)
REMARK    1  A    between atoms: C2_3  and  N2_4 
REMARK    2  A    between atoms: C3_8  and  O1_9 
ROOT
HETATM    1  C1  UNL     1       1.943  -0.338   0.096  1.00  0.00     0.315 C 
HETATM    2  N1  UNL     1       0.835   0.209  -0.609  1.00  0.00     0.139 N 
HETATM    3  C2  UNL     1      -0.396  -0.513  -0.592  1.00  0.00     0.450 C 
HETATM    4  C3  UNL     1      -0.983   0.432   0.451  1.00  0.00     0.227 C 
HETATM    5  C4  UNL     1       0.155   1.328   0.003  1.00  0.00     0.352 C 
HETATM    6 CL1  UNL     1      -0.382   2.465  -1.246  1.00  0.00    -0.089 Cl
ENDROOT
BRANCH   3   7
HETATM    7  N2  UNL     1      -0.375  -1.857  -0.118  1.00  0.00    -0.045 N 
ATOM      8  H23 UNL     1       0.317  -2.388  -0.647  1.00  0.00     0.277 HD
ATOM      9  H22 UNL     1       0.038  -1.877   0.815  1.00  0.00     0.277 HD
ATOM     10  H21 UNL     1      -1.255  -2.373  -0.106  1.00  0.00     0.277 HD
ENDBRANCH   3   7
BRANCH   4  11
HETATM   11  O1  UNL     1      -2.248   0.847   0.079  1.00  0.00    -0.388 OA
ATOM     12  H1  UNL     1      -2.614   1.436   0.729  1.00  0.00     0.210 HD
ENDBRANCH   4  11
TORSDOF 2
