REMARK  7 active torsions:
REMARK  status: ('A' for Active; 'I' for Inactive)
REMARK    1  A    between atoms: N1_1  and  C1_5 
REMARK    2  A    between atoms: C1_5  and  C2_6 
REMARK    3  A    between atoms: N2_8  and  C4_9 
REMARK    4  A    between atoms: C4_9  and  C5_10 
REMARK    5  A    between atoms: C5_10  and  C6_11 
REMARK    6  A    between atoms: C6_11  and  N3_12 
REMARK    7  A    between atoms: N3_12  and  C7_14 
ROOT
HETATM    1  C4  UNL     1       1.464   0.405  -0.202  1.00  0.00     0.278 C 
ENDROOT
BRANCH   1   2
HETATM    2  N2  UNL     1       2.148  -0.803   0.162  1.00  0.00     0.099 N 
HETATM    3  C2  UNL     1       3.561  -0.943   0.005  1.00  0.00     0.276 A 
HETATM    4  C3  UNL     1       2.873  -0.958   1.375  1.00  0.00     0.310 A 
BRANCH   3   5
HETATM    5  C1  UNL     1       4.436   0.262  -0.234  1.00  0.00     0.267 C 
BRANCH   5   6
HETATM    6  N1  UNL     1       5.505   0.359   0.750  1.00  0.00    -0.077 N 
ATOM      7  H13 UNL     1       5.136   0.351   1.701  1.00  0.00     0.274 HD
ATOM      8  H12 UNL     1       6.056  -0.499   0.785  1.00  0.00     0.274 HD
ATOM      9  H11 UNL     1       6.097   1.174   0.588  1.00  0.00     0.274 HD
ENDBRANCH   5   6
ENDBRANCH   3   5
ENDBRANCH   1   2
BRANCH   1  10
HETATM   10  C5  UNL     1      -0.019   0.341   0.127  1.00  0.00     0.074 C 
BRANCH  10  11
HETATM   11  C6  UNL     1      -0.683  -0.788  -0.580  1.00  0.00     0.057 C 
BRANCH  11  12
HETATM   12  N3  UNL     1      -2.028  -1.004  -0.347  1.00  0.00    -0.395 N 
ATOM     13  H3  UNL     1      -2.279  -1.831   0.195  1.00  0.00     0.159 HD
BRANCH  12  14
HETATM   14  C7  UNL     1      -3.069  -0.193  -0.786  1.00  0.00     0.112 C 
HETATM   15  C8  UNL     1      -3.021   1.188  -0.201  1.00  0.00     0.156 C 
HETATM   16  N4  UNL     1      -4.429   1.578  -0.184  1.00  0.00    -0.146 NA
HETATM   17  N5  UNL     1      -5.084   0.466   0.278  1.00  0.00    -0.146 NA
HETATM   18  C9  UNL     1      -4.433  -0.687  -0.298  1.00  0.00     0.156 C 
ENDBRANCH  12  14
ENDBRANCH  11  12
ENDBRANCH  10  11
ENDBRANCH   1  10
TORSDOF 7
