REMARK  7 active torsions:
REMARK  status: ('A' for Active; 'I' for Inactive)
REMARK    1  A    between atoms: C3_5  and  N2_6 
REMARK    2  A    between atoms: N2_6  and  C4_8 
REMARK    3  A    between atoms: C4_8  and  C5_9 
REMARK    4  A    between atoms: C5_9  and  N3_10 
REMARK    5  A    between atoms: N3_10  and  C6_13 
REMARK    6  A    between atoms: C6_13  and  C7_14 
REMARK    7  A    between atoms: C7_14  and  N4_15 
ROOT
HETATM    1  N2  UNL     1      -0.063   0.513   1.562  1.00  0.00    -0.223 N 
ATOM      2  H2  UNL     1      -0.888   1.099   1.688  1.00  0.00     0.177 HD
ENDROOT
BRANCH   1   3
HETATM    3  C3  UNL     1      -0.175  -0.734   1.821  1.00  0.00     0.694 A 
HETATM    4  N1  UNL     1      -1.261  -1.403   2.250  1.00  0.00    -0.179 N 
HETATM    5  C2  UNL     1      -0.926  -2.695   2.390  1.00  0.00     0.108 A 
ATOM      6  H1  UNL     1      -2.179  -0.999   2.436  1.00  0.00     0.185 HD
HETATM    7  C1  UNL     1      -1.849  -3.763   2.851  1.00  0.00     0.091 C 
HETATM    8  N6  UNL     1       0.368  -2.827   2.046  1.00  0.00    -0.275 N 
HETATM    9  N5  UNL     1       0.836  -1.642   1.700  1.00  0.00    -0.131 N 
ATOM     10  H6  UNL     1       0.899  -3.698   2.052  1.00  0.00     0.189 HD
ATOM     11  H5  UNL     1       1.788  -1.440   1.395  1.00  0.00     0.205 HD
ENDBRANCH   1   3
BRANCH   1  12
HETATM   12  C4  UNL     1       1.144   1.148   1.106  1.00  0.00     0.165 C 
BRANCH  12  13
HETATM   13  C5  UNL     1       1.414   0.998  -0.353  1.00  0.00     0.252 C 
BRANCH  13  14
HETATM   14  N3  UNL     1       0.296   1.569  -1.100  1.00  0.00    -0.072 N 
ATOM     15  H32 UNL     1      -0.580   1.085  -0.903  1.00  0.00     0.277 HD
ATOM     16  H31 UNL     1       0.039   2.493  -0.754  1.00  0.00     0.277 HD
BRANCH  14  17
HETATM   17  C6  UNL     1       0.599   1.587  -2.525  1.00  0.00     0.259 C 
BRANCH  17  18
HETATM   18  C7  UNL     1      -0.642   2.049  -3.258  1.00  0.00     0.257 C 
BRANCH  18  19
HETATM   19  N4  UNL     1      -1.084   3.345  -2.848  1.00  0.00    -0.078 N 
ATOM     20  H43 UNL     1      -1.224   3.379  -1.838  1.00  0.00     0.274 HD
ATOM     21  H42 UNL     1      -0.333   4.030  -2.936  1.00  0.00     0.274 HD
ATOM     22  H41 UNL     1      -1.920   3.656  -3.342  1.00  0.00     0.274 HD
ENDBRANCH  18  19
ENDBRANCH  17  18
ENDBRANCH  14  17
ENDBRANCH  13  14
ENDBRANCH  12  13
ENDBRANCH   1  12
TORSDOF 7
