REMARK  7 active torsions:
REMARK  status: ('A' for Active; 'I' for Inactive)
REMARK    1  A    between atoms: N1_1  and  C1_5 
REMARK    2  A    between atoms: C1_5  and  C2_6 
REMARK    3  A    between atoms: C2_6  and  N2_7 
REMARK    4  A    between atoms: N2_7  and  C3_9 
REMARK    5  A    between atoms: C3_9  and  C4_10 
REMARK    6  A    between atoms: C4_10  and  N3_11 
REMARK    7  A    between atoms: N3_11  and  C5_13 
ROOT
HETATM    1  N3  UNL     1      -0.735   0.696  -0.468  1.00  0.00    -0.370 N 
ATOM      2  H3  UNL     1      -0.532   1.665  -0.222  1.00  0.00     0.161 HD
ENDROOT
BRANCH   1   3
HETATM    3  C4  UNL     1       0.347  -0.231  -0.837  1.00  0.00     0.165 C 
BRANCH   3   4
HETATM    4  C3  UNL     1       1.070  -0.566   0.449  1.00  0.00     0.075 C 
BRANCH   4   5
HETATM    5  N2  UNL     1       1.669   0.537   1.088  1.00  0.00    -0.399 N 
ATOM      6  H2  UNL     1       1.306   0.884   1.976  1.00  0.00     0.158 HD
BRANCH   5   7
HETATM    7  C2  UNL     1       2.786   1.155   0.473  1.00  0.00     0.146 C 
BRANCH   7   8
HETATM    8  C1  UNL     1       4.041   0.347   0.487  1.00  0.00     0.249 C 
BRANCH   8   9
HETATM    9  N1  UNL     1       4.022  -0.901  -0.175  1.00  0.00    -0.078 N 
ATOM     10  H13 UNL     1       3.254  -1.465   0.190  1.00  0.00     0.274 HD
ATOM     11  H12 UNL     1       3.719  -0.766  -1.139  1.00  0.00     0.274 HD
ATOM     12  H11 UNL     1       4.880  -1.453  -0.165  1.00  0.00     0.274 HD
ENDBRANCH   8   9
ENDBRANCH   7   8
ENDBRANCH   5   7
ENDBRANCH   4   5
ENDBRANCH   3   4
ENDBRANCH   1   3
BRANCH   1  13
HETATM   13  C5  UNL     1      -1.948   0.252  -0.463  1.00  0.00     0.134 A 
HETATM   14  N4  UNL     1      -2.539  -1.004  -0.745  1.00  0.00    -0.325 N 
HETATM   15  C6  UNL     1      -3.842  -0.499  -0.456  1.00  0.00     0.139 A 
ATOM     16  H4  UNL     1      -2.176  -1.911  -1.039  1.00  0.00     0.169 HD
HETATM   17  N5  UNL     1      -5.162  -0.380  -0.272  1.00  0.00    -0.337 N 
HETATM   18  C8  UNL     1      -3.282   0.725  -0.180  1.00  0.00     0.122 A 
HETATM   19  C7  UNL     1      -5.456   0.881   0.113  1.00  0.00     0.182 A 
ATOM     20  H5  UNL     1      -5.843  -1.128  -0.403  1.00  0.00     0.168 HD
HETATM   21  N6  UNL     1      -4.281   1.561   0.167  1.00  0.00    -0.346 N 
ATOM     22  H6  UNL     1      -4.173   2.541   0.427  1.00  0.00     0.167 HD
ENDBRANCH   1  13
TORSDOF 7
