REMARK  6 active torsions:
REMARK  status: ('A' for Active; 'I' for Inactive)
REMARK    1  A    between atoms: N1_1  and  C1_5 
REMARK    2  A    between atoms: C1_5  and  C2_6 
REMARK    3  A    between atoms: C2_6  and  C3_7 
REMARK    4  A    between atoms: C3_7  and  N2_8 
REMARK    5  A    between atoms: N2_8  and  C4_10 
REMARK    6  A    between atoms: C4_10  and  C5_11 
ROOT
HETATM    1  C4  UNL     1      -0.139  -0.194  -0.928  1.00  0.00     0.063 C 
ENDROOT
BRANCH   1   2
HETATM    2  N2  UNL     1       1.132  -0.230  -0.407  1.00  0.00    -0.402 N 
ATOM      3  H2  UNL     1       1.814  -0.767  -0.943  1.00  0.00     0.158 HD
BRANCH   2   4
HETATM    4  C3  UNL     1       1.608   0.363   0.744  1.00  0.00     0.120 C 
BRANCH   4   5
HETATM    5  C2  UNL     1       3.136   0.105   0.798  1.00  0.00     0.047 C 
BRANCH   5   6
HETATM    6  C1  UNL     1       3.840   0.669  -0.395  1.00  0.00     0.231 C 
BRANCH   6   7
HETATM    7  N1  UNL     1       5.261   0.350  -0.205  1.00  0.00    -0.079 N 
ATOM      8  H13 UNL     1       5.638   0.677   0.685  1.00  0.00     0.274 HD
ATOM      9  H12 UNL     1       5.441  -0.643  -0.056  1.00  0.00     0.274 HD
ATOM     10  H11 UNL     1       5.741   0.735  -1.019  1.00  0.00     0.274 HD
ENDBRANCH   6   7
ENDBRANCH   5   6
ENDBRANCH   4   5
ENDBRANCH   2   4
ENDBRANCH   1   2
BRANCH   1  11
HETATM   11  C5  UNL     1      -1.282  -0.904  -0.268  1.00  0.00     0.059 C 
HETATM   12  C6  UNL     1      -1.676  -0.495   1.089  1.00  0.00     0.133 C 
HETATM   13  N3  UNL     1      -2.783   0.453   1.131  1.00  0.00    -0.364 N 
HETATM   14  C7  UNL     1      -3.704   0.537   0.238  1.00  0.00     0.184 C 
ATOM     15  H3  UNL     1      -2.830   1.094   1.923  1.00  0.00     0.162 HD
HETATM   16  N4  UNL     1      -4.753   1.503   0.368  1.00  0.00    -0.064 NA
HETATM   17  N5  UNL     1      -3.625  -0.358  -0.847  1.00  0.00    -0.364 N 
HETATM   18  C8  UNL     1      -2.453  -1.071  -1.220  1.00  0.00     0.133 C 
ATOM     19  H5  UNL     1      -4.467  -0.505  -1.404  1.00  0.00     0.162 HD
ENDBRANCH   1  11
TORSDOF 6
