REMARK  7 active torsions:
REMARK  status: ('A' for Active; 'I' for Inactive)
REMARK    1  A    between atoms: N1_1  and  C1_5 
REMARK    2  A    between atoms: C1_5  and  C2_6 
REMARK    3  A    between atoms: C2_6  and  N2_7 
REMARK    4  A    between atoms: N2_7  and  C3_8 
REMARK    5  A    between atoms: C4_15  and  C5_16 
REMARK    6  A    between atoms: C5_16  and  N6_17 
REMARK    7  A    between atoms: N6_17  and  C6_19 
ROOT
HETATM    1  C3  UNL     1       1.172   0.715  -0.058  1.00  0.00     0.218 A 
HETATM    2  N3  UNL     1       1.626   2.059  -0.238  1.00  0.00    -0.258 N 
ATOM      3  H3  UNL     1       2.597   2.347  -0.358  1.00  0.00     0.191 HD
HETATM    4  N4  UNL     1       0.593   2.856  -0.224  1.00  0.00    -0.240 N 
ATOM      5  H4  UNL     1       0.632   3.870  -0.325  1.00  0.00     0.208 HD
HETATM    6  N5  UNL     1      -0.491   2.162  -0.062  1.00  0.00    -0.280 N 
ATOM      7  H5  UNL     1      -1.434   2.548  -0.014  1.00  0.00     0.188 HD
HETATM    8  C4  UNL     1      -0.180   0.847   0.034  1.00  0.00     0.123 A 
ENDROOT
BRANCH   1   9
HETATM    9  N2  UNL     1       1.940  -0.206   0.067  1.00  0.00    -0.426 NA
BRANCH   9  10
HETATM   10  C2  UNL     1       2.692  -1.303   0.214  1.00  0.00     0.247 C 
BRANCH  10  11
HETATM   11  C1  UNL     1       4.161  -0.929   0.586  1.00  0.00     0.263 C 
BRANCH  11  12
HETATM   12  N1  UNL     1       4.754  -0.106  -0.413  1.00  0.00    -0.077 N 
ATOM     13  H13 UNL     1       4.700  -0.539  -1.335  1.00  0.00     0.274 HD
ATOM     14  H12 UNL     1       4.191   0.725  -0.596  1.00  0.00     0.274 HD
ATOM     15  H11 UNL     1       5.714   0.138  -0.170  1.00  0.00     0.274 HD
ENDBRANCH  11  12
ENDBRANCH  10  11
ENDBRANCH   9  10
ENDBRANCH   1   9
BRANCH   8  16
HETATM   16  C5  UNL     1      -1.279  -0.156  -0.006  1.00  0.00     0.119 C 
BRANCH  16  17
HETATM   17  N6  UNL     1      -2.457   0.484   0.425  1.00  0.00    -0.392 N 
ATOM     18  H6  UNL     1      -2.343   1.328   0.987  1.00  0.00     0.159 HD
BRANCH  17  19
HETATM   19  C6  UNL     1      -3.733   0.086   0.165  1.00  0.00     0.081 A 
HETATM   20  C7  UNL     1      -4.283  -1.265   0.495  1.00  0.00     0.027 A 
HETATM   21  C8  UNL     1      -4.214  -0.748  -0.960  1.00  0.00     0.027 A 
ENDBRANCH  17  19
ENDBRANCH  16  17
ENDBRANCH   8  16
TORSDOF 7
