REMARK  7 active torsions:
REMARK  status: ('A' for Active; 'I' for Inactive)
REMARK    1  A    between atoms: N1_1  and  C1_5 
REMARK    2  A    between atoms: C1_5  and  C2_6 
REMARK    3  A    between atoms: C2_6  and  C3_7 
REMARK    4  A    between atoms: C3_7  and  N2_8 
REMARK    5  A    between atoms: N2_8  and  C4_11 
REMARK    6  A    between atoms: C4_11  and  C5_12 
REMARK    7  A    between atoms: C9_18  and  N4_19 
ROOT
HETATM    1  C5  UNL     1      -1.313  -0.224   0.413  1.00  0.00     0.045 C 
HETATM    2  C6  UNL     1      -1.841  -1.276  -0.513  1.00  0.00     0.027 C 
HETATM    3  C7  UNL     1      -3.019  -0.850  -1.330  1.00  0.00     0.114 C 
HETATM    4  N3  UNL     1      -4.077  -0.281  -0.555  1.00  0.00    -0.419 N 
ATOM      5  H3  UNL     1      -5.042  -0.249  -0.884  1.00  0.00     0.153 HD
HETATM    6  C8  UNL     1      -3.681   0.240   0.716  1.00  0.00     0.147 C 
HETATM    7  C9  UNL     1      -2.292   0.890   0.655  1.00  0.00     0.206 C 
ENDROOT
BRANCH   1   8
HETATM    8  C4  UNL     1       0.062   0.269  -0.009  1.00  0.00     0.239 C 
BRANCH   8   9
HETATM    9  N2  UNL     1       0.952  -0.870   0.006  1.00  0.00    -0.075 N 
ATOM     10  H22 UNL     1       0.577  -1.625  -0.568  1.00  0.00     0.277 HD
ATOM     11  H21 UNL     1       0.937  -1.324   0.919  1.00  0.00     0.277 HD
BRANCH   9  12
HETATM   12  C3  UNL     1       2.293  -0.564  -0.380  1.00  0.00     0.233 C 
BRANCH  12  13
HETATM   13  C2  UNL     1       3.008   0.311   0.633  1.00  0.00     0.055 C 
BRANCH  13  14
HETATM   14  C1  UNL     1       4.425   0.607   0.173  1.00  0.00     0.231 C 
BRANCH  14  15
HETATM   15  N1  UNL     1       5.198  -0.602   0.010  1.00  0.00    -0.079 N 
ATOM     16  H13 UNL     1       5.193  -1.164   0.861  1.00  0.00     0.274 HD
ATOM     17  H12 UNL     1       4.733  -1.259  -0.617  1.00  0.00     0.274 HD
ATOM     18  H11 UNL     1       6.150  -0.403  -0.299  1.00  0.00     0.274 HD
ENDBRANCH  14  15
ENDBRANCH  13  14
ENDBRANCH  12  13
ENDBRANCH   9  12
ENDBRANCH   8   9
ENDBRANCH   1   8
BRANCH   7  19
HETATM   19  N4  UNL     1      -2.325   1.882  -0.376  1.00  0.00    -0.073 N 
ATOM     20  H43 UNL     1      -1.391   2.258  -0.538  1.00  0.00     0.274 HD
ATOM     21  H42 UNL     1      -2.498   1.447  -1.283  1.00  0.00     0.274 HD
ATOM     22  H41 UNL     1      -2.990   2.638  -0.212  1.00  0.00     0.274 HD
ENDBRANCH   7  19
TORSDOF 7
