REMARK  8 active torsions:
REMARK  status: ('A' for Active; 'I' for Inactive)
REMARK    1  A    between atoms: C2_2  and  O1_3 
REMARK    2  A    between atoms: O1_3  and  C3_4 
REMARK    3  A    between atoms: C3_4  and  O3_6 
REMARK    4  A    between atoms: O3_6  and  C4_7 
REMARK    5  A    between atoms: C7_10  and  C8_11 
REMARK    6  A    between atoms: C24_29  and  C25_30 
REMARK    7  A    between atoms: C25_30  and  O7_32 
REMARK    8  A    between atoms: O7_32  and  C26_33 
ROOT
HETATM    1  C4  UNL     1       4.400  -0.329  -0.320  1.00  0.00     0.144 C 
HETATM    2  C5  UNL     1       5.526  -1.169  -0.989  1.00  0.00     0.035 C 
HETATM    3  C6  UNL     1       4.785  -2.140  -1.829  1.00  0.00     0.024 C 
HETATM    4  C7  UNL     1       3.347  -1.654  -1.965  1.00  0.00     0.058 C 
HETATM    5  C9  UNL     1       2.390  -2.471  -1.181  1.00  0.00     0.022 C 
HETATM    6  C10 UNL     1       1.015  -1.912  -1.245  1.00  0.00     0.011 C 
HETATM    7  C11 UNL     1       0.982  -0.501  -0.675  1.00  0.00    -0.032 C 
HETATM    8  C12 UNL     1       0.913  -0.661   0.808  1.00  0.00     0.016 C 
HETATM    9  C13 UNL     1       2.086   0.358  -1.173  1.00  0.00     0.006 C 
HETATM   10  C14 UNL     1       2.132   1.643  -0.407  1.00  0.00     0.007 C 
HETATM   11  C15 UNL     1       0.800   2.175  -0.036  1.00  0.00     0.006 C 
HETATM   12  C16 UNL     1      -0.395   1.583  -0.636  1.00  0.00    -0.000 C 
HETATM   13  C17 UNL     1      -1.587   1.658   0.339  1.00  0.00     0.009 C 
HETATM   14  C18 UNL     1      -2.203   3.000   0.327  1.00  0.00     0.015 C 
HETATM   15  C19 UNL     1      -3.622   3.138  -0.014  1.00  0.00    -0.047 C 
HETATM   16  C20 UNL     1      -4.418   3.839   1.100  1.00  0.00     0.015 C 
HETATM   17  C21 UNL     1      -3.843   4.035  -1.245  1.00  0.00     0.015 C 
HETATM   18  C22 UNL     1      -4.365   1.867  -0.310  1.00  0.00     0.010 C 
HETATM   19  C23 UNL     1      -3.435   0.989  -1.108  1.00  0.00     0.021 C 
HETATM   20  C24 UNL     1      -2.399   0.507  -0.082  1.00  0.00     0.053 C 
HETATM   21  C30 UNL     1      -1.539  -0.559  -0.676  1.00  0.00     0.030 C 
HETATM   22  C31 UNL     1      -0.319   0.181  -1.134  1.00  0.00    -0.031 C 
HETATM   23  C32 UNL     1      -0.405   0.255  -2.651  1.00  0.00     0.016 C 
HETATM   24  C33 UNL     1       3.407  -0.278  -1.398  1.00  0.00     0.005 C 
HETATM   25  C34 UNL     1       4.122   0.611  -2.446  1.00  0.00     0.020 C 
ENDROOT
BRANCH  20  26
HETATM   26  C25 UNL     1      -3.187  -0.110   1.019  1.00  0.00     0.268 C 
HETATM   27  O6  UNL     1      -3.169   0.307   2.199  1.00  0.00    -0.264 OA
BRANCH  26  28
HETATM   28  O7  UNL     1      -3.993  -1.206   0.750  1.00  0.00    -0.314 OA
BRANCH  28  29
HETATM   29  C26 UNL     1      -4.757  -1.809   1.805  1.00  0.00     0.159 C 
HETATM   30  C27 UNL     1      -4.510  -3.277   1.910  1.00  0.00     0.061 C 
HETATM   31  C28 UNL     1      -5.876  -3.881   2.050  1.00  0.00     0.235 C 
HETATM   32  N1  UNL     1      -6.833  -2.935   1.561  1.00  0.00    -0.073 N 
HETATM   33  C29 UNL     1      -6.200  -1.663   1.455  1.00  0.00     0.264 C 
ATOM     34  H12 UNL     1      -7.264  -3.232   0.685  1.00  0.00     0.277 HD
ATOM     35  H11 UNL     1      -7.679  -2.905   2.130  1.00  0.00     0.277 HD
ENDBRANCH  28  29
ENDBRANCH  26  28
ENDBRANCH  20  26
BRANCH   4  36
HETATM   36  C8  UNL     1       3.045  -1.769  -3.403  1.00  0.00     0.182 C 
HETATM   37  O4  UNL     1       2.159  -2.568  -3.783  1.00  0.00    -0.647 OA
HETATM   38  O5  UNL     1       3.654  -1.066  -4.427  1.00  0.00    -0.647 OA
ENDBRANCH   4  36
BRANCH   1  39
HETATM   39  O3  UNL     1       4.166  -0.979   0.857  1.00  0.00    -0.292 OA
BRANCH  39  40
HETATM   40  C3  UNL     1       4.557  -0.412   2.058  1.00  0.00     0.406 C 
HETATM   41  O2  UNL     1       5.127   0.708   2.024  1.00  0.00    -0.229 OA
BRANCH  40  42
HETATM   42  O1  UNL     1       4.360  -1.002   3.290  1.00  0.00    -0.298 OA
BRANCH  42  43
HETATM   43  C2  UNL     1       4.809  -0.315   4.468  1.00  0.00     0.176 C 
HETATM   44  C1  UNL     1       6.301  -0.133   4.318  1.00  0.00     0.034 C 
ENDBRANCH  42  43
ENDBRANCH  40  42
ENDBRANCH  39  40
ENDBRANCH   1  39
TORSDOF 8
