REMARK  5 active torsions:
REMARK  status: ('A' for Active; 'I' for Inactive)
REMARK    1  A    between atoms: N1_4  and  C4_5 
REMARK    2  A    between atoms: C6_8  and  O2_9 
REMARK    3  A    between atoms: O2_9  and  C7_10 
REMARK    4  A    between atoms: C17_20  and  S1_21 
REMARK    5  A    between atoms: C25_30  and  O3_31 
ROOT
HETATM    1  C7  UNL     1       2.805  -0.003   0.305  1.00  0.00     0.133 C 
HETATM    2  C8  UNL     1       1.967   1.190   0.669  1.00  0.00     0.034 C 
HETATM    3  C9  UNL     1       0.531   0.959   0.744  1.00  0.00     0.012 C 
HETATM    4  C10 UNL     1      -0.131   0.257  -0.466  1.00  0.00    -0.035 C 
HETATM    5  C11 UNL     1       0.235   1.094  -1.644  1.00  0.00     0.016 C 
HETATM    6  C12 UNL     1       0.643  -1.024  -0.546  1.00  0.00     0.005 C 
HETATM    7  C13 UNL     1       0.125  -1.933  -1.597  1.00  0.00     0.012 C 
HETATM    8  C14 UNL     1      -1.303  -2.264  -1.546  1.00  0.00     0.002 C 
HETATM    9  C15 UNL     1      -2.231  -1.147  -2.046  1.00  0.00     0.017 C 
HETATM   10  C16 UNL     1      -2.484  -0.838  -0.632  1.00  0.00    -0.014 C 
HETATM   11  C17 UNL     1      -2.007  -2.181  -0.252  1.00  0.00     0.073 C 
HETATM   12  C18 UNL     1      -1.533   0.179  -0.063  1.00  0.00     0.004 C 
HETATM   13  C19 UNL     1      -2.086   1.592  -0.060  1.00  0.00     0.007 C 
HETATM   14  C20 UNL     1      -3.218   1.781  -1.021  1.00  0.00     0.007 C 
HETATM   15  C21 UNL     1      -4.374   0.850  -0.644  1.00  0.00     0.005 C 
HETATM   16  C22 UNL     1      -5.426   1.519   0.151  1.00  0.00    -0.017 C 
HETATM   17  C23 UNL     1      -6.825   1.438  -0.504  1.00  0.00     0.018 C 
HETATM   18  C24 UNL     1      -5.230   3.046   0.277  1.00  0.00     0.018 C 
HETATM   19  C25 UNL     1      -5.622   1.077   1.562  1.00  0.00     0.126 C 
HETATM   20  C26 UNL     1      -5.394  -0.367   1.813  1.00  0.00     0.033 C 
HETATM   21  C27 UNL     1      -3.986  -0.658   1.332  1.00  0.00     0.013 C 
HETATM   22  C28 UNL     1      -3.901  -0.495  -0.195  1.00  0.00    -0.030 C 
HETATM   23  C29 UNL     1      -4.906  -1.499  -0.717  1.00  0.00     0.016 C 
HETATM   24  C30 UNL     1       2.109  -0.992  -0.580  1.00  0.00    -0.017 C 
HETATM   25  C31 UNL     1       2.765  -0.916  -1.946  1.00  0.00     0.018 C 
HETATM   26  C32 UNL     1       2.592  -2.385  -0.087  1.00  0.00     0.018 C 
ENDROOT
BRANCH   1  27
HETATM   27  O2  UNL     1       3.979   0.463  -0.285  1.00  0.00    -0.354 OA
BRANCH  27  28
HETATM   28  C6  UNL     1       5.129   0.244   0.437  1.00  0.00     0.278 C 
HETATM   29  C5  UNL     1       5.564   1.620   0.931  1.00  0.00     0.185 C 
HETATM   30  N1  UNL     1       6.859   1.577   1.530  1.00  0.00    -0.352 N 
HETATM   31  C3  UNL     1       7.876   0.850   0.774  1.00  0.00     0.157 C 
HETATM   32  C2  UNL     1       7.350  -0.465   0.268  1.00  0.00     0.138 C 
HETATM   33  C1  UNL     1       8.358  -0.976  -0.750  1.00  0.00     0.041 C 
HETATM   34  O4  UNL     1       6.080  -0.488  -0.150  1.00  0.00    -0.353 OA
BRANCH  30  35
HETATM   35  C4  UNL     1       7.155   2.202   2.787  1.00  0.00     0.351 C 
HETATM   36  O1  UNL     1       8.318   2.102   3.215  1.00  0.00    -0.284 OA
ENDBRANCH  30  35
ENDBRANCH  27  28
ENDBRANCH   1  27
BRANCH  11  37
HETATM   37  S1  UNL     1      -3.058  -3.626  -0.093  1.00  0.00    -0.079 SA
HETATM   38  S2  UNL     1      -1.949  -5.413   0.051  1.00  0.00    -0.013 SA
ENDBRANCH  11  37
BRANCH  19  39
HETATM   39  O3  UNL     1      -4.822   1.799   2.478  1.00  0.00    -0.395 OA
ATOM     40  H3  UNL     1      -4.947   1.517   3.377  1.00  0.00     0.210 HD
ENDBRANCH  19  39
TORSDOF 5
