REMARK  8 active torsions:
REMARK  status: ('A' for Active; 'I' for Inactive)
REMARK    1  A    between atoms: C2_2  and  O2_4 
REMARK    2  A    between atoms: O2_4  and  C3_5 
REMARK    3  A    between atoms: C13_15  and  O3_17 
REMARK    4  A    between atoms: C26_31  and  O5_32 
REMARK    5  A    between atoms: O5_32  and  C27_33 
REMARK    6  A    between atoms: C27_33  and  C28_35 
REMARK    7  A    between atoms: C28_35  and  C29_36 
REMARK    8  A    between atoms: C29_36  and  C30_37 
ROOT
HETATM    1  C3  UNL     1      -1.773   2.690  -0.955  1.00  0.00     0.141 C 
HETATM    2  C4  UNL     1      -2.406   1.841   0.137  1.00  0.00     0.046 C 
HETATM    3  C5  UNL     1      -2.318   0.420  -0.246  1.00  0.00    -0.003 C 
HETATM    4  C6  UNL     1      -3.101   0.387  -1.558  1.00  0.00     0.019 C 
HETATM    5  C7  UNL     1      -3.068  -0.556   0.636  1.00  0.00     0.042 C 
HETATM    6  C8  UNL     1      -4.531  -0.670   0.533  1.00  0.00    -0.033 A 
HETATM    7  C9  UNL     1      -5.499   0.291   1.046  1.00  0.00     0.011 A 
HETATM    8  C10 UNL     1      -5.227  -0.848   1.925  1.00  0.00     0.011 A 
HETATM    9  C11 UNL     1      -5.036  -1.764  -0.383  1.00  0.00     0.013 C 
HETATM   10  C12 UNL     1      -4.466  -3.041   0.089  1.00  0.00     0.041 C 
HETATM   11  C13 UNL     1      -2.973  -3.040  -0.075  1.00  0.00     0.085 C 
HETATM   12  C14 UNL     1      -2.535  -3.484  -1.456  1.00  0.00     0.049 C 
HETATM   13  C15 UNL     1      -2.280  -1.794   0.419  1.00  0.00     0.094 C 
HETATM   14  C16 UNL     1      -1.835  -2.195   1.828  1.00  0.00     0.050 C 
HETATM   15  O4  UNL     1      -1.333  -1.484  -0.506  1.00  0.00    -0.365 OA
HETATM   16  C17 UNL     1      -0.983  -0.144  -0.472  1.00  0.00     0.075 C 
HETATM   17  C18 UNL     1      -0.590   0.555  -1.738  1.00  0.00     0.052 C 
HETATM   18  C19 UNL     1      -0.497   2.042  -1.361  1.00  0.00    -0.006 A 
HETATM   19  C20 UNL     1       0.372   2.833  -2.318  1.00  0.00     0.013 A 
HETATM   20  C21 UNL     1       1.292   3.184  -1.202  1.00  0.00     0.007 A 
HETATM   21  C22 UNL     1       0.514   2.297  -0.284  1.00  0.00     0.005 A 
HETATM   22  C23 UNL     1       1.143   1.100   0.310  1.00  0.00    -0.031 C 
HETATM   23  C24 UNL     1       1.446   1.469   1.779  1.00  0.00     0.016 C 
HETATM   24  C25 UNL     1       2.489   0.872  -0.288  1.00  0.00     0.042 C 
HETATM   25  C26 UNL     1       3.240  -0.353   0.050  1.00  0.00     0.136 C 
HETATM   26  C31 UNL     1       2.331  -1.345   0.720  1.00  0.00     0.012 C 
HETATM   27  C32 UNL     1       2.918  -2.726   0.513  1.00  0.00     0.012 C 
HETATM   28  C33 UNL     1       1.086  -1.271  -0.102  1.00  0.00     0.015 C 
HETATM   29  C34 UNL     1       0.201  -0.076   0.345  1.00  0.00     0.030 C 
ENDROOT
BRANCH  25  30
HETATM   30  O5  UNL     1       4.468  -0.183   0.659  1.00  0.00    -0.316 OA
BRANCH  30  31
HETATM   31  C27 UNL     1       5.708  -0.598   0.207  1.00  0.00     0.259 C 
HETATM   32  O6  UNL     1       5.609  -1.192  -0.898  1.00  0.00    -0.265 OA
BRANCH  31  33
HETATM   33  C28 UNL     1       6.944  -0.354   0.954  1.00  0.00     0.121 C 
BRANCH  33  34
HETATM   34  C29 UNL     1       8.186  -0.949   0.364  1.00  0.00     0.123 C 
BRANCH  34  35
HETATM   35  C30 UNL     1       8.137  -2.410   0.265  1.00  0.00     0.172 C 
HETATM   36  O7  UNL     1       7.792  -2.961  -0.801  1.00  0.00    -0.648 OA
HETATM   37  O8  UNL     1       8.480  -3.174   1.376  1.00  0.00    -0.648 OA
ENDBRANCH  34  35
ENDBRANCH  33  34
ENDBRANCH  31  33
ENDBRANCH  30  31
ENDBRANCH  25  30
BRANCH   1  38
HETATM   38  O2  UNL     1      -1.442   3.886  -0.253  1.00  0.00    -0.316 OA
BRANCH  38  39
HETATM   39  C2  UNL     1      -1.949   5.113  -0.620  1.00  0.00     0.255 C 
HETATM   40  C1  UNL     1      -1.623   6.376   0.091  1.00  0.00     0.126 C 
HETATM   41  O1  UNL     1      -2.725   5.162  -1.607  1.00  0.00    -0.266 OA
ENDBRANCH  38  39
ENDBRANCH   1  38
BRANCH  11  42
HETATM   42  O3  UNL     1      -2.612  -4.182   0.712  1.00  0.00    -0.387 OA
ATOM     43  H3  UNL     1      -1.668  -4.181   0.608  1.00  0.00     0.210 HD
ENDBRANCH  11  42
TORSDOF 8
