REMARK  8 active torsions:
REMARK  status: ('A' for Active; 'I' for Inactive)
REMARK    1  A    between atoms: C2_2  and  O2_4 
REMARK    2  A    between atoms: O2_4  and  C3_5 
REMARK    3  A    between atoms: C5_7  and  O3_8 
REMARK    4  A    between atoms: O3_8  and  C6_9 
REMARK    5  A    between atoms: C7_11  and  O5_13 
REMARK    6  A    between atoms: C9_15  and  O6_16 
REMARK    7  A    between atoms: O6_16  and  C10_17 
REMARK    8  A    between atoms: C23_30  and  O7_31 
ROOT
HETATM    1  C10 UNL     1      -1.003  -0.995   0.170  1.00  0.00     0.131 C 
HETATM    2  C11 UNL     1      -0.823  -2.368  -0.562  1.00  0.00     0.041 C 
HETATM    3  C12 UNL     1       0.114  -3.212   0.210  1.00  0.00    -0.045 C 
HETATM    4  C13 UNL     1      -0.671  -3.938   1.325  1.00  0.00     0.015 C 
HETATM    5  C14 UNL     1       0.546  -4.370  -0.709  1.00  0.00     0.015 C 
HETATM    6  C15 UNL     1       1.327  -2.611   0.775  1.00  0.00     0.014 C 
HETATM    7  C16 UNL     1       1.258  -1.151   1.070  1.00  0.00     0.001 C 
HETATM    8  C17 UNL     1       2.597  -0.468   0.984  1.00  0.00    -0.005 C 
HETATM    9  C18 UNL     1       3.576  -1.004   2.016  1.00  0.00     0.006 C 
HETATM   10  C19 UNL     1       4.623   0.094   2.184  1.00  0.00     0.006 C 
HETATM   11  C20 UNL     1       4.823   0.893   0.908  1.00  0.00     0.000 C 
HETATM   12  C21 UNL     1       6.148   1.587   0.934  1.00  0.00     0.015 C 
HETATM   13  C22 UNL     1       6.012   3.104   1.120  1.00  0.00     0.013 C 
HETATM   14  C23 UNL     1       7.035   1.355  -0.234  1.00  0.00     0.122 C 
HETATM   15  C24 UNL     1       6.356   1.315  -1.558  1.00  0.00     0.033 C 
HETATM   16  C25 UNL     1       4.916   0.937  -1.523  1.00  0.00     0.012 C 
HETATM   17  C26 UNL     1       4.588   0.078  -0.332  1.00  0.00    -0.036 C 
HETATM   18  C27 UNL     1       5.552  -1.114  -0.292  1.00  0.00     0.016 C 
HETATM   19  C28 UNL     1       3.194  -0.452  -0.389  1.00  0.00    -0.002 C 
HETATM   20  C29 UNL     1       2.262   0.314  -1.294  1.00  0.00     0.007 C 
HETATM   21  C30 UNL     1       0.927  -0.353  -1.272  1.00  0.00     0.012 C 
HETATM   22  C31 UNL     1       0.336  -0.378   0.139  1.00  0.00    -0.014 C 
HETATM   23  C32 UNL     1       0.291   1.019   0.700  1.00  0.00     0.018 C 
ENDROOT
BRANCH   1  24
HETATM   24  O6  UNL     1      -1.942  -0.246  -0.469  1.00  0.00    -0.376 OA
BRANCH  24  25
HETATM   25  C9  UNL     1      -3.237  -0.256  -0.103  1.00  0.00     0.168 C 
HETATM   26  C7  UNL     1      -4.085  -0.526  -1.326  1.00  0.00     0.107 C 
HETATM   27  C5  UNL     1      -5.555  -0.685  -1.027  1.00  0.00     0.170 C 
HETATM   28  C8  UNL     1      -3.865   0.534  -2.406  1.00  0.00     0.051 C 
HETATM   29  C4  UNL     1      -5.796  -0.531   0.455  1.00  0.00     0.069 C 
HETATM   30  C3  UNL     1      -5.270   0.818   0.830  1.00  0.00     0.144 C 
HETATM   31  C33 UNL     1      -3.765   0.960   0.647  1.00  0.00     0.008 C 
HETATM   32  C34 UNL     1      -3.203   0.920   2.052  1.00  0.00     0.020 C 
HETATM   33  C35 UNL     1      -3.504   2.273   0.031  1.00  0.00     0.020 C 
BRANCH  26  34
HETATM   34  O5  UNL     1      -3.672  -1.711  -1.912  1.00  0.00    -0.385 OA
ATOM     35  H5  UNL     1      -2.746  -1.611  -2.100  1.00  0.00     0.210 HD
ENDBRANCH  26  34
BRANCH  27  36
HETATM   36  O3  UNL     1      -6.287   0.303  -1.708  1.00  0.00    -0.320 OA
BRANCH  36  37
HETATM   37  C6  UNL     1      -7.289   0.050  -2.616  1.00  0.00     0.398 C 
HETATM   38  O4  UNL     1      -7.584  -1.149  -2.866  1.00  0.00    -0.276 OA
ENDBRANCH  36  37
ENDBRANCH  27  36
BRANCH  30  39
HETATM   39  O2  UNL     1      -5.994   1.799   0.118  1.00  0.00    -0.315 OA
BRANCH  39  40
HETATM   40  C2  UNL     1      -6.865   2.705   0.693  1.00  0.00     0.255 C 
HETATM   41  C1  UNL     1      -7.618   3.729  -0.065  1.00  0.00     0.126 C 
HETATM   42  O1  UNL     1      -6.999   2.619   1.960  1.00  0.00    -0.266 OA
ENDBRANCH  39  40
ENDBRANCH  30  39
ENDBRANCH  24  25
ENDBRANCH   1  24
BRANCH  14  43
HETATM   43  O7  UNL     1       7.951   2.435  -0.280  1.00  0.00    -0.395 OA
ATOM     44  H7  UNL     1       8.518   2.287  -1.027  1.00  0.00     0.210 HD
ENDBRANCH  14  43
TORSDOF 8
