REMARK  2 active torsions:
REMARK  status: ('A' for Active; 'I' for Inactive)
REMARK    1  A    between atoms: O1_2  and  C2_3 
REMARK    2  A    between atoms: C2_3  and  C3_5 
ROOT
HETATM    1  C3  UNL     1      -0.971   0.645   0.265  1.00  0.00     0.082 A 
HETATM    2  C4  UNL     1      -0.969   2.046   0.259  1.00  0.00     0.067 A 
HETATM    3  C5  UNL     1      -2.244   2.815   0.350  1.00  0.00     0.078 C 
HETATM    4  O3  UNL     1       0.257   2.466   0.166  1.00  0.00    -0.314 OA
HETATM    5  C6  UNL     1       1.102   1.454   0.107  1.00  0.00     0.088 A 
HETATM    6  C7  UNL     1       2.466   1.347   0.007  1.00  0.00     0.044 A 
HETATM    7  C8  UNL     1       3.081   0.138  -0.034  1.00  0.00    -0.059 A 
HETATM    8  C9  UNL     1       4.573  -0.021  -0.144  1.00  0.00     0.048 C 
HETATM    9  C10 UNL     1       2.346  -1.010   0.026  1.00  0.00     0.014 A 
HETATM   10  C11 UNL     1       0.954  -0.965   0.129  1.00  0.00    -0.047 A 
HETATM   11  C12 UNL     1       0.160  -2.220   0.195  1.00  0.00     0.049 C 
HETATM   12  C13 UNL     1       0.344   0.276   0.169  1.00  0.00     0.022 A 
ENDROOT
BRANCH   1  13
HETATM   13  C2  UNL     1      -2.112  -0.235   0.353  1.00  0.00     0.296 C 
HETATM   14  O2  UNL     1      -2.613  -0.679   1.419  1.00  0.00    -0.259 OA
BRANCH  13  15
HETATM   15  O1  UNL     1      -2.749  -0.654  -0.828  1.00  0.00    -0.322 OA
HETATM   16  C1  UNL     1      -3.864  -1.507  -0.831  1.00  0.00     0.213 C 
ENDBRANCH  13  15
ENDBRANCH   1  13
TORSDOF 2
