REMARK  1 active torsions:
REMARK  status: ('A' for Active; 'I' for Inactive)
REMARK    1  A    between atoms: C2_2  and  C4_4 
ROOT
HETATM    1  C4  UNL     1       1.330   0.653   0.399  1.00  0.00     0.169 C 
HETATM    2  O1  UNL     1       0.734   1.652  -0.404  1.00  0.00    -0.334 OA
HETATM    3  C5  UNL     1      -0.648   1.454  -0.387  1.00  0.00     0.152 A 
HETATM    4  C6  UNL     1      -0.906   0.158  -0.033  1.00  0.00    -0.005 A 
HETATM    5  C7  UNL     1      -2.218  -0.315   0.063  1.00  0.00     0.043 A 
HETATM    6  C8  UNL     1      -3.227   0.595  -0.219  1.00  0.00     0.054 A 
HETATM    7  C9  UNL     1      -4.642   0.135  -0.131  1.00  0.00     0.077 C 
HETATM    8  O2  UNL     1      -2.959   1.824  -0.555  1.00  0.00    -0.278 OA
HETATM    9  C10 UNL     1      -1.717   2.279  -0.647  1.00  0.00     0.322 A 
HETATM   10  O3  UNL     1      -1.554   3.477  -0.977  1.00  0.00    -0.257 OA
HETATM   11  C11 UNL     1       0.405  -0.510   0.190  1.00  0.00     0.013 C 
HETATM   12  C12 UNL     1       0.703  -1.288  -1.068  1.00  0.00     0.023 C 
HETATM   13  C13 UNL     1       0.270  -1.394   1.397  1.00  0.00     0.023 C 
ENDROOT
BRANCH   1  14
HETATM   14  C2  UNL     1       2.717   0.385  -0.044  1.00  0.00    -0.063 C 
HETATM   15  C1  UNL     1       3.225   1.163  -0.988  1.00  0.00     0.016 C 
HETATM   16  C3  UNL     1       3.561  -0.693   0.503  1.00  0.00     0.045 C 
ENDBRANCH   1  14
TORSDOF 1
