REMARK  1 active torsions:
REMARK  status: ('A' for Active; 'I' for Inactive)
REMARK    1  A    between atoms: C6_6  and  C7_7 
ROOT
HETATM    1  C1  UNL     1       4.515  -0.152   0.348  1.00  0.00     0.077 C 
HETATM    2  C2  UNL     1       3.041   0.124   0.236  1.00  0.00     0.054 A 
HETATM    3  C3  UNL     1       2.154  -0.919   0.137  1.00  0.00     0.045 A 
HETATM    4  C4  UNL     1       0.808  -0.661   0.035  1.00  0.00    -0.016 A 
HETATM    5  C5  UNL     1      -0.074  -1.687  -0.055  1.00  0.00     0.027 A 
HETATM    6  C6  UNL     1      -1.451  -1.448  -0.150  1.00  0.00     0.009 A 
HETATM    7  C8  UNL     1      -1.872  -0.114  -0.148  1.00  0.00    -0.042 A 
HETATM    8  C9  UNL     1      -3.352   0.145  -0.187  1.00  0.00     0.049 C 
HETATM    9  C10 UNL     1      -1.013   0.961  -0.062  1.00  0.00    -0.038 A 
HETATM   10  C11 UNL     1      -1.414   2.379  -0.105  1.00  0.00     0.050 C 
HETATM   11  C12 UNL     1       0.361   0.640   0.032  1.00  0.00     0.056 A 
HETATM   12  C13 UNL     1       1.284   1.630   0.133  1.00  0.00     0.299 A 
HETATM   13  O2  UNL     1       0.997   2.834   0.144  1.00  0.00    -0.259 OA
HETATM   14  O3  UNL     1       2.584   1.341   0.231  1.00  0.00    -0.280 OA
ENDROOT
BRANCH   6  15
HETATM   15  C7  UNL     1      -2.348  -2.557  -0.285  1.00  0.00     0.270 C 
HETATM   16  O1  UNL     1      -3.548  -2.442  -0.521  1.00  0.00    -0.301 OA
ENDBRANCH   6  15
TORSDOF 1
