REMARK  4 active torsions:
REMARK  status: ('A' for Active; 'I' for Inactive)
REMARK    1  A    between atoms: C5_5  and  C6_6 
REMARK    2  A    between atoms: C6_6  and  C9_9 
REMARK    3  A    between atoms: C9_9  and  O2_11 
REMARK    4  A    between atoms: O2_11  and  C10_12 
ROOT
HETATM    1  C6  UNL     1      -0.334  -0.971  -1.191  1.00  0.00     0.079 C 
HETATM    2  C7  UNL     1      -0.109  -2.363  -0.585  1.00  0.00     0.032 C 
HETATM    3  C8  UNL     1      -0.797  -1.113  -2.613  1.00  0.00     0.032 C 
ENDROOT
BRANCH   1   4
HETATM    4  C5  UNL     1      -1.422  -0.354  -0.344  1.00  0.00     0.003 A 
HETATM    5  C4  UNL     1      -2.808  -0.789  -0.084  1.00  0.00     0.083 A 
HETATM    6  C2  UNL     1      -2.766   0.465   0.740  1.00  0.00     0.027 A 
HETATM    7  C1  UNL     1      -2.866   0.261   2.238  1.00  0.00     0.038 C 
HETATM    8  C3  UNL     1      -3.758   1.501   0.214  1.00  0.00     0.038 C 
HETATM    9  N1  UNL     1      -1.421   0.705   0.366  1.00  0.00    -0.386 N 
ATOM     10  H1  UNL     1      -0.734   1.428   0.578  1.00  0.00     0.160 HD
ENDBRANCH   1   4
BRANCH   1  11
HETATM   11  C9  UNL     1       0.938  -0.228  -1.076  1.00  0.00     0.273 C 
HETATM   12  O1  UNL     1       1.544   0.321  -2.022  1.00  0.00    -0.264 OA
BRANCH  11  13
HETATM   13  O2  UNL     1       1.518  -0.123   0.173  1.00  0.00    -0.310 OA
BRANCH  13  14
HETATM   14  C10 UNL     1       2.730   0.572   0.345  1.00  0.00     0.060 C 
HETATM   15  C11 UNL     1       2.632   2.024  -0.066  1.00  0.00     0.045 C 
HETATM   16  C12 UNL     1       3.896  -0.118  -0.307  1.00  0.00     0.045 C 
HETATM   17  C13 UNL     1       3.003   0.530   1.852  1.00  0.00     0.045 C 
ENDBRANCH  13  14
ENDBRANCH  11  13
ENDBRANCH   1  11
TORSDOF 4
