REMARK  1 active torsions:
REMARK  status: ('A' for Active; 'I' for Inactive)
REMARK    1  A    between atoms: C2_2  and  N1_3 
ROOT
HETATM    1  N1  UNL     1      -2.268  -0.118  -0.337  1.00  0.00    -0.381 N 
HETATM    2  C3  UNL     1      -2.933   0.927  -1.024  1.00  0.00     0.120 C 
HETATM    3  C4  UNL     1      -2.304   2.152  -0.344  1.00  0.00     0.024 C 
HETATM    4  C5  UNL     1      -0.863   1.698  -0.264  1.00  0.00     0.066 C 
HETATM    5  C6  UNL     1      -0.928   0.192  -0.110  1.00  0.00     0.166 C 
HETATM    6  C7  UNL     1      -0.338  -0.178   1.198  1.00  0.00     0.067 C 
HETATM    7  C8  UNL     1       1.073  -0.759   1.036  1.00  0.00     0.046 C 
HETATM    8  C9  UNL     1       1.806  -0.149  -0.112  1.00  0.00     0.096 C 
HETATM    9  C10 UNL     1       2.863  -1.069  -0.670  1.00  0.00     0.041 C 
HETATM   10  C11 UNL     1       4.200  -0.500  -0.300  1.00  0.00     0.003 C 
HETATM   11  C12 UNL     1       3.872   0.453   0.824  1.00  0.00     0.003 C 
HETATM   12  C13 UNL     1       2.591   1.101   0.289  1.00  0.00     0.041 C 
HETATM   13  O1  UNL     1       0.977   0.243  -1.162  1.00  0.00    -0.227 OA
HETATM   14  O2  UNL     1      -0.146  -0.429  -1.111  1.00  0.00    -0.207 OA
ENDROOT
BRANCH   1  15
HETATM   15  C2  UNL     1      -2.725  -1.412  -0.436  1.00  0.00     0.115 C 
HETATM   16  C1  UNL     1      -4.082  -1.662   0.232  1.00  0.00     0.026 C 
ENDBRANCH   1  15
TORSDOF 1
