REMARK  4 active torsions:
REMARK  status: ('A' for Active; 'I' for Inactive)
REMARK    1  A    between atoms: N2_9  and  O1_11 
REMARK    2  A    between atoms: C8_18  and  O3_19 
REMARK    3  A    between atoms: C10_22  and  C11_23 
REMARK    4  A    between atoms: C14_26  and  O4_27 
ROOT
HETATM    1  C1  UNL     1      -3.484   1.470  -1.273  1.00  0.00     0.046 C 
HETATM    2  C2  UNL     1      -2.433   0.992  -0.311  1.00  0.00     0.235 C 
HETATM    3  N1  UNL     1      -2.006  -0.367  -0.596  1.00  0.00    -0.014 N 
ATOM      4  H11 UNL     1      -1.555  -0.503  -1.500  1.00  0.00     0.283 HD
ATOM      5  H12 UNL     1      -2.758  -1.034  -0.769  1.00  0.00     0.283 HD
HETATM    6  C3  UNL     1      -1.186  -0.647   0.550  1.00  0.00     0.313 C 
HETATM    7  C4  UNL     1      -2.094  -0.195   1.701  1.00  0.00     0.150 C 
HETATM    8  C5  UNL     1      -2.942   0.840   1.068  1.00  0.00     0.046 C 
HETATM    9  N2  UNL     1      -3.921   1.493   1.568  1.00  0.00    -0.275 N 
ATOM     10  H2  UNL     1      -4.402   2.178   0.986  1.00  0.00     0.193 HD
HETATM   11  N3  UNL     1      -0.800  -2.016   0.669  1.00  0.00    -0.333 N 
ATOM     12  H3  UNL     1      -1.298  -2.657   1.287  1.00  0.00     0.164 HD
HETATM   13  C6  UNL     1       0.312  -2.451  -0.113  1.00  0.00     0.068 A 
HETATM   14  C7  UNL     1       0.880  -3.643  -0.457  1.00  0.00     0.174 A 
HETATM   15  O2  UNL     1       1.924  -3.430  -1.226  1.00  0.00    -0.298 OA
HETATM   16  C8  UNL     1       2.075  -2.127  -1.411  1.00  0.00     0.194 A 
HETATM   17  C9  UNL     1       1.074  -1.463  -0.723  1.00  0.00     0.063 A 
HETATM   18  C10 UNL     1       0.736  -0.007  -0.561  1.00  0.00     0.216 C 
HETATM   19  O5  UNL     1      -0.066   0.146   0.564  1.00  0.00    -0.321 OA
ENDROOT
BRANCH  18  20
HETATM   20  C11 UNL     1       1.980   0.773  -0.304  1.00  0.00     0.045 A 
HETATM   21  C12 UNL     1       2.606   1.618  -1.195  1.00  0.00     0.032 A 
HETATM   22  C13 UNL     1       3.708   2.118  -0.535  1.00  0.00     0.058 A 
HETATM   23  C14 UNL     1       3.764   1.597   0.731  1.00  0.00     0.140 A 
HETATM   24  N4  UNL     1       2.706   0.782   0.854  1.00  0.00    -0.338 N 
ATOM     25  H4  UNL     1       2.476   0.246   1.691  1.00  0.00     0.168 HD
BRANCH  23  26
HETATM   26  O4  UNL     1       4.712   1.831   1.740  1.00  0.00    -0.346 OA
ATOM     27  H4  UNL     1       4.751   1.470   2.618  1.00  0.00     0.219 HD
ENDBRANCH  23  26
ENDBRANCH  18  20
BRANCH   9  28
HETATM   28  O1  UNL     1      -4.349   1.306   2.861  1.00  0.00    -0.290 OA
ATOM     29  H1  UNL     1      -5.076   1.791   3.232  1.00  0.00     0.244 HD
ENDBRANCH   9  28
BRANCH  16  30
HETATM   30  O3  UNL     1       3.064  -1.491  -2.164  1.00  0.00    -0.340 OA
ATOM     31  H3  UNL     1       3.172  -0.557  -2.297  1.00  0.00     0.220 HD
ENDBRANCH  16  30
TORSDOF 4
