REMARK  5 active torsions:
REMARK  status: ('A' for Active; 'I' for Inactive)
REMARK    1  A    between atoms: C1_4  and  O1_5 
REMARK    2  A    between atoms: O1_5  and  N2_6 
REMARK    3  A    between atoms: N2_6  and  C2_8 
REMARK    4  A    between atoms: C11_20  and  O2_21 
REMARK    5  A    between atoms: C12_25  and  O3_26 
ROOT
HETATM    1  C2  UNL     1      -0.994  -0.205  -0.121  1.00  0.00     0.142 C 
HETATM    2  N3  UNL     1      -0.051  -1.057  -0.371  1.00  0.00    -0.340 N 
ATOM      3  H3  UNL     1      -0.442  -1.927  -0.732  1.00  0.00     0.167 HD
HETATM    4  C3  UNL     1       1.354  -1.142  -0.294  1.00  0.00     0.044 A 
HETATM    5  C4  UNL     1       1.710  -2.386   0.145  1.00  0.00     0.030 A 
HETATM    6  C5  UNL     1       3.059  -2.717   0.300  1.00  0.00     0.002 A 
HETATM    7  C6  UNL     1       3.999  -1.766   0.001  1.00  0.00     0.001 A 
HETATM    8  C7  UNL     1       3.612  -0.504  -0.445  1.00  0.00     0.014 A 
HETATM    9  C8  UNL     1       2.292  -0.163  -0.603  1.00  0.00    -0.003 A 
HETATM   10  C9  UNL     1       2.311   1.204  -1.076  1.00  0.00     0.064 C 
HETATM   11  S1  UNL     1       1.590   2.435  -0.054  1.00  0.00    -0.096 SA
HETATM   12  C10 UNL     1      -0.068   2.191   0.466  1.00  0.00     0.074 A 
HETATM   13  C11 UNL     1      -0.709   3.261   1.127  1.00  0.00     0.160 A 
HETATM   14  N4  UNL     1      -1.918   2.838   1.420  1.00  0.00    -0.316 N 
ATOM     15  H4  UNL     1      -2.611   3.407   1.906  1.00  0.00     0.170 HD
HETATM   16  C12 UNL     1      -2.143   1.592   1.018  1.00  0.00     0.157 A 
HETATM   17  C13 UNL     1      -0.971   1.137   0.395  1.00  0.00     0.082 A 
ENDROOT
BRANCH   1  18
HETATM   18  N2  UNL     1      -2.297  -0.663  -0.398  1.00  0.00    -0.243 N 
ATOM     19  H2  UNL     1      -2.898  -0.134  -1.030  1.00  0.00     0.196 HD
BRANCH  18  20
HETATM   20  O1  UNL     1      -2.756  -1.808   0.175  1.00  0.00    -0.232 OA
BRANCH  20  21
HETATM   21  C1  UNL     1      -3.236  -2.846  -0.608  1.00  0.00     0.252 C 
HETATM   22  N1  UNL     1      -3.780  -2.586  -1.750  1.00  0.00    -0.388 N 
ATOM     23  H12 UNL     1      -3.848  -1.616  -2.059  1.00  0.00     0.157 HD
ATOM     24  H11 UNL     1      -4.133  -3.350  -2.326  1.00  0.00     0.157 HD
ENDBRANCH  20  21
ENDBRANCH  18  20
ENDBRANCH   1  18
BRANCH  16  25
HETATM   25  O3  UNL     1      -3.283   0.816   1.148  1.00  0.00    -0.345 OA
ATOM     26  H3  UNL     1      -3.444  -0.075   0.861  1.00  0.00     0.219 HD
ENDBRANCH  16  25
BRANCH  13  27
HETATM   27  O2  UNL     1      -0.058   4.453   1.347  1.00  0.00    -0.345 OA
ATOM     28  H2  UNL     1      -0.489   5.173   1.792  1.00  0.00     0.219 HD
ENDBRANCH  13  27
TORSDOF 5
