REMARK  3 active torsions:
REMARK  status: ('A' for Active; 'I' for Inactive)
REMARK    1  A    between atoms: N1_1  and  C1_4 
REMARK    2  A    between atoms: C3_8  and  C4_9 
REMARK    3  A    between atoms: C14_25  and  O1_26 
ROOT
HETATM    1  C4  UNL     1       1.622  -0.290  -0.418  1.00  0.00    -0.017 A 
HETATM    2  C5  UNL     1       1.320  -0.896  -1.617  1.00  0.00     0.015 A 
HETATM    3  C6  UNL     1       0.027  -0.949  -2.085  1.00  0.00     0.038 A 
HETATM    4  C7  UNL     1      -0.985  -0.374  -1.320  1.00  0.00     0.080 A 
HETATM    5  C8  UNL     1      -0.683   0.234  -0.118  1.00  0.00    -0.009 A 
HETATM    6  C9  UNL     1       0.618   0.275   0.331  1.00  0.00     0.023 A 
HETATM    7  C10 UNL     1      -1.672   0.878   0.783  1.00  0.00     0.123 C 
HETATM    8  C11 UNL     1      -2.290  -0.148   1.671  1.00  0.00     0.068 A 
HETATM    9  C12 UNL     1      -3.129  -1.159   1.217  1.00  0.00     0.128 A 
HETATM   10  N3  UNL     1      -2.814  -1.057   2.595  1.00  0.00    -0.341 N 
ATOM     11  H3  UNL     1      -2.903  -1.396   3.553  1.00  0.00     0.167 HD
HETATM   12  N4  UNL     1      -3.535  -1.386  -0.140  1.00  0.00    -0.332 N 
ATOM     13  H4  UNL     1      -3.894  -2.309  -0.382  1.00  0.00     0.165 HD
HETATM   14  C13 UNL     1      -3.468  -0.387  -1.192  1.00  0.00     0.335 C 
HETATM   15  N5  UNL     1      -3.705   0.897  -0.654  1.00  0.00    -0.354 N 
ATOM     16  H5  UNL     1      -4.639   1.305  -0.700  1.00  0.00     0.160 HD
HETATM   17  C14 UNL     1      -2.655   1.612  -0.055  1.00  0.00     0.231 C 
HETATM   18  O2  UNL     1      -2.249  -0.509  -1.930  1.00  0.00    -0.308 OA
ENDROOT
BRANCH   1  19
HETATM   19  C3  UNL     1       3.027  -0.259   0.043  1.00  0.00     0.034 A 
HETATM   20  C2  UNL     1       3.528   0.289   1.193  1.00  0.00     0.110 A 
HETATM   21  N2  UNL     1       4.809   0.203   1.402  1.00  0.00    -0.346 N 
HETATM   22  C1  UNL     1       5.565  -0.409   0.496  1.00  0.00     0.142 A 
ATOM     23  H2  UNL     1       5.226   0.598   2.245  1.00  0.00     0.167 HD
HETATM   24  S1  UNL     1       4.435  -0.879  -0.692  1.00  0.00    -0.052 SA
BRANCH  22  25
HETATM   25  N1  UNL     1       6.865  -0.599   0.519  1.00  0.00    -0.380 N 
ATOM     26  H12 UNL     1       7.541  -0.318   1.229  1.00  0.00     0.158 HD
ATOM     27  H11 UNL     1       7.445  -1.069  -0.176  1.00  0.00     0.158 HD
ENDBRANCH  22  25
ENDBRANCH   1  19
BRANCH  17  28
HETATM   28  O1  UNL     1      -1.911   2.347  -1.008  1.00  0.00    -0.376 OA
ATOM     29  H1  UNL     1      -2.540   2.816  -1.544  1.00  0.00     0.212 HD
ENDBRANCH  17  28
TORSDOF 3
