REMARK  3 active torsions:
REMARK  status: ('A' for Active; 'I' for Inactive)
REMARK    1  A    between atoms: N1_1  and  C1_4 
REMARK    2  A    between atoms: C3_7  and  O2_8 
REMARK    3  A    between atoms: N4_16  and  C6_17 
ROOT
HETATM    1  C1  UNL     1      -5.049   0.039  -0.206  1.00  0.00     0.176 A 
HETATM    2  O1  UNL     1      -4.189  -0.036  -1.201  1.00  0.00    -0.285 OA
HETATM    3  C2  UNL     1      -2.898  -0.015  -0.980  1.00  0.00     0.157 A 
HETATM    4  C3  UNL     1      -1.983  -0.093  -2.009  1.00  0.00     0.179 A 
HETATM    5  N2  UNL     1      -0.668  -0.068  -1.731  1.00  0.00    -0.317 N 
ATOM      6  H2  UNL     1       0.003  -0.127  -2.497  1.00  0.00     0.169 HD
HETATM    7  C4  UNL     1      -0.208   0.034  -0.449  1.00  0.00     0.160 A 
HETATM    8  C5  UNL     1      -1.105   0.109   0.543  1.00  0.00     0.124 A 
HETATM    9  N3  UNL     1      -0.115   0.180   1.423  1.00  0.00    -0.286 N 
ATOM     10  H3  UNL     1      -0.062   0.259   2.439  1.00  0.00     0.188 HD
HETATM   11  N4  UNL     1       0.764   0.107   0.459  1.00  0.00    -0.237 N 
HETATM   12  C12 UNL     1      -2.492   0.088   0.331  1.00  0.00     0.104 A 
HETATM   13  N6  UNL     1      -3.322   0.168   1.381  1.00  0.00    -0.342 N 
ATOM     14  H6  UNL     1      -2.974   0.244   2.337  1.00  0.00     0.167 HD
HETATM   15  C13 UNL     1      -4.655   0.143   1.103  1.00  0.00     0.133 A 
HETATM   16  S1  UNL     1      -5.886   0.241   2.395  1.00  0.00    -0.028 SA
ENDROOT
BRANCH  11  17
HETATM   17  C6  UNL     1       2.201   0.101   0.329  1.00  0.00     0.058 A 
HETATM   18  C7  UNL     1       2.954   1.241   0.463  1.00  0.00     0.033 A 
HETATM   19  C8  UNL     1       4.325   1.273   0.345  1.00  0.00     0.029 A 
HETATM   20  C9  UNL     1       4.986   0.089   0.076  1.00  0.00     0.046 A 
HETATM   21  N5  UNL     1       6.401   0.103  -0.049  1.00  0.00    -0.102 NA
HETATM   22  C10 UNL     1       4.257  -1.067  -0.063  1.00  0.00     0.029 A 
HETATM   23  C11 UNL     1       2.887  -1.071   0.059  1.00  0.00     0.033 A 
ENDBRANCH  11  17
BRANCH   4  24
HETATM   24  O2  UNL     1      -2.402  -0.199  -3.346  1.00  0.00    -0.344 OA
ATOM     25  H2  UNL     1      -1.772  -0.253  -4.055  1.00  0.00     0.219 HD
ENDBRANCH   4  24
BRANCH   1  26
HETATM   26  N1  UNL     1      -6.327   0.016  -0.464  1.00  0.00    -0.377 N 
ATOM     27  H12 UNL     1      -6.620  -0.061  -1.438  1.00  0.00     0.158 HD
ATOM     28  H11 UNL     1      -6.993   0.074   0.306  1.00  0.00     0.158 HD
ENDBRANCH   1  26
TORSDOF 3
