REMARK  12 active torsions:
REMARK  status: ('A' for Active; 'I' for Inactive)
REMARK    1  A    between atoms: C2_2  and  C4_4 
REMARK    2  A    between atoms: C4_4  and  N1_5 
REMARK    3  A    between atoms: C7_9  and  C8_10 
REMARK    4  A    between atoms: C8_10  and  C9_11 
REMARK    5  A    between atoms: C9_11  and  C10_12 
REMARK    6  A    between atoms: C10_12  and  N2_13 
REMARK    7  A    between atoms: C14_20  and  N4_21 
REMARK       I    between atoms: N4_21  and  C15_23 
REMARK    8  A    between atoms: C15_23  and  O4_25 
REMARK    9  A    between atoms: O4_25  and  C16_26 
REMARK   10  A    between atoms: C16_26  and  C17_27 
REMARK   11  A    between atoms: C17_27  and  C18_28 
REMARK   12  A    between atoms: C18_28  and  N5_31 
ROOT
HETATM    1  N1  UNL     1      -3.779  -1.472  -0.388  1.00  0.00    -0.347 N 
HETATM    2  C5  UNL     1      -3.034  -0.391   0.160  1.00  0.00     0.222 C 
HETATM    3  O1  UNL     1      -3.234  -0.026   1.363  1.00  0.00    -0.273 OA
HETATM    4  C6  UNL     1      -2.011   0.367  -0.585  1.00  0.00     0.128 C 
HETATM    5  C7  UNL     1      -1.131   1.187   0.354  1.00  0.00     0.093 C 
HETATM    6  N3  UNL     1       0.112   1.487  -0.327  1.00  0.00    -0.352 N 
ATOM      7  H3  UNL     1       0.039   1.965  -1.225  1.00  0.00     0.163 HD
HETATM    8  C13 UNL     1       1.408   1.187   0.124  1.00  0.00     0.267 C 
HETATM    9  O2  UNL     1       2.276   2.129   0.130  1.00  0.00    -0.269 OA
HETATM   10  C14 UNL     1       1.898  -0.126   0.603  1.00  0.00     0.318 C 
HETATM   11  O5  UNL     1       1.077  -1.186   0.230  1.00  0.00    -0.358 OA
HETATM   12  C21 UNL     1       1.263  -2.299   1.043  1.00  0.00     0.171 C 
HETATM   13  C22 UNL     1      -0.009  -3.104   1.031  1.00  0.00     0.026 C 
HETATM   14  C23 UNL     1       0.156  -4.442   0.344  1.00  0.00     0.002 C 
HETATM   15  C24 UNL     1      -1.224  -4.970   0.001  1.00  0.00     0.000 C 
HETATM   16  C25 UNL     1      -1.792  -4.344  -1.246  1.00  0.00     0.002 C 
HETATM   17  C26 UNL     1      -3.182  -3.776  -1.036  1.00  0.00     0.025 C 
HETATM   18  C27 UNL     1      -3.270  -2.313  -1.427  1.00  0.00     0.083 C 
HETATM   19  C28 UNL     1      -3.997  -2.142  -2.742  1.00  0.00     0.032 C 
ENDROOT
BRANCH  10  20
HETATM   20  N4  UNL     1       3.265  -0.325   0.157  1.00  0.00    -0.302 N 
HETATM   21  C15 UNL     1       4.355  -0.571   1.024  1.00  0.00     0.362 C 
HETATM   22  O3  UNL     1       4.187  -0.637   2.266  1.00  0.00    -0.238 OA
ATOM     23  H4  UNL     1       3.451  -0.285  -0.845  1.00  0.00     0.167 HD
BRANCH  21  24
HETATM   24  O4  UNL     1       5.614  -0.739   0.514  1.00  0.00    -0.304 OA
BRANCH  24  25
HETATM   25  C16 UNL     1       6.784  -0.992   1.250  1.00  0.00     0.183 C 
BRANCH  25  26
HETATM   26  C17 UNL     1       7.982  -1.098   0.301  1.00  0.00     0.064 C 
BRANCH  26  27
HETATM   27  C18 UNL     1       8.153   0.206  -0.459  1.00  0.00     0.118 C 
HETATM   28  C19 UNL     1       9.340   0.046  -1.381  1.00  0.00     0.045 C 
HETATM   29  C20 UNL     1       8.446   1.324   0.526  1.00  0.00     0.045 C 
BRANCH  27  30
HETATM   30  N5  UNL     1       6.965   0.516  -1.219  1.00  0.00    -0.071 N 
ATOM     31  H53 UNL     1       6.703  -0.250  -1.839  1.00  0.00     0.275 HD
ATOM     32  H52 UNL     1       6.133   0.529  -0.630  1.00  0.00     0.275 HD
ATOM     33  H51 UNL     1       7.080   1.392  -1.729  1.00  0.00     0.275 HD
ENDBRANCH  27  30
ENDBRANCH  26  27
ENDBRANCH  25  26
ENDBRANCH  24  25
ENDBRANCH  21  24
ENDBRANCH  10  20
BRANCH   5  34
HETATM   34  C8  UNL     1      -1.843   2.565   0.446  1.00  0.00     0.027 C 
BRANCH  34  35
HETATM   35  C9  UNL     1      -1.094   3.482   1.334  1.00  0.00     0.032 C 
BRANCH  35  36
HETATM   36  C10 UNL     1      -1.673   4.839   1.544  1.00  0.00     0.271 C 
BRANCH  36  37
HETATM   37  N2  UNL     1      -1.845   5.675   0.406  1.00  0.00     0.080 N 
HETATM   38  C11 UNL     1      -2.242   7.012   0.929  1.00  0.00     0.309 C 
HETATM   39  C12 UNL     1      -2.999   5.305  -0.429  1.00  0.00     0.309 C 
ENDBRANCH  36  37
ENDBRANCH  35  36
ENDBRANCH  34  35
ENDBRANCH   5  34
BRANCH   1  40
HETATM   40  C4  UNL     1      -5.097  -1.700   0.153  1.00  0.00     0.130 C 
BRANCH  40  41
HETATM   41  C2  UNL     1      -6.206  -0.978  -0.532  1.00  0.00    -0.005 C 
HETATM   42  C1  UNL     1      -7.493  -1.371   0.209  1.00  0.00     0.011 C 
HETATM   43  C3  UNL     1      -6.098   0.537  -0.392  1.00  0.00     0.011 C 
ENDBRANCH  40  41
ENDBRANCH   1  40
TORSDOF 12
