REMARK  14 active torsions:
REMARK  status: ('A' for Active; 'I' for Inactive)
REMARK    1  A    between atoms: C2_2  and  C4_4 
REMARK    2  A    between atoms: C4_4  and  C5_5 
REMARK    3  A    between atoms: C5_5  and  N1_7 
REMARK       I    between atoms: N1_7  and  C7_9 
REMARK    4  A    between atoms: C7_9  and  C8_11 
REMARK    5  A    between atoms: C9_12  and  C10_13 
REMARK       I    between atoms: N3_16  and  C11_17 
REMARK    6  A    between atoms: C11_17  and  C12_19 
REMARK    7  A    between atoms: C12_19  and  C13_20 
REMARK    8  A    between atoms: C12_19  and  N4_24 
REMARK    9  A    between atoms: C13_20  and  C14_21 
REMARK       I    between atoms: N4_24  and  C17_26 
REMARK   10  A    between atoms: C17_26  and  O5_28 
REMARK   11  A    between atoms: O5_28  and  C18_29 
REMARK   12  A    between atoms: C22_33  and  C23_34 
REMARK   13  A    between atoms: C23_34  and  O7_36 
REMARK   14  A    between atoms: O7_36  and  C24_37 
ROOT
HETATM    1  C8  UNL     1       1.785  -0.669   1.991  1.00  0.00     0.142 C 
HETATM    2  C9  UNL     1       0.866  -1.584   1.259  1.00  0.00     0.193 C 
HETATM    3  N3  UNL     1      -0.005  -0.522   0.976  1.00  0.00    -0.321 N 
HETATM    4  C11 UNL     1      -1.282  -0.344   0.369  1.00  0.00     0.244 C 
HETATM    5  O3  UNL     1      -1.864   0.771   0.370  1.00  0.00    -0.271 OA
HETATM    6  C22 UNL     1       0.938   0.420   1.475  1.00  0.00     0.203 C 
ENDROOT
BRANCH   2   7
HETATM    7  C10 UNL     1       0.356  -2.684   2.147  1.00  0.00     0.255 C 
HETATM    8  N2  UNL     1      -0.805  -2.506   2.910  1.00  0.00    -0.060 NA
HETATM    9  O2  UNL     1       0.993  -3.746   2.185  1.00  0.00    -0.275 OA
ENDBRANCH   2   7
BRANCH   4  10
HETATM   10  C12 UNL     1      -2.027  -1.468  -0.316  1.00  0.00     0.179 C 
BRANCH  10  11
HETATM   11  C13 UNL     1      -1.376  -1.593  -1.678  1.00  0.00     0.038 C 
BRANCH  11  12
HETATM   12  C14 UNL     1      -1.850  -2.675  -2.559  1.00  0.00    -0.020 C 
HETATM   13  C15 UNL     1      -3.268  -2.721  -2.968  1.00  0.00     0.009 C 
HETATM   14  C16 UNL     1      -1.479  -4.063  -2.027  1.00  0.00     0.009 C 
ENDBRANCH  11  12
ENDBRANCH  10  11
BRANCH  10  15
HETATM   15  N4  UNL     1      -3.430  -1.160  -0.359  1.00  0.00    -0.324 N 
HETATM   16  C17 UNL     1      -4.090  -0.149  -1.064  1.00  0.00     0.362 C 
HETATM   17  O4  UNL     1      -3.534   0.688  -1.816  1.00  0.00    -0.238 OA
ATOM     18  H4  UNL     1      -4.029  -1.764   0.204  1.00  0.00     0.165 HD
BRANCH  16  19
HETATM   19  O5  UNL     1      -5.494   0.009  -0.970  1.00  0.00    -0.294 OA
BRANCH  19  20
HETATM   20  C18 UNL     1      -6.158   1.039  -1.667  1.00  0.00     0.061 C 
HETATM   21  C19 UNL     1      -7.645   0.916  -1.350  1.00  0.00     0.046 C 
HETATM   22  C20 UNL     1      -5.642   2.410  -1.195  1.00  0.00     0.046 C 
HETATM   23  C21 UNL     1      -5.980   0.895  -3.162  1.00  0.00     0.046 C 
ENDBRANCH  19  20
ENDBRANCH  16  19
ENDBRANCH  10  15
ENDBRANCH   4  10
BRANCH   6  24
HETATM   24  C23 UNL     1       0.413   1.381   2.483  1.00  0.00     0.283 C 
HETATM   25  O6  UNL     1      -0.759   1.349   2.925  1.00  0.00    -0.263 OA
BRANCH  24  26
HETATM   26  O7  UNL     1       1.243   2.380   2.978  1.00  0.00    -0.310 OA
BRANCH  26  27
HETATM   27  C24 UNL     1       0.791   3.319   3.940  1.00  0.00     0.060 C 
HETATM   28  C25 UNL     1       0.375   2.559   5.172  1.00  0.00     0.045 C 
HETATM   29  C26 UNL     1      -0.327   4.178   3.405  1.00  0.00     0.045 C 
HETATM   30  C27 UNL     1       1.956   4.209   4.295  1.00  0.00     0.045 C 
ENDBRANCH  26  27
ENDBRANCH  24  26
ENDBRANCH   6  24
BRANCH   1  31
HETATM   31  C7  UNL     1       3.183  -0.602   1.552  1.00  0.00     0.227 C 
HETATM   32  N1  UNL     1       3.688  -0.190   0.317  1.00  0.00    -0.356 N 
ATOM     33  H1  UNL     1       3.046   0.115  -0.415  1.00  0.00     0.162 HD
HETATM   34  O1  UNL     1       4.037  -0.977   2.435  1.00  0.00    -0.273 OA
BRANCH  32  35
HETATM   35  C5  UNL     1       5.129  -0.191   0.063  1.00  0.00     0.080 C 
HETATM   36  C6  UNL     1       5.652   1.201  -0.047  1.00  0.00     0.032 C 
BRANCH  35  37
HETATM   37  C4  UNL     1       5.524  -1.162  -0.971  1.00  0.00     0.028 C 
BRANCH  37  38
HETATM   38  C2  UNL     1       5.192  -0.921  -2.384  1.00  0.00    -0.021 C 
HETATM   39  C1  UNL     1       5.801   0.341  -2.912  1.00  0.00     0.009 C 
HETATM   40  C3  UNL     1       5.853  -2.062  -3.187  1.00  0.00     0.009 C 
ENDBRANCH  37  38
ENDBRANCH  35  37
ENDBRANCH  32  35
ENDBRANCH   1  31
TORSDOF 14
