REMARK  14 active torsions:
REMARK  status: ('A' for Active; 'I' for Inactive)
REMARK    1  A    between atoms: C3_3  and  C4_4 
REMARK    2  A    between atoms: C4_4  and  C6_6 
REMARK    3  A    between atoms: C6_6  and  N1_7 
REMARK    4  A    between atoms: C6_6  and  C19_25 
REMARK       I    between atoms: N1_7  and  C7_9 
REMARK    5  A    between atoms: C7_9  and  O2_11 
REMARK    6  A    between atoms: O2_11  and  C8_12 
REMARK    7  A    between atoms: C15_19  and  C16_20 
REMARK       I    between atoms: C19_25  and  N3_27 
REMARK    8  A    between atoms: N3_27  and  C20_29 
REMARK    9  A    between atoms: C20_29  and  C21_30 
REMARK   10  A    between atoms: C20_29  and  C24_34 
REMARK   11  A    between atoms: C21_30  and  C22_31 
REMARK   12  A    between atoms: C22_31  and  S1_32 
REMARK   13  A    between atoms: C24_34  and  O6_36 
REMARK   14  A    between atoms: O6_36  and  C25_37 
ROOT
HETATM    1  C1  UNL     1       0.306   4.614  -0.444  1.00  0.00     0.012 C 
HETATM    2  C2  UNL     1       0.392   3.677   0.311  1.00  0.00    -0.117 C 
HETATM    3  C3  UNL     1       0.470   2.563   1.258  1.00  0.00     0.099 C 
ENDROOT
BRANCH   3   4
HETATM    4  C4  UNL     1      -0.523   1.499   1.095  1.00  0.00     0.025 C 
HETATM    5  C5  UNL     1      -0.343   0.396   2.187  1.00  0.00     0.013 C 
BRANCH   4   6
HETATM    6  C6  UNL     1      -0.450   0.689  -0.253  1.00  0.00     0.183 C 
BRANCH   6   7
HETATM    7  N1  UNL     1       0.764   0.105  -0.339  1.00  0.00    -0.323 N 
HETATM    8  C7  UNL     1       1.573  -0.994  -0.607  1.00  0.00     0.361 C 
HETATM    9  O1  UNL     1       1.114  -2.092  -0.975  1.00  0.00    -0.238 OA
ATOM     10  H1  UNL     1       1.418   0.841  -0.073  1.00  0.00     0.165 HD
BRANCH   8  11
HETATM   11  O2  UNL     1       2.945  -0.963  -0.467  1.00  0.00    -0.298 OA
BRANCH  11  12
HETATM   12  C8  UNL     1       3.986  -1.794  -0.573  1.00  0.00     0.142 C 
HETATM   13  C9  UNL     1       4.848  -1.347  -1.773  1.00  0.00     0.017 C 
HETATM   14  C10 UNL     1       5.930  -2.374  -1.947  1.00  0.00     0.012 C 
HETATM   15  C18 UNL     1       5.364   0.037  -1.484  1.00  0.00     0.026 C 
HETATM   16  C11 UNL     1       6.827  -2.367  -0.720  1.00  0.00    -0.013 C 
HETATM   17  C12 UNL     1       5.998  -2.753   0.481  1.00  0.00     0.012 C 
HETATM   18  C17 UNL     1       7.416  -0.991  -0.617  1.00  0.00     0.023 C 
HETATM   19  C13 UNL     1       4.878  -1.766   0.665  1.00  0.00     0.017 C 
HETATM   20  C14 UNL     1       5.532  -0.421   0.917  1.00  0.00     0.026 C 
HETATM   21  C15 UNL     1       6.304  -0.011  -0.316  1.00  0.00     0.040 C 
BRANCH  21  22
HETATM   22  C16 UNL     1       6.921   1.317  -0.067  1.00  0.00     0.239 C 
HETATM   23  N2  UNL     1       7.950   1.496   0.858  1.00  0.00    -0.061 NA
HETATM   24  O3  UNL     1       6.523   2.331  -0.702  1.00  0.00    -0.276 OA
ENDBRANCH  21  22
ENDBRANCH  11  12
ENDBRANCH   8  11
ENDBRANCH   6   7
BRANCH   6  25
HETATM   25  C19 UNL     1      -1.777  -0.051  -0.084  1.00  0.00     0.245 C 
HETATM   26  O4  UNL     1      -1.861  -1.256   0.065  1.00  0.00    -0.271 OA
HETATM   27  N3  UNL     1      -2.902   0.776  -0.104  1.00  0.00    -0.324 N 
ATOM     28  H3  UNL     1      -2.592   1.722  -0.328  1.00  0.00     0.169 HD
BRANCH  27  29
HETATM   29  C20 UNL     1      -4.290   0.807   0.065  1.00  0.00     0.088 C 
BRANCH  29  30
HETATM   30  C21 UNL     1      -4.854   2.057  -0.479  1.00  0.00     0.074 C 
BRANCH  30  31
HETATM   31  C22 UNL     1      -6.281   2.385  -0.331  1.00  0.00     0.080 C 
BRANCH  31  32
HETATM   32  S1  UNL     1      -6.474   4.074  -1.077  1.00  0.00    -0.173 SA
HETATM   33  C23 UNL     1      -5.456   5.210  -0.094  1.00  0.00     0.089 C 
ENDBRANCH  31  32
ENDBRANCH  30  31
ENDBRANCH  29  30
BRANCH  29  34
HETATM   34  C24 UNL     1      -5.099  -0.347   0.319  1.00  0.00     0.306 C 
HETATM   35  O5  UNL     1      -5.449  -0.622   1.531  1.00  0.00    -0.258 OA
BRANCH  34  36
HETATM   36  O6  UNL     1      -5.588  -1.303  -0.583  1.00  0.00    -0.306 OA
BRANCH  36  37
HETATM   37  C25 UNL     1      -6.377  -2.402  -0.259  1.00  0.00     0.060 C 
HETATM   38  C26 UNL     1      -6.478  -3.261  -1.525  1.00  0.00     0.046 C 
HETATM   39  C27 UNL     1      -7.840  -1.939  -0.039  1.00  0.00     0.046 C 
HETATM   40  C28 UNL     1      -6.004  -3.245   0.898  1.00  0.00     0.046 C 
ENDBRANCH  36  37
ENDBRANCH  34  36
ENDBRANCH  29  34
ENDBRANCH  27  29
ENDBRANCH   6  25
ENDBRANCH   4   6
ENDBRANCH   3   4
TORSDOF 14
