REMARK  14 active torsions:
REMARK  status: ('A' for Active; 'I' for Inactive)
REMARK    1  A    between atoms: O1_3  and  C3_4 
REMARK       I    between atoms: C3_4  and  N1_6 
REMARK    2  A    between atoms: N1_6  and  C4_8 
REMARK    3  A    between atoms: C4_8  and  C5_9 
REMARK    4  A    between atoms: C4_8  and  C26_39 
REMARK       I    between atoms: C5_9  and  N2_11 
REMARK    5  A    between atoms: N2_11  and  C6_13 
REMARK    6  A    between atoms: C9_16  and  C10_17 
REMARK       I    between atoms: C10_17  and  N3_19 
REMARK    7  A    between atoms: N3_19  and  C11_21 
REMARK    8  A    between atoms: C11_21  and  C12_22 
REMARK    9  A    between atoms: C11_21  and  C18_29 
REMARK   10  A    between atoms: C12_22  and  C13_24 
REMARK   11  A    between atoms: C18_29  and  O6_31 
REMARK   12  A    between atoms: O6_31  and  C20_32 
REMARK   13  A    between atoms: C20_32  and  C21_34 
REMARK   14  A    between atoms: C26_39  and  C28_41 
ROOT
HETATM    1  C1  UNL     1      11.086  -3.057   0.349  1.00  0.00     0.045 C 
HETATM    2  C2  UNL     1      10.139  -2.662   0.971  1.00  0.00     0.054 C 
HETATM    3  O1  UNL     1       9.051  -2.234   1.679  1.00  0.00    -0.209 OA
ENDROOT
BRANCH   3   4
HETATM    4  C3  UNL     1       7.974  -1.682   1.008  1.00  0.00     0.374 C 
HETATM    5  O2  UNL     1       8.045  -1.598  -0.248  1.00  0.00    -0.237 OA
HETATM    6  N1  UNL     1       6.827  -1.223   1.665  1.00  0.00    -0.322 N 
ATOM      7  H1  UNL     1       6.781  -1.297   2.681  1.00  0.00     0.165 HD
BRANCH   6   8
HETATM    8  C4  UNL     1       5.674  -0.632   0.937  1.00  0.00     0.182 C 
BRANCH   8   9
HETATM    9  C5  UNL     1       4.465  -1.373   1.298  1.00  0.00     0.241 C 
HETATM   10  O3  UNL     1       4.542  -2.222   2.251  1.00  0.00    -0.271 OA
HETATM   11  N2  UNL     1       3.238  -1.209   0.660  1.00  0.00    -0.355 N 
ATOM     12  H2  UNL     1       3.132  -0.548  -0.110  1.00  0.00     0.162 HD
BRANCH  11  13
HETATM   13  C6  UNL     1       2.098  -2.015   1.127  1.00  0.00     0.085 C 
HETATM   14  C7  UNL     1       1.430  -2.717  -0.012  1.00  0.00     0.026 C 
HETATM   15  C8  UNL     1       0.369  -1.775  -0.537  1.00  0.00     0.016 C 
HETATM   16  C9  UNL     1       0.490  -0.521   0.298  1.00  0.00     0.080 C 
HETATM   17  C25 UNL     1       1.050  -1.040   1.595  1.00  0.00     0.039 C 
BRANCH  16  18
HETATM   18  C10 UNL     1      -0.828   0.139   0.484  1.00  0.00     0.222 C 
HETATM   19  O4  UNL     1      -1.253   0.257   1.657  1.00  0.00    -0.273 OA
HETATM   20  N3  UNL     1      -1.538   0.596  -0.627  1.00  0.00    -0.347 N 
ATOM     21  H3  UNL     1      -1.131   0.467  -1.553  1.00  0.00     0.163 HD
BRANCH  20  22
HETATM   22  C11 UNL     1      -2.848   1.256  -0.520  1.00  0.00     0.183 C 
BRANCH  22  23
HETATM   23  C12 UNL     1      -2.737   2.592  -1.102  1.00  0.00     0.156 C 
HETATM   24  O5  UNL     1      -1.658   2.859  -1.677  1.00  0.00    -0.295 OA
BRANCH  23  25
HETATM   25  C13 UNL     1      -3.731   3.664  -1.093  1.00  0.00     0.057 C 
HETATM   26  C14 UNL     1      -3.125   4.892  -1.791  1.00  0.00     0.012 C 
HETATM   27  C15 UNL     1      -4.303   5.606  -2.392  1.00  0.00     0.001 C 
HETATM   28  C16 UNL     1      -5.408   4.615  -2.537  1.00  0.00     0.001 C 
HETATM   29  C17 UNL     1      -4.930   3.311  -1.907  1.00  0.00     0.012 C 
ENDBRANCH  23  25
ENDBRANCH  22  23
BRANCH  22  30
HETATM   30  C18 UNL     1      -3.817   0.318  -1.197  1.00  0.00     0.157 C 
HETATM   31  C19 UNL     1      -3.277  -0.076  -2.584  1.00  0.00     0.042 C 
BRANCH  30  32
HETATM   32  O6  UNL     1      -3.798  -0.931  -0.469  1.00  0.00    -0.313 OA
BRANCH  32  33
HETATM   33  C20 UNL     1      -4.954  -1.429   0.063  1.00  0.00     0.267 C 
HETATM   34  O7  UNL     1      -6.035  -0.787  -0.089  1.00  0.00    -0.264 OA
BRANCH  33  35
HETATM   35  C21 UNL     1      -5.035  -2.704   0.825  1.00  0.00     0.037 C 
HETATM   36  C22 UNL     1      -4.177  -2.692   2.054  1.00  0.00     0.025 C 
HETATM   37  C23 UNL     1      -6.461  -3.114   1.077  1.00  0.00     0.025 C 
HETATM   38  C24 UNL     1      -4.444  -3.779  -0.096  1.00  0.00     0.025 C 
ENDBRANCH  33  35
ENDBRANCH  32  33
ENDBRANCH  30  32
ENDBRANCH  22  30
ENDBRANCH  20  22
ENDBRANCH  16  18
ENDBRANCH  11  13
ENDBRANCH   8   9
BRANCH   8  39
HETATM   39  C26 UNL     1       5.551   0.805   1.366  1.00  0.00     0.013 C 
HETATM   40  C27 UNL     1       5.292   0.877   2.851  1.00  0.00     0.012 C 
BRANCH  39  41
HETATM   41  C28 UNL     1       4.610   1.652   0.604  1.00  0.00     0.002 C 
HETATM   42  C29 UNL     1       4.953   1.754  -0.869  1.00  0.00     0.005 C 
ENDBRANCH  39  41
ENDBRANCH   8  39
ENDBRANCH   6   8
ENDBRANCH   3   4
TORSDOF 14
