REMARK  12 active torsions:
REMARK  status: ('A' for Active; 'I' for Inactive)
REMARK    1  A    between atoms: O1_2  and  C2_3 
REMARK    2  A    between atoms: C7_8  and  N1_9 
REMARK       I    between atoms: N1_9  and  C8_11 
REMARK    3  A    between atoms: C8_11  and  C9_13 
REMARK    4  A    between atoms: N2_17  and  C13_18 
REMARK    5  A    between atoms: C13_18  and  O3_19 
REMARK    6  A    between atoms: C13_18  and  C14_21 
REMARK    7  A    between atoms: C14_21  and  C15_23 
REMARK       I    between atoms: C15_23  and  N3_25 
REMARK    8  A    between atoms: N3_25  and  C16_27 
REMARK    9  A    between atoms: C16_27  and  C17_28 
REMARK   10  A    between atoms: C16_27  and  C28_40 
REMARK   11  A    between atoms: C17_28  and  C18_30 
REMARK   12  A    between atoms: C19_31  and  C21_33 
ROOT
HETATM    1  C14 UNL     1       1.044   1.096   0.811  1.00  0.00     0.264 C 
HETATM    2  O4  UNL     1       1.827   1.931   0.290  1.00  0.00    -0.282 OA
ENDROOT
BRANCH   1   3
HETATM    3  C13 UNL     1       1.266   0.753   2.219  1.00  0.00     0.297 C 
BRANCH   3   4
HETATM    4  N2  UNL     1       1.684  -0.521   2.442  1.00  0.00    -0.368 N 
HETATM    5  C9  UNL     1       2.784  -1.234   2.117  1.00  0.00     0.174 C 
HETATM    6  C10 UNL     1       2.178  -2.664   1.902  1.00  0.00     0.036 C 
HETATM    7  C11 UNL     1       1.389  -2.726   3.218  1.00  0.00     0.022 C 
HETATM    8  C12 UNL     1       0.829  -1.307   3.277  1.00  0.00     0.120 C 
BRANCH   5   9
HETATM    9  C8  UNL     1       3.764  -0.920   1.106  1.00  0.00     0.240 C 
HETATM   10  N1  UNL     1       4.702   0.142   1.100  1.00  0.00    -0.352 N 
ATOM     11  H1  UNL     1       4.691   0.788   1.889  1.00  0.00     0.163 HD
HETATM   12  O2  UNL     1       3.851  -1.669   0.056  1.00  0.00    -0.271 OA
BRANCH  10  13
HETATM   13  C7  UNL     1       5.677   0.377   0.052  1.00  0.00     0.113 C 
HETATM   14  C2  UNL     1       5.470   1.646  -0.722  1.00  0.00     0.143 C 
HETATM   15  C3  UNL     1       6.192   1.433  -2.056  1.00  0.00     0.034 C 
HETATM   16  C4  UNL     1       7.562   0.833  -1.820  1.00  0.00     0.003 C 
HETATM   17  C5  UNL     1       8.008   0.987  -0.394  1.00  0.00     0.002 C 
HETATM   18  C6  UNL     1       7.080   0.404   0.608  1.00  0.00     0.028 C 
BRANCH  14  19
HETATM   19  O1  UNL     1       5.980   2.698   0.002  1.00  0.00    -0.389 OA
HETATM   20  C1  UNL     1       5.051   3.699   0.251  1.00  0.00     0.202 C 
ENDBRANCH  14  19
ENDBRANCH  10  13
ENDBRANCH   5   9
ENDBRANCH   3   4
BRANCH   3  21
HETATM   21  O3  UNL     1       2.186   1.652   2.813  1.00  0.00    -0.369 OA
ATOM     22  H3  UNL     1       1.894   2.542   2.657  1.00  0.00     0.212 HD
ENDBRANCH   3  21
ENDBRANCH   1   3
BRANCH   1  23
HETATM   23  C15 UNL     1      -0.006   0.561  -0.048  1.00  0.00     0.296 C 
HETATM   24  O5  UNL     1      -0.868  -0.213   0.403  1.00  0.00    -0.264 OA
HETATM   25  N3  UNL     1      -0.073   0.920  -1.432  1.00  0.00    -0.320 N 
ATOM     26  H3  UNL     1       0.650   1.535  -1.805  1.00  0.00     0.169 HD
BRANCH  25  27
HETATM   27  C16 UNL     1      -1.115   0.456  -2.336  1.00  0.00     0.066 C 
BRANCH  27  28
HETATM   28  C17 UNL     1      -2.423   0.406  -1.596  1.00  0.00     0.195 C 
HETATM   29  O6  UNL     1      -2.670   1.449  -0.930  1.00  0.00    -0.286 OA
BRANCH  28  30
HETATM   30  C18 UNL     1      -3.340  -0.691  -1.608  1.00  0.00     0.059 C 
HETATM   31  C19 UNL     1      -4.497  -0.946  -1.121  1.00  0.00    -0.076 C 
HETATM   32  C20 UNL     1      -5.002  -2.388  -1.497  1.00  0.00     0.044 C 
BRANCH  31  33
HETATM   33  C21 UNL     1      -5.508  -0.269  -0.332  1.00  0.00     0.014 C 
HETATM   34  C22 UNL     1      -5.885  -1.217   0.821  1.00  0.00     0.009 C 
HETATM   35  C23 UNL     1      -6.194  -0.504   2.090  1.00  0.00     0.005 C 
HETATM   36  C24 UNL     1      -7.127   0.666   1.910  1.00  0.00    -0.019 C 
HETATM   37  C25 UNL     1      -8.578   0.279   1.863  1.00  0.00     0.010 C 
HETATM   38  C26 UNL     1      -6.760   1.508   0.731  1.00  0.00     0.005 C 
HETATM   39  C27 UNL     1      -5.393   1.109   0.132  1.00  0.00     0.009 C 
ENDBRANCH  31  33
ENDBRANCH  28  30
ENDBRANCH  27  28
BRANCH  27  40
HETATM   40  C28 UNL     1      -0.721  -0.597  -3.238  1.00  0.00     0.031 C 
HETATM   41  C29 UNL     1      -1.739  -1.055  -4.242  1.00  0.00     0.016 C 
HETATM   42  C30 UNL     1      -0.078  -1.805  -2.553  1.00  0.00     0.016 C 
ENDBRANCH  27  40
ENDBRANCH  25  27
ENDBRANCH   1  23
TORSDOF 12
