REMARK  16 active torsions:
REMARK  status: ('A' for Active; 'I' for Inactive)
REMARK    1  A    between atoms: C2_2  and  O1_3 
REMARK    2  A    between atoms: O1_3  and  C3_4 
REMARK    3  A    between atoms: C6_7  and  O2_8 
REMARK    4  A    between atoms: O2_8  and  C7_9 
REMARK       I    between atoms: C7_9  and  N1_11 
REMARK    5  A    between atoms: N1_11  and  C8_13 
REMARK    6  A    between atoms: C8_13  and  C9_14 
REMARK    7  A    between atoms: C8_13  and  C13_18 
REMARK    8  A    between atoms: C9_14  and  C10_15 
REMARK       I    between atoms: C13_18  and  N2_20 
REMARK    9  A    between atoms: N2_20  and  C14_22 
REMARK   10  A    between atoms: C14_22  and  C15_23 
REMARK   11  A    between atoms: C14_22  and  C27_40 
REMARK       I    between atoms: C15_23  and  N3_25 
REMARK   12  A    between atoms: N3_25  and  C16_27 
REMARK   13  A    between atoms: C16_27  and  C17_28 
REMARK   14  A    between atoms: C16_27  and  C21_34 
REMARK   15  A    between atoms: C17_28  and  C18_30 
REMARK   16  A    between atoms: C30_43  and  N4_44 
ROOT
HETATM    1  C13 UNL     1       0.127   0.304   0.903  1.00  0.00     0.241 C 
HETATM    2  O4  UNL     1       0.466   0.949  -0.142  1.00  0.00    -0.271 OA
HETATM    3  N2  UNL     1      -1.225   0.259   1.315  1.00  0.00    -0.346 N 
ATOM      4  H2  UNL     1      -1.487  -0.254   2.157  1.00  0.00     0.163 HD
ENDROOT
BRANCH   1   5
HETATM    5  C8  UNL     1       1.254  -0.374   1.632  1.00  0.00     0.179 C 
BRANCH   5   6
HETATM    6  N1  UNL     1       2.522   0.096   1.149  1.00  0.00    -0.324 N 
HETATM    7  C7  UNL     1       3.333  -0.593   0.190  1.00  0.00     0.361 C 
HETATM    8  O3  UNL     1       2.959  -1.670  -0.282  1.00  0.00    -0.238 OA
ATOM      9  H1  UNL     1       2.870   0.983   1.514  1.00  0.00     0.165 HD
BRANCH   7  10
HETATM   10  O2  UNL     1       4.523  -0.039  -0.192  1.00  0.00    -0.296 OA
BRANCH  10  11
HETATM   11  C6  UNL     1       5.443  -0.579  -1.134  1.00  0.00     0.164 C 
HETATM   12  C5  UNL     1       5.601   0.352  -2.310  1.00  0.00     0.037 C 
HETATM   13  C4  UNL     1       6.871   0.011  -3.035  1.00  0.00     0.034 C 
HETATM   14  C3  UNL     1       8.041   0.338  -2.170  1.00  0.00     0.123 C 
HETATM   15  C32 UNL     1       7.851   0.002  -0.711  1.00  0.00     0.067 C 
HETATM   16  C30 UNL     1       6.736  -0.960  -0.462  1.00  0.00     0.217 C 
BRANCH  14  17
HETATM   17  O1  UNL     1       9.206  -0.179  -2.692  1.00  0.00    -0.386 OA
BRANCH  17  18
HETATM   18  C2  UNL     1      10.159   0.733  -3.050  1.00  0.00     0.163 C 
HETATM   19  C1  UNL     1       9.778   1.723  -4.097  1.00  0.00     0.033 C 
ENDBRANCH  17  18
ENDBRANCH  14  17
BRANCH  16  20
HETATM   20  N4  UNL     1       7.132  -2.325  -0.667  1.00  0.00    -0.072 N 
HETATM   21  C31 UNL     1       6.194  -3.284  -0.136  1.00  0.00     0.267 C 
ATOM     22  H42 UNL     1       7.310  -2.504  -1.655  1.00  0.00     0.277 HD
ATOM     23  H41 UNL     1       8.067  -2.489  -0.293  1.00  0.00     0.277 HD
ENDBRANCH  16  20
ENDBRANCH  10  11
ENDBRANCH   7  10
ENDBRANCH   5   6
BRANCH   5  24
HETATM   24  C9  UNL     1       1.119  -0.354   3.108  1.00  0.00     0.038 C 
BRANCH  24  25
HETATM   25  C10 UNL     1       2.177  -1.226   3.766  1.00  0.00    -0.020 C 
HETATM   26  C11 UNL     1       2.122  -2.660   3.355  1.00  0.00     0.009 C 
HETATM   27  C12 UNL     1       2.021  -1.121   5.278  1.00  0.00     0.009 C 
ENDBRANCH  24  25
ENDBRANCH   5  24
ENDBRANCH   1   5
BRANCH   3  28
HETATM   28  C14 UNL     1      -2.229   0.940   0.541  1.00  0.00     0.180 C 
BRANCH  28  29
HETATM   29  C15 UNL     1      -3.463   0.143   0.395  1.00  0.00     0.241 C 
HETATM   30  O5  UNL     1      -3.611  -0.970   1.008  1.00  0.00    -0.271 OA
HETATM   31  N3  UNL     1      -4.499   0.610  -0.438  1.00  0.00    -0.347 N 
ATOM     32  H3  UNL     1      -4.360   1.499  -0.919  1.00  0.00     0.163 HD
BRANCH  31  33
HETATM   33  C16 UNL     1      -5.769  -0.100  -0.660  1.00  0.00     0.161 C 
BRANCH  33  34
HETATM   34  C17 UNL     1      -5.744  -0.708  -1.998  1.00  0.00     0.185 C 
HETATM   35  O6  UNL     1      -5.171  -0.026  -2.872  1.00  0.00    -0.292 OA
BRANCH  34  36
HETATM   36  C18 UNL     1      -6.278  -1.984  -2.466  1.00  0.00     0.141 A 
HETATM   37  C19 UNL     1      -6.956  -2.880  -1.454  1.00  0.00     0.057 C 
HETATM   38  C20 UNL     1      -5.461  -2.777  -3.476  1.00  0.00     0.215 A 
HETATM   39  O7  UNL     1      -6.638  -2.151  -3.799  1.00  0.00    -0.367 OA
ENDBRANCH  34  36
ENDBRANCH  33  34
BRANCH  33  40
HETATM   40  C21 UNL     1      -6.898   0.859  -0.424  1.00  0.00     0.016 C 
HETATM   41  C22 UNL     1      -6.796   1.345   1.025  1.00  0.00     0.007 C 
HETATM   42  C23 UNL     1      -7.833   2.435   1.257  1.00  0.00     0.000 C 
HETATM   43  C24 UNL     1      -8.820   2.503   0.123  1.00  0.00     0.000 C 
HETATM   44  C25 UNL     1      -9.369   1.106  -0.100  1.00  0.00     0.000 C 
HETATM   45  C26 UNL     1      -8.231   0.186  -0.524  1.00  0.00     0.007 C 
ENDBRANCH  33  40
ENDBRANCH  31  33
ENDBRANCH  28  29
BRANCH  28  46
HETATM   46  C27 UNL     1      -2.521   2.327   1.133  1.00  0.00     0.009 C 
HETATM   47  C28 UNL     1      -3.000   2.281   2.544  1.00  0.00     0.012 C 
HETATM   48  C29 UNL     1      -1.360   3.261   0.932  1.00  0.00     0.012 C 
ENDBRANCH  28  46
ENDBRANCH   3  28
TORSDOF 16
