REMARK  18 active torsions:
REMARK  status: ('A' for Active; 'I' for Inactive)
REMARK    1  A    between atoms: O1_2  and  C2_3 
REMARK    2  A    between atoms: C2_3  and  C3_5 
REMARK    3  A    between atoms: C3_5  and  N1_6 
REMARK       I    between atoms: N1_6  and  C4_8 
REMARK    4  A    between atoms: C4_8  and  C5_10 
REMARK    5  A    between atoms: C5_10  and  C6_11 
REMARK    6  A    between atoms: C6_11  and  C7_12 
REMARK    7  A    between atoms: C6_11  and  N3_28 
REMARK    8  A    between atoms: C7_12  and  C8_13 
REMARK    9  A    between atoms: C8_13  and  C9_14 
REMARK   10  A    between atoms: C9_14  and  C10_15 
REMARK   11  A    between atoms: C10_15  and  C11_16 
REMARK   12  A    between atoms: C11_16  and  C12_17 
REMARK       I    between atoms: C12_17  and  N2_19 
REMARK       I    between atoms: N3_28  and  C21_30 
REMARK   13  A    between atoms: C21_30  and  C22_32 
REMARK   14  A    between atoms: C22_32  and  N4_33 
REMARK   15  A    between atoms: C22_32  and  C28_42 
REMARK       I    between atoms: N4_33  and  C23_35 
REMARK   16  A    between atoms: C23_35  and  O7_37 
REMARK   17  A    between atoms: O7_37  and  C24_38 
REMARK   18  A    between atoms: C28_42  and  N5_43 
ROOT
HETATM    1  C6  UNL     1      -0.856   1.970   0.077  1.00  0.00    -0.002 C 
ENDROOT
BRANCH   1   2
HETATM    2  C5  UNL     1      -1.324   2.373   1.424  1.00  0.00     0.155 C 
BRANCH   2   3
HETATM    3  C4  UNL     1      -1.057   3.776   1.820  1.00  0.00     0.223 C 
HETATM    4  N1  UNL     1      -1.899   4.458   2.751  1.00  0.00    -0.351 N 
ATOM      5  H1  UNL     1      -2.693   3.932   3.117  1.00  0.00     0.162 HD
HETATM    6  O3  UNL     1      -0.079   4.387   1.335  1.00  0.00    -0.273 OA
BRANCH   4   7
HETATM    7  C3  UNL     1      -1.749   5.788   3.220  1.00  0.00     0.233 C 
BRANCH   7   8
HETATM    8  C2  UNL     1      -1.768   6.804   2.122  1.00  0.00     0.276 C 
HETATM    9  O2  UNL     1      -1.928   6.457   0.951  1.00  0.00    -0.263 OA
BRANCH   8  10
HETATM   10  O1  UNL     1      -1.600   8.152   2.468  1.00  0.00    -0.325 OA
HETATM   11  C1  UNL     1      -1.599   9.188   1.487  1.00  0.00     0.213 C 
ENDBRANCH   8  10
ENDBRANCH   7   8
ENDBRANCH   4   7
ENDBRANCH   2   3
ENDBRANCH   1   2
BRANCH   1  12
HETATM   12  C7  UNL     1       0.545   2.059  -0.297  1.00  0.00     0.053 C 
BRANCH  12  13
HETATM   13  C8  UNL     1       1.588   1.358   0.480  1.00  0.00     0.006 C 
BRANCH  13  14
HETATM   14  C9  UNL     1       1.422  -0.116   0.654  1.00  0.00     0.001 C 
BRANCH  14  15
HETATM   15  C10 UNL     1       2.577  -0.779   1.398  1.00  0.00     0.009 C 
BRANCH  15  16
HETATM   16  C11 UNL     1       3.881  -0.648   0.587  1.00  0.00     0.103 C 
BRANCH  16  17
HETATM   17  C12 UNL     1       4.991  -1.293   1.304  1.00  0.00     0.220 C 
HETATM   18  O4  UNL     1       4.872  -1.567   2.555  1.00  0.00    -0.273 OA
HETATM   19  N2  UNL     1       6.241  -1.654   0.704  1.00  0.00    -0.344 N 
HETATM   20  C13 UNL     1       7.178  -2.285   1.624  1.00  0.00     0.127 C 
HETATM   21  C18 UNL     1       6.577  -1.461  -0.665  1.00  0.00     0.028 C 
HETATM   22  C14 UNL     1       8.607  -2.069   1.278  1.00  0.00     0.024 C 
HETATM   23  C15 UNL     1       8.785  -2.530  -0.157  1.00  0.00    -0.015 C 
HETATM   24  C16 UNL     1      10.233  -2.541  -0.517  1.00  0.00     0.010 C 
HETATM   25  C17 UNL     1       7.998  -1.664  -1.071  1.00  0.00     0.034 C 
HETATM   26  C19 UNL     1       5.709  -2.404  -1.518  1.00  0.00     0.038 C 
HETATM   27  C20 UNL     1       6.232  -0.031  -1.135  1.00  0.00     0.038 C 
ENDBRANCH  16  17
ENDBRANCH  15  16
ENDBRANCH  14  15
ENDBRANCH  13  14
ENDBRANCH  12  13
ENDBRANCH   1  12
BRANCH   1  28
HETATM   28  N3  UNL     1      -1.524   0.761  -0.357  1.00  0.00    -0.332 N 
HETATM   29  C21 UNL     1      -2.899   0.729  -0.735  1.00  0.00     0.247 C 
HETATM   30  O5  UNL     1      -3.556   1.776  -0.675  1.00  0.00    -0.271 OA
ATOM     31  H3  UNL     1      -0.988  -0.106  -0.394  1.00  0.00     0.168 HD
BRANCH  29  32
HETATM   32  C22 UNL     1      -3.547  -0.526  -1.190  1.00  0.00     0.215 C 
BRANCH  32  33
HETATM   33  N4  UNL     1      -4.835  -0.652  -0.597  1.00  0.00    -0.321 N 
HETATM   34  C23 UNL     1      -5.237  -1.814   0.135  1.00  0.00     0.362 C 
HETATM   35  O6  UNL     1      -4.402  -2.781   0.257  1.00  0.00    -0.238 OA
ATOM     36  H4  UNL     1      -5.498   0.117  -0.698  1.00  0.00     0.165 HD
BRANCH  34  37
HETATM   37  O7  UNL     1      -6.446  -2.020   0.744  1.00  0.00    -0.294 OA
BRANCH  37  38
HETATM   38  C24 UNL     1      -6.782  -3.188   1.452  1.00  0.00     0.061 C 
HETATM   39  C25 UNL     1      -8.181  -3.045   2.045  1.00  0.00     0.046 C 
HETATM   40  C26 UNL     1      -6.899  -4.365   0.473  1.00  0.00     0.046 C 
HETATM   41  C27 UNL     1      -5.841  -3.582   2.522  1.00  0.00     0.046 C 
ENDBRANCH  37  38
ENDBRANCH  34  37
ENDBRANCH  32  33
BRANCH  32  42
HETATM   42  C28 UNL     1      -3.683  -0.419  -2.701  1.00  0.00     0.152 C 
HETATM   43  C29 UNL     1      -4.366  -1.620  -3.287  1.00  0.00     0.041 C 
HETATM   44  C30 UNL     1      -4.784  -1.099  -4.666  1.00  0.00     0.003 C 
HETATM   45  C31 UNL     1      -5.456   0.208  -4.231  1.00  0.00     0.003 C 
HETATM   46  C32 UNL     1      -4.544   0.726  -3.113  1.00  0.00     0.041 C 
BRANCH  42  47
HETATM   47  N5  UNL     1      -2.400  -0.272  -3.362  1.00  0.00    -0.068 N 
ATOM     48  H53 UNL     1      -1.879   0.519  -2.983  1.00  0.00     0.275 HD
ATOM     49  H52 UNL     1      -1.764  -1.026  -3.102  1.00  0.00     0.275 HD
ATOM     50  H51 UNL     1      -2.491  -0.200  -4.375  1.00  0.00     0.275 HD
ENDBRANCH  42  47
ENDBRANCH  32  42
ENDBRANCH  29  32
ENDBRANCH   1  28
TORSDOF 18
