REMARK  18 active torsions:
REMARK  status: ('A' for Active; 'I' for Inactive)
REMARK    1  A    between atoms: O1_2  and  C2_3 
REMARK       I    between atoms: C2_3  and  N1_5 
REMARK    2  A    between atoms: N1_5  and  C3_7 
REMARK    3  A    between atoms: C3_7  and  C5_9 
REMARK    4  A    between atoms: C5_9  and  N2_10 
REMARK    5  A    between atoms: C8_13  and  C9_14 
REMARK    6  A    between atoms: C9_14  and  C10_15 
REMARK       I    between atoms: N3_18  and  C13_19 
REMARK    7  A    between atoms: C13_19  and  C14_21 
REMARK    8  A    between atoms: C14_21  and  C15_22 
REMARK    9  A    between atoms: C15_22  and  N4_23 
REMARK   10  A    between atoms: C15_22  and  C21_31 
REMARK       I    between atoms: N4_23  and  C16_24 
REMARK   11  A    between atoms: C16_24  and  O5_26 
REMARK   12  A    between atoms: O5_26  and  C17_27 
REMARK   13  A    between atoms: C21_31  and  C22_32 
REMARK   14  A    between atoms: C21_31  and  N6_40 
REMARK   15  A    between atoms: C22_32  and  C23_33 
REMARK   16  A    between atoms: C23_33  and  C24_34 
REMARK   17  A    between atoms: C24_34  and  C25_35 
REMARK   18  A    between atoms: C25_35  and  N5_36 
REMARK       I    between atoms: N6_40  and  C26_42 
ROOT
HETATM    1  C10 UNL     1       1.821   0.668  -1.136  1.00  0.00    -0.011 C 
HETATM    2  C11 UNL     1       0.707  -0.296  -1.543  1.00  0.00     0.024 C 
HETATM    3  C12 UNL     1      -0.423  -0.389  -0.588  1.00  0.00     0.126 C 
HETATM    4  N3  UNL     1      -0.814   0.912  -0.073  1.00  0.00    -0.349 N 
HETATM    5  C13 UNL     1      -2.104   1.477  -0.200  1.00  0.00     0.246 C 
HETATM    6  O3  UNL     1      -2.250   2.644   0.310  1.00  0.00    -0.268 OA
HETATM    7  C28 UNL     1       0.249   1.599   0.624  1.00  0.00     0.126 C 
HETATM    8  C29 UNL     1       1.641   1.106   0.246  1.00  0.00     0.024 C 
ENDROOT
BRANCH   5   9
HETATM    9  C14 UNL     1      -3.250   0.883  -0.837  1.00  0.00     0.121 C 
BRANCH   9  10
HETATM   10  C15 UNL     1      -4.300   0.192  -0.083  1.00  0.00     0.141 C 
BRANCH  10  11
HETATM   11  N4  UNL     1      -5.332  -0.325  -0.906  1.00  0.00    -0.344 NA
HETATM   12  C16 UNL     1      -6.309  -0.818  -1.684  1.00  0.00     0.441 C 
HETATM   13  O4  UNL     1      -6.724  -1.997  -1.807  1.00  0.00    -0.221 OA
BRANCH  12  14
HETATM   14  O5  UNL     1      -7.039   0.074  -2.540  1.00  0.00    -0.282 OA
BRANCH  14  15
HETATM   15  C17 UNL     1      -8.045  -0.297  -3.402  1.00  0.00     0.062 C 
HETATM   16  C18 UNL     1      -8.620   0.898  -4.161  1.00  0.00     0.046 C 
HETATM   17  C19 UNL     1      -7.587  -1.274  -4.471  1.00  0.00     0.046 C 
HETATM   18  C20 UNL     1      -9.197  -0.915  -2.660  1.00  0.00     0.046 C 
ENDBRANCH  14  15
ENDBRANCH  12  14
ENDBRANCH  10  11
BRANCH  10  19
HETATM   19  C21 UNL     1      -4.008  -0.534   1.163  1.00  0.00     0.053 C 
BRANCH  19  20
HETATM   20  C22 UNL     1      -3.510   0.220   2.345  1.00  0.00     0.061 C 
BRANCH  20  21
HETATM   21  C23 UNL     1      -4.317   1.307   2.919  1.00  0.00     0.008 C 
BRANCH  21  22
HETATM   22  C24 UNL     1      -5.681   0.987   3.427  1.00  0.00     0.027 C 
BRANCH  22  23
HETATM   23  C25 UNL     1      -6.284   2.287   4.003  1.00  0.00     0.229 C 
BRANCH  23  24
HETATM   24  N5  UNL     1      -6.384   3.319   3.021  1.00  0.00    -0.079 N 
ATOM     25  H53 UNL     1      -5.482   3.496   2.579  1.00  0.00     0.274 HD
ATOM     26  H52 UNL     1      -6.906   3.001   2.204  1.00  0.00     0.274 HD
ATOM     27  H51 UNL     1      -6.782   4.178   3.401  1.00  0.00     0.274 HD
ENDBRANCH  23  24
ENDBRANCH  22  23
ENDBRANCH  21  22
ENDBRANCH  20  21
ENDBRANCH  19  20
BRANCH  19  28
HETATM   28  N6  UNL     1      -4.992  -1.541   1.482  1.00  0.00    -0.328 N 
HETATM   29  C26 UNL     1      -4.761  -2.907   1.711  1.00  0.00     0.218 C 
HETATM   30  C27 UNL     1      -5.868  -3.816   2.043  1.00  0.00     0.117 C 
HETATM   31  O6  UNL     1      -3.596  -3.361   1.636  1.00  0.00    -0.274 OA
ATOM     32  H6  UNL     1      -5.960  -1.226   1.548  1.00  0.00     0.168 HD
ENDBRANCH  19  28
ENDBRANCH  10  19
ENDBRANCH   9  10
ENDBRANCH   5   9
BRANCH   1  33
HETATM   33  C9  UNL     1       3.088  -0.004  -1.484  1.00  0.00     0.009 C 
BRANCH  33  34
HETATM   34  C8  UNL     1       4.410   0.562  -1.253  1.00  0.00    -0.011 C 
HETATM   35  C7  UNL     1       4.913   0.802   0.122  1.00  0.00     0.035 C 
HETATM   36  C6  UNL     1       5.646  -0.449   0.661  1.00  0.00     0.273 C 
HETATM   37  N2  UNL     1       6.844  -0.649  -0.091  1.00  0.00     0.090 N 
HETATM   38  C31 UNL     1       6.845  -0.006  -1.357  1.00  0.00     0.273 C 
HETATM   39  C30 UNL     1       5.495  -0.162  -2.055  1.00  0.00     0.035 C 
BRANCH  37  40
HETATM   40  C5  UNL     1       8.009  -0.516   0.691  1.00  0.00     0.297 C 
BRANCH  40  41
HETATM   41  C3  UNL     1       9.273  -0.755  -0.145  1.00  0.00     0.111 C 
HETATM   42  C4  UNL     1       9.227  -2.129  -0.779  1.00  0.00     0.034 C 
BRANCH  41  43
HETATM   43  N1  UNL     1      10.446  -0.624   0.668  1.00  0.00    -0.331 N 
HETATM   44  C2  UNL     1      11.415   0.401   0.562  1.00  0.00     0.360 C 
HETATM   45  O2  UNL     1      11.315   1.330  -0.300  1.00  0.00    -0.239 OA
ATOM     46  H1  UNL     1      10.595  -1.332   1.386  1.00  0.00     0.165 HD
BRANCH  44  47
HETATM   47  O1  UNL     1      12.524   0.448   1.389  1.00  0.00    -0.309 OA
HETATM   48  C1  UNL     1      13.518   1.439   1.332  1.00  0.00     0.215 C 
ENDBRANCH  44  47
ENDBRANCH  41  43
ENDBRANCH  40  41
ENDBRANCH  37  40
ENDBRANCH  33  34
ENDBRANCH   1  33
TORSDOF 18
