REMARK  17 active torsions:
REMARK  status: ('A' for Active; 'I' for Inactive)
REMARK    1  A    between atoms: C2_2  and  C3_3 
REMARK    2  A    between atoms: C3_3  and  C5_5 
REMARK    3  A    between atoms: C5_5  and  N1_6 
REMARK    4  A    between atoms: C5_5  and  C32_45 
REMARK       I    between atoms: N1_6  and  C6_8 
REMARK    5  A    between atoms: C6_8  and  C7_10 
REMARK    6  A    between atoms: C7_10  and  O2_11 
REMARK    7  A    between atoms: C7_10  and  N2_13 
REMARK    8  A    between atoms: N2_13  and  C10_15 
REMARK    9  A    between atoms: C10_15  and  C11_16 
REMARK   10  A    between atoms: C10_15  and  C29_42 
REMARK       I    between atoms: C11_16  and  N3_18 
REMARK   11  A    between atoms: N3_18  and  C12_20 
REMARK   12  A    between atoms: C12_20  and  C13_21 
REMARK   13  A    between atoms: C12_20  and  C25_38 
REMARK       I    between atoms: C13_21  and  N4_23 
REMARK   14  A    between atoms: N4_23  and  C14_25 
REMARK   15  A    between atoms: C14_25  and  C15_26 
REMARK   16  A    between atoms: C18_31  and  C19_32 
REMARK   17  A    between atoms: C19_32  and  C20_33 
ROOT
HETATM    1  C11 UNL     1       0.834   0.290   0.610  1.00  0.00     0.268 C 
HETATM    2  O3  UNL     1       1.099   1.044   1.586  1.00  0.00    -0.266 OA
HETATM    3  N3  UNL     1      -0.343   0.467  -0.090  1.00  0.00    -0.320 N 
ATOM      4  H3  UNL     1      -0.411  -0.236  -0.826  1.00  0.00     0.169 HD
ENDROOT
BRANCH   3   5
HETATM    5  C12 UNL     1      -1.480   1.295  -0.125  1.00  0.00     0.088 C 
BRANCH   5   6
HETATM    6  C13 UNL     1      -2.704   0.472  -0.384  1.00  0.00     0.266 C 
HETATM    7  O4  UNL     1      -2.503  -0.368  -1.337  1.00  0.00    -0.266 OA
HETATM    8  N4  UNL     1      -3.933   0.490   0.228  1.00  0.00    -0.337 N 
ATOM      9  H4  UNL     1      -4.059   1.167   0.981  1.00  0.00     0.164 HD
BRANCH   8  10
HETATM   10  C14 UNL     1      -5.088  -0.367  -0.090  1.00  0.00     0.121 C 
HETATM   11  C16 UNL     1      -6.199  -0.120   0.908  1.00  0.00     0.043 C 
HETATM   12  C17 UNL     1      -7.193   0.897   0.507  1.00  0.00     0.007 C 
HETATM   13  C18 UNL     1      -7.838   0.454  -0.809  1.00  0.00    -0.014 C 
HETATM   14  C23 UNL     1      -6.773   0.443  -1.820  1.00  0.00     0.007 C 
HETATM   15  C24 UNL     1      -5.518  -0.304  -1.502  1.00  0.00     0.043 C 
BRANCH  10  16
HETATM   16  C15 UNL     1      -4.646  -1.756   0.195  1.00  0.00     0.202 C 
HETATM   17  O5  UNL     1      -3.525  -1.999   0.681  1.00  0.00    -0.646 OA
HETATM   18  O6  UNL     1      -5.500  -2.798  -0.087  1.00  0.00    -0.646 OA
ENDBRANCH  10  16
BRANCH  13  19
HETATM   19  C19 UNL     1      -8.700  -0.730  -0.629  1.00  0.00     0.008 C 
BRANCH  19  20
HETATM   20  C20 UNL     1      -9.416  -1.284  -1.796  1.00  0.00    -0.022 C 
HETATM   21  C21 UNL     1     -10.354  -0.304  -2.475  1.00  0.00     0.009 C 
HETATM   22  C22 UNL     1      -8.652  -2.052  -2.801  1.00  0.00     0.009 C 
ENDBRANCH  19  20
ENDBRANCH  13  19
ENDBRANCH   8  10
ENDBRANCH   5   6
BRANCH   5  23
HETATM   23  C25 UNL     1      -1.624   2.395   0.845  1.00  0.00    -0.003 C 
HETATM   24  C26 UNL     1      -1.688   2.046   2.287  1.00  0.00     0.021 C 
HETATM   25  C27 UNL     1      -0.478   3.406   0.576  1.00  0.00     0.021 C 
HETATM   26  C28 UNL     1      -2.877   3.241   0.519  1.00  0.00     0.021 C 
ENDBRANCH   5  23
ENDBRANCH   3   5
BRANCH   1  27
HETATM   27  C10 UNL     1       1.846  -0.784   0.262  1.00  0.00     0.081 C 
BRANCH  27  28
HETATM   28  N2  UNL     1       3.011  -0.776   1.035  1.00  0.00    -0.350 N 
HETATM   29  C9  UNL     1       3.028  -1.583   2.210  1.00  0.00     0.152 C 
BRANCH  28  30
HETATM   30  C7  UNL     1       3.979   0.229   0.967  1.00  0.00     0.316 C 
BRANCH  30  31
HETATM   31  C6  UNL     1       5.390  -0.400   0.909  1.00  0.00     0.267 C 
HETATM   32  N1  UNL     1       6.392   0.185   0.078  1.00  0.00    -0.346 N 
ATOM     33  H1  UNL     1       6.189   1.018  -0.475  1.00  0.00     0.163 HD
HETATM   34  O1  UNL     1       5.585  -1.396   1.600  1.00  0.00    -0.269 OA
BRANCH  32  35
HETATM   35  C5  UNL     1       7.716  -0.436   0.036  1.00  0.00     0.157 C 
BRANCH  35  36
HETATM   36  C3  UNL     1       8.246  -0.489  -1.357  1.00  0.00     0.011 C 
HETATM   37  C4  UNL     1       9.489  -1.309  -1.542  1.00  0.00     0.012 C 
BRANCH  36  38
HETATM   38  C2  UNL     1       8.415   0.841  -2.029  1.00  0.00     0.002 C 
HETATM   39  C1  UNL     1       9.534   1.695  -1.550  1.00  0.00     0.005 C 
ENDBRANCH  36  38
ENDBRANCH  35  36
BRANCH  35  40
HETATM   40  C32 UNL     1       8.559   0.216   1.049  1.00  0.00     0.145 C 
HETATM   41  C33 UNL     1       9.914  -0.245   1.452  1.00  0.00     0.093 C 
HETATM   42  O7  UNL     1       8.148   1.207   1.626  1.00  0.00    -0.296 OA
ENDBRANCH  35  40
ENDBRANCH  32  35
ENDBRANCH  30  31
BRANCH  30  43
HETATM   43  O2  UNL     1       3.916   1.213   0.035  1.00  0.00    -0.362 OA
HETATM   44  C8  UNL     1       4.089   2.507   0.451  1.00  0.00     0.204 C 
ENDBRANCH  30  43
ENDBRANCH  28  30
ENDBRANCH  27  28
BRANCH  27  45
HETATM   45  C29 UNL     1       1.267  -2.096  -0.101  1.00  0.00     0.033 C 
HETATM   46  C30 UNL     1       2.392  -2.836  -0.882  1.00  0.00     0.016 C 
HETATM   47  C31 UNL     1       0.769  -3.012   0.921  1.00  0.00     0.016 C 
ENDBRANCH  27  45
ENDBRANCH   1  27
TORSDOF 17
