REMARK  19 active torsions:
REMARK  status: ('A' for Active; 'I' for Inactive)
REMARK    1  A    between atoms: C2_2  and  C3_3 
REMARK    2  A    between atoms: C3_3  and  C4_4 
REMARK    3  A    between atoms: C3_3  and  C25_32 
REMARK    4  A    between atoms: C4_4  and  C5_5 
REMARK    5  A    between atoms: C8_8  and  C9_9 
REMARK       I    between atoms: C9_9  and  N1_11 
REMARK    6  A    between atoms: N1_11  and  C10_13 
REMARK    7  A    between atoms: C10_13  and  C11_14 
REMARK    8  A    between atoms: C10_13  and  C18_23 
REMARK    9  A    between atoms: C11_14  and  C12_15 
REMARK       I    between atoms: C12_15  and  N2_17 
REMARK   10  A    between atoms: C18_23  and  O4_25 
REMARK   11  A    between atoms: O4_25  and  C19_26 
REMARK       I    between atoms: C25_32  and  N3_34 
REMARK   12  A    between atoms: N3_34  and  C26_36 
REMARK   13  A    between atoms: C26_36  and  C27_37 
REMARK   14  A    between atoms: C26_36  and  C28_39 
REMARK   15  A    between atoms: C28_39  and  O7_40 
REMARK   16  A    between atoms: C28_39  and  C29_42 
REMARK   17  A    between atoms: C29_42  and  O8_43 
REMARK   18  A    between atoms: C29_42  and  C30_45 
REMARK   19  A    between atoms: C30_45  and  C31_46 
ROOT
HETATM    1  C5  UNL     1       1.184  -1.345   0.430  1.00  0.00    -0.014 C 
HETATM    2  C6  UNL     1       0.481  -2.582   0.819  1.00  0.00     0.005 C 
HETATM    3  C7  UNL     1      -1.043  -2.428   0.592  1.00  0.00     0.014 C 
HETATM    4  C8  UNL     1      -1.381  -1.091   1.204  1.00  0.00     0.078 C 
HETATM    5  C23 UNL     1      -0.932  -0.045   0.166  1.00  0.00     0.014 C 
HETATM    6  C24 UNL     1       0.260  -0.589  -0.547  1.00  0.00     0.005 C 
ENDROOT
BRANCH   1   7
HETATM    7  C4  UNL     1       2.549  -1.375  -0.076  1.00  0.00     0.018 C 
BRANCH   7   8
HETATM    8  C3  UNL     1       3.769  -1.799   0.569  1.00  0.00     0.078 C 
BRANCH   8   9
HETATM    9  C2  UNL     1       4.085  -3.130   1.079  1.00  0.00     0.009 C 
HETATM   10  C1  UNL     1       3.313  -3.725   2.202  1.00  0.00     0.006 C 
ENDBRANCH   8   9
BRANCH   8  11
HETATM   11  C25 UNL     1       4.936  -1.414  -0.345  1.00  0.00     0.222 C 
HETATM   12  O5  UNL     1       4.654  -1.150  -1.530  1.00  0.00    -0.273 OA
HETATM   13  N3  UNL     1       6.253  -1.364   0.158  1.00  0.00    -0.347 N 
ATOM     14  H3  UNL     1       6.428  -1.598   1.135  1.00  0.00     0.163 HD
BRANCH  13  15
HETATM   15  C26 UNL     1       7.376  -0.978  -0.709  1.00  0.00     0.177 C 
BRANCH  15  16
HETATM   16  C27 UNL     1       8.334  -2.089  -0.897  1.00  0.00     0.258 C 
HETATM   17  O6  UNL     1       8.135  -3.136  -0.333  1.00  0.00    -0.305 OA
ENDBRANCH  15  16
BRANCH  15  18
HETATM   18  C28 UNL     1       8.024   0.264  -0.128  1.00  0.00     0.176 C 
BRANCH  18  19
HETATM   19  O7  UNL     1       8.533   0.062   1.127  1.00  0.00    -0.391 OA
ATOM     20  H7  UNL     1       8.939   0.840   1.491  1.00  0.00     0.210 HD
ENDBRANCH  18  19
BRANCH  18  21
HETATM   21  C29 UNL     1       8.913   0.977  -1.096  1.00  0.00     0.149 C 
BRANCH  21  22
HETATM   22  O8  UNL     1      10.109   0.313  -1.322  1.00  0.00    -0.393 OA
ATOM     23  H8  UNL     1      10.674   0.766  -1.937  1.00  0.00     0.210 HD
ENDBRANCH  21  22
BRANCH  21  24
HETATM   24  C30 UNL     1       9.084   2.440  -0.775  1.00  0.00     0.038 C 
BRANCH  24  25
HETATM   25  C31 UNL     1       9.694   2.727   0.557  1.00  0.00    -0.020 C 
HETATM   26  C32 UNL     1       9.776   4.260   0.682  1.00  0.00     0.009 C 
HETATM   27  C33 UNL     1      11.125   2.238   0.658  1.00  0.00     0.009 C 
ENDBRANCH  24  25
ENDBRANCH  21  24
ENDBRANCH  18  21
ENDBRANCH  15  18
ENDBRANCH  13  15
ENDBRANCH   8  11
ENDBRANCH   7   8
ENDBRANCH   1   7
BRANCH   4  28
HETATM   28  C9  UNL     1      -2.765  -0.912   1.621  1.00  0.00     0.222 C 
HETATM   29  O1  UNL     1      -3.013  -0.989   2.884  1.00  0.00    -0.273 OA
HETATM   30  N1  UNL     1      -3.838  -0.663   0.732  1.00  0.00    -0.346 N 
ATOM     31  H1  UNL     1      -3.645  -0.605  -0.268  1.00  0.00     0.163 HD
BRANCH  30  32
HETATM   32  C10 UNL     1      -5.185  -0.490   1.188  1.00  0.00     0.193 C 
BRANCH  32  33
HETATM   33  C11 UNL     1      -5.707   0.896   1.032  1.00  0.00     0.138 C 
BRANCH  33  34
HETATM   34  C12 UNL     1      -5.769   1.415  -0.328  1.00  0.00     0.222 C 
HETATM   35  O2  UNL     1      -5.374   0.745  -1.295  1.00  0.00    -0.273 OA
HETATM   36  N2  UNL     1      -6.289   2.708  -0.583  1.00  0.00    -0.352 N 
HETATM   37  C13 UNL     1      -6.753   3.522   0.506  1.00  0.00     0.125 C 
HETATM   38  C17 UNL     1      -6.380   3.242  -1.933  1.00  0.00     0.125 C 
HETATM   39  C14 UNL     1      -7.270   4.834  -0.054  1.00  0.00     0.020 C 
HETATM   40  C15 UNL     1      -8.327   4.580  -1.116  1.00  0.00     0.003 C 
HETATM   41  C16 UNL     1      -7.811   3.689  -2.209  1.00  0.00     0.020 C 
ENDBRANCH  33  34
ENDBRANCH  32  33
BRANCH  32  42
HETATM   42  C18 UNL     1      -6.093  -1.507   0.570  1.00  0.00     0.283 C 
HETATM   43  O3  UNL     1      -5.598  -2.581   0.166  1.00  0.00    -0.263 OA
BRANCH  42  44
HETATM   44  O4  UNL     1      -7.443  -1.258   0.447  1.00  0.00    -0.310 OA
BRANCH  44  45
HETATM   45  C19 UNL     1      -8.291  -2.223  -0.142  1.00  0.00     0.060 C 
HETATM   46  C20 UNL     1      -7.872  -2.576  -1.565  1.00  0.00     0.045 C 
HETATM   47  C21 UNL     1      -8.385  -3.457   0.722  1.00  0.00     0.045 C 
HETATM   48  C22 UNL     1      -9.692  -1.606  -0.211  1.00  0.00     0.045 C 
ENDBRANCH  44  45
ENDBRANCH  42  44
ENDBRANCH  32  42
ENDBRANCH  30  32
ENDBRANCH   4  28
TORSDOF 19
