REMARK  22 active torsions:
REMARK  status: ('A' for Active; 'I' for Inactive)
REMARK    1  A    between atoms: C2_2  and  C3_3 
REMARK    2  A    between atoms: C3_3  and  C5_5 
REMARK    3  A    between atoms: C5_5  and  C6_6 
REMARK    4  A    between atoms: C5_5  and  C9_12 
REMARK    5  A    between atoms: C6_6  and  O1_7 
REMARK    6  A    between atoms: C6_6  and  N1_9 
REMARK    7  A    between atoms: C9_12  and  C11_14 
REMARK    8  A    between atoms: C11_14  and  C12_15 
REMARK    9  A    between atoms: C12_15  and  O2_16 
REMARK   10  A    between atoms: C12_15  and  C13_18 
REMARK       I    between atoms: C13_18  and  N2_20 
REMARK   11  A    between atoms: N2_20  and  C14_22 
REMARK   12  A    between atoms: C14_22  and  C15_23 
REMARK   13  A    between atoms: C14_22  and  C22_34 
REMARK   14  A    between atoms: C15_23  and  C16_24 
REMARK   15  A    between atoms: C16_24  and  O4_25 
REMARK   16  A    between atoms: C16_24  and  C17_27 
REMARK       I    between atoms: C22_34  and  N4_36 
REMARK   17  A    between atoms: N4_36  and  C23_38 
REMARK   18  A    between atoms: C23_38  and  C24_39 
REMARK   19  A    between atoms: C23_38  and  C31_46 
REMARK   20  A    between atoms: C24_39  and  C25_40 
REMARK   21  A    between atoms: C31_46  and  O6_47 
REMARK   22  A    between atoms: C31_46  and  C32_49 
ROOT
HETATM    1  C14 UNL     1      -0.593   1.169  -0.018  1.00  0.00     0.179 C 
ENDROOT
BRANCH   1   2
HETATM    2  N2  UNL     1       0.567   0.623  -0.676  1.00  0.00    -0.342 N 
HETATM    3  C13 UNL     1       1.845   0.460  -0.002  1.00  0.00     0.275 C 
HETATM    4  O3  UNL     1       1.821   0.843   1.178  1.00  0.00    -0.265 OA
ATOM      5  H2  UNL     1       0.488   0.340  -1.653  1.00  0.00     0.163 HD
BRANCH   3   6
HETATM    6  C12 UNL     1       2.978  -0.083  -0.655  1.00  0.00     0.134 C 
BRANCH   6   7
HETATM    7  C11 UNL     1       4.325  -0.359  -0.372  1.00  0.00     0.045 C 
BRANCH   7   8
HETATM    8  C9  UNL     1       5.160  -0.237   0.597  1.00  0.00    -0.069 C 
HETATM    9  C10 UNL     1       4.729   0.373   1.913  1.00  0.00     0.044 C 
BRANCH   8  10
HETATM   10  C5  UNL     1       6.630  -0.662   0.561  1.00  0.00     0.092 C 
BRANCH  10  11
HETATM   11  C3  UNL     1       7.166  -0.848  -0.756  1.00  0.00    -0.003 C 
HETATM   12  C4  UNL     1       8.592  -1.398  -0.797  1.00  0.00     0.011 C 
BRANCH  11  13
HETATM   13  C2  UNL     1       7.063   0.402  -1.592  1.00  0.00     0.001 C 
HETATM   14  C1  UNL     1       7.399   0.143  -3.048  1.00  0.00     0.005 C 
ENDBRANCH  11  13
ENDBRANCH  10  11
BRANCH  10  15
HETATM   15  C6  UNL     1       6.695  -1.725   1.568  1.00  0.00     0.121 C 
BRANCH  15  16
HETATM   16  O1  UNL     1       7.497  -1.427   2.551  1.00  0.00    -0.349 OA
ATOM     17  H1  UNL     1       7.539  -2.116   3.204  1.00  0.00     0.219 HD
ENDBRANCH  15  16
BRANCH  15  18
HETATM   18  N1  UNL     1       6.090  -2.950   1.677  1.00  0.00    -0.374 N 
HETATM   19  C7  UNL     1       6.382  -3.809   2.838  1.00  0.00     0.150 C 
HETATM   20  C8  UNL     1       5.156  -3.497   0.741  1.00  0.00     0.150 C 
ENDBRANCH  15  18
ENDBRANCH  10  15
ENDBRANCH   8  10
ENDBRANCH   7   8
ENDBRANCH   6   7
BRANCH   6  21
HETATM   21  O2  UNL     1       2.649  -0.433  -1.918  1.00  0.00    -0.356 OA
ATOM     22  H2  UNL     1       1.737  -0.246  -2.110  1.00  0.00     0.218 HD
ENDBRANCH   6  21
ENDBRANCH   3   6
ENDBRANCH   1   2
BRANCH   1  23
HETATM   23  C15 UNL     1      -0.953   2.539  -0.561  1.00  0.00     0.067 C 
BRANCH  23  24
HETATM   24  C16 UNL     1      -1.258   2.533  -2.024  1.00  0.00     0.129 C 
BRANCH  24  25
HETATM   25  O4  UNL     1      -2.330   1.702  -2.337  1.00  0.00    -0.395 OA
ATOM     26  H4  UNL     1      -2.524   1.698  -3.267  1.00  0.00     0.210 HD
ENDBRANCH  24  25
BRANCH  24  27
HETATM   27  C17 UNL     1      -1.622   3.930  -2.463  1.00  0.00     0.052 C 
HETATM   28  C18 UNL     1      -0.552   4.916  -2.237  1.00  0.00     0.062 C 
HETATM   29  N3  UNL     1      -0.836   6.146  -2.211  1.00  0.00    -0.402 N 
HETATM   30  C19 UNL     1      -2.103   6.750  -2.375  1.00  0.00     0.118 C 
ATOM     31  H3  UNL     1      -0.055   6.782  -2.052  1.00  0.00     0.158 HD
HETATM   32  C20 UNL     1      -3.220   5.751  -2.564  1.00  0.00     0.020 C 
HETATM   33  C21 UNL     1      -2.889   4.435  -1.848  1.00  0.00     0.014 C 
ENDBRANCH  24  27
ENDBRANCH  23  24
ENDBRANCH   1  23
BRANCH   1  34
HETATM   34  C22 UNL     1      -1.783   0.247  -0.121  1.00  0.00     0.240 C 
HETATM   35  O5  UNL     1      -1.574  -0.787  -0.799  1.00  0.00    -0.271 OA
HETATM   36  N4  UNL     1      -2.952   0.634   0.531  1.00  0.00    -0.352 N 
ATOM     37  H4  UNL     1      -2.903   1.530   1.016  1.00  0.00     0.163 HD
BRANCH  36  38
HETATM   38  C23 UNL     1      -4.219  -0.044   0.621  1.00  0.00     0.116 C 
BRANCH  38  39
HETATM   39  C24 UNL     1      -4.094  -1.525   0.456  1.00  0.00     0.032 C 
BRANCH  39  40
HETATM   40  C25 UNL     1      -3.260  -2.204   1.513  1.00  0.00    -0.013 C 
HETATM   41  C26 UNL     1      -3.255  -3.688   1.143  1.00  0.00     0.005 C 
HETATM   42  C27 UNL     1      -4.414  -4.405   1.804  1.00  0.00     0.000 C 
HETATM   43  C28 UNL     1      -4.048  -4.573   3.265  1.00  0.00     0.000 C 
HETATM   44  C29 UNL     1      -3.560  -3.229   3.745  1.00  0.00     0.000 C 
HETATM   45  C30 UNL     1      -3.966  -2.089   2.865  1.00  0.00     0.005 C 
ENDBRANCH  39  40
ENDBRANCH  38  39
BRANCH  38  46
HETATM   46  C31 UNL     1      -5.169   0.605  -0.332  1.00  0.00     0.177 C 
BRANCH  46  47
HETATM   47  O6  UNL     1      -5.238   1.974   0.106  1.00  0.00    -0.390 OA
ATOM     48  H6  UNL     1      -5.842   2.387  -0.500  1.00  0.00     0.210 HD
ENDBRANCH  46  47
BRANCH  46  49
HETATM   49  C32 UNL     1      -6.583   0.128  -0.291  1.00  0.00     0.106 A 
HETATM   50  C33 UNL     1      -7.526   0.809   0.722  1.00  0.00     0.051 C 
HETATM   51  C34 UNL     1      -7.249  -0.135  -1.625  1.00  0.00     0.209 A 
HETATM   52  O7  UNL     1      -6.937  -1.149  -0.701  1.00  0.00    -0.373 OA
ENDBRANCH  46  49
ENDBRANCH  38  46
ENDBRANCH  36  38
ENDBRANCH   1  34
TORSDOF 22
