REMARK  13 active torsions:
REMARK  status: ('A' for Active; 'I' for Inactive)
REMARK    1  A    between atoms: C2_2  and  C3_3 
REMARK    2  A    between atoms: C3_3  and  C27_37 
REMARK    3  A    between atoms: C4_4  and  C5_5 
REMARK    4  A    between atoms: C5_5  and  C6_6 
REMARK    5  A    between atoms: C7_7  and  C8_8 
REMARK    6  A    between atoms: C8_8  and  O1_9 
REMARK    7  A    between atoms: C9_11  and  O2_12 
REMARK    8  A    between atoms: O2_12  and  C10_13 
REMARK    9  A    between atoms: C12_16  and  C13_17 
REMARK   10  A    between atoms: C13_17  and  S1_18 
REMARK   11  A    between atoms: S1_18  and  N1_21 
REMARK   12  A    between atoms: C18_26  and  C19_27 
REMARK   13  A    between atoms: C27_37  and  O8_38 
ROOT
HETATM    1  C6  UNL     1       1.804   0.023  -0.282  1.00  0.00     0.002 C 
HETATM    2  C7  UNL     1       1.733  -0.925  -1.418  1.00  0.00     0.044 C 
HETATM    3  C9  UNL     1       0.502  -1.783  -1.178  1.00  0.00     0.149 C 
HETATM    4  C12 UNL     1      -0.053  -1.427   0.208  1.00  0.00     0.012 C 
HETATM    5  C20 UNL     1       1.195  -0.824   0.839  1.00  0.00     0.003 C 
HETATM    6  C21 UNL     1       2.216  -1.791   1.273  1.00  0.00     0.006 C 
HETATM    7  C22 UNL     1       1.600  -2.874   2.135  1.00  0.00     0.001 C 
HETATM    8  C23 UNL     1       0.621  -3.603   1.267  1.00  0.00     0.010 C 
HETATM    9  C24 UNL     1      -0.510  -2.662   0.887  1.00  0.00    -0.036 C 
HETATM   10  C25 UNL     1      -1.537  -3.476   0.144  1.00  0.00     0.015 C 
HETATM   11  C26 UNL     1      -1.143  -2.407   2.270  1.00  0.00     0.015 C 
ENDROOT
BRANCH   4  12
HETATM   12  C13 UNL     1      -1.085  -0.419  -0.093  1.00  0.00     0.176 C 
BRANCH  12  13
HETATM   13  S1  UNL     1      -2.108   0.433   0.947  1.00  0.00     0.233 S 
HETATM   14  O4  UNL     1      -3.189  -0.245   1.722  1.00  0.00    -0.205 OA
HETATM   15  O5  UNL     1      -1.407   1.319   1.943  1.00  0.00    -0.205 OA
BRANCH  13  16
HETATM   16  N1  UNL     1      -3.017   1.554  -0.078  1.00  0.00    -0.275 N 
HETATM   17  C14 UNL     1      -3.796   0.898  -1.018  1.00  0.00     0.077 C 
HETATM   18  C15 UNL     1      -5.267   1.047  -0.964  1.00  0.00     0.046 C 
HETATM   19  C16 UNL     1      -5.778   2.290  -0.324  1.00  0.00     0.008 C 
HETATM   20  C17 UNL     1      -4.644   3.271  -0.247  1.00  0.00     0.038 C 
HETATM   21  C18 UNL     1      -3.540   2.653   0.587  1.00  0.00     0.201 C 
BRANCH  21  22
HETATM   22  C19 UNL     1      -2.555   3.772   0.809  1.00  0.00     0.197 C 
HETATM   23  O6  UNL     1      -2.967   4.804   1.419  1.00  0.00    -0.646 OA
HETATM   24  O7  UNL     1      -1.254   3.739   0.393  1.00  0.00    -0.646 OA
ENDBRANCH  21  22
ENDBRANCH  13  16
ENDBRANCH  12  13
ENDBRANCH   4  12
BRANCH   3  25
HETATM   25  O2  UNL     1       0.838  -3.071  -1.440  1.00  0.00    -0.315 OA
BRANCH  25  26
HETATM   26  C10 UNL     1       0.420  -3.753  -2.572  1.00  0.00     0.255 C 
HETATM   27  C11 UNL     1       0.779  -5.163  -2.873  1.00  0.00     0.126 C 
HETATM   28  O3  UNL     1      -0.310  -3.122  -3.385  1.00  0.00    -0.266 OA
ENDBRANCH  25  26
ENDBRANCH   3  25
BRANCH   2  29
HETATM   29  C8  UNL     1       1.820  -0.344  -2.792  1.00  0.00     0.171 C 
BRANCH  29  30
HETATM   30  O1  UNL     1       0.845   0.565  -3.139  1.00  0.00    -0.400 OA
ATOM     31  H1  UNL     1       0.900   0.934  -4.013  1.00  0.00     0.209 HD
ENDBRANCH  29  30
ENDBRANCH   2  29
BRANCH   1  32
HETATM   32  C5  UNL     1       3.228   0.442   0.007  1.00  0.00     0.033 C 
BRANCH  32  33
HETATM   33  C4  UNL     1       3.307   1.403   1.117  1.00  0.00    -0.017 C 
HETATM   34  C3  UNL     1       3.804   2.617   1.105  1.00  0.00    -0.039 C 
BRANCH  34  35
HETATM   35  C2  UNL     1       3.785   3.417   2.331  1.00  0.00    -0.001 C 
HETATM   36  C1  UNL     1       4.267   4.627   2.391  1.00  0.00     0.012 C 
ENDBRANCH  34  35
BRANCH  34  37
HETATM   37  C27 UNL     1       4.407   3.252  -0.087  1.00  0.00     0.202 C 
BRANCH  37  38
HETATM   38  O8  UNL     1       3.683   4.418  -0.408  1.00  0.00    -0.396 OA
ATOM     39  H8  UNL     1       4.070   4.826  -1.174  1.00  0.00     0.209 HD
ENDBRANCH  37  38
ENDBRANCH  34  37
ENDBRANCH  32  33
ENDBRANCH   1  32
TORSDOF 13
