REMARK  16 active torsions:
REMARK  status: ('A' for Active; 'I' for Inactive)
REMARK    1  A    between atoms: C2_2  and  C4_4 
REMARK    2  A    between atoms: C4_4  and  C5_5 
REMARK    3  A    between atoms: C4_4  and  N4_26 
REMARK    4  A    between atoms: C5_5  and  C6_6 
REMARK    5  A    between atoms: N2_12  and  C9_13 
REMARK    6  A    between atoms: C9_13  and  C11_15 
REMARK    7  A    between atoms: C11_15  and  O2_16 
REMARK    8  A    between atoms: C11_15  and  C12_18 
REMARK    9  A    between atoms: C12_18  and  N3_19 
REMARK   10  A    between atoms: N4_26  and  C19_27 
REMARK   11  A    between atoms: C19_27  and  O3_28 
REMARK   12  A    between atoms: C19_27  and  C20_30 
REMARK   13  A    between atoms: C20_30  and  N5_31 
REMARK   14  A    between atoms: C20_30  and  C26_40 
REMARK       I    between atoms: N5_31  and  C21_33 
REMARK   15  A    between atoms: C21_33  and  O5_35 
REMARK   16  A    between atoms: O5_35  and  C22_36 
ROOT
HETATM    1  C4  UNL     1      -1.347  -1.813  -0.364  1.00  0.00     0.071 C 
ENDROOT
BRANCH   1   2
HETATM    2  C2  UNL     1      -1.393  -3.274  -0.478  1.00  0.00     0.038 C 
HETATM    3  C1  UNL     1      -0.708  -3.788  -1.735  1.00  0.00     0.017 C 
HETATM    4  C3  UNL     1      -1.049  -4.097   0.690  1.00  0.00     0.017 C 
ENDBRANCH   1   2
BRANCH   1   5
HETATM    5  C5  UNL     1      -0.046  -1.076  -0.554  1.00  0.00     0.103 C 
BRANCH   5   6
HETATM    6  C6  UNL     1       0.963  -1.265   0.524  1.00  0.00     0.184 C 
HETATM    7  C7  UNL     1       0.449  -0.773   1.854  1.00  0.00     0.245 C 
HETATM    8  O1  UNL     1      -0.024  -1.408   2.782  1.00  0.00    -0.271 OA
HETATM    9  N1  UNL     1       0.651   0.629   1.780  1.00  0.00    -0.322 N 
HETATM   10  C8  UNL     1       1.755   0.867   0.857  1.00  0.00     0.182 C 
ATOM     11  H1  UNL     1       0.120   1.341   2.281  1.00  0.00     0.169 HD
HETATM   12  N2  UNL     1       2.066  -0.362   0.317  1.00  0.00    -0.356 N 
BRANCH  12  13
HETATM   13  C9  UNL     1       3.290  -0.863  -0.026  1.00  0.00     0.112 C 
HETATM   14  C10 UNL     1       3.264  -1.541  -1.371  1.00  0.00     0.035 C 
BRANCH  13  15
HETATM   15  C11 UNL     1       4.460   0.061   0.197  1.00  0.00     0.158 C 
BRANCH  15  16
HETATM   16  O2  UNL     1       4.570   0.323   1.587  1.00  0.00    -0.392 OA
ATOM     17  H2  UNL     1       5.307   0.905   1.728  1.00  0.00     0.210 HD
ENDBRANCH  15  16
BRANCH  15  18
HETATM   18  C12 UNL     1       5.795  -0.475  -0.220  1.00  0.00     0.155 C 
BRANCH  18  19
HETATM   19  N3  UNL     1       6.785   0.498   0.078  1.00  0.00    -0.391 N 
HETATM   20  C13 UNL     1       6.812   1.709  -0.621  1.00  0.00     0.058 C 
HETATM   21  C14 UNL     1       7.950   1.920  -1.580  1.00  0.00     0.044 C 
HETATM   22  C15 UNL     1       9.297   1.584  -1.052  1.00  0.00     0.005 C 
HETATM   23  C16 UNL     1       9.462   2.010   0.371  1.00  0.00     0.002 C 
HETATM   24  C17 UNL     1       8.685   1.213   1.346  1.00  0.00     0.020 C 
HETATM   25  C18 UNL     1       7.954   0.051   0.731  1.00  0.00     0.122 C 
ENDBRANCH  18  19
ENDBRANCH  15  18
ENDBRANCH  13  15
ENDBRANCH  12  13
ENDBRANCH   5   6
ENDBRANCH   1   5
BRANCH   1  26
HETATM   26  N4  UNL     1      -2.332  -1.172  -0.061  1.00  0.00    -0.391 NA
BRANCH  26  27
HETATM   27  C19 UNL     1      -3.378  -0.501   0.260  1.00  0.00     0.213 C 
BRANCH  27  28
HETATM   28  O3  UNL     1      -3.289   0.338   1.335  1.00  0.00    -0.337 OA
ATOM     29  H3  UNL     1      -4.063   0.835   1.573  1.00  0.00     0.220 HD
ENDBRANCH  27  28
BRANCH  27  30
HETATM   30  C20 UNL     1      -4.765  -0.418  -0.298  1.00  0.00     0.179 C 
BRANCH  30  31
HETATM   31  N5  UNL     1      -5.649   0.422   0.444  1.00  0.00    -0.323 N 
HETATM   32  C21 UNL     1      -6.399   1.461  -0.179  1.00  0.00     0.362 C 
HETATM   33  O4  UNL     1      -6.308   1.673  -1.436  1.00  0.00    -0.238 OA
ATOM     34  H5  UNL     1      -5.747   0.274   1.449  1.00  0.00     0.165 HD
BRANCH  32  35
HETATM   35  O5  UNL     1      -7.241   2.271   0.514  1.00  0.00    -0.294 OA
BRANCH  35  36
HETATM   36  C22 UNL     1      -8.040   3.309   0.052  1.00  0.00     0.061 C 
HETATM   37  C23 UNL     1      -8.807   3.988   1.178  1.00  0.00     0.046 C 
HETATM   38  C24 UNL     1      -7.372   4.350  -0.774  1.00  0.00     0.046 C 
HETATM   39  C25 UNL     1      -9.110   2.668  -0.838  1.00  0.00     0.046 C 
ENDBRANCH  35  36
ENDBRANCH  32  35
ENDBRANCH  30  31
BRANCH  30  40
HETATM   40  C26 UNL     1      -5.402  -1.733  -0.623  1.00  0.00     0.009 C 
HETATM   41  C27 UNL     1      -5.501  -2.691   0.522  1.00  0.00     0.012 C 
HETATM   42  C28 UNL     1      -4.976  -2.319  -1.924  1.00  0.00     0.012 C 
ENDBRANCH  30  40
ENDBRANCH  27  30
ENDBRANCH  26  27
ENDBRANCH   1  26
TORSDOF 16
