REMARK  14 active torsions:
REMARK  status: ('A' for Active; 'I' for Inactive)
REMARK    1  A    between atoms: C2_2  and  C4_4 
REMARK    2  A    between atoms: C4_4  and  C5_5 
REMARK    3  A    between atoms: C5_5  and  N1_6 
REMARK    4  A    between atoms: N1_6  and  C6_7 
REMARK    5  A    between atoms: N1_6  and  C24_36 
REMARK    6  A    between atoms: C6_7  and  C7_8 
REMARK    7  A    between atoms: C7_8  and  O1_9 
REMARK    8  A    between atoms: C7_8  and  C8_11 
REMARK    9  A    between atoms: C8_11  and  N2_12 
REMARK   10  A    between atoms: N3_14  and  C10_15 
REMARK   11  A    between atoms: C16_22  and  C17_23 
REMARK   12  A    between atoms: C17_23  and  O2_24 
REMARK   13  A    between atoms: C24_36  and  O5_38 
REMARK   14  A    between atoms: O5_38  and  C26_39 
ROOT
HETATM    1  C10 UNL     1       4.019   0.353  -0.312  1.00  0.00     0.142 C 
HETATM    2  C11 UNL     1       3.975   1.770  -0.790  1.00  0.00     0.092 C 
HETATM    3  N4  UNL     1       3.924   2.859  -1.174  1.00  0.00    -0.195 NA
HETATM    4  C12 UNL     1       4.380  -0.483  -1.506  1.00  0.00     0.049 C 
HETATM    5  C13 UNL     1       5.664  -1.184  -1.521  1.00  0.00     0.013 C 
HETATM    6  C14 UNL     1       6.456  -1.208  -0.244  1.00  0.00     0.026 C 
HETATM    7  C15 UNL     1       5.490  -1.171   0.898  1.00  0.00     0.031 C 
HETATM    8  C16 UNL     1       5.004   0.275   0.745  1.00  0.00     0.064 C 
HETATM    9  C18 UNL     1       6.259   0.984   0.393  1.00  0.00     0.034 A 
HETATM   10  N5  UNL     1       6.664   2.270   0.543  1.00  0.00    -0.368 N 
ATOM     11  H5  UNL     1       6.025   2.946   0.961  1.00  0.00     0.165 HD
HETATM   12  C19 UNL     1       7.870   2.673   0.160  1.00  0.00     0.092 A 
HETATM   13  C20 UNL     1       8.770   1.817  -0.406  1.00  0.00     0.072 A 
HETATM   14  C21 UNL     1       8.415   0.513  -0.582  1.00  0.00     0.181 A 
HETATM   15  O3  UNL     1       9.158  -0.351  -1.089  1.00  0.00    -0.288 OA
HETATM   16  C22 UNL     1       7.145   0.103  -0.175  1.00  0.00     0.020 A 
ENDROOT
BRANCH   1  17
HETATM   17  N3  UNL     1       2.665  -0.041   0.057  1.00  0.00    -0.294 N 
HETATM   18  C9  UNL     1       1.803  -0.509   1.077  1.00  0.00     0.260 C 
HETATM   19  N2  UNL     1       1.014  -1.093   0.004  1.00  0.00    -0.315 N 
HETATM   20  C23 UNL     1       1.515  -0.059  -0.816  1.00  0.00     0.324 C 
HETATM   21  O4  UNL     1       1.140   0.564  -1.840  1.00  0.00    -0.247 OA
BRANCH  19  22
HETATM   22  C8  UNL     1       0.127  -2.197  -0.179  1.00  0.00     0.162 C 
BRANCH  22  23
HETATM   23  C7  UNL     1      -1.289  -1.793   0.181  1.00  0.00     0.164 C 
BRANCH  23  24
HETATM   24  C6  UNL     1      -1.702  -0.599  -0.599  1.00  0.00     0.308 C 
BRANCH  24  25
HETATM   25  N1  UNL     1      -3.073  -0.181  -0.185  1.00  0.00     0.119 N 
BRANCH  25  26
HETATM   26  C5  UNL     1      -3.315   1.056  -0.928  1.00  0.00     0.276 C 
BRANCH  26  27
HETATM   27  C4  UNL     1      -4.543   1.718  -0.423  1.00  0.00     0.034 C 
BRANCH  27  28
HETATM   28  C2  UNL     1      -4.850   3.017  -1.153  1.00  0.00    -0.021 C 
HETATM   29  C1  UNL     1      -3.702   3.987  -0.985  1.00  0.00     0.009 C 
HETATM   30  C3  UNL     1      -6.051   3.634  -0.426  1.00  0.00     0.009 C 
ENDBRANCH  27  28
ENDBRANCH  26  27
ENDBRANCH  25  26
BRANCH  25  31
HETATM   31  C24 UNL     1      -4.006  -1.240  -0.628  1.00  0.00     0.355 C 
HETATM   32  C25 UNL     1      -3.768  -1.700  -2.021  1.00  0.00     0.073 C 
BRANCH  31  33
HETATM   33  O5  UNL     1      -4.117  -2.140   0.357  1.00  0.00    -0.347 OA
BRANCH  33  34
HETATM   34  C26 UNL     1      -5.266  -2.269   1.052  1.00  0.00     0.053 C 
HETATM   35  C27 UNL     1      -6.415  -2.637   0.101  1.00  0.00     0.045 C 
HETATM   36  C28 UNL     1      -5.110  -3.514   1.943  1.00  0.00     0.045 C 
HETATM   37  C29 UNL     1      -5.692  -1.152   1.928  1.00  0.00     0.045 C 
ENDBRANCH  33  34
ENDBRANCH  31  33
ENDBRANCH  25  31
ENDBRANCH  24  25
ENDBRANCH  23  24
BRANCH  23  38
HETATM   38  O1  UNL     1      -1.297  -1.427   1.533  1.00  0.00    -0.392 OA
ATOM     39  H1  UNL     1      -1.033  -2.191   2.032  1.00  0.00     0.210 HD
ENDBRANCH  23  38
ENDBRANCH  22  23
ENDBRANCH  19  22
ENDBRANCH   1  17
BRANCH   8  40
HETATM   40  C17 UNL     1       4.588   0.744   2.112  1.00  0.00     0.183 C 
BRANCH  40  41
HETATM   41  O2  UNL     1       4.188   2.050   2.176  1.00  0.00    -0.400 OA
ATOM     42  H2  UNL     1       3.925   2.346   3.040  1.00  0.00     0.209 HD
ENDBRANCH  40  41
ENDBRANCH   8  40
TORSDOF 14
