REMARK  17 active torsions:
REMARK  status: ('A' for Active; 'I' for Inactive)
REMARK    1  A    between atoms: C2_2  and  C3_3 
REMARK    2  A    between atoms: C3_3  and  C4_4 
REMARK    3  A    between atoms: C4_4  and  C5_5 
REMARK    4  A    between atoms: C5_5  and  C6_6 
REMARK    5  A    between atoms: C6_6  and  N1_7 
REMARK    6  A    between atoms: N1_7  and  C7_8 
REMARK    7  A    between atoms: N1_7  and  C26_38 
REMARK    8  A    between atoms: C7_8  and  O1_9 
REMARK    9  A    between atoms: C7_8  and  C8_11 
REMARK   10  A    between atoms: N2_13  and  C10_14 
REMARK   11  A    between atoms: C10_14  and  C11_15 
REMARK   12  A    between atoms: C17_21  and  O2_22 
REMARK   13  A    between atoms: C18_24  and  N3_25 
REMARK       I    between atoms: N3_25  and  C19_27 
REMARK   14  A    between atoms: C19_27  and  O4_29 
REMARK   15  A    between atoms: O4_29  and  C20_30 
REMARK   16  A    between atoms: C25_35  and  O5_36 
REMARK   17  A    between atoms: C26_38  and  C28_40 
ROOT
HETATM    1  C8  UNL     1      -0.074   1.216   0.585  1.00  0.00     0.117 C 
HETATM    2  C9  UNL     1      -0.679   2.398   1.255  1.00  0.00     0.297 C 
HETATM    3  N2  UNL     1       0.155   3.566   1.040  1.00  0.00     0.098 N 
HETATM    4  C14 UNL     1       1.373   3.066   0.502  1.00  0.00     0.258 C 
HETATM    5  C15 UNL     1       2.220   2.574   1.681  1.00  0.00     0.042 C 
HETATM    6  C16 UNL     1       1.652   1.364   2.332  1.00  0.00     0.043 C 
HETATM    7  C17 UNL     1       0.896   0.434   1.446  1.00  0.00     0.098 C 
HETATM    8  C18 UNL     1       1.860  -0.176   0.440  1.00  0.00     0.125 C 
HETATM    9  C24 UNL     1       1.993   0.902  -0.598  1.00  0.00     0.070 C 
HETATM   10  C25 UNL     1       0.937   1.915  -0.337  1.00  0.00     0.110 C 
ENDROOT
BRANCH   1  11
HETATM   11  C7  UNL     1      -0.948   0.398  -0.239  1.00  0.00     0.131 C 
BRANCH  11  12
HETATM   12  N1  UNL     1      -2.181  -0.198  -0.016  1.00  0.00    -0.353 N 
BRANCH  12  13
HETATM   13  C6  UNL     1      -2.796  -0.993  -1.115  1.00  0.00     0.125 C 
BRANCH  13  14
HETATM   14  C5  UNL     1      -2.333  -2.397  -1.088  1.00  0.00     0.020 C 
BRANCH  14  15
HETATM   15  C4  UNL     1      -2.884  -3.355  -2.071  1.00  0.00     0.002 C 
BRANCH  15  16
HETATM   16  C3  UNL     1      -2.708  -3.226  -3.509  1.00  0.00    -0.000 C 
BRANCH  16  17
HETATM   17  C2  UNL     1      -3.250  -2.065  -4.257  1.00  0.00    -0.005 C 
HETATM   18  C1  UNL     1      -4.758  -1.911  -4.074  1.00  0.00     0.005 C 
ENDBRANCH  16  17
ENDBRANCH  15  16
ENDBRANCH  14  15
ENDBRANCH  13  14
ENDBRANCH  12  13
BRANCH  12  19
HETATM   19  C26 UNL     1      -2.905  -0.077   1.193  1.00  0.00     0.151 C 
HETATM   20  C27 UNL     1      -3.210  -1.359   1.926  1.00  0.00     0.040 C 
BRANCH  19  21
HETATM   21  C28 UNL     1      -4.164   0.743   1.022  1.00  0.00     0.145 C 
HETATM   22  C29 UNL     1      -4.531   1.430  -0.240  1.00  0.00     0.093 C 
HETATM   23  O6  UNL     1      -4.944   0.871   1.950  1.00  0.00    -0.296 OA
ENDBRANCH  19  21
ENDBRANCH  12  19
ENDBRANCH  11  12
BRANCH  11  24
HETATM   24  O1  UNL     1      -0.488   0.168  -1.439  1.00  0.00    -0.349 OA
ATOM     25  H1  UNL     1       0.356   0.576  -1.592  1.00  0.00     0.219 HD
ENDBRANCH  11  24
ENDBRANCH   1  11
BRANCH   7  26
HETATM   26  O2  UNL     1       0.302  -0.539   2.230  1.00  0.00    -0.386 OA
ATOM     27  H2  UNL     1       0.910  -1.030   2.770  1.00  0.00     0.210 HD
ENDBRANCH   7  26
BRANCH  10  28
HETATM   28  O5  UNL     1       0.365   2.360  -1.517  1.00  0.00    -0.386 OA
ATOM     29  H5  UNL     1       0.990   2.792  -2.087  1.00  0.00     0.210 HD
ENDBRANCH  10  28
BRANCH   3  30
HETATM   30  C10 UNL     1      -0.501   4.602   0.330  1.00  0.00     0.277 C 
BRANCH  30  31
HETATM   31  C11 UNL     1       0.361   5.815   0.207  1.00  0.00     0.014 A 
HETATM   32  C12 UNL     1      -0.187   7.006  -0.519  1.00  0.00     0.007 A 
HETATM   33  C13 UNL     1      -0.095   7.026   0.978  1.00  0.00     0.007 A 
ENDBRANCH  30  31
ENDBRANCH   3  30
BRANCH   8  34
HETATM   34  N3  UNL     1       3.113  -0.585   1.024  1.00  0.00    -0.329 N 
HETATM   35  C19 UNL     1       3.522  -1.942   1.024  1.00  0.00     0.361 C 
HETATM   36  O3  UNL     1       2.792  -2.844   0.507  1.00  0.00    -0.238 OA
ATOM     37  H3  UNL     1       3.719   0.118   1.447  1.00  0.00     0.165 HD
BRANCH  35  38
HETATM   38  O4  UNL     1       4.717  -2.393   1.571  1.00  0.00    -0.294 OA
BRANCH  38  39
HETATM   39  C20 UNL     1       5.073  -3.774   1.537  1.00  0.00     0.061 C 
HETATM   40  C21 UNL     1       6.416  -3.910   2.212  1.00  0.00     0.046 C 
HETATM   41  C22 UNL     1       5.226  -4.257   0.109  1.00  0.00     0.046 C 
HETATM   42  C23 UNL     1       4.062  -4.628   2.245  1.00  0.00     0.046 C 
ENDBRANCH  38  39
ENDBRANCH  35  38
ENDBRANCH   8  34
TORSDOF 17
