REMARK  13 active torsions:
REMARK  status: ('A' for Active; 'I' for Inactive)
REMARK    1  A    between atoms: C2_2  and  O1_3 
REMARK    2  A    between atoms: C2_2  and  C3_5 
REMARK    3  A    between atoms: C3_5  and  C4_6 
REMARK    4  A    between atoms: C4_6  and  C5_7 
REMARK    5  A    between atoms: C4_6  and  N4_38 
REMARK       I    between atoms: C5_7  and  N1_9 
REMARK    6  A    between atoms: C10_14  and  O3_15 
REMARK    7  A    between atoms: O3_15  and  C11_16 
REMARK       I    between atoms: C11_16  and  N2_18 
REMARK    8  A    between atoms: C14_21  and  C15_22 
REMARK    9  A    between atoms: C15_22  and  C16_23 
REMARK       I    between atoms: C16_23  and  N3_25 
REMARK   10  A    between atoms: N3_25  and  C17_27 
REMARK   11  A    between atoms: C17_27  and  C18_28 
REMARK   12  A    between atoms: C17_27  and  C23_33 
REMARK   13  A    between atoms: C18_28  and  C19_29 
ROOT
HETATM    1  C11 UNL     1      -0.943  -1.215  -2.155  1.00  0.00     0.364 C 
HETATM    2  O4  UNL     1      -1.069  -2.464  -2.329  1.00  0.00    -0.238 OA
HETATM    3  N2  UNL     1       0.252  -0.618  -1.716  1.00  0.00    -0.328 N 
HETATM    4  C12 UNL     1       1.410  -1.471  -1.454  1.00  0.00     0.128 C 
HETATM    5  C13 UNL     1       2.539  -0.593  -0.905  1.00  0.00     0.025 C 
HETATM    6  C14 UNL     1       2.000   0.156   0.278  1.00  0.00    -0.003 C 
HETATM    7  C24 UNL     1       0.960   1.143  -0.180  1.00  0.00     0.025 C 
HETATM    8  C25 UNL     1       0.361   0.799  -1.516  1.00  0.00     0.128 C 
ENDROOT
BRANCH   1   9
HETATM    9  O3  UNL     1      -2.095  -0.457  -2.436  1.00  0.00    -0.278 OA
BRANCH   9  10
HETATM   10  C10 UNL     1      -3.297  -0.985  -2.871  1.00  0.00     0.237 C 
HETATM   11  N1  UNL     1      -4.435  -0.712  -1.980  1.00  0.00    -0.319 N 
HETATM   12  C5  UNL     1      -4.268  -0.471  -0.598  1.00  0.00     0.244 C 
HETATM   13  C6  UNL     1      -5.619  -0.745  -2.781  1.00  0.00     0.086 C 
HETATM   14  O2  UNL     1      -3.105  -0.519  -0.058  1.00  0.00    -0.271 OA
HETATM   15  C7  UNL     1      -6.423  -2.021  -2.545  1.00  0.00     0.032 C 
HETATM   16  C8  UNL     1      -5.215  -0.779  -4.242  1.00  0.00     0.029 C 
HETATM   17  C9  UNL     1      -3.751  -0.418  -4.203  1.00  0.00     0.056 C 
BRANCH  12  18
HETATM   18  C4  UNL     1      -5.358  -0.150   0.363  1.00  0.00     0.173 C 
BRANCH  18  19
HETATM   19  C3  UNL     1      -5.678   1.322   0.146  1.00  0.00     0.066 C 
BRANCH  19  20
HETATM   20  C2  UNL     1      -6.758   1.831   1.039  1.00  0.00     0.116 C 
HETATM   21  C1  UNL     1      -8.081   1.135   0.897  1.00  0.00     0.039 C 
BRANCH  20  22
HETATM   22  O1  UNL     1      -6.375   1.949   2.382  1.00  0.00    -0.396 OA
ATOM     23  H1  UNL     1      -5.538   2.389   2.472  1.00  0.00     0.210 HD
ENDBRANCH  20  22
ENDBRANCH  19  20
ENDBRANCH  18  19
BRANCH  18  24
HETATM   24  N4  UNL     1      -4.999  -0.425   1.695  1.00  0.00    -0.409 N 
HETATM   25  C26 UNL     1      -3.874   0.128   2.289  1.00  0.00     0.143 C 
HETATM   26  C27 UNL     1      -5.637  -1.438   2.417  1.00  0.00     0.143 C 
ENDBRANCH  18  24
ENDBRANCH  12  18
ENDBRANCH   9  10
ENDBRANCH   1   9
BRANCH   6  27
HETATM   27  C15 UNL     1       3.055   0.902   1.042  1.00  0.00     0.107 C 
BRANCH  27  28
HETATM   28  C16 UNL     1       4.111   0.066   1.609  1.00  0.00     0.218 C 
HETATM   29  O5  UNL     1       4.096  -1.173   1.524  1.00  0.00    -0.274 OA
HETATM   30  N3  UNL     1       5.219   0.684   2.292  1.00  0.00    -0.346 N 
ATOM     31  H3  UNL     1       5.256   1.699   2.381  1.00  0.00     0.163 HD
BRANCH  30  32
HETATM   32  C17 UNL     1       6.273  -0.120   2.849  1.00  0.00     0.186 C 
BRANCH  32  33
HETATM   33  C18 UNL     1       7.632   0.390   2.558  1.00  0.00     0.044 C 
BRANCH  33  34
HETATM   34  C19 UNL     1       8.039   0.506   1.131  1.00  0.00    -0.049 C 
HETATM   35  C20 UNL     1       7.984  -0.815   0.395  1.00  0.00     0.014 C 
HETATM   36  C21 UNL     1       9.535   0.917   1.128  1.00  0.00     0.014 C 
HETATM   37  C22 UNL     1       7.277   1.543   0.363  1.00  0.00     0.014 C 
ENDBRANCH  33  34
ENDBRANCH  32  33
BRANCH  32  38
HETATM   38  C23 UNL     1       6.103  -0.124   4.346  1.00  0.00     0.196 C 
HETATM   39  O6  UNL     1       5.181   0.487   4.922  1.00  0.00    -0.646 OA
HETATM   40  O7  UNL     1       7.010  -0.835   5.105  1.00  0.00    -0.646 OA
ENDBRANCH  32  38
ENDBRANCH  30  32
ENDBRANCH  27  28
ENDBRANCH   6  27
TORSDOF 13
