REMARK  3 active torsions:
REMARK  status: ('A' for Active; 'I' for Inactive)
REMARK    1  A    between atoms: C2_2  and  C3_3 
REMARK    2  A    between atoms: C3_3  and  C4_4 
REMARK    3  A    between atoms: C4_4  and  N1_5 
ROOT
HETATM    1  N1  UNL     1       1.414   0.585  -0.003  1.00  0.00     0.091 N 
HETATM    2  C5  UNL     1       1.273   1.980   0.160  1.00  0.00     0.272 C 
HETATM    3  C6  UNL     1      -0.077   2.564  -0.139  1.00  0.00     0.033 C 
HETATM    4  C7  UNL     1      -1.046   1.802   0.737  1.00  0.00     0.041 C 
HETATM    5  C8  UNL     1      -1.071   0.380   0.214  1.00  0.00     0.087 C 
HETATM    6  C9  UNL     1      -1.756   0.281  -1.128  1.00  0.00     0.040 C 
HETATM    7  C10 UNL     1      -3.216   0.586  -0.903  1.00  0.00     0.003 C 
HETATM    8  C11 UNL     1      -3.981  -0.715  -0.961  1.00  0.00     0.002 C 
HETATM    9  C12 UNL     1      -3.757  -1.570   0.247  1.00  0.00     0.026 C 
HETATM   10  C13 UNL     1      -2.323  -1.524   0.744  1.00  0.00     0.168 C 
HETATM   11  O1  UNL     1      -1.903  -0.287   1.130  1.00  0.00    -0.378 OA
HETATM   12  C14 UNL     1       0.264  -0.235   0.149  1.00  0.00     0.310 C 
ENDROOT
BRANCH   1  13
HETATM   13  C4  UNL     1       2.359   0.171   1.052  1.00  0.00     0.272 C 
BRANCH  13  14
HETATM   14  C3  UNL     1       2.818  -1.253   0.884  1.00  0.00     0.030 C 
BRANCH  14  15
HETATM   15  C2  UNL     1       3.551  -1.407  -0.454  1.00  0.00    -0.003 C 
HETATM   16  C1  UNL     1       4.757  -0.495  -0.495  1.00  0.00     0.005 C 
ENDBRANCH  14  15
ENDBRANCH  13  14
ENDBRANCH   1  13
TORSDOF 3
