REMARK  4 active torsions:
REMARK  status: ('A' for Active; 'I' for Inactive)
REMARK    1  A    between atoms: C2_2  and  O2_4 
REMARK    2  A    between atoms: O2_4  and  C3_5 
REMARK    3  A    between atoms: N1_8  and  C6_9 
REMARK    4  A    between atoms: C6_9  and  C7_10 
ROOT
HETATM    1  C3  UNL     1       2.625  -0.000  -0.321  1.00  0.00     0.135 C 
HETATM    2  C4  UNL     1       2.159  -0.166  -1.732  1.00  0.00     0.062 C 
HETATM    3  C5  UNL     1       0.893  -0.996  -1.791  1.00  0.00     0.275 C 
HETATM    4  N1  UNL     1       0.018  -0.497  -0.737  1.00  0.00     0.088 N 
HETATM    5  C13 UNL     1       0.508  -0.929   0.541  1.00  0.00     0.275 C 
HETATM    6  C14 UNL     1       2.015  -1.030   0.613  1.00  0.00     0.062 C 
ENDROOT
BRANCH   4   7
HETATM    7  C6  UNL     1      -1.331  -1.048  -0.895  1.00  0.00     0.277 C 
BRANCH   7   8
HETATM    8  C7  UNL     1      -2.164  -0.469   0.239  1.00  0.00     0.014 C 
HETATM    9  C8  UNL     1      -2.141   1.033   0.083  1.00  0.00     0.006 C 
HETATM   10  C9  UNL     1      -2.829   1.682   1.258  1.00  0.00     0.000 C 
HETATM   11  C10 UNL     1      -4.084   0.924   1.630  1.00  0.00     0.000 C 
HETATM   12  C11 UNL     1      -4.581   0.052   0.494  1.00  0.00     0.000 C 
HETATM   13  C12 UNL     1      -3.577  -1.001   0.095  1.00  0.00     0.006 C 
ENDBRANCH   7   8
ENDBRANCH   4   7
BRANCH   1  14
HETATM   14  O2  UNL     1       4.032  -0.016  -0.229  1.00  0.00    -0.316 OA
BRANCH  14  15
HETATM   15  C2  UNL     1       4.785   1.031   0.240  1.00  0.00     0.255 C 
HETATM   16  C1  UNL     1       6.260   0.948   0.311  1.00  0.00     0.126 C 
HETATM   17  O1  UNL     1       4.224   2.083   0.619  1.00  0.00    -0.266 OA
ENDBRANCH  14  15
ENDBRANCH   1  14
TORSDOF 4
