REMARK  9 active torsions:
REMARK  status: ('A' for Active; 'I' for Inactive)
REMARK       I    between atoms: C1_2  and  N1_3 
REMARK       I    between atoms: C1_2  and  N2_7 
REMARK    1  A    between atoms: N1_3  and  O2_5 
REMARK    2  A    between atoms: N2_7  and  S1_9 
REMARK    3  A    between atoms: S1_9  and  O5_12 
REMARK    4  A    between atoms: O5_12  and  N3_13 
REMARK       I    between atoms: N3_13  and  C2_15 
REMARK    5  A    between atoms: C2_15  and  C3_17 
REMARK    6  A    between atoms: C3_17  and  C4_19 
REMARK    7  A    between atoms: C4_19  and  O8_20 
REMARK    8  A    between atoms: C4_19  and  C5_22 
REMARK    9  A    between atoms: C8_25  and  N4_26 
ROOT
HETATM    1  N3  UNL     1       1.663   0.207   0.953  1.00  0.00    -0.209 N 
ATOM      2  H3  UNL     1       1.710   0.371   1.959  1.00  0.00     0.199 HD
HETATM    3  C2  UNL     1       0.529   0.626   0.194  1.00  0.00     0.315 C 
HETATM    4  O6  UNL     1       0.474   0.401  -1.034  1.00  0.00    -0.262 OA
ENDROOT
BRANCH   3   5
HETATM    5  C3  UNL     1      -0.556   1.328   0.877  1.00  0.00     0.251 C 
HETATM    6  O7  UNL     1      -0.496   1.506   2.126  1.00  0.00    -0.284 OA
BRANCH   5   7
HETATM    7  C4  UNL     1      -1.697   1.828   0.109  1.00  0.00     0.231 C 
BRANCH   7   8
HETATM    8  O8  UNL     1      -2.275   2.917   0.843  1.00  0.00    -0.383 OA
ATOM      9  H8  UNL     1      -3.016   3.242   0.344  1.00  0.00     0.211 HD
ENDBRANCH   7   8
BRANCH   7  10
HETATM   10  C5  UNL     1      -2.787   0.808  -0.037  1.00  0.00    -0.022 A 
HETATM   11  C6  UNL     1      -3.033   0.074  -1.159  1.00  0.00     0.012 A 
HETATM   12  C7  UNL     1      -4.125  -0.782  -1.205  1.00  0.00     0.037 A 
HETATM   13  C8  UNL     1      -4.982  -0.918  -0.138  1.00  0.00     0.102 A 
HETATM   14  C9  UNL     1      -4.730  -0.170   1.009  1.00  0.00     0.037 A 
HETATM   15  C10 UNL     1      -3.640   0.679   1.044  1.00  0.00     0.012 A 
BRANCH  13  16
HETATM   16  N4  UNL     1      -6.107  -1.770  -0.209  1.00  0.00    -0.116 N 
HETATM   17  O9  UNL     1      -6.337  -2.445  -1.202  1.00  0.00    -0.532 OA
HETATM   18  O10 UNL     1      -6.982  -1.858   0.863  1.00  0.00    -0.532 OA
ENDBRANCH  13  16
ENDBRANCH   7  10
ENDBRANCH   5   7
ENDBRANCH   3   5
BRANCH   1  19
HETATM   19  O5  UNL     1       2.678  -0.416   0.299  1.00  0.00    -0.131 OA
BRANCH  19  20
HETATM   20  S1  UNL     1       3.656   0.753  -0.444  1.00  0.00     0.386 S 
HETATM   21  O3  UNL     1       3.679   2.016   0.409  1.00  0.00    -0.173 OA
HETATM   22  O4  UNL     1       3.194   1.058  -1.840  1.00  0.00    -0.173 OA
BRANCH  20  23
HETATM   23  N2  UNL     1       5.264   0.170  -0.481  1.00  0.00    -0.210 N 
HETATM   24  C1  UNL     1       5.524  -1.197  -0.165  1.00  0.00     0.354 C 
HETATM   25  O1  UNL     1       4.553  -1.924   0.137  1.00  0.00    -0.244 OA
HETATM   26  N1  UNL     1       6.872  -1.681  -0.201  1.00  0.00    -0.218 N 
ATOM     27  H1  UNL     1       7.643  -1.063  -0.452  1.00  0.00     0.199 HD
ATOM     28  H2  UNL     1       6.031   0.795  -0.727  1.00  0.00     0.185 HD
BRANCH  26  29
HETATM   29  O2  UNL     1       7.093  -2.966   0.103  1.00  0.00    -0.286 OA
ATOM     30  H2  UNL     1       7.987  -3.287   0.079  1.00  0.00     0.244 HD
ENDBRANCH  26  29
ENDBRANCH  20  23
ENDBRANCH  19  20
ENDBRANCH   1  19
TORSDOF 9
