REMARK  12 active torsions:
REMARK  status: ('A' for Active; 'I' for Inactive)
REMARK    1  A    between atoms: C2_2  and  O2_4 
REMARK    2  A    between atoms: O2_4  and  C3_5 
REMARK    3  A    between atoms: C4_8  and  S1_9 
REMARK    4  A    between atoms: S1_9  and  N2_10 
REMARK    5  A    between atoms: C6_16  and  N3_17 
REMARK    6  A    between atoms: C7_20  and  N4_21 
REMARK    7  A    between atoms: N4_21  and  N5_23 
REMARK    8  A    between atoms: N5_23  and  C8_25 
REMARK    9  A    between atoms: C8_25  and  N6_27 
REMARK   10  A    between atoms: N6_27  and  C9_29 
REMARK   11  A    between atoms: C9_29  and  C10_30 
REMARK   12  A    between atoms: C10_30  and  O7_31 
ROOT
HETATM    1  C3  UNL     1      -1.974   0.110  -1.246  1.00  0.00     0.183 A 
HETATM    2  N1  UNL     1      -2.974  -0.784  -1.491  1.00  0.00    -0.324 N 
ATOM      3  H1  UNL     1      -3.437  -0.759  -2.399  1.00  0.00     0.169 HD
HETATM    4  C4  UNL     1      -3.377  -1.697  -0.590  1.00  0.00     0.153 A 
HETATM    5  C5  UNL     1      -2.734  -1.706   0.622  1.00  0.00     0.082 A 
HETATM    6  C6  UNL     1      -1.708  -0.815   0.922  1.00  0.00     0.138 A 
HETATM    7  C7  UNL     1      -1.319   0.112  -0.034  1.00  0.00     0.133 A 
ENDROOT
BRANCH   7   8
HETATM    8  N4  UNL     1      -0.246   1.016   0.274  1.00  0.00    -0.292 N 
ATOM      9  H4  UNL     1      -0.442   1.995   0.482  1.00  0.00     0.187 HD
BRANCH   8  10
HETATM   10  N5  UNL     1       1.064   0.543   0.286  1.00  0.00    -0.276 N 
ATOM     11  H5  UNL     1       1.228  -0.430   0.029  1.00  0.00     0.189 HD
BRANCH  10  12
HETATM   12  C8  UNL     1       2.193   1.350   0.640  1.00  0.00     0.186 C 
HETATM   13  S2  UNL     1       1.883   2.903   1.019  1.00  0.00    -0.040 SA
BRANCH  12  14
HETATM   14  N6  UNL     1       3.486   0.804   0.637  1.00  0.00    -0.364 N 
ATOM     15  H6  UNL     1       3.595  -0.175   0.372  1.00  0.00     0.162 HD
BRANCH  14  16
HETATM   16  C9  UNL     1       4.669   1.551   0.988  1.00  0.00     0.148 C 
BRANCH  16  17
HETATM   17  C10 UNL     1       4.664   1.863   2.455  1.00  0.00     0.183 C 
BRANCH  17  18
HETATM   18  O7  UNL     1       4.638   0.675   3.209  1.00  0.00    -0.399 OA
ATOM     19  H7  UNL     1       4.635   0.873   4.138  1.00  0.00     0.209 HD
ENDBRANCH  17  18
ENDBRANCH  16  17
ENDBRANCH  14  16
ENDBRANCH  12  14
ENDBRANCH  10  12
ENDBRANCH   8  10
ENDBRANCH   7   8
BRANCH   1  20
HETATM   20  O2  UNL     1      -1.621   1.019  -2.232  1.00  0.00    -0.259 OA
BRANCH  20  21
HETATM   21  C2  UNL     1      -0.584   0.803  -3.104  1.00  0.00     0.261 C 
HETATM   22  C1  UNL     1      -0.209   1.785  -4.166  1.00  0.00     0.126 C 
HETATM   23  O1  UNL     1       0.084  -0.248  -3.025  1.00  0.00    -0.265 OA
ENDBRANCH  20  21
ENDBRANCH   1  20
BRANCH   6  24
HETATM   24  N3  UNL     1      -1.099  -0.870   2.192  1.00  0.00    -0.113 N 
HETATM   25  O5  UNL     1      -0.674   0.169   2.703  1.00  0.00    -0.532 OA
HETATM   26  O6  UNL     1      -0.985  -2.049   2.857  1.00  0.00    -0.532 OA
ENDBRANCH   6  24
BRANCH   4  27
HETATM   27  S1  UNL     1      -4.678  -2.808  -0.937  1.00  0.00     0.272 S 
HETATM   28  O3  UNL     1      -4.510  -3.554  -2.202  1.00  0.00    -0.199 OA
HETATM   29  O4  UNL     1      -5.990  -2.052  -0.981  1.00  0.00    -0.199 OA
BRANCH  27  30
HETATM   30  N2  UNL     1      -4.829  -3.881   0.430  1.00  0.00    -0.323 N 
ATOM     31  H22 UNL     1      -4.254  -3.852   1.272  1.00  0.00     0.169 HD
ATOM     32  H21 UNL     1      -5.589  -4.530   0.227  1.00  0.00     0.169 HD
ENDBRANCH  27  30
ENDBRANCH   4  27
TORSDOF 12
