REMARK  5 active torsions:
REMARK  status: ('A' for Active; 'I' for Inactive)
REMARK    1  A    between atoms: C7_8  and  C8_9 
REMARK    2  A    between atoms: C8_9  and  O1_10 
REMARK    3  A    between atoms: C16_19  and  O2_20 
REMARK    4  A    between atoms: C19_26  and  C20_27 
REMARK    5  A    between atoms: C20_27  and  O4_28 
ROOT
HETATM    1  C1  UNL     1       0.789  -1.836   2.455  1.00  0.00     0.011 C 
HETATM    2  C2  UNL     1       0.860  -1.672   0.990  1.00  0.00    -0.006 C 
HETATM    3  C3  UNL     1      -0.086  -2.554   0.272  1.00  0.00     0.043 C 
HETATM    4  C4  UNL     1      -1.451  -2.036   0.029  1.00  0.00     0.179 C 
HETATM    5  F1  UNL     1      -1.980  -2.828  -1.004  1.00  0.00    -0.249 F 
HETATM    6  C5  UNL     1      -1.361  -0.633  -0.496  1.00  0.00     0.057 C 
HETATM    7  C6  UNL     1      -2.797  -0.137  -0.598  1.00  0.00    -0.074 C 
HETATM    8  C7  UNL     1      -3.486  -0.484  -1.686  1.00  0.00     0.002 C 
HETATM    9  C9  UNL     1      -3.450   0.695   0.421  1.00  0.00     0.034 C 
HETATM   10  C10 UNL     1      -2.554   1.118   1.518  1.00  0.00     0.005 C 
HETATM   11  C11 UNL     1      -1.265   0.360   1.661  1.00  0.00     0.011 C 
HETATM   12  C12 UNL     1      -0.523   0.290   0.338  1.00  0.00    -0.026 C 
HETATM   13  C13 UNL     1      -0.595   1.650  -0.252  1.00  0.00     0.016 C 
HETATM   14  C14 UNL     1       0.883  -0.230   0.482  1.00  0.00    -0.024 C 
HETATM   15  C15 UNL     1       1.748   0.494   1.425  1.00  0.00     0.046 C 
HETATM   16  C16 UNL     1       2.468   1.708   0.908  1.00  0.00     0.164 C 
HETATM   17  C17 UNL     1       3.294   1.377  -0.292  1.00  0.00     0.183 C 
HETATM   18  F2  UNL     1       3.591   2.528  -1.002  1.00  0.00    -0.234 F 
HETATM   19  C18 UNL     1       4.485   0.524   0.034  1.00  0.00     0.218 C 
HETATM   20  O3  UNL     1       3.884  -0.535  -0.613  1.00  0.00    -0.371 OA
HETATM   21  C19 UNL     1       2.833   0.248  -1.093  1.00  0.00     0.123 C 
HETATM   22  C21 UNL     1       1.483  -0.295  -0.897  1.00  0.00     0.054 C 
ENDROOT
BRANCH  16  23
HETATM   23  O2  UNL     1       3.403   2.051   1.922  1.00  0.00    -0.392 OA
ATOM     24  H2  UNL     1       3.858   2.818   1.595  1.00  0.00     0.210 HD
ENDBRANCH  16  23
BRANCH  21  25
HETATM   25  C20 UNL     1       3.095   0.523  -2.583  1.00  0.00     0.205 C 
BRANCH  25  26
HETATM   26  O4  UNL     1       3.161  -0.643  -3.306  1.00  0.00    -0.398 OA
ATOM     27  H4  UNL     1       3.323  -0.473  -4.227  1.00  0.00     0.209 HD
ENDBRANCH  25  26
ENDBRANCH  21  25
BRANCH   8  28
HETATM   28  C8  UNL     1      -4.864  -0.147  -2.025  1.00  0.00     0.191 C 
BRANCH  28  29
HETATM   29  O1  UNL     1      -5.566   0.620  -1.128  1.00  0.00    -0.397 OA
ATOM     30  H1  UNL     1      -6.464   0.839  -1.349  1.00  0.00     0.209 HD
ENDBRANCH  28  29
ENDBRANCH   8  28
TORSDOF 5
