REMARK  4 active torsions:
REMARK  status: ('A' for Active; 'I' for Inactive)
REMARK    1  A    between atoms: C2_2  and  O1_3 
REMARK    2  A    between atoms: O1_3  and  C3_4 
REMARK       I    between atoms: C3_4  and  N1_6 
REMARK    3  A    between atoms: N1_6  and  N2_8 
REMARK       I    between atoms: N2_8  and  C4_10 
REMARK       I    between atoms: C4_10  and  N3_12 
REMARK    4  A    between atoms: N3_12  and  C5_14 
ROOT
HETATM    1  N2  UNL     1       0.011  -0.481   1.010  1.00  0.00    -0.247 N 
ATOM      2  H2  UNL     1      -0.207  -0.051   1.909  1.00  0.00     0.192 HD
HETATM    3  C4  UNL     1       1.361  -0.455   0.527  1.00  0.00     0.339 C 
HETATM    4  O3  UNL     1       1.677  -0.965  -0.560  1.00  0.00    -0.245 OA
HETATM    5  N3  UNL     1       2.356   0.169   1.316  1.00  0.00    -0.305 N 
ATOM      6  H3  UNL     1       2.110   0.592   2.211  1.00  0.00     0.171 HD
ENDROOT
BRANCH   1   7
HETATM    7  N1  UNL     1      -1.012  -1.085   0.273  1.00  0.00    -0.241 N 
HETATM    8  C3  UNL     1      -2.327  -0.560   0.345  1.00  0.00     0.379 C 
HETATM    9  O2  UNL     1      -2.568   0.441   1.066  1.00  0.00    -0.237 OA
ATOM     10  H1  UNL     1      -0.814  -1.897  -0.312  1.00  0.00     0.192 HD
BRANCH   8  11
HETATM   11  O1  UNL     1      -3.395  -1.095  -0.349  1.00  0.00    -0.303 OA
BRANCH  11  12
HETATM   12  C2  UNL     1      -4.715  -0.611  -0.311  1.00  0.00     0.176 C 
HETATM   13  C1  UNL     1      -4.867   0.797  -0.774  1.00  0.00     0.034 C 
ENDBRANCH  11  12
ENDBRANCH   8  11
ENDBRANCH   1   7
BRANCH   5  14
HETATM   14  C5  UNL     1       3.733   0.204   0.843  1.00  0.00     0.078 A 
HETATM   15  C6  UNL     1       4.209   1.204   0.083  1.00  0.00     0.046 A 
HETATM   16 BR1  UNL     1       3.138   2.729  -0.488  1.00  0.00    -0.048 Br
HETATM   17  C7  UNL     1       5.523   1.127  -0.300  1.00  0.00     0.072 A 
HETATM   18  S1  UNL     1       6.047  -0.329   0.407  1.00  0.00    -0.091 SA
HETATM   19  C8  UNL     1       4.604  -0.806   1.168  1.00  0.00     0.079 A 
HETATM   20 BR2  UNL     1       4.236  -2.370   2.235  1.00  0.00    -0.041 Br
ENDBRANCH   5  14
TORSDOF 4
