REMARK  4 active torsions:
REMARK  status: ('A' for Active; 'I' for Inactive)
REMARK    1  A    between atoms: C2_2  and  C3_4 
REMARK    2  A    between atoms: C3_4  and  O2_5 
REMARK    3  A    between atoms: C11_14  and  O3_15 
REMARK    4  A    between atoms: C12_17  and  C13_19 
ROOT
HETATM    1  C3  UNL     1       2.673   0.453   0.382  1.00  0.00     0.125 C 
HETATM    2  C4  UNL     1       2.482   0.076   1.839  1.00  0.00     0.047 C 
HETATM    3  C5  UNL     1       1.186  -0.760   1.816  1.00  0.00     0.010 C 
HETATM    4  C6  UNL     1       0.413   0.034   0.836  1.00  0.00     0.010 C 
HETATM    5  C7  UNL     1      -0.949  -0.439   0.482  1.00  0.00    -0.015 C 
HETATM    6  C8  UNL     1      -1.041  -1.882   0.134  1.00  0.00     0.020 C 
HETATM    7  C9  UNL     1      -1.842  -0.200   1.705  1.00  0.00     0.016 C 
HETATM    8  C10 UNL     1      -2.840   0.883   1.474  1.00  0.00     0.035 C 
HETATM    9  C11 UNL     1      -3.718   0.536   0.303  1.00  0.00     0.143 C 
HETATM   10  C12 UNL     1      -2.884   0.531  -0.958  1.00  0.00     0.080 C 
HETATM   11 BR1  UNL     1      -3.282   2.201  -1.896  1.00  0.00    -0.076 Br
HETATM   12  C14 UNL     1      -1.415   0.483  -0.621  1.00  0.00    -0.052 C 
HETATM   13  C15 UNL     1      -0.593   1.275  -1.295  1.00  0.00    -0.021 C 
HETATM   14  C16 UNL     1       0.873   1.391  -1.092  1.00  0.00     0.040 C 
HETATM   15  C17 UNL     1       1.346   0.200  -0.316  1.00  0.00     0.002 C 
HETATM   16  C18 UNL     1       1.409  -0.949  -1.276  1.00  0.00     0.019 C 
ENDROOT
BRANCH   1  17
HETATM   17  C2  UNL     1       3.789  -0.348  -0.138  1.00  0.00     0.158 C 
HETATM   18  C1  UNL     1       4.996   0.236  -0.791  1.00  0.00     0.094 C 
HETATM   19  O1  UNL     1       3.741  -1.562  -0.038  1.00  0.00    -0.295 OA
ENDBRANCH   1  17
BRANCH   1  20
HETATM   20  O2  UNL     1       2.945   1.804   0.212  1.00  0.00    -0.381 OA
ATOM     21  H2  UNL     1       2.223   2.322   0.548  1.00  0.00     0.211 HD
ENDBRANCH   1  20
BRANCH  10  22
HETATM   22  C13 UNL     1      -3.298  -0.571  -1.900  1.00  0.00     0.143 C 
HETATM   23 CL1  UNL     1      -5.022  -0.249  -2.303  1.00  0.00    -0.128 Cl
ENDBRANCH  10  22
BRANCH   9  24
HETATM   24  O3  UNL     1      -4.413  -0.643   0.444  1.00  0.00    -0.394 OA
ATOM     25  H3  UNL     1      -4.968  -0.862  -0.296  1.00  0.00     0.210 HD
ENDBRANCH   9  24
TORSDOF 4
