REMARK  4 active torsions:
REMARK  status: ('A' for Active; 'I' for Inactive)
REMARK    1  A    between atoms: C2_2  and  C3_3 
REMARK    2  A    between atoms: C5_5  and  O1_6 
REMARK    3  A    between atoms: C9_12  and  O2_13 
REMARK    4  A    between atoms: C14_21  and  O4_22 
ROOT
HETATM    1  C3  UNL     1      -3.480  -0.304   0.019  1.00  0.00     0.007 C 
HETATM    2  C4  UNL     1      -4.544  -1.345   0.143  1.00  0.00     0.023 C 
HETATM    3  C5  UNL     1      -3.653   0.730   1.140  1.00  0.00     0.131 C 
HETATM    4  C6  UNL     1      -2.322   1.453   1.042  1.00  0.00     0.041 C 
HETATM    5  C7  UNL     1      -1.372   0.303   0.936  1.00  0.00     0.040 C 
HETATM    6  C8  UNL     1      -0.051   0.676   0.268  1.00  0.00     0.138 C 
HETATM    7  F1  UNL     1      -0.328   1.206  -0.983  1.00  0.00    -0.239 F 
HETATM    8  C9  UNL     1       0.632   1.720   1.081  1.00  0.00     0.164 C 
HETATM    9  C10 UNL     1       2.074   1.855   0.651  1.00  0.00     0.109 C 
HETATM   10  C11 UNL     1       2.737   0.523   0.918  1.00  0.00     0.211 C 
HETATM   11  F2  UNL     1       2.393   0.135   2.208  1.00  0.00    -0.211 F 
HETATM   12  O3  UNL     1       4.101   0.629   0.873  1.00  0.00    -0.343 OA
HETATM   13  C12 UNL     1       4.710  -0.294   0.052  1.00  0.00     0.150 C 
HETATM   14  C13 UNL     1       6.190   0.044   0.009  1.00  0.00     0.042 C 
HETATM   15  C14 UNL     1       4.165  -0.086  -1.340  1.00  0.00     0.147 C 
HETATM   16  C15 UNL     1       2.660  -0.243  -1.401  1.00  0.00     0.045 C 
HETATM   17  C16 UNL     1       2.164  -0.496  -0.016  1.00  0.00     0.063 C 
HETATM   18  C17 UNL     1       0.688  -0.609   0.116  1.00  0.00     0.038 C 
HETATM   19  C18 UNL     1       0.037  -1.328  -1.047  1.00  0.00     0.009 C 
HETATM   20  C19 UNL     1      -1.437  -1.231  -1.058  1.00  0.00     0.011 C 
HETATM   21  C20 UNL     1      -2.079  -0.820   0.229  1.00  0.00    -0.024 C 
HETATM   22  C21 UNL     1      -2.077  -2.022   1.148  1.00  0.00     0.017 C 
ENDROOT
BRANCH   1  23
HETATM   23  C2  UNL     1      -3.669   0.407  -1.264  1.00  0.00    -0.024 C 
HETATM   24  C1  UNL     1      -4.358  -0.088  -2.281  1.00  0.00     0.008 C 
ENDBRANCH   1  23
BRANCH   3  25
HETATM   25  O1  UNL     1      -4.726   1.558   0.919  1.00  0.00    -0.394 OA
ATOM     26  H1  UNL     1      -4.833   2.198   1.613  1.00  0.00     0.210 HD
ENDBRANCH   3  25
BRANCH   8  27
HETATM   27  O2  UNL     1       0.482   1.568   2.445  1.00  0.00    -0.392 OA
ATOM     28  H2  UNL     1       0.918   2.234   2.964  1.00  0.00     0.210 HD
ENDBRANCH   8  27
BRANCH  15  29
HETATM   29  O4  UNL     1       4.494   1.221  -1.720  1.00  0.00    -0.393 OA
ATOM     30  H4  UNL     1       4.151   1.352  -2.596  1.00  0.00     0.210 HD
ENDBRANCH  15  29
TORSDOF 4
