REMARK  5 active torsions:
REMARK  status: ('A' for Active; 'I' for Inactive)
REMARK    1  A    between atoms: C2_2  and  O1_4 
REMARK    2  A    between atoms: O1_4  and  C4_5 
REMARK       I    between atoms: C4_5  and  N1_7 
REMARK    3  A    between atoms: N1_7  and  N2_9 
REMARK       I    between atoms: N2_9  and  C5_11 
REMARK    4  A    between atoms: C5_11  and  C6_13 
REMARK    5  A    between atoms: C11_20  and  O4_21 
ROOT
HETATM    1  N2  UNL     1       0.616   0.712  -0.665  1.00  0.00    -0.261 N 
ATOM      2  H2  UNL     1       1.062   1.465  -1.189  1.00  0.00     0.190 HD
HETATM    3  C5  UNL     1       1.456  -0.137   0.051  1.00  0.00     0.273 C 
HETATM    4  O3  UNL     1       0.884  -1.081   0.696  1.00  0.00    -0.266 OA
ENDROOT
BRANCH   3   5
HETATM    5  C6  UNL     1       2.906  -0.077   0.152  1.00  0.00     0.069 A 
HETATM    6  C7  UNL     1       3.522  -1.065   0.921  1.00  0.00     0.039 A 
HETATM    7  C8  UNL     1       4.907  -1.123   1.079  1.00  0.00     0.013 A 
HETATM    8 BR1  UNL     1       5.734  -2.485   2.138  1.00  0.00    -0.051 Br
HETATM    9  C9  UNL     1       5.656  -0.177   0.447  1.00  0.00     0.041 A 
HETATM   10  C10 UNL     1       5.099   0.810  -0.317  1.00  0.00     0.046 A 
HETATM   11 BR2  UNL     1       6.203   2.095  -1.159  1.00  0.00    -0.048 Br
HETATM   12  C11 UNL     1       3.694   0.844  -0.453  1.00  0.00     0.099 A 
BRANCH  12  13
HETATM   13  O4  UNL     1       3.153   1.852  -1.227  1.00  0.00    -0.358 OA
ATOM     14  H4  UNL     1       3.706   2.498  -1.651  1.00  0.00     0.217 HD
ENDBRANCH  12  13
ENDBRANCH   3   5
BRANCH   1  15
HETATM   15  N1  UNL     1      -0.760   0.635  -0.736  1.00  0.00    -0.242 N 
HETATM   16  C4  UNL     1      -1.735  -0.016  -0.023  1.00  0.00     0.379 C 
HETATM   17  O2  UNL     1      -1.622  -0.794   0.977  1.00  0.00    -0.237 OA
ATOM     18  H1  UNL     1      -1.143   1.194  -1.499  1.00  0.00     0.192 HD
BRANCH  16  19
HETATM   19  O1  UNL     1      -3.092   0.150  -0.376  1.00  0.00    -0.298 OA
BRANCH  19  20
HETATM   20  C2  UNL     1      -4.168  -0.486   0.261  1.00  0.00     0.125 C 
HETATM   21  C1  UNL     1      -5.062   0.619   0.843  1.00  0.00     0.040 C 
HETATM   22  C3  UNL     1      -5.070  -1.174  -0.782  1.00  0.00     0.040 C 
ENDBRANCH  19  20
ENDBRANCH  16  19
ENDBRANCH   1  15
TORSDOF 5
