REMARK  12 active torsions:
REMARK  status: ('A' for Active; 'I' for Inactive)
REMARK    1  A    between atoms: O1_2  and  C2_3 
REMARK    2  A    between atoms: C3_4  and  O2_5 
REMARK    3  A    between atoms: C6_10  and  O4_11 
REMARK    4  A    between atoms: O4_11  and  C7_12 
REMARK    5  A    between atoms: C21_27  and  C23_29 
REMARK    6  A    between atoms: C24_30  and  C25_31 
REMARK    7  A    between atoms: C26_32  and  C27_33 
REMARK    8  A    between atoms: C27_33  and  C28_34 
REMARK    9  A    between atoms: C28_34  and  O7_36 
REMARK   10  A    between atoms: O7_36  and  C29_37 
REMARK   11  A    between atoms: C29_37  and  C30_38 
REMARK   12  A    between atoms: C31_41  and  O10_42 
ROOT
HETATM    1  C7  UNL     1      -2.595   0.792  -0.003  1.00  0.00     0.053 C 
HETATM    2  C8  UNL     1      -2.899   2.059  -0.268  1.00  0.00     0.038 C 
HETATM    3  C9  UNL     1      -2.375   3.247   0.349  1.00  0.00    -0.063 C 
HETATM    4  C10 UNL     1      -3.289   4.104   1.199  1.00  0.00     0.048 C 
HETATM    5  C11 UNL     1      -1.125   3.719   0.197  1.00  0.00    -0.019 C 
HETATM    6  C12 UNL     1      -0.077   3.125  -0.619  1.00  0.00     0.036 C 
HETATM    7  C13 UNL     1       1.155   2.651   0.121  1.00  0.00    -0.040 C 
HETATM    8  C14 UNL     1       1.062   3.133   1.522  1.00  0.00     0.015 C 
HETATM    9  C15 UNL     1       2.339   3.413  -0.510  1.00  0.00     0.015 C 
HETATM   10  C16 UNL     1       1.287   1.202  -0.121  1.00  0.00     0.014 A 
HETATM   11  C17 UNL     1       0.785   0.319   0.955  1.00  0.00     0.041 A 
HETATM   12  C18 UNL     1      -0.429  -0.399   0.485  1.00  0.00     0.093 A 
HETATM   13  C19 UNL     1      -0.555  -1.820   0.304  1.00  0.00     0.207 A 
HETATM   14  O5  UNL     1      -0.553  -0.926  -0.767  1.00  0.00    -0.374 OA
HETATM   15  C20 UNL     1      -1.639   0.328   1.015  1.00  0.00     0.105 C 
HETATM   16  C21 UNL     1       2.151   0.220   0.495  1.00  0.00    -0.015 A 
HETATM   17  C22 UNL     1       3.228   0.645   1.514  1.00  0.00     0.020 C 
ENDROOT
BRANCH   1  18
HETATM   18  O4  UNL     1      -3.246  -0.180  -0.756  1.00  0.00    -0.322 OA
BRANCH  18  19
HETATM   19  C6  UNL     1      -4.443  -0.771  -0.361  1.00  0.00     0.297 C 
HETATM   20  O3  UNL     1      -4.336  -1.422   0.836  1.00  0.00    -0.351 OA
HETATM   21  C4  UNL     1      -5.301  -2.304   1.174  1.00  0.00     0.152 C 
HETATM   22  C3  UNL     1      -6.566  -2.292   0.396  1.00  0.00     0.178 C 
HETATM   23  C5  UNL     1      -5.569  -2.176   2.677  1.00  0.00     0.042 C 
HETATM   24  C2  UNL     1      -6.470  -1.864  -1.016  1.00  0.00     0.185 C 
HETATM   25  C31 UNL     1      -4.977  -1.770  -1.358  1.00  0.00     0.205 C 
BRANCH  22  26
HETATM   26  O2  UNL     1      -7.173  -3.572   0.407  1.00  0.00    -0.390 OA
ATOM     27  H2  UNL     1      -7.235  -3.847   1.314  1.00  0.00     0.210 HD
ENDBRANCH  22  26
BRANCH  24  28
HETATM   28  O1  UNL     1      -6.979  -0.573  -1.138  1.00  0.00    -0.385 OA
HETATM   29  C1  UNL     1      -7.995  -0.549  -2.114  1.00  0.00     0.202 C 
ENDBRANCH  24  28
BRANCH  25  30
HETATM   30  O10 UNL     1      -4.771  -1.410  -2.667  1.00  0.00    -0.388 OA
ATOM     31  H10 UNL     1      -3.847  -1.352  -2.879  1.00  0.00     0.210 HD
ENDBRANCH  25  30
ENDBRANCH  18  19
ENDBRANCH   1  18
BRANCH  16  32
HETATM   32  C23 UNL     1       2.667  -0.864  -0.383  1.00  0.00    -0.017 C 
HETATM   33  C24 UNL     1       3.958  -0.790  -0.759  1.00  0.00    -0.004 C 
BRANCH  33  34
HETATM   34  C25 UNL     1       4.529  -1.815  -1.618  1.00  0.00    -0.004 C 
HETATM   35  C26 UNL     1       5.764  -1.788  -2.007  1.00  0.00    -0.017 C 
BRANCH  35  36
HETATM   36  C27 UNL     1       6.757  -0.765  -1.666  1.00  0.00     0.138 C 
BRANCH  36  37
HETATM   37  C28 UNL     1       7.929  -1.339  -0.941  1.00  0.00     0.262 C 
HETATM   38  O6  UNL     1       8.797  -1.941  -1.614  1.00  0.00    -0.265 OA
BRANCH  37  39
HETATM   39  O7  UNL     1       8.003  -1.182   0.422  1.00  0.00    -0.311 OA
BRANCH  39  40
HETATM   40  C29 UNL     1       9.078  -1.694   1.158  1.00  0.00     0.291 C 
BRANCH  40  41
HETATM   41  C30 UNL     1      10.392  -1.148   0.820  1.00  0.00     0.198 C 
HETATM   42  O8  UNL     1      10.489  -0.260  -0.056  1.00  0.00    -0.646 OA
HETATM   43  O9  UNL     1      11.567  -1.557   1.421  1.00  0.00    -0.646 OA
ENDBRANCH  40  41
ENDBRANCH  39  40
ENDBRANCH  37  39
ENDBRANCH  36  37
ENDBRANCH  35  36
ENDBRANCH  33  34
ENDBRANCH  16  32
TORSDOF 12
