REMARK  13 active torsions:
REMARK  status: ('A' for Active; 'I' for Inactive)
REMARK    1  A    between atoms: C4_4  and  C5_5 
REMARK    2  A    between atoms: C5_5  and  C8_8 
REMARK    3  A    between atoms: C8_8  and  O1_10 
REMARK    4  A    between atoms: C11_13  and  O2_14 
REMARK    5  A    between atoms: C12_16  and  C13_17 
REMARK    6  A    between atoms: C14_18  and  C15_19 
REMARK    7  A    between atoms: C20_24  and  O3_25 
REMARK    8  A    between atoms: O3_25  and  C21_26 
REMARK    9  A    between atoms: C24_30  and  O5_31 
REMARK   10  A    between atoms: C26_33  and  O6_34 
REMARK   11  A    between atoms: C28_36  and  O7_37 
REMARK   12  A    between atoms: O7_37  and  C29_38 
REMARK   13  A    between atoms: C31_41  and  O9_42 
ROOT
HETATM    1  C15 UNL     1      -0.057  -0.542   1.558  1.00  0.00     0.039 C 
HETATM    2  C16 UNL     1      -0.542   0.459   2.587  1.00  0.00     0.011 C 
HETATM    3  C17 UNL     1      -1.397  -0.324   3.561  1.00  0.00     0.007 C 
HETATM    4  C18 UNL     1      -2.199  -1.406   2.915  1.00  0.00     0.013 C 
HETATM    5  C19 UNL     1      -1.667  -2.797   3.269  1.00  0.00     0.012 C 
HETATM    6  C20 UNL     1      -2.419  -1.249   1.451  1.00  0.00     0.158 C 
HETATM    7  C31 UNL     1      -1.231  -0.838   0.658  1.00  0.00     0.155 C 
ENDROOT
BRANCH   1   8
HETATM    8  C14 UNL     1       1.106  -0.004   0.774  1.00  0.00    -0.023 C 
HETATM    9  C13 UNL     1       2.255  -0.608   0.750  1.00  0.00    -0.019 C 
BRANCH   9  10
HETATM   10  C12 UNL     1       3.522  -0.361   0.123  1.00  0.00     0.065 C 
HETATM   11  C2  UNL     1       3.777   0.831  -0.674  1.00  0.00    -0.079 C 
HETATM   12  C1  UNL     1       3.244   1.993  -0.579  1.00  0.00     0.015 C 
HETATM   13  C3  UNL     1       4.877   0.633  -1.719  1.00  0.00     0.039 C 
HETATM   14  C4  UNL     1       5.970  -0.058  -0.921  1.00  0.00     0.002 C 
HETATM   15  C10 UNL     1       5.871   0.326   0.535  1.00  0.00     0.038 C 
HETATM   16  C11 UNL     1       4.645  -0.291   1.208  1.00  0.00     0.130 C 
BRANCH  14  17
HETATM   17  C5  UNL     1       7.326   0.138  -1.505  1.00  0.00    -0.018 C 
HETATM   18  C6  UNL     1       8.403  -0.555  -0.696  1.00  0.00     0.018 C 
HETATM   19  C7  UNL     1       7.389  -0.512  -2.895  1.00  0.00     0.018 C 
BRANCH  17  20
HETATM   20  C8  UNL     1       7.744   1.565  -1.685  1.00  0.00     0.122 C 
HETATM   21  C9  UNL     1       9.153   1.615  -2.295  1.00  0.00     0.040 C 
BRANCH  20  22
HETATM   22  O1  UNL     1       7.869   2.256  -0.470  1.00  0.00    -0.395 OA
ATOM     23  H1  UNL     1       8.134   3.161  -0.584  1.00  0.00     0.210 HD
ENDBRANCH  20  22
ENDBRANCH  17  20
ENDBRANCH  14  17
BRANCH  16  24
HETATM   24  O2  UNL     1       4.884  -1.519   1.763  1.00  0.00    -0.395 OA
ATOM     25  H2  UNL     1       4.122  -1.902   2.181  1.00  0.00     0.210 HD
ENDBRANCH  16  24
ENDBRANCH   9  10
ENDBRANCH   1   8
BRANCH   7  26
HETATM   26  O9  UNL     1      -0.901  -1.737  -0.351  1.00  0.00    -0.392 OA
ATOM     27  H9  UNL     1      -1.640  -1.923  -0.918  1.00  0.00     0.210 HD
ENDBRANCH   7  26
BRANCH   6  28
HETATM   28  O3  UNL     1      -3.515  -0.416   1.259  1.00  0.00    -0.350 OA
BRANCH  28  29
HETATM   29  C21 UNL     1      -4.597  -1.029   0.678  1.00  0.00     0.293 C 
HETATM   30  O4  UNL     1      -5.729  -1.054   1.428  1.00  0.00    -0.351 OA
HETATM   31  C22 UNL     1      -6.539   0.013   1.445  1.00  0.00     0.152 C 
HETATM   32  C23 UNL     1      -7.981  -0.484   1.624  1.00  0.00     0.042 C 
HETATM   33  C24 UNL     1      -6.499   0.967   0.314  1.00  0.00     0.181 C 
HETATM   34  C26 UNL     1      -5.164   1.023  -0.406  1.00  0.00     0.186 C 
HETATM   35  C28 UNL     1      -4.787  -0.418  -0.695  1.00  0.00     0.218 C 
BRANCH  33  36
HETATM   36  O5  UNL     1      -7.456   0.723  -0.670  1.00  0.00    -0.385 OA
HETATM   37  C25 UNL     1      -8.292   1.816  -0.871  1.00  0.00     0.202 C 
ENDBRANCH  33  36
BRANCH  34  38
HETATM   38  O6  UNL     1      -5.366   1.761  -1.565  1.00  0.00    -0.385 OA
HETATM   39  C27 UNL     1      -4.586   2.901  -1.628  1.00  0.00     0.202 C 
ENDBRANCH  34  38
BRANCH  35  40
HETATM   40  O7  UNL     1      -5.852  -0.998  -1.404  1.00  0.00    -0.309 OA
BRANCH  40  41
HETATM   41  C29 UNL     1      -5.614  -1.584  -2.639  1.00  0.00     0.255 C 
HETATM   42  C30 UNL     1      -6.752  -2.199  -3.388  1.00  0.00     0.126 C 
HETATM   43  O8  UNL     1      -4.446  -1.573  -3.078  1.00  0.00    -0.266 OA
ENDBRANCH  40  41
ENDBRANCH  35  40
ENDBRANCH  28  29
ENDBRANCH   6  28
TORSDOF 13
