REMARK  14 active torsions:
REMARK  status: ('A' for Active; 'I' for Inactive)
REMARK    1  A    between atoms: C2_2  and  O2_4 
REMARK    2  A    between atoms: O2_4  and  C3_5 
REMARK    3  A    between atoms: C4_6  and  O3_7 
REMARK    4  A    between atoms: O3_7  and  C5_8 
REMARK    5  A    between atoms: C5_8  and  C6_10 
REMARK    6  A    between atoms: C6_10  and  O5_11 
REMARK    7  A    between atoms: C6_10  and  C7_13 
REMARK    8  A    between atoms: C10_16  and  O6_18 
REMARK    9  A    between atoms: C16_25  and  C17_26 
REMARK   10  A    between atoms: C17_26  and  C18_27 
REMARK   11  A    between atoms: C18_27  and  O8_28 
REMARK   12  A    between atoms: C18_27  and  C19_30 
REMARK   13  A    between atoms: C20_31  and  C21_32 
REMARK   14  A    between atoms: C21_32  and  C22_33 
ROOT
HETATM    1  C3  UNL     1       3.381   1.001   0.227  1.00  0.00     0.183 C 
HETATM    2  C4  UNL     1       4.289  -0.163  -0.081  1.00  0.00     0.198 C 
HETATM    3  C10 UNL     1       3.223  -0.574  -1.113  1.00  0.00     0.101 C 
HETATM    4  C11 UNL     1       3.413   0.029  -2.464  1.00  0.00     0.050 C 
HETATM    5  C12 UNL     1       2.224   0.124  -0.202  1.00  0.00     0.086 C 
HETATM    6  C13 UNL     1       1.195   0.928  -0.841  1.00  0.00     0.145 C 
HETATM    7  O7  UNL     1       1.562   1.902  -1.520  1.00  0.00    -0.296 OA
HETATM    8  C14 UNL     1      -0.245   0.665  -0.735  1.00  0.00     0.056 C 
HETATM    9  C15 UNL     1      -0.815   0.830  -2.133  1.00  0.00     0.018 C 
HETATM   10  C16 UNL     1      -0.601  -0.669  -0.180  1.00  0.00    -0.001 C 
HETATM   11  C30 UNL     1       0.502  -1.533   0.300  1.00  0.00     0.011 C 
HETATM   12  C31 UNL     1       1.704  -0.825   0.826  1.00  0.00     0.003 C 
HETATM   13  C32 UNL     1       1.441  -0.215   2.170  1.00  0.00     0.011 C 
ENDROOT
BRANCH   1  14
HETATM   14  O2  UNL     1       3.359   1.476   1.532  1.00  0.00    -0.312 OA
BRANCH  14  15
HETATM   15  C2  UNL     1       3.517   2.829   1.799  1.00  0.00     0.255 C 
HETATM   16  C1  UNL     1       3.503   3.415   3.163  1.00  0.00     0.126 C 
HETATM   17  O1  UNL     1       3.683   3.611   0.831  1.00  0.00    -0.266 OA
ENDBRANCH  14  15
ENDBRANCH   1  14
BRANCH   3  18
HETATM   18  O6  UNL     1       3.159  -1.964  -1.114  1.00  0.00    -0.386 OA
ATOM     19  H6  UNL     1       2.501  -2.218  -1.751  1.00  0.00     0.210 HD
ENDBRANCH   3  18
BRANCH   2  20
HETATM   20  O3  UNL     1       5.538   0.170  -0.659  1.00  0.00    -0.308 OA
BRANCH  20  21
HETATM   21  C5  UNL     1       6.663  -0.420  -0.072  1.00  0.00     0.288 C 
HETATM   22  O4  UNL     1       6.535  -1.195   0.909  1.00  0.00    -0.262 OA
BRANCH  21  23
HETATM   23  C6  UNL     1       7.993  -0.098  -0.648  1.00  0.00     0.221 C 
BRANCH  23  24
HETATM   24  O5  UNL     1       7.877   0.780  -1.721  1.00  0.00    -0.385 OA
ATOM     25  H5  UNL     1       8.728   0.986  -2.090  1.00  0.00     0.210 HD
ENDBRANCH  23  24
BRANCH  23  26
HETATM   26  C7  UNL     1       8.637  -1.394  -1.148  1.00  0.00     0.016 C 
HETATM   27  C8  UNL     1       7.770  -2.033  -2.207  1.00  0.00     0.012 C 
HETATM   28  C9  UNL     1      10.012  -1.038  -1.655  1.00  0.00     0.012 C 
ENDBRANCH  23  26
ENDBRANCH  21  23
ENDBRANCH  20  21
ENDBRANCH   2  20
BRANCH  10  29
HETATM   29  C17 UNL     1      -1.690  -0.567   0.854  1.00  0.00     0.041 C 
BRANCH  29  30
HETATM   30  C18 UNL     1      -3.002  -0.003   0.310  1.00  0.00     0.141 C 
BRANCH  30  31
HETATM   31  O8  UNL     1      -3.515  -0.780  -0.677  1.00  0.00    -0.392 OA
ATOM     32  H8  UNL     1      -4.331  -0.429  -1.015  1.00  0.00     0.210 HD
ENDBRANCH  30  31
BRANCH  30  33
HETATM   33  C19 UNL     1      -3.935   0.296   1.378  1.00  0.00     0.000 C 
HETATM   34  C20 UNL     1      -5.104  -0.177   1.620  1.00  0.00    -0.027 C 
BRANCH  34  35
HETATM   35  C21 UNL     1      -5.954  -1.168   0.953  1.00  0.00     0.039 C 
BRANCH  35  36
HETATM   36  C22 UNL     1      -7.290  -0.585   0.599  1.00  0.00     0.051 C 
HETATM   37  C23 UNL     1      -7.336   0.555  -0.294  1.00  0.00    -0.078 C 
HETATM   38  C24 UNL     1      -6.627   0.621  -1.613  1.00  0.00     0.043 C 
HETATM   39  C25 UNL     1      -8.098   1.609   0.092  1.00  0.00     0.008 C 
HETATM   40  C26 UNL     1      -8.801   1.475   1.383  1.00  0.00     0.148 C 
HETATM   41  C27 UNL     1      -9.479   0.122   1.470  1.00  0.00     0.074 C 
HETATM   42  O9  UNL     1      -7.881   1.026   2.319  1.00  0.00    -0.370 OA
HETATM   43  C28 UNL     1      -8.069  -0.255   1.865  1.00  0.00     0.068 C 
HETATM   44  C29 UNL     1      -8.042  -1.358   2.880  1.00  0.00     0.047 C 
ENDBRANCH  35  36
ENDBRANCH  34  35
ENDBRANCH  30  33
ENDBRANCH  29  30
ENDBRANCH  10  29
TORSDOF 14
