REMARK  14 active torsions:
REMARK  status: ('A' for Active; 'I' for Inactive)
REMARK    1  A    between atoms: N1_1  and  C1_5 
REMARK    2  A    between atoms: C4_8  and  O1_9 
REMARK    3  A    between atoms: O1_9  and  C5_10 
REMARK    4  A    between atoms: C6_11  and  O2_12 
REMARK    5  A    between atoms: C7_14  and  N2_15 
REMARK    6  A    between atoms: C9_20  and  O3_21 
REMARK    7  A    between atoms: C10_23  and  O4_24 
REMARK    8  A    between atoms: O4_24  and  C11_25 
REMARK    9  A    between atoms: C11_25  and  C12_27 
REMARK   10  A    between atoms: C12_27  and  N3_28 
REMARK       I    between atoms: N3_28  and  C13_30 
REMARK   11  A    between atoms: C13_30  and  O7_32 
REMARK   12  A    between atoms: O7_32  and  C14_33 
REMARK   13  A    between atoms: C14_33  and  C15_34 
REMARK   14  A    between atoms: C19_39  and  O8_40 
ROOT
HETATM    1  C5  UNL     1      -2.278   0.869  -0.960  1.00  0.00     0.184 C 
HETATM    2  C6  UNL     1      -2.683   2.342  -1.065  1.00  0.00     0.180 C 
HETATM    3  C7  UNL     1      -2.113   3.051   0.142  1.00  0.00     0.217 C 
HETATM    4  C8  UNL     1      -0.594   3.045   0.106  1.00  0.00     0.070 C 
HETATM    5  C9  UNL     1      -0.060   2.074  -0.898  1.00  0.00     0.152 C 
HETATM    6  C10 UNL     1      -0.804   0.742  -0.900  1.00  0.00     0.192 C 
ENDROOT
BRANCH   6   7
HETATM    7  O4  UNL     1      -0.252  -0.065  -1.922  1.00  0.00    -0.309 OA
BRANCH   7   8
HETATM    8  C11 UNL     1       0.572  -1.124  -1.604  1.00  0.00     0.277 C 
HETATM    9  O5  UNL     1       0.838  -1.370  -0.378  1.00  0.00    -0.263 OA
BRANCH   8  10
HETATM   10  C12 UNL     1       1.207  -2.036  -2.596  1.00  0.00     0.235 C 
BRANCH  10  11
HETATM   11  N3  UNL     1       2.414  -2.629  -2.058  1.00  0.00    -0.328 N 
HETATM   12  C13 UNL     1       3.449  -1.743  -1.667  1.00  0.00     0.360 C 
HETATM   13  O6  UNL     1       3.338  -0.487  -1.774  1.00  0.00    -0.239 OA
ATOM     14  H3  UNL     1       2.515  -3.640  -1.965  1.00  0.00     0.165 HD
BRANCH  12  15
HETATM   15  O7  UNL     1       4.634  -2.204  -1.146  1.00  0.00    -0.303 OA
BRANCH  15  16
HETATM   16  C14 UNL     1       5.689  -1.359  -0.739  1.00  0.00     0.195 C 
BRANCH  16  17
HETATM   17  C15 UNL     1       5.300  -0.472   0.397  1.00  0.00     0.071 C 
HETATM   18  C16 UNL     1       6.429   0.451   0.819  1.00  0.00     0.018 C 
HETATM   19  C17 UNL     1       6.155   0.857   2.240  1.00  0.00     0.011 C 
HETATM   20  C18 UNL     1       6.152  -0.432   3.049  1.00  0.00     0.074 C 
HETATM   21  S1  UNL     1       5.121  -1.465   1.946  1.00  0.00    -0.162 SA
ENDBRANCH  16  17
ENDBRANCH  15  16
ENDBRANCH  12  15
ENDBRANCH  10  11
ENDBRANCH   8  10
ENDBRANCH   7   8
ENDBRANCH   6   7
BRANCH   1  22
HETATM   22  O1  UNL     1      -2.835   0.388   0.224  1.00  0.00    -0.373 OA
BRANCH  22  23
HETATM   23  C4  UNL     1      -3.764  -0.606   0.022  1.00  0.00     0.153 C 
HETATM   24  C3  UNL     1      -5.051  -0.292   0.723  1.00  0.00     0.036 C 
HETATM   25  C2  UNL     1      -5.660  -1.663   0.940  1.00  0.00     0.038 C 
HETATM   26  C1  UNL     1      -4.498  -2.580   1.201  1.00  0.00     0.214 C 
HETATM   27  C19 UNL     1      -3.260  -1.846   0.737  1.00  0.00     0.177 C 
BRANCH  26  28
HETATM   28  N1  UNL     1      -4.359  -2.793   2.633  1.00  0.00    -0.072 N 
ATOM     29  H13 UNL     1      -4.280  -1.916   3.147  1.00  0.00     0.274 HD
ATOM     30  H12 UNL     1      -5.222  -3.134   3.057  1.00  0.00     0.274 HD
ATOM     31  H11 UNL     1      -3.570  -3.415   2.810  1.00  0.00     0.274 HD
ENDBRANCH  26  28
BRANCH  27  32
HETATM   32  O8  UNL     1      -2.525  -2.639  -0.158  1.00  0.00    -0.391 OA
ATOM     33  H8  UNL     1      -1.747  -2.178  -0.449  1.00  0.00     0.210 HD
ENDBRANCH  27  32
ENDBRANCH  22  23
ENDBRANCH   1  22
BRANCH   5  34
HETATM   34  O3  UNL     1       0.037   2.666  -2.129  1.00  0.00    -0.393 OA
ATOM     35  H3  UNL     1       0.376   2.049  -2.767  1.00  0.00     0.210 HD
ENDBRANCH   5  34
BRANCH   2  36
HETATM   36  O2  UNL     1      -4.078   2.440  -1.000  1.00  0.00    -0.391 OA
ATOM     37  H2  UNL     1      -4.329   3.354  -1.065  1.00  0.00     0.210 HD
ENDBRANCH   2  36
BRANCH   3  38
HETATM   38  N2  UNL     1      -2.644   4.379   0.247  1.00  0.00    -0.072 N 
ATOM     39  H23 UNL     1      -2.498   4.913  -0.609  1.00  0.00     0.274 HD
ATOM     40  H22 UNL     1      -3.664   4.379   0.255  1.00  0.00     0.274 HD
ATOM     41  H21 UNL     1      -2.259   4.857   1.062  1.00  0.00     0.274 HD
ENDBRANCH   3  38
TORSDOF 14
