REMARK  11 active torsions:
REMARK  status: ('A' for Active; 'I' for Inactive)
REMARK    1  A    between atoms: C5_5  and  O1_6 
REMARK    2  A    between atoms: O1_6  and  C6_7 
REMARK    3  A    between atoms: C6_7  and  C7_8 
REMARK    4  A    between atoms: C7_8  and  C8_9 
REMARK    5  A    between atoms: C8_9  and  N1_10 
REMARK    6  A    between atoms: N1_10  and  C10_12 
REMARK    7  A    between atoms: C11_15  and  C12_16 
REMARK       I    between atoms: C12_16  and  N3_18 
REMARK    8  A    between atoms: N3_18  and  C13_20 
REMARK    9  A    between atoms: C16_27  and  O3_28 
REMARK   10  A    between atoms: C17_30  and  O4_31 
REMARK   11  A    between atoms: C18_33  and  N5_34 
ROOT
HETATM    1  C10 UNL     1       1.269  -0.442   0.725  1.00  0.00     0.213 C 
HETATM    2  N2  UNL     1       2.157  -0.852  -0.339  1.00  0.00    -0.371 N 
ATOM      3  H2  UNL     1       1.829  -0.984  -1.296  1.00  0.00     0.157 HD
HETATM    4  C11 UNL     1       3.506  -1.059   0.026  1.00  0.00     0.271 C 
HETATM    5  N4  UNL     1       3.957  -0.954   1.332  1.00  0.00    -0.367 N 
ATOM      6  H4  UNL     1       4.855  -1.351   1.608  1.00  0.00     0.158 HD
HETATM    7  C16 UNL     1       3.136  -0.277   2.282  1.00  0.00     0.248 C 
HETATM    8  C17 UNL     1       1.999   0.480   1.645  1.00  0.00     0.208 C 
ENDROOT
BRANCH   1   9
HETATM    9  N1  UNL     1       0.677  -1.593   1.266  1.00  0.00    -0.375 N 
HETATM   10  C9  UNL     1       0.989  -2.808   0.596  1.00  0.00     0.150 C 
BRANCH   9  11
HETATM   11  C8  UNL     1      -0.330  -1.566   2.195  1.00  0.00     0.062 C 
BRANCH  11  12
HETATM   12  C7  UNL     1      -1.757  -1.738   1.784  1.00  0.00     0.070 C 
BRANCH  12  13
HETATM   13  C6  UNL     1      -2.251  -0.668   0.835  1.00  0.00     0.173 C 
BRANCH  13  14
HETATM   14  O1  UNL     1      -3.598  -0.843   0.490  1.00  0.00    -0.383 OA
BRANCH  14  15
HETATM   15  C5  UNL     1      -4.024   0.153  -0.385  1.00  0.00     0.151 C 
HETATM   16  C4  UNL     1      -5.053   1.070   0.223  1.00  0.00     0.034 C 
HETATM   17  C3  UNL     1      -6.465   0.642  -0.127  1.00  0.00     0.007 C 
HETATM   18  C2  UNL     1      -6.702   0.847  -1.611  1.00  0.00    -0.016 C 
HETATM   19  C1  UNL     1      -7.323   2.200  -1.829  1.00  0.00     0.010 C 
HETATM   20  C19 UNL     1      -5.410   0.699  -2.336  1.00  0.00     0.039 C 
HETATM   21  C18 UNL     1      -4.486  -0.344  -1.716  1.00  0.00     0.212 C 
BRANCH  21  22
HETATM   22  N5  UNL     1      -3.362  -0.505  -2.619  1.00  0.00    -0.073 N 
ATOM     23  H53 UNL     1      -2.818   0.354  -2.703  1.00  0.00     0.274 HD
ATOM     24  H52 UNL     1      -2.639  -1.105  -2.221  1.00  0.00     0.274 HD
ATOM     25  H51 UNL     1      -3.677  -0.844  -3.528  1.00  0.00     0.274 HD
ENDBRANCH  21  22
ENDBRANCH  14  15
ENDBRANCH  13  14
ENDBRANCH  12  13
ENDBRANCH  11  12
ENDBRANCH   9  11
ENDBRANCH   1   9
BRANCH   8  26
HETATM   26  O4  UNL     1       1.279   1.117   2.603  1.00  0.00    -0.387 OA
ATOM     27  H4  UNL     1       1.743   1.704   3.188  1.00  0.00     0.210 HD
ENDBRANCH   8  26
BRANCH   4  28
HETATM   28  C12 UNL     1       4.358  -0.231  -0.868  1.00  0.00     0.260 C 
HETATM   29  O2  UNL     1       3.961   0.125  -2.020  1.00  0.00    -0.269 OA
HETATM   30  N3  UNL     1       5.649   0.192  -0.464  1.00  0.00    -0.352 N 
ATOM     31  H3  UNL     1       5.965  -0.090   0.464  1.00  0.00     0.163 HD
BRANCH  30  32
HETATM   32  C13 UNL     1       6.553   0.990  -1.259  1.00  0.00     0.104 C 
HETATM   33  C14 UNL     1       6.447   2.404  -0.698  1.00  0.00     0.112 C 
HETATM   34  S1  UNL     1       7.702   3.367  -1.642  1.00  0.00    -0.096 SA
HETATM   35  S2  UNL     1       9.047   1.686  -1.894  1.00  0.00    -0.096 SA
HETATM   36  C15 UNL     1       7.941   0.490  -1.043  1.00  0.00     0.112 C 
ENDBRANCH  30  32
ENDBRANCH   4  28
BRANCH   7  37
HETATM   37  O3  UNL     1       2.686  -1.162   3.262  1.00  0.00    -0.374 OA
ATOM     38  H3  UNL     1       2.139  -0.711   3.895  1.00  0.00     0.212 HD
ENDBRANCH   7  37
TORSDOF 11
