REMARK  12 active torsions:
REMARK  status: ('A' for Active; 'I' for Inactive)
REMARK    1  A    between atoms: C2_2  and  O1_3 
REMARK    2  A    between atoms: O1_3  and  C3_4 
REMARK    3  A    between atoms: C4_5  and  N1_6 
REMARK    4  A    between atoms: C6_11  and  N2_12 
REMARK    5  A    between atoms: C7_16  and  O2_17 
REMARK    6  A    between atoms: O2_17  and  C8_18 
REMARK    7  A    between atoms: C14_24  and  O3_25 
REMARK    8  A    between atoms: C16_27  and  N3_28 
REMARK    9  A    between atoms: C19_31  and  O4_32 
REMARK   10  A    between atoms: C20_34  and  O5_35 
REMARK   11  A    between atoms: C21_37  and  N4_38 
REMARK   12  A    between atoms: C22_42  and  O6_43 
ROOT
HETATM    1  C8  UNL     1       0.267  -0.399  -0.479  1.00  0.00     0.158 C 
HETATM    2  C9  UNL     1       1.021  -1.723  -0.638  1.00  0.00     0.053 C 
HETATM    3  C10 UNL     1       1.459  -1.931  -2.057  1.00  0.00     0.036 C 
HETATM    4  C11 UNL     1       1.555  -0.669  -2.824  1.00  0.00    -0.030 C 
HETATM    5  C12 UNL     1       1.878   0.549  -2.457  1.00  0.00    -0.021 C 
HETATM    6  C13 UNL     1       2.256   1.008  -1.090  1.00  0.00     0.064 C 
HETATM    7  C14 UNL     1       1.152   0.728  -0.106  1.00  0.00     0.159 C 
HETATM    8  C16 UNL     1       3.628   0.614  -0.699  1.00  0.00     0.119 C 
HETATM    9  C19 UNL     1       3.800  -0.281   0.479  1.00  0.00     0.172 C 
HETATM   10  C20 UNL     1       3.442  -1.723   0.135  1.00  0.00     0.179 C 
HETATM   11  C21 UNL     1       2.025  -1.992   0.414  1.00  0.00     0.221 C 
ENDROOT
BRANCH   1  12
HETATM   12  O2  UNL     1      -0.775  -0.507   0.390  1.00  0.00    -0.373 OA
BRANCH  12  13
HETATM   13  C7  UNL     1      -2.052  -0.508  -0.154  1.00  0.00     0.183 C 
HETATM   14  C6  UNL     1      -2.612  -1.874   0.245  1.00  0.00     0.217 C 
HETATM   15  C5  UNL     1      -4.094  -1.962   0.207  1.00  0.00     0.071 C 
HETATM   16  C4  UNL     1      -4.658  -0.826  -0.578  1.00  0.00     0.217 C 
HETATM   17  C3  UNL     1      -4.364   0.518   0.042  1.00  0.00     0.183 C 
HETATM   18  C22 UNL     1      -2.892   0.533   0.481  1.00  0.00     0.180 C 
BRANCH  14  19
HETATM   19  N2  UNL     1      -2.172  -2.138   1.603  1.00  0.00    -0.072 N 
ATOM     20  H23 UNL     1      -2.619  -1.526   2.286  1.00  0.00     0.274 HD
ATOM     21  H22 UNL     1      -2.521  -3.026   1.963  1.00  0.00     0.274 HD
ATOM     22  H21 UNL     1      -1.154  -2.078   1.629  1.00  0.00     0.274 HD
ENDBRANCH  14  19
BRANCH  16  23
HETATM   23  N1  UNL     1      -6.057  -1.049  -0.790  1.00  0.00    -0.072 N 
ATOM     24  H13 UNL     1      -6.581  -0.925   0.076  1.00  0.00     0.274 HD
ATOM     25  H12 UNL     1      -6.467  -0.295  -1.342  1.00  0.00     0.274 HD
ATOM     26  H11 UNL     1      -6.256  -1.957  -1.209  1.00  0.00     0.274 HD
ENDBRANCH  16  23
BRANCH  17  27
HETATM   27  O1  UNL     1      -5.093   0.819   1.134  1.00  0.00    -0.381 OA
BRANCH  27  28
HETATM   28  C2  UNL     1      -5.836   1.939   1.180  1.00  0.00     0.164 C 
HETATM   29  C1  UNL     1      -5.137   3.239   1.029  1.00  0.00     0.033 C 
ENDBRANCH  27  28
ENDBRANCH  17  27
BRANCH  18  30
HETATM   30  O6  UNL     1      -2.800   0.473   1.891  1.00  0.00    -0.390 OA
ATOM     31  H6  UNL     1      -1.890   0.482   2.162  1.00  0.00     0.210 HD
ENDBRANCH  18  30
ENDBRANCH  12  13
ENDBRANCH   1  12
BRANCH   7  32
HETATM   32  O3  UNL     1       0.357   1.865   0.003  1.00  0.00    -0.387 OA
HETATM   33  C15 UNL     1       0.362   2.411   1.285  1.00  0.00     0.202 C 
ENDBRANCH   7  32
BRANCH  11  34
HETATM   34  N4  UNL     1       1.938  -3.400   0.858  1.00  0.00    -0.072 N 
ATOM     35  H43 UNL     1       0.995  -3.646   1.160  1.00  0.00     0.274 HD
ATOM     36  H42 UNL     1       2.021  -4.051   0.077  1.00  0.00     0.274 HD
ATOM     37  H41 UNL     1       2.630  -3.586   1.584  1.00  0.00     0.274 HD
ENDBRANCH  11  34
BRANCH  10  38
HETATM   38  O5  UNL     1       4.229  -2.547   0.979  1.00  0.00    -0.391 OA
ATOM     39  H5  UNL     1       4.006  -3.445   0.765  1.00  0.00     0.210 HD
ENDBRANCH  10  38
BRANCH   8  40
HETATM   40  N3  UNL     1       4.563   1.684  -0.547  1.00  0.00    -0.413 N 
HETATM   41  C17 UNL     1       4.346   2.654   0.429  1.00  0.00     0.143 C 
HETATM   42  C18 UNL     1       5.866   1.478  -1.051  1.00  0.00     0.143 C 
ENDBRANCH   8  40
BRANCH   9  43
HETATM   43  O4  UNL     1       5.208  -0.335   0.699  1.00  0.00    -0.391 OA
ATOM     44  H4  UNL     1       5.318  -0.906   1.450  1.00  0.00     0.210 HD
ENDBRANCH   9  43
TORSDOF 12
