REMARK  13 active torsions:
REMARK  status: ('A' for Active; 'I' for Inactive)
REMARK    1  A    between atoms: O1_2  and  C2_3 
REMARK    2  A    between atoms: C3_4  and  C4_5 
REMARK    3  A    between atoms: C4_5  and  N1_6 
REMARK    4  A    between atoms: N1_6  and  N2_8 
REMARK    5  A    between atoms: C5_13  and  O2_14 
REMARK    6  A    between atoms: C6_16  and  O3_17 
REMARK    7  A    between atoms: C7_19  and  O4_20 
REMARK    8  A    between atoms: C8_22  and  O5_23 
REMARK    9  A    between atoms: O5_23  and  C9_24 
REMARK   10  A    between atoms: C10_25  and  C11_26 
REMARK   11  A    between atoms: C11_26  and  O6_27 
REMARK   12  A    between atoms: C14_31  and  O7_32 
REMARK   13  A    between atoms: C16_35  and  O8_36 
ROOT
HETATM    1  C2  UNL     1      -2.232   1.269  -0.661  1.00  0.00     0.160 C 
HETATM    2  C3  UNL     1      -3.476   0.851   0.009  1.00  0.00     0.068 C 
HETATM    3  C5  UNL     1      -4.173  -0.323  -0.625  1.00  0.00     0.157 C 
HETATM    4  C6  UNL     1      -3.900  -0.233  -2.119  1.00  0.00     0.178 C 
HETATM    5  C7  UNL     1      -2.462  -0.591  -2.321  1.00  0.00     0.180 C 
HETATM    6  C8  UNL     1      -1.534   0.184  -1.464  1.00  0.00     0.182 C 
ENDROOT
BRANCH   6   7
HETATM    7  O5  UNL     1      -0.926  -0.633  -0.544  1.00  0.00    -0.374 OA
BRANCH   7   8
HETATM    8  C9  UNL     1       0.466  -0.623  -0.545  1.00  0.00     0.135 C 
HETATM    9  C10 UNL     1       0.956  -2.023  -0.620  1.00  0.00     0.039 C 
HETATM   10  C12 UNL     1       1.918  -2.221   0.496  1.00  0.00     0.017 C 
HETATM   11  C13 UNL     1       1.533  -1.223   1.537  1.00  0.00     0.024 C 
HETATM   12  C14 UNL     1       2.734  -0.710   2.307  1.00  0.00     0.131 C 
HETATM   13  C20 UNL     1       0.988  -0.067   0.764  1.00  0.00     0.051 C 
HETATM   14  C15 UNL     1       2.767   0.753   2.014  1.00  0.00     0.073 C 
HETATM   15  C16 UNL     1       4.168   1.252   2.113  1.00  0.00     0.129 C 
HETATM   16  C19 UNL     1       2.189   0.828   0.615  1.00  0.00     0.137 C 
HETATM   17  C17 UNL     1       5.032   0.766   0.989  1.00  0.00     0.058 C 
HETATM   18  C18 UNL     1       4.306   0.869  -0.319  1.00  0.00     0.170 C 
HETATM   19  O9  UNL     1       3.053   0.287  -0.293  1.00  0.00    -0.385 OA
BRANCH   9  20
HETATM   20  C11 UNL     1       1.588  -2.392  -1.959  1.00  0.00     0.171 C 
BRANCH  20  21
HETATM   21  O6  UNL     1       0.642  -2.232  -2.952  1.00  0.00    -0.400 OA
ATOM     22  H6  UNL     1       1.035  -2.462  -3.786  1.00  0.00     0.209 HD
ENDBRANCH  20  21
ENDBRANCH   9  20
BRANCH  12  23
HETATM   23  O7  UNL     1       2.630  -0.969   3.676  1.00  0.00    -0.395 OA
ATOM     24  H7  UNL     1       3.383  -0.648   4.158  1.00  0.00     0.210 HD
ENDBRANCH  12  23
BRANCH  15  25
HETATM   25  O8  UNL     1       4.705   0.742   3.314  1.00  0.00    -0.395 OA
ATOM     26  H8  UNL     1       5.598   1.060   3.377  1.00  0.00     0.210 HD
ENDBRANCH  15  25
ENDBRANCH   7   8
ENDBRANCH   6   7
BRANCH   1  27
HETATM   27  O1  UNL     1      -2.519   2.368  -1.468  1.00  0.00    -0.388 OA
HETATM   28  C1  UNL     1      -1.812   3.496  -1.087  1.00  0.00     0.202 C 
ENDBRANCH   1  27
BRANCH   5  29
HETATM   29  O4  UNL     1      -2.170  -0.399  -3.671  1.00  0.00    -0.390 OA
ATOM     30  H4  UNL     1      -1.257  -0.626  -3.799  1.00  0.00     0.210 HD
ENDBRANCH   5  29
BRANCH   2  31
HETATM   31  C4  UNL     1      -3.169   0.472   1.444  1.00  0.00     0.150 C 
BRANCH  31  32
HETATM   32  N1  UNL     1      -4.356   0.052   2.155  1.00  0.00    -0.322 N 
ATOM     33  H1  UNL     1      -4.389  -0.889   2.548  1.00  0.00     0.181 HD
BRANCH  32  34
HETATM   34  N2  UNL     1      -5.328   0.793   2.302  1.00  0.00    -0.254 N 
HETATM   35  N3  UNL     1      -6.023   1.720   2.719  1.00  0.00    -0.331 N 
ATOM     36  H32 UNL     1      -5.326   2.122   3.346  1.00  0.00     0.178 HD
ATOM     37  H31 UNL     1      -6.828   2.334   2.841  1.00  0.00     0.178 HD
ATOM     38  H2  UNL     1      -5.987   0.351   1.661  1.00  0.00     0.207 HD
ENDBRANCH  32  34
ENDBRANCH  31  32
ENDBRANCH   2  31
BRANCH   4  39
HETATM   39  O3  UNL     1      -4.732  -1.103  -2.816  1.00  0.00    -0.390 OA
ATOM     40  H3  UNL     1      -4.562  -1.047  -3.749  1.00  0.00     0.210 HD
ENDBRANCH   4  39
BRANCH   3  41
HETATM   41  O2  UNL     1      -3.807  -1.530  -0.083  1.00  0.00    -0.392 OA
ATOM     42  H2  UNL     1      -4.247  -2.271  -0.483  1.00  0.00     0.210 HD
ENDBRANCH   3  41
TORSDOF 13
