REMARK  10 active torsions:
REMARK  status: ('A' for Active; 'I' for Inactive)
REMARK    1  A    between atoms: O1_2  and  C2_3 
REMARK    2  A    between atoms: C7_9  and  O2_10 
REMARK    3  A    between atoms: C10_15  and  C11_16 
REMARK    4  A    between atoms: C11_16  and  N2_17 
REMARK    5  A    between atoms: C11_16  and  N3_21 
REMARK    6  A    between atoms: N3_21  and  O4_22 
REMARK    7  A    between atoms: N3_21  and  O5_24 
REMARK    8  A    between atoms: O5_24  and  N4_25 
REMARK    9  A    between atoms: C12_28  and  C13_29 
REMARK   10  A    between atoms: N5_30  and  O6_32 
ROOT
HETATM    1  C2  UNL     1      -3.513   1.062  -0.617  1.00  0.00     0.126 A 
HETATM    2  C3  UNL     1      -3.609  -0.293  -0.395  1.00  0.00     0.084 A 
HETATM    3  N1  UNL     1      -4.905  -0.884  -0.339  1.00  0.00    -0.099 NA
HETATM    4  C4  UNL     1      -2.457  -1.042  -0.232  1.00  0.00     0.060 A 
HETATM    5  C5  UNL     1      -1.223  -0.466  -0.287  1.00  0.00     0.053 A 
HETATM    6  C6  UNL     1      -1.151   0.893  -0.511  1.00  0.00     0.077 A 
HETATM    7  C7  UNL     1      -2.281   1.665  -0.677  1.00  0.00     0.117 A 
HETATM    8  C8  UNL     1      -0.007   1.660  -0.606  1.00  0.00     0.188 C 
HETATM    9  O3  UNL     1      -0.091   2.777  -1.124  1.00  0.00    -0.287 OA
HETATM   10  C9  UNL     1       1.266   1.277  -0.157  1.00  0.00     0.068 C 
HETATM   11  C10 UNL     1       1.785   0.026   0.053  1.00  0.00     0.023 C 
HETATM   12  C12 UNL     1       1.002  -1.104   0.337  1.00  0.00     0.062 C 
HETATM   13  N6  UNL     1      -0.236  -1.399  -0.104  1.00  0.00    -0.349 N 
HETATM   14  C14 UNL     1      -0.567  -2.743  -0.436  1.00  0.00     0.156 C 
ENDROOT
BRANCH  11  15
HETATM   15  C11 UNL     1       3.216  -0.125  -0.015  1.00  0.00     0.350 C 
BRANCH  15  16
HETATM   16  N2  UNL     1       3.668  -1.298  -0.740  1.00  0.00    -0.054 N 
ATOM     17  H23 UNL     1       3.241  -2.140  -0.353  1.00  0.00     0.276 HD
ATOM     18  H22 UNL     1       3.266  -1.312  -1.677  1.00  0.00     0.276 HD
ATOM     19  H21 UNL     1       4.681  -1.405  -0.788  1.00  0.00     0.276 HD
ENDBRANCH  15  16
BRANCH  15  20
HETATM   20  N3  UNL     1       3.958   0.977  -0.594  1.00  0.00    -0.010 NA
BRANCH  20  21
HETATM   21  O4  UNL     1       3.411   1.489  -1.703  1.00  0.00    -0.285 OA
ATOM     22  H4  UNL     1       3.897   2.211  -2.083  1.00  0.00     0.239 HD
ENDBRANCH  20  21
BRANCH  20  23
HETATM   23  O5  UNL     1       4.273   1.947   0.281  1.00  0.00    -0.162 OA
BRANCH  23  24
HETATM   24  N4  UNL     1       5.478   1.783   0.847  1.00  0.00    -0.289 N 
ATOM     25  H42 UNL     1       6.084   0.994   0.624  1.00  0.00     0.186 HD
ATOM     26  H41 UNL     1       5.717   2.519   1.511  1.00  0.00     0.186 HD
ENDBRANCH  23  24
ENDBRANCH  20  23
ENDBRANCH  15  20
ENDBRANCH  11  15
BRANCH  12  27
HETATM   27  C13 UNL     1       1.623  -2.055   1.181  1.00  0.00     0.144 C 
HETATM   28  N5  UNL     1       1.059  -3.125   1.578  1.00  0.00    -0.278 N 
ATOM     29  H5  UNL     1       0.104  -3.288   1.258  1.00  0.00     0.193 HD
BRANCH  28  30
HETATM   30  O6  UNL     1       1.604  -4.070   2.385  1.00  0.00    -0.290 OA
ATOM     31  H6  UNL     1       1.183  -4.868   2.681  1.00  0.00     0.244 HD
ENDBRANCH  28  30
ENDBRANCH  12  27
BRANCH   7  32
HETATM   32  O2  UNL     1      -2.130   3.023  -0.899  1.00  0.00    -0.357 OA
ATOM     33  H2  UNL     1      -1.278   3.440  -0.941  1.00  0.00     0.217 HD
ENDBRANCH   7  32
BRANCH   1  34
HETATM   34  O1  UNL     1      -4.653   1.855  -0.788  1.00  0.00    -0.351 OA
HETATM   35  C1  UNL     1      -5.269   2.460   0.358  1.00  0.00     0.210 C 
ENDBRANCH   1  34
TORSDOF 10
