REMARK  8 active torsions:
REMARK  status: ('A' for Active; 'I' for Inactive)
REMARK    1  A    between atoms: C6_10  and  N3_11 
REMARK    2  A    between atoms: C10_22  and  N7_23 
REMARK    3  A    between atoms: C11_26  and  N8_27 
REMARK    4  A    between atoms: C12_29  and  C13_30 
REMARK    5  A    between atoms: C13_30  and  O1_31 
REMARK    6  A    between atoms: N9_33  and  C14_34 
REMARK    7  A    between atoms: C14_34  and  C15_35 
REMARK    8  A    between atoms: C15_35  and  O2_36 
ROOT
HETATM    1  C1  UNL     1      -3.549   2.673   0.322  1.00  0.00     0.159 C 
HETATM    2  N1  UNL     1      -2.706   1.525   0.260  1.00  0.00    -0.321 N 
HETATM    3  C2  UNL     1      -1.386   1.683   0.246  1.00  0.00     0.132 A 
HETATM    4  N2  UNL     1      -0.955   2.864   0.350  1.00  0.00    -0.383 N 
ATOM      5  H21 UNL     1       0.058   2.985   0.339  1.00  0.00     0.157 HD
ATOM      6  H22 UNL     1      -1.603   3.649   0.407  1.00  0.00     0.157 HD
HETATM    7  C3  UNL     1      -0.514   0.627   0.170  1.00  0.00     0.108 A 
HETATM    8  C4  UNL     1      -1.096  -0.693   0.107  1.00  0.00     0.084 A 
HETATM    9  C5  UNL     1      -2.440  -0.835   0.151  1.00  0.00     0.081 A 
HETATM   10  C6  UNL     1      -3.029  -2.044   0.307  1.00  0.00     0.116 A 
HETATM   11  N4  UNL     1      -4.361  -2.159   0.464  1.00  0.00    -0.338 N 
ATOM     12  H4  UNL     1      -4.780  -3.084   0.565  1.00  0.00     0.168 HD
HETATM   13  C7  UNL     1      -5.155  -1.053   0.489  1.00  0.00     0.183 A 
HETATM   14  N5  UNL     1      -4.577   0.149   0.369  1.00  0.00    -0.338 N 
ATOM     15  H5  UNL     1      -5.169   0.979   0.396  1.00  0.00     0.168 HD
HETATM   16  C8  UNL     1      -3.277   0.308   0.217  1.00  0.00     0.126 A 
HETATM   17  N6  UNL     1      -0.303  -1.727  -0.085  1.00  0.00    -0.332 N 
HETATM   18  C9  UNL     1      -0.736  -2.954  -0.736  1.00  0.00     0.158 C 
HETATM   19  C10 UNL     1       1.065  -1.500  -0.159  1.00  0.00     0.146 A 
HETATM   20  C11 UNL     1       1.619  -0.251  -0.065  1.00  0.00     0.152 A 
HETATM   21  N9  UNL     1       0.773   0.840   0.098  1.00  0.00    -0.323 N 
ENDROOT
BRANCH  20  22
HETATM   22  N8  UNL     1       2.839  -0.085  -0.113  1.00  0.00    -0.351 N 
HETATM   23  C12 UNL     1       4.134  -0.397  -0.213  1.00  0.00     0.088 C 
ATOM     24  H8  UNL     1       2.896   0.929  -0.014  1.00  0.00     0.166 HD
BRANCH  23  25
HETATM   25  C13 UNL     1       4.847  -0.808   1.088  1.00  0.00     0.208 C 
BRANCH  25  26
HETATM   26  O1  UNL     1       6.176  -1.105   0.846  1.00  0.00    -0.396 OA
ATOM     27  H1  UNL     1       6.616  -1.359   1.649  1.00  0.00     0.209 HD
ENDBRANCH  25  26
ENDBRANCH  23  25
ENDBRANCH  20  22
BRANCH  19  28
HETATM   28  N7  UNL     1       1.749  -2.556  -0.317  1.00  0.00    -0.382 N 
ATOM     29  H72 UNL     1       1.336  -3.486  -0.387  1.00  0.00     0.157 HD
ATOM     30  H71 UNL     1       2.754  -2.389  -0.371  1.00  0.00     0.157 HD
ENDBRANCH  19  28
BRANCH  21  31
HETATM   31  C14 UNL     1       1.423   2.120   0.074  1.00  0.00     0.157 C 
BRANCH  31  32
HETATM   32  C15 UNL     1       1.829   2.643  -1.252  1.00  0.00     0.184 C 
BRANCH  32  33
HETATM   33  O2  UNL     1       1.001   2.873  -2.275  1.00  0.00    -0.399 OA
ATOM     34  H2  UNL     1       1.261   3.208  -3.125  1.00  0.00     0.209 HD
ENDBRANCH  32  33
ENDBRANCH  31  32
ENDBRANCH  21  31
BRANCH  10  35
HETATM   35  N3  UNL     1      -2.415  -3.073   0.781  1.00  0.00    -0.385 N 
ATOM     36  H32 UNL     1      -1.406  -2.986   0.662  1.00  0.00     0.157 HD
ATOM     37  H31 UNL     1      -2.859  -3.984   0.899  1.00  0.00     0.157 HD
ENDBRANCH  10  35
TORSDOF 8
