REMARK  6 active torsions:
REMARK  status: ('A' for Active; 'I' for Inactive)
REMARK    1  A    between atoms: O1_2  and  C2_3 
REMARK    2  A    between atoms: C5_6  and  N1_7 
REMARK    3  A    between atoms: N1_7  and  N2_9 
REMARK    4  A    between atoms: C6_11  and  C7_13 
REMARK    5  A    between atoms: N9_23  and  N10_25 
REMARK    6  A    between atoms: C12_33  and  O3_34 
ROOT
HETATM    1  C2  UNL     1      -0.301  -2.530   1.861  1.00  0.00     0.102 A 
HETATM    2  C3  UNL     1       0.271  -1.812   0.810  1.00  0.00     0.057 A 
HETATM    3  C4  UNL     1      -0.335  -0.659   0.361  1.00  0.00     0.046 A 
HETATM    4  C5  UNL     1       0.213   0.071  -0.680  1.00  0.00     0.136 A 
HETATM    5  N8  UNL     1      -0.475   1.208  -1.048  1.00  0.00    -0.305 N 
ATOM      6  H8  UNL     1      -0.127   1.793  -1.807  1.00  0.00     0.171 HD
HETATM    7  C8  UNL     1      -1.589   1.538  -0.413  1.00  0.00     0.245 A 
HETATM    8  N9  UNL     1      -2.224   2.631  -0.790  1.00  0.00    -0.263 N 
ATOM      9  H9  UNL     1      -1.859   3.201  -1.553  1.00  0.00     0.190 HD
HETATM   10  O2  UNL     1      -2.086   0.831   0.567  1.00  0.00    -0.277 OA
HETATM   11  C10 UNL     1      -1.507  -0.261   0.988  1.00  0.00     0.096 A 
HETATM   12  C11 UNL     1      -2.065  -0.997   2.042  1.00  0.00     0.077 A 
HETATM   13  C12 UNL     1      -1.462  -2.147   2.490  1.00  0.00     0.101 A 
ENDROOT
BRANCH   4  14
HETATM   14  N1  UNL     1       1.255  -0.197  -1.308  1.00  0.00    -0.283 N 
ATOM     15  H1  UNL     1       1.386   0.533  -2.008  1.00  0.00     0.188 HD
BRANCH  14  16
HETATM   16  N2  UNL     1       2.259  -1.049  -1.430  1.00  0.00    -0.283 N 
HETATM   17  C6  UNL     1       3.499  -0.675  -1.477  1.00  0.00     0.177 C 
HETATM   18  N3  UNL     1       4.462  -1.712  -1.611  1.00  0.00    -0.077 NA
ATOM     19  H2  UNL     1       2.048  -2.045  -1.490  1.00  0.00     0.188 HD
BRANCH  17  20
HETATM   20  C7  UNL     1       3.932   0.692  -1.404  1.00  0.00     0.174 A 
HETATM   21  N4  UNL     1       3.169   1.780  -1.279  1.00  0.00    -0.268 N 
HETATM   22  N5  UNL     1       3.958   2.866  -1.248  1.00  0.00    -0.007 NA
ATOM     23  H4  UNL     1       2.151   1.786  -1.217  1.00  0.00     0.185 HD
HETATM   24  N6  UNL     1       5.210   2.458  -1.353  1.00  0.00    -0.007 NA
HETATM   25  N7  UNL     1       5.195   1.125  -1.449  1.00  0.00    -0.268 N 
ATOM     26  H7  UNL     1       6.019   0.531  -1.542  1.00  0.00     0.185 HD
ENDBRANCH  17  20
ENDBRANCH  14  16
ENDBRANCH   4  14
BRANCH   1  27
HETATM   27  O1  UNL     1       0.310  -3.692   2.312  1.00  0.00    -0.353 OA
HETATM   28  C1  UNL     1       1.504  -4.117   1.690  1.00  0.00     0.210 C 
ENDBRANCH   1  27
BRANCH   8  29
HETATM   29  N10 UNL     1      -3.398   3.000  -0.137  1.00  0.00    -0.273 N 
HETATM   30  C9  UNL     1      -4.452   3.198  -0.842  1.00  0.00     0.215 C 
HETATM   31  N11 UNL     1      -5.652   3.572  -0.202  1.00  0.00    -0.065 NA
HETATM   32  N12 UNL     1      -4.442   3.051  -2.247  1.00  0.00    -0.065 NA
ATOM     33  H10 UNL     1      -3.419   3.110   0.877  1.00  0.00     0.189 HD
ENDBRANCH   8  29
BRANCH  13  34
HETATM   34  O3  UNL     1      -2.011  -2.891   3.545  1.00  0.00    -0.358 OA
ATOM     35  H3  UNL     1      -2.813  -2.626   3.980  1.00  0.00     0.217 HD
ENDBRANCH  13  34
TORSDOF 6
