REMARK  11 active torsions:
REMARK  status: ('A' for Active; 'I' for Inactive)
REMARK    1  A    between atoms: C2_2  and  O1_3 
REMARK    2  A    between atoms: O1_3  and  C3_4 
REMARK    3  A    between atoms: C3_4  and  C4_6 
REMARK    4  A    between atoms: C7_13  and  C8_14 
REMARK       I    between atoms: C8_14  and  N3_16 
REMARK    5  A    between atoms: C9_18  and  O4_19 
REMARK    6  A    between atoms: C9_18  and  C10_21 
REMARK    7  A    between atoms: C10_21  and  O5_22 
REMARK    8  A    between atoms: C10_21  and  C20_36 
REMARK    9  A    between atoms: O5_22  and  C11_23 
REMARK       I    between atoms: C11_23  and  N4_25 
REMARK   10  A    between atoms: N4_25  and  C12_27 
REMARK   11  A    between atoms: C12_27  and  C15_30 
ROOT
HETATM    1  C8  UNL     1      -2.834   0.873  -0.784  1.00  0.00     0.262 C 
HETATM    2  O3  UNL     1      -2.732   1.781   0.063  1.00  0.00    -0.267 OA
HETATM    3  N3  UNL     1      -1.982  -0.277  -0.865  1.00  0.00    -0.304 N 
ATOM      4  H3  UNL     1      -2.197  -0.906  -1.639  1.00  0.00     0.171 HD
HETATM    5  C9  UNL     1      -0.934  -0.679  -0.089  1.00  0.00     0.158 C 
ENDROOT
BRANCH   5   6
HETATM    6  O4  UNL     1      -0.302  -1.751  -0.682  1.00  0.00    -0.347 OA
ATOM      7  H4  UNL     1       0.428  -2.031  -0.142  1.00  0.00     0.219 HD
ENDBRANCH   5   6
BRANCH   5   8
HETATM    8  C10 UNL     1      -0.276  -0.350   1.141  1.00  0.00     0.315 C 
BRANCH   8   9
HETATM    9  O5  UNL     1       1.038  -0.963   1.239  1.00  0.00    -0.281 OA
BRANCH   9  10
HETATM   10  C11 UNL     1       2.179  -0.261   1.590  1.00  0.00     0.362 C 
HETATM   11  O6  UNL     1       2.049   0.948   1.829  1.00  0.00    -0.238 OA
HETATM   12  N4  UNL     1       3.441  -0.964   1.664  1.00  0.00    -0.324 N 
ATOM     13  H4  UNL     1       3.479  -1.965   1.470  1.00  0.00     0.165 HD
BRANCH  12  14
HETATM   14  C12 UNL     1       4.662  -0.243   2.016  1.00  0.00     0.061 C 
HETATM   15  C13 UNL     1       5.796  -1.152   2.338  1.00  0.00     0.044 C 
HETATM   16  C14 UNL     1       4.449   0.790   3.084  1.00  0.00     0.044 C 
BRANCH  14  17
HETATM   17  C15 UNL     1       5.088   0.516   0.760  1.00  0.00     0.010 A 
HETATM   18  C16 UNL     1       6.097   0.247  -0.111  1.00  0.00     0.024 A 
HETATM   19  C17 UNL     1       6.252   1.087  -1.153  1.00  0.00    -0.054 A 
HETATM   20  C18 UNL     1       7.327   0.927  -2.211  1.00  0.00     0.048 C 
HETATM   21  C19 UNL     1       5.380   2.140  -1.247  1.00  0.00     0.056 A 
HETATM   22  S1  UNL     1       4.386   1.922   0.113  1.00  0.00    -0.103 SA
ENDBRANCH  14  17
ENDBRANCH  12  14
ENDBRANCH   9  10
ENDBRANCH   8   9
BRANCH   8  23
HETATM   23  C20 UNL     1      -1.057  -0.942   2.356  1.00  0.00     0.421 C 
HETATM   24  F1  UNL     1      -0.447  -0.595   3.535  1.00  0.00    -0.168 F 
HETATM   25  F2  UNL     1      -2.350  -0.580   2.359  1.00  0.00    -0.168 F 
HETATM   26  F3  UNL     1      -0.987  -2.336   2.261  1.00  0.00    -0.168 F 
ENDBRANCH   8  23
ENDBRANCH   5   8
BRANCH   1  27
HETATM   27  C7  UNL     1      -3.941   1.063  -1.755  1.00  0.00     0.090 A 
HETATM   28  C4  UNL     1      -5.068   0.295  -1.823  1.00  0.00     0.141 A 
HETATM   29  N1  UNL     1      -5.770   0.765  -2.898  1.00  0.00    -0.294 N 
HETATM   30  N2  UNL     1      -5.103   1.766  -3.446  1.00  0.00    -0.304 N 
ATOM     31  H1  UNL     1      -6.665   0.401  -3.225  1.00  0.00     0.187 HD
HETATM   32  C5  UNL     1      -3.945   2.005  -2.778  1.00  0.00     0.040 A 
ATOM     33  H2  UNL     1      -5.417   2.290  -4.263  1.00  0.00     0.186 HD
HETATM   34  C6  UNL     1      -2.917   3.033  -3.085  1.00  0.00     0.071 C 
BRANCH  28  35
HETATM   35  C3  UNL     1      -5.561  -0.801  -1.003  1.00  0.00     0.312 C 
HETATM   36  O2  UNL     1      -4.911  -1.199   0.016  1.00  0.00    -0.258 OA
BRANCH  35  37
HETATM   37  O1  UNL     1      -6.739  -1.457  -1.279  1.00  0.00    -0.317 OA
BRANCH  37  38
HETATM   38  C2  UNL     1      -7.275  -2.497  -0.512  1.00  0.00     0.175 C 
HETATM   39  C1  UNL     1      -7.601  -2.083   0.914  1.00  0.00     0.034 C 
ENDBRANCH  37  38
ENDBRANCH  35  37
ENDBRANCH  28  35
ENDBRANCH   1  27
TORSDOF 11
