REMARK  10 active torsions:
REMARK  status: ('A' for Active; 'I' for Inactive)
REMARK    1  A    between atoms: S1_2  and  N1_4 
REMARK    2  A    between atoms: S1_2  and  C14_25 
REMARK       I    between atoms: N1_4  and  C2_6 
REMARK    3  A    between atoms: C2_6  and  O3_8 
REMARK    4  A    between atoms: O3_8  and  C3_9 
REMARK    5  A    between atoms: C3_9  and  C4_10 
REMARK    6  A    between atoms: C3_9  and  C12_21 
REMARK    7  A    between atoms: C4_10  and  C5_11 
REMARK    8  A    between atoms: C5_11  and  C6_13 
REMARK    9  A    between atoms: C11_18  and  O5_19 
REMARK   10  A    between atoms: C12_21  and  O7_23 
ROOT
HETATM    1  O3  UNL     1      -0.072  -0.855  -1.062  1.00  0.00    -0.287 OA
ENDROOT
BRANCH   1   2
HETATM    2  C2  UNL     1       1.201  -0.279  -0.903  1.00  0.00     0.372 C 
HETATM    3  N1  UNL     1       1.834   0.391  -1.974  1.00  0.00    -0.259 N 
ATOM      4  H1  UNL     1       1.336   0.442  -2.863  1.00  0.00     0.181 HD
HETATM    5  O2  UNL     1       1.719  -0.397   0.220  1.00  0.00    -0.238 OA
BRANCH   3   6
HETATM    6  S1  UNL     1       3.360   1.115  -1.886  1.00  0.00     0.058 S 
HETATM    7  C1  UNL     1       4.411   0.467  -2.906  1.00  0.00     0.142 C 
HETATM    8  O1  UNL     1       3.261   2.530  -2.501  1.00  0.00    -0.245 OA
BRANCH   6   9
HETATM    9  C14 UNL     1       4.034   1.230  -0.298  1.00  0.00     0.061 A 
HETATM   10  C15 UNL     1       5.128   0.434   0.041  1.00  0.00     0.049 A 
HETATM   11  C16 UNL     1       5.703   0.435   1.284  1.00  0.00     0.057 A 
HETATM   12 CL1  UNL     1       7.080  -0.594   1.636  1.00  0.00    -0.083 Cl
HETATM   13  C17 UNL     1       5.153   1.281   2.245  1.00  0.00     0.057 A 
HETATM   14 CL2  UNL     1       5.902   1.278   3.853  1.00  0.00    -0.082 Cl
HETATM   15  C18 UNL     1       4.074   2.082   1.950  1.00  0.00     0.051 A 
HETATM   16  C19 UNL     1       3.523   2.048   0.674  1.00  0.00     0.055 A 
HETATM   17 CL3  UNL     1       2.176   3.127   0.339  1.00  0.00    -0.083 Cl
ENDBRANCH   6   9
ENDBRANCH   3   6
ENDBRANCH   1   2
BRANCH   1  18
HETATM   18  C3  UNL     1      -0.726  -1.490   0.045  1.00  0.00     0.240 C 
BRANCH  18  19
HETATM   19  C4  UNL     1      -2.164  -1.088   0.080  1.00  0.00     0.127 C 
BRANCH  19  20
HETATM   20  C5  UNL     1      -2.311   0.366   0.212  1.00  0.00     0.165 C 
HETATM   21  O4  UNL     1      -1.265   1.059   0.329  1.00  0.00    -0.292 OA
BRANCH  20  22
HETATM   22  C6  UNL     1      -3.562   1.094   0.221  1.00  0.00     0.043 A 
HETATM   23  C7  UNL     1      -3.574   2.487   0.350  1.00  0.00     0.018 A 
HETATM   24  C8  UNL     1      -4.747   3.212   0.361  1.00  0.00     0.001 A 
HETATM   25  C9  UNL     1      -5.945   2.565   0.242  1.00  0.00     0.003 A 
HETATM   26  C10 UNL     1      -5.970   1.190   0.112  1.00  0.00     0.037 A 
HETATM   27  C11 UNL     1      -4.769   0.462   0.103  1.00  0.00     0.079 A 
BRANCH  27  28
HETATM   28  O5  UNL     1      -4.830  -0.906  -0.028  1.00  0.00    -0.360 OA
ATOM     29  H5  UNL     1      -5.668  -1.345  -0.110  1.00  0.00     0.217 HD
ENDBRANCH  27  28
ENDBRANCH  20  22
ENDBRANCH  19  20
ENDBRANCH  18  19
BRANCH  18  30
HETATM   30  C12 UNL     1      -0.636  -2.998  -0.148  1.00  0.00     0.288 C 
HETATM   31  O6  UNL     1      -0.133  -3.421  -1.182  1.00  0.00    -0.262 OA
BRANCH  30  32
HETATM   32  O7  UNL     1      -1.129  -3.784   0.860  1.00  0.00    -0.324 OA
HETATM   33  C13 UNL     1      -1.104  -5.207   0.805  1.00  0.00     0.213 C 
ENDBRANCH  30  32
ENDBRANCH  18  30
ENDBRANCH   1  18
TORSDOF 10
