REMARK  10 active torsions:
REMARK  status: ('A' for Active; 'I' for Inactive)
REMARK    1  A    between atoms: C2_2  and  O1_3 
REMARK    2  A    between atoms: O1_3  and  C3_4 
REMARK    3  A    between atoms: C4_5  and  C5_6 
REMARK    4  A    between atoms: C9_11  and  S1_12 
REMARK    5  A    between atoms: S1_12  and  N2_15 
REMARK    6  A    between atoms: N2_15  and  C10_17 
REMARK    7  A    between atoms: C16_29  and  C17_30 
REMARK    8  A    between atoms: C17_30  and  C18_31 
REMARK    9  A    between atoms: C18_31  and  C19_32 
REMARK   10  A    between atoms: C19_32  and  O4_33 
ROOT
HETATM    1  C5  UNL     1       0.068   0.567   1.169  1.00  0.00     0.040 A 
HETATM    2  C6  UNL     1      -0.674   1.202   0.214  1.00  0.00     0.060 A 
HETATM    3  C7  UNL     1      -0.080   2.122  -0.711  1.00  0.00     0.100 C 
HETATM    4  N1  UNL     1       0.410   2.856  -1.445  1.00  0.00    -0.191 NA
HETATM    5  C8  UNL     1      -2.049   0.991   0.116  1.00  0.00     0.052 A 
HETATM    6  C9  UNL     1      -2.666   0.140   0.985  1.00  0.00     0.123 A 
HETATM    7  C13 UNL     1      -1.939  -0.511   1.957  1.00  0.00     0.179 A 
HETATM    8  F1  UNL     1      -2.541  -1.354   2.820  1.00  0.00    -0.201 F 
HETATM    9  C14 UNL     1      -0.567  -0.286   2.035  1.00  0.00     0.169 A 
HETATM   10  F2  UNL     1       0.119  -0.944   3.005  1.00  0.00    -0.202 F 
ENDROOT
BRANCH   1  11
HETATM   11  C4  UNL     1       1.548   0.763   1.277  1.00  0.00     0.020 A 
HETATM   12  C3  UNL     1       2.479  -0.027   0.677  1.00  0.00     0.097 A 
HETATM   13  C16 UNL     1       3.793   0.315   0.871  1.00  0.00     0.039 A 
HETATM   14  S3  UNL     1       3.703   1.699   1.862  1.00  0.00    -0.098 SA
HETATM   15  C15 UNL     1       2.020   1.820   2.014  1.00  0.00     0.065 A 
BRANCH  12  16
HETATM   16  O1  UNL     1       2.150  -1.162  -0.116  1.00  0.00    -0.349 OA
BRANCH  16  17
HETATM   17  C2  UNL     1       1.878  -1.153  -1.464  1.00  0.00     0.171 C 
HETATM   18  C1  UNL     1       2.932  -0.623  -2.380  1.00  0.00     0.034 C 
ENDBRANCH  16  17
ENDBRANCH  12  16
BRANCH  13  19
HETATM   19  C17 UNL     1       5.016  -0.376   0.382  1.00  0.00     0.023 C 
BRANCH  19  20
HETATM   20  C18 UNL     1       6.178   0.151   0.651  1.00  0.00     0.039 C 
BRANCH  20  21
HETATM   21  C19 UNL     1       7.391  -0.551   0.155  1.00  0.00     0.328 C 
HETATM   22  F3  UNL     1       8.504  -0.041   0.823  1.00  0.00    -0.215 F 
BRANCH  21  23
HETATM   23  O4  UNL     1       7.561  -0.329  -1.225  1.00  0.00    -0.364 OA
ATOM     24  H4  UNL     1       8.336  -0.778  -1.542  1.00  0.00     0.213 HD
ENDBRANCH  21  23
ENDBRANCH  20  21
ENDBRANCH  19  20
ENDBRANCH  13  19
ENDBRANCH   1  11
BRANCH   6  25
HETATM   25  S1  UNL     1      -4.397  -0.175   0.921  1.00  0.00     0.267 S 
HETATM   26  O2  UNL     1      -4.982   0.315   2.216  1.00  0.00    -0.200 OA
HETATM   27  O3  UNL     1      -4.642  -1.639   0.824  1.00  0.00    -0.200 OA
BRANCH  25  28
HETATM   28  N2  UNL     1      -5.124   0.723  -0.348  1.00  0.00    -0.260 N 
ATOM     29  H2  UNL     1      -4.570   1.425  -0.839  1.00  0.00     0.181 HD
BRANCH  28  30
HETATM   30  C10 UNL     1      -6.358   0.534  -0.700  1.00  0.00     0.158 A 
HETATM   31  N3  UNL     1      -7.281  -0.305  -0.229  1.00  0.00    -0.345 N 
HETATM   32  C11 UNL     1      -8.465  -0.297  -0.767  1.00  0.00     0.097 A 
ATOM     33  H3  UNL     1      -7.063  -0.941   0.538  1.00  0.00     0.167 HD
HETATM   34  C12 UNL     1      -8.701   0.579  -1.794  1.00  0.00     0.070 A 
HETATM   35  S2  UNL     1      -7.186   1.358  -1.937  1.00  0.00    -0.064 SA
ENDBRANCH  28  30
ENDBRANCH  25  28
ENDBRANCH   6  25
TORSDOF 10
