REMARK  8 active torsions:
REMARK  status: ('A' for Active; 'I' for Inactive)
REMARK    1  A    between atoms: C2_2  and  O1_3 
REMARK    2  A    between atoms: O1_3  and  C3_4 
REMARK    3  A    between atoms: C3_4  and  C4_5 
REMARK    4  A    between atoms: C4_5  and  C5_6 
REMARK    5  A    between atoms: C5_6  and  C6_7 
REMARK    6  A    between atoms: C7_8  and  C8_9 
REMARK    7  A    between atoms: N3_17  and  C9_18 
REMARK    8  A    between atoms: C18_29  and  C19_30 
ROOT
HETATM    1  C5  UNL     1      -0.300   0.231  -0.976  1.00  0.00     0.028 C 
HETATM    2  C15 UNL     1       0.958  -0.067  -1.823  1.00  0.00     0.021 C 
HETATM    3  C16 UNL     1       1.240  -1.484  -2.053  1.00  0.00     0.018 C 
HETATM    4  C17 UNL     1       1.842  -2.231  -0.913  1.00  0.00     0.116 C 
HETATM    5  N4  UNL     1       2.373  -1.254  -0.027  1.00  0.00    -0.193 NA
HETATM    6  N5  UNL     1       3.459  -1.718   0.665  1.00  0.00    -0.134 NA
HETATM    7  C18 UNL     1       4.226  -0.679   1.319  1.00  0.00     0.197 C 
HETATM    8  N6  UNL     1       3.353   0.455   1.677  1.00  0.00    -0.336 N 
ATOM      9  H6  UNL     1       3.767   1.365   1.880  1.00  0.00     0.164 HD
HETATM   10  C22 UNL     1       1.944   0.297   1.743  1.00  0.00     0.265 C 
HETATM   11  O2  UNL     1       1.288   0.965   2.557  1.00  0.00    -0.266 OA
HETATM   12  C23 UNL     1       1.372  -0.686   0.801  1.00  0.00     0.092 C 
HETATM   13  C24 UNL     1       0.010  -0.464   0.300  1.00  0.00     0.020 C 
ENDROOT
BRANCH   1  14
HETATM   14  C4  UNL     1      -0.064   1.734  -0.737  1.00  0.00     0.046 C 
BRANCH  14  15
HETATM   15  C3  UNL     1      -1.082   2.367   0.129  1.00  0.00     0.169 C 
BRANCH  15  16
HETATM   16  O1  UNL     1      -0.735   3.719   0.251  1.00  0.00    -0.391 OA
BRANCH  16  17
HETATM   17  C2  UNL     1      -1.695   4.333   1.073  1.00  0.00     0.163 C 
HETATM   18  C1  UNL     1      -1.301   5.785   1.191  1.00  0.00     0.033 C 
ENDBRANCH  16  17
ENDBRANCH  15  16
ENDBRANCH  14  15
ENDBRANCH   1  14
BRANCH   1  19
HETATM   19  C6  UNL     1      -1.573  -0.051  -1.603  1.00  0.00     0.076 A 
HETATM   20  C7  UNL     1      -2.022   0.343  -2.867  1.00  0.00     0.159 A 
HETATM   21  N1  UNL     1      -3.342  -0.075  -2.961  1.00  0.00    -0.280 N 
HETATM   22  N2  UNL     1      -3.688  -0.671  -1.874  1.00  0.00    -0.239 N 
ATOM     23  H1  UNL     1      -3.947   0.068  -3.770  1.00  0.00     0.188 HD
HETATM   24  N3  UNL     1      -2.621  -0.675  -1.012  1.00  0.00    -0.274 N 
ATOM     25  H2  UNL     1      -4.605  -1.074  -1.685  1.00  0.00     0.208 HD
BRANCH  20  26
HETATM   26  C8  UNL     1      -1.401   0.983  -3.973  1.00  0.00     0.436 C 
HETATM   27  F1  UNL     1      -0.391   0.338  -4.662  1.00  0.00    -0.165 F 
HETATM   28  F2  UNL     1      -1.225   2.351  -3.963  1.00  0.00    -0.165 F 
HETATM   29  F3  UNL     1      -2.356   0.973  -5.056  1.00  0.00    -0.165 F 
ENDBRANCH  20  26
BRANCH  24  30
HETATM   30  C9  UNL     1      -2.893  -1.282   0.225  1.00  0.00     0.109 C 
HETATM   31  C10 UNL     1      -3.171  -2.783  -0.081  1.00  0.00     0.027 C 
HETATM   32  C11 UNL     1      -3.289  -3.566   1.190  1.00  0.00     0.002 C 
HETATM   33  C12 UNL     1      -4.574  -3.124   1.868  1.00  0.00     0.000 C 
HETATM   34  C13 UNL     1      -4.474  -1.627   2.049  1.00  0.00     0.002 C 
HETATM   35  C14 UNL     1      -4.325  -0.883   0.741  1.00  0.00     0.027 C 
ENDBRANCH  24  30
ENDBRANCH   1  19
BRANCH   7  36
HETATM   36  C19 UNL     1       5.358  -0.277   0.429  1.00  0.00     0.017 C 
HETATM   37  C20 UNL     1       6.142   0.798   1.119  1.00  0.00     0.013 C 
HETATM   38  C21 UNL     1       4.917   0.130  -0.958  1.00  0.00     0.013 C 
ENDBRANCH   7  36
TORSDOF 8
