REMARK  10 active torsions:
REMARK  status: ('A' for Active; 'I' for Inactive)
REMARK    1  A    between atoms: C2_2  and  N1_3 
REMARK    2  A    between atoms: N1_3  and  C4_5 
REMARK    3  A    between atoms: N1_3  and  C18_22 
REMARK    4  A    between atoms: C4_5  and  C5_6 
REMARK    5  A    between atoms: C8_9  and  C9_10 
REMARK    6  A    between atoms: C9_10  and  C10_11 
REMARK    7  A    between atoms: C10_11  and  C11_12 
REMARK    8  A    between atoms: C11_12  and  C12_13 
REMARK    9  A    between atoms: C14_15  and  O1_16 
REMARK   10  A    between atoms: C18_22  and  C19_23 
ROOT
HETATM    1  C5  UNL     1      -0.878   1.207  -1.381  1.00  0.00    -0.052 C 
HETATM    2  C6  UNL     1      -0.220   2.321  -1.621  1.00  0.00     0.005 C 
HETATM    3  C7  UNL     1       1.182   2.327  -1.898  1.00  0.00     0.005 C 
HETATM    4  C8  UNL     1       1.898   1.224  -1.942  1.00  0.00    -0.058 C 
HETATM    5  C16 UNL     1       1.218  -0.085  -1.870  1.00  0.00     0.115 C 
HETATM    6 CL1  UNL     1       1.087  -0.608  -3.613  1.00  0.00    -0.120 Cl
HETATM    7  C17 UNL     1      -0.159  -0.067  -1.346  1.00  0.00     0.060 C 
ENDROOT
BRANCH   1   8
HETATM    8  C4  UNL     1      -2.311   1.272  -1.115  1.00  0.00     0.271 C 
BRANCH   8   9
HETATM    9  N1  UNL     1      -2.782   0.808   0.167  1.00  0.00    -0.062 N 
HETATM   10  C3  UNL     1      -1.778   0.903   1.205  1.00  0.00     0.273 C 
BRANCH   9  11
HETATM   11  C2  UNL     1      -3.837   1.722   0.565  1.00  0.00     0.233 C 
HETATM   12  C1  UNL     1      -5.207   1.386   0.122  1.00  0.00     0.035 C 
ENDBRANCH   9  11
BRANCH   9  13
HETATM   13  C18 UNL     1      -3.248  -0.552  -0.009  1.00  0.00     0.297 C 
BRANCH  13  14
HETATM   14  C19 UNL     1      -3.932  -1.134   1.154  1.00  0.00     0.075 A 
HETATM   15  N2  UNL     1      -4.212  -0.672   2.383  1.00  0.00    -0.352 N 
HETATM   16  C20 UNL     1      -4.855  -1.587   3.113  1.00  0.00     0.182 A 
ATOM     17  H2  UNL     1      -3.965   0.260   2.717  1.00  0.00     0.166 HD
HETATM   18  N3  UNL     1      -4.997  -2.666   2.344  1.00  0.00    -0.341 N 
HETATM   19  C21 UNL     1      -4.450  -2.414   1.165  1.00  0.00     0.128 A 
ATOM     20  H3  UNL     1      -5.450  -3.538   2.617  1.00  0.00     0.167 HD
HETATM   21 CL2  UNL     1      -4.398  -3.542  -0.168  1.00  0.00    -0.062 Cl
ENDBRANCH  13  14
ENDBRANCH   9  13
ENDBRANCH   8   9
ENDBRANCH   1   8
BRANCH   4  22
HETATM   22  C9  UNL     1       3.375   1.295  -2.227  1.00  0.00     0.062 C 
BRANCH  22  23
HETATM   23  C10 UNL     1       4.183   0.831  -1.105  1.00  0.00    -0.026 C 
BRANCH  23  24
HETATM   24  C11 UNL     1       3.679   0.472   0.045  1.00  0.00    -0.026 C 
BRANCH  24  25
HETATM   25  C12 UNL     1       4.485   0.001   1.172  1.00  0.00     0.012 C 
HETATM   26  C13 UNL     1       4.427  -1.525   1.281  1.00  0.00     0.040 C 
HETATM   27  C14 UNL     1       5.824  -1.568   0.711  1.00  0.00     0.119 C 
HETATM   28  C15 UNL     1       5.962  -0.094   1.041  1.00  0.00     0.040 C 
BRANCH  27  29
HETATM   29  O1  UNL     1       5.921  -1.918  -0.614  1.00  0.00    -0.396 OA
ATOM     30  H1  UNL     1       6.800  -1.945  -0.973  1.00  0.00     0.210 HD
ENDBRANCH  27  29
ENDBRANCH  24  25
ENDBRANCH  23  24
ENDBRANCH  22  23
ENDBRANCH   4  22
TORSDOF 10
