REMARK  9 active torsions:
REMARK  status: ('A' for Active; 'I' for Inactive)
REMARK    1  A    between atoms: C2_2  and  O1_5 
REMARK    2  A    between atoms: O1_5  and  C5_6 
REMARK       I    between atoms: C5_6  and  N1_8 
REMARK    3  A    between atoms: N1_8  and  C6_10 
REMARK    4  A    between atoms: C7_13  and  C8_14 
REMARK    5  A    between atoms: C9_18  and  C10_19 
REMARK    6  A    between atoms: C10_19  and  O4_21 
REMARK    7  A    between atoms: O4_21  and  C11_22 
REMARK    8  A    between atoms: C11_22  and  C12_23 
REMARK       I    between atoms: C12_23  and  N3_25 
REMARK    9  A    between atoms: N3_25  and  C13_27 
ROOT
HETATM    1  C6  UNL     1      -2.935  -1.255  -0.680  1.00  0.00     0.154 A 
HETATM    2  N2  UNL     1      -2.897  -0.086  -0.044  1.00  0.00    -0.331 N 
ATOM      3  H2  UNL     1      -3.746   0.316   0.353  1.00  0.00     0.168 HD
HETATM    4  C7  UNL     1      -1.749   0.540   0.063  1.00  0.00     0.142 A 
HETATM    5  C9  UNL     1      -0.649  -0.045  -0.487  1.00  0.00     0.115 A 
HETATM    6  S1  UNL     1      -1.321  -1.496  -1.148  1.00  0.00    -0.045 SA
ENDROOT
BRANCH   5   7
HETATM    7  C10 UNL     1       0.767   0.346  -0.552  1.00  0.00     0.303 C 
HETATM    8  O3  UNL     1       1.211   1.370  -0.059  1.00  0.00    -0.259 OA
BRANCH   7   9
HETATM    9  O4  UNL     1       1.654  -0.489  -1.209  1.00  0.00    -0.308 OA
BRANCH   9  10
HETATM   10  C11 UNL     1       3.019  -0.299  -1.376  1.00  0.00     0.281 C 
BRANCH  10  11
HETATM   11  C12 UNL     1       3.821  -0.216  -0.163  1.00  0.00     0.242 C 
HETATM   12  O5  UNL     1       3.288  -0.328   0.961  1.00  0.00    -0.271 OA
HETATM   13  N3  UNL     1       5.218  -0.009  -0.234  1.00  0.00    -0.353 N 
ATOM     14  H3  UNL     1       5.658   0.082  -1.150  1.00  0.00     0.163 HD
BRANCH  13  15
HETATM   15  C13 UNL     1       6.053   0.079   0.965  1.00  0.00     0.108 C 
HETATM   16  C14 UNL     1       7.101  -0.995   0.892  1.00  0.00     0.029 C 
HETATM   17  C15 UNL     1       8.156  -0.707  -0.145  1.00  0.00     0.028 C 
HETATM   18  C16 UNL     1       8.464   0.754  -0.288  1.00  0.00     0.167 C 
HETATM   19  O6  UNL     1       7.310   1.530  -0.374  1.00  0.00    -0.389 OA
HETATM   20  C17 UNL     1       6.706   1.466   0.898  1.00  0.00     0.192 C 
ENDBRANCH  13  15
ENDBRANCH  10  11
ENDBRANCH   9  10
ENDBRANCH   7   9
ENDBRANCH   5   7
BRANCH   4  21
HETATM   21  C8  UNL     1      -1.641   1.888   0.770  1.00  0.00     0.434 C 
HETATM   22  F1  UNL     1      -1.203   2.870  -0.091  1.00  0.00    -0.165 F 
HETATM   23  F2  UNL     1      -2.871   2.322   1.226  1.00  0.00    -0.165 F 
HETATM   24  F3  UNL     1      -0.860   1.774   1.912  1.00  0.00    -0.165 F 
ENDBRANCH   4  21
BRANCH   1  25
HETATM   25  N1  UNL     1      -3.966  -2.038  -0.899  1.00  0.00    -0.282 N 
HETATM   26  C5  UNL     1      -5.257  -1.719  -0.456  1.00  0.00     0.367 C 
HETATM   27  O2  UNL     1      -5.773  -2.428   0.449  1.00  0.00    -0.238 OA
ATOM     28  H1  UNL     1      -3.822  -2.909  -1.410  1.00  0.00     0.173 HD
BRANCH  26  29
HETATM   29  O1  UNL     1      -6.013  -0.668  -0.949  1.00  0.00    -0.294 OA
BRANCH  29  30
HETATM   30  C2  UNL     1      -7.298  -0.333  -0.524  1.00  0.00     0.061 C 
HETATM   31  C1  UNL     1      -7.356   0.009   0.950  1.00  0.00     0.046 C 
HETATM   32  C3  UNL     1      -8.305  -1.451  -0.754  1.00  0.00     0.046 C 
HETATM   33  C4  UNL     1      -7.779   0.856  -1.327  1.00  0.00     0.046 C 
ENDBRANCH  29  30
ENDBRANCH  26  29
ENDBRANCH   1  25
TORSDOF 9
