REMARK  6 active torsions:
REMARK  status: ('A' for Active; 'I' for Inactive)
REMARK    1  A    between atoms: N1_6  and  C6_7 
REMARK    2  A    between atoms: C7_10  and  N3_11 
REMARK    3  A    between atoms: C13_22  and  O2_23 
REMARK    4  A    between atoms: O2_23  and  C14_24 
REMARK    5  A    between atoms: C14_24  and  C15_25 
REMARK    6  A    between atoms: C15_25  and  C16_27 
ROOT
HETATM    1  C6  UNL     1      -1.939  -0.561  -0.079  1.00  0.00     0.684 A 
HETATM    2  N2  UNL     1      -1.422  -1.814  -0.157  1.00  0.00    -0.174 N 
ATOM      3  H2  UNL     1      -2.053  -2.595  -0.340  1.00  0.00     0.186 HD
HETATM    4  C7  UNL     1      -0.108  -2.065  -0.002  1.00  0.00     0.152 A 
HETATM    5  C8  UNL     1       0.740  -1.020   0.243  1.00  0.00     0.167 A 
HETATM    6  C9  UNL     1       0.198   0.246   0.319  1.00  0.00     0.196 A 
HETATM    7  N4  UNL     1      -1.118   0.472   0.161  1.00  0.00    -0.167 N 
ATOM      8  H4  UNL     1      -1.488   1.420   0.223  1.00  0.00     0.186 HD
HETATM    9  O1  UNL     1       1.076   1.290   0.569  1.00  0.00    -0.318 OA
HETATM   10  C10 UNL     1       2.465   1.215   0.433  1.00  0.00     0.112 C 
HETATM   11  C11 UNL     1       3.164   1.623   1.729  1.00  0.00     0.051 C 
HETATM   12  C12 UNL     1       2.864   2.253  -0.623  1.00  0.00     0.051 C 
HETATM   13  C13 UNL     1       2.970  -0.128   0.004  1.00  0.00     0.301 C 
HETATM   14  O4  UNL     1       2.124  -1.193   0.417  1.00  0.00    -0.309 OA
ENDROOT
BRANCH  13  15
HETATM   15  O2  UNL     1       4.207  -0.339   0.610  1.00  0.00    -0.350 OA
BRANCH  15  16
HETATM   16  C14 UNL     1       5.217  -0.506  -0.305  1.00  0.00     0.254 C 
BRANCH  16  17
HETATM   17  C15 UNL     1       6.513  -0.727   0.366  1.00  0.00     0.204 C 
HETATM   18  O3  UNL     1       6.547  -0.738   1.583  1.00  0.00    -0.291 OA
BRANCH  17  19
HETATM   19  C16 UNL     1       7.787  -0.939  -0.367  1.00  0.00     0.250 C 
HETATM   20 CL1  UNL     1       9.145  -1.172   0.754  1.00  0.00    -0.075 Cl
HETATM   21 CL2  UNL     1       7.687  -2.398  -1.385  1.00  0.00    -0.075 Cl
HETATM   22 CL3  UNL     1       8.146   0.488  -1.374  1.00  0.00    -0.075 Cl
ENDBRANCH  17  19
ENDBRANCH  16  17
ENDBRANCH  15  16
ENDBRANCH  13  15
BRANCH   4  23
HETATM   23  N3  UNL     1       0.384  -3.256  -0.076  1.00  0.00    -0.383 N 
ATOM     24  H32 UNL     1      -0.248  -4.035  -0.259  1.00  0.00     0.157 HD
ATOM     25  H31 UNL     1       1.379  -3.446   0.041  1.00  0.00     0.157 HD
ENDBRANCH   4  23
BRANCH   1  26
HETATM   26  N1  UNL     1      -3.326  -0.360  -0.250  1.00  0.00    -0.217 N 
HETATM   27  C5  UNL     1      -4.190  -1.474  -0.506  1.00  0.00     0.141 C 
HETATM   28  C4  UNL     1      -5.352  -1.427   0.433  1.00  0.00     0.021 C 
HETATM   29  C3  UNL     1      -5.855  -0.064   0.765  1.00  0.00     0.007 C 
HETATM   30  C2  UNL     1      -5.340   1.035  -0.113  1.00  0.00     0.000 C 
HETATM   31  C1  UNL     1      -5.996   1.092  -1.451  1.00  0.00     0.011 C 
HETATM   32  C17 UNL     1      -3.838   0.979  -0.161  1.00  0.00     0.145 C 
ENDBRANCH   1  26
TORSDOF 6
