REMARK  8 active torsions:
REMARK  status: ('A' for Active; 'I' for Inactive)
REMARK    1  A    between atoms: C3_3  and  C4_4 
REMARK    2  A    between atoms: N2_10  and  C5_11 
REMARK    3  A    between atoms: N3_14  and  C8_15 
REMARK    4  A    between atoms: C8_15  and  C9_16 
REMARK    5  A    between atoms: C9_16  and  N4_17 
REMARK    6  A    between atoms: C10_18  and  O1_19 
REMARK    7  A    between atoms: C13_23  and  O2_24 
REMARK    8  A    between atoms: N5_34  and  O3_35 
ROOT
HETATM    1  C5  UNL     1      -2.724  -0.018   0.496  1.00  0.00     0.137 C 
HETATM    2  C6  UNL     1      -1.976  -1.309   0.487  1.00  0.00     0.060 C 
HETATM    3  C7  UNL     1      -0.645  -1.047  -0.230  1.00  0.00     0.275 C 
HETATM    4  N3  UNL     1      -0.044   0.097   0.414  1.00  0.00     0.094 N 
HETATM    5  C18 UNL     1      -0.737   1.282  -0.102  1.00  0.00     0.224 C 
HETATM    6  C19 UNL     1      -0.571   2.372   0.909  1.00  0.00     0.043 C 
HETATM    7  C20 UNL     1      -2.155   0.997  -0.477  1.00  0.00     0.041 C 
HETATM    8  C21 UNL     1      -3.027   2.248  -0.353  1.00  0.00     0.014 C 
ENDROOT
BRANCH   4   9
HETATM    9  C8  UNL     1       1.354   0.284   0.093  1.00  0.00     0.293 C 
BRANCH   9  10
HETATM   10  C9  UNL     1       2.180  -0.801   0.685  1.00  0.00     0.163 C 
BRANCH  10  11
HETATM   11  N4  UNL     1       3.577  -0.643   0.384  1.00  0.00    -0.306 N 
HETATM   12  C10 UNL     1       4.454   0.038   1.138  1.00  0.00     0.151 A 
HETATM   13  C11 UNL     1       5.703   0.002   0.576  1.00  0.00     0.007 A 
HETATM   14  C12 UNL     1       5.573  -0.747  -0.590  1.00  0.00     0.007 A 
HETATM   15  C17 UNL     1       7.036   0.557   0.935  1.00  0.00     0.070 C 
HETATM   16  C13 UNL     1       4.256  -1.122  -0.669  1.00  0.00     0.151 A 
HETATM   17  C14 UNL     1       6.779  -0.977  -1.444  1.00  0.00     0.070 C 
HETATM   18  C15 UNL     1       7.993  -1.069  -0.595  1.00  0.00    -0.026 C 
HETATM   19  C16 UNL     1       8.118  -0.361   0.508  1.00  0.00    -0.026 C 
BRANCH  12  20
HETATM   20  O1  UNL     1       4.187   0.711   2.341  1.00  0.00    -0.345 OA
ATOM     21  H1  UNL     1       4.808   1.193   2.875  1.00  0.00     0.219 HD
ENDBRANCH  12  20
BRANCH  16  22
HETATM   22  O2  UNL     1       3.747  -1.899  -1.729  1.00  0.00    -0.345 OA
ATOM     23  H2  UNL     1       4.228  -2.238  -2.475  1.00  0.00     0.219 HD
ENDBRANCH  16  22
ENDBRANCH  10  11
ENDBRANCH   9  10
ENDBRANCH   4   9
BRANCH   1  24
HETATM   24  N2  UNL     1      -4.153  -0.176   0.297  1.00  0.00    -0.202 N 
HETATM   25  N1  UNL     1      -5.110   0.373   1.057  1.00  0.00    -0.276 N 
HETATM   26  C3  UNL     1      -6.304   0.028   0.599  1.00  0.00     0.160 A 
ATOM     27  H1  UNL     1      -4.944   0.969   1.868  1.00  0.00     0.189 HD
HETATM   28  C2  UNL     1      -6.096  -0.773  -0.495  1.00  0.00     0.089 A 
HETATM   29  C1  UNL     1      -7.191  -1.367  -1.292  1.00  0.00     0.075 C 
HETATM   30  N5  UNL     1      -4.758  -0.875  -0.649  1.00  0.00    -0.149 N 
BRANCH  26  31
HETATM   31  C4  UNL     1      -7.619   0.449   1.187  1.00  0.00     0.436 C 
HETATM   32  F1  UNL     1      -8.375  -0.608   1.595  1.00  0.00    -0.165 F 
HETATM   33  F2  UNL     1      -7.408   1.379   2.174  1.00  0.00    -0.165 F 
HETATM   34  F3  UNL     1      -8.298   1.109   0.152  1.00  0.00    -0.165 F 
ENDBRANCH  26  31
BRANCH  30  35
HETATM   35  O3  UNL     1      -4.182  -1.609  -1.657  1.00  0.00    -0.267 OA
ATOM     36  H3  UNL     1      -3.241  -1.681  -1.765  1.00  0.00     0.247 HD
ENDBRANCH  30  35
ENDBRANCH   1  24
TORSDOF 8
