REMARK  6 active torsions:
REMARK  status: ('A' for Active; 'I' for Inactive)
REMARK    1  A    between atoms: C9_9  and  N1_10 
REMARK    2  A    between atoms: N1_10  and  C10_12 
REMARK    3  A    between atoms: C11_13  and  N2_14 
REMARK    4  A    between atoms: C14_17  and  C15_18 
REMARK    5  A    between atoms: C15_18  and  O1_19 
REMARK    6  A    between atoms: C15_18  and  C16_21 
ROOT
HETATM    1  C10 UNL     1      -0.262  -1.682  -0.296  1.00  0.00     0.144 A 
HETATM    2  C11 UNL     1      -1.659  -1.915  -0.379  1.00  0.00     0.144 A 
HETATM    3  C18 UNL     1      -2.188  -3.181  -0.100  1.00  0.00     0.281 A 
HETATM    4  O2  UNL     1      -3.436  -3.408  -0.171  1.00  0.00    -0.265 OA
HETATM    5  N3  UNL     1      -1.363  -4.169   0.250  1.00  0.00    -0.269 N 
HETATM    6  C19 UNL     1      -1.952  -5.483   0.536  1.00  0.00     0.164 C 
HETATM    7  C20 UNL     1      -0.061  -3.939   0.328  1.00  0.00     0.332 A 
HETATM    8  O3  UNL     1       0.697  -4.889   0.663  1.00  0.00    -0.246 OA
HETATM    9  N4  UNL     1       0.498  -2.726   0.063  1.00  0.00    -0.287 N 
HETATM   10  C21 UNL     1       1.958  -2.687   0.157  1.00  0.00     0.163 C 
ENDROOT
BRANCH   2  11
HETATM   11  N2  UNL     1      -2.613  -0.892  -0.566  1.00  0.00    -0.373 N 
HETATM   12  C12 UNL     1      -3.999  -0.907  -0.929  1.00  0.00     0.123 C 
HETATM   13  C13 UNL     1      -4.701  -0.096   0.175  1.00  0.00     0.029 C 
HETATM   14  C14 UNL     1      -3.697   0.961   0.469  1.00  0.00     0.043 C 
HETATM   15  C17 UNL     1      -2.442   0.531  -0.263  1.00  0.00     0.130 C 
BRANCH  14  16
HETATM   16  C15 UNL     1      -4.191   2.313  -0.027  1.00  0.00     0.231 C 
BRANCH  16  17
HETATM   17  O1  UNL     1      -5.408   2.541   0.654  1.00  0.00    -0.386 OA
ATOM     18  H1  UNL     1      -5.716   3.385   0.345  1.00  0.00     0.210 HD
ENDBRANCH  16  17
BRANCH  16  19
HETATM   19  C16 UNL     1      -3.228   3.378   0.420  1.00  0.00     0.413 C 
HETATM   20  F1  UNL     1      -1.987   3.159  -0.082  1.00  0.00    -0.168 F 
HETATM   21  F2  UNL     1      -3.748   4.610   0.078  1.00  0.00    -0.168 F 
HETATM   22  F3  UNL     1      -3.189   3.329   1.818  1.00  0.00    -0.168 F 
ENDBRANCH  16  19
ENDBRANCH  14  16
ENDBRANCH   2  11
BRANCH   1  23
HETATM   23  N1  UNL     1       0.235  -0.464  -0.738  1.00  0.00    -0.347 N 
ATOM     24  H1  UNL     1      -0.456  -0.019  -1.342  1.00  0.00     0.167 HD
BRANCH  23  25
HETATM   25  C9  UNL     1       1.359   0.362  -0.639  1.00  0.00    -0.008 C 
HETATM   26  C2  UNL     1       1.823   0.792   0.729  1.00  0.00     0.028 C 
HETATM   27  C1  UNL     1       1.272   2.130   1.181  1.00  0.00     0.016 C 
HETATM   28  C3  UNL     1       3.315   0.874   0.855  1.00  0.00     0.019 C 
HETATM   29  C4  UNL     1       4.012   1.495  -0.295  1.00  0.00    -0.047 C 
HETATM   30  C5  UNL     1       5.228   0.622  -0.627  1.00  0.00     0.015 C 
HETATM   31  C6  UNL     1       4.592   2.873   0.041  1.00  0.00     0.015 C 
HETATM   32  C7  UNL     1       3.210   1.634  -1.552  1.00  0.00     0.014 C 
HETATM   33  C8  UNL     1       2.430   0.306  -1.686  1.00  0.00     0.053 C 
ENDBRANCH  23  25
ENDBRANCH   1  23
TORSDOF 6
