REMARK  5 active torsions:
REMARK  status: ('A' for Active; 'I' for Inactive)
REMARK    1  A    between atoms: C2_2  and  N2_6 
REMARK    2  A    between atoms: N3_9  and  C7_10 
REMARK    3  A    between atoms: N4_13  and  C10_14 
REMARK    4  A    between atoms: C10_14  and  C11_15 
REMARK    5  A    between atoms: C16_28  and  C17_29 
ROOT
HETATM    1  C1  UNL     1       6.257   1.887  -0.612  1.00  0.00     0.054 C 
HETATM    2  C2  UNL     1       5.675   0.737   0.166  1.00  0.00     0.110 C 
HETATM    3  C3  UNL     1       6.589  -0.473  -0.238  1.00  0.00     0.054 C 
HETATM    4  C4  UNL     1       5.833   0.915   1.589  1.00  0.00     0.090 C 
HETATM    5  N1  UNL     1       5.954   1.037   2.749  1.00  0.00    -0.195 NA
ENDROOT
BRANCH   2   6
HETATM    6  N2  UNL     1       4.350   0.462  -0.225  1.00  0.00    -0.389 N 
HETATM    7  C5  UNL     1       4.058  -0.663  -1.022  1.00  0.00     0.149 C 
HETATM    8  C6  UNL     1       2.529  -0.834  -1.044  1.00  0.00     0.292 C 
HETATM    9  N3  UNL     1       2.080  -1.036   0.296  1.00  0.00     0.101 N 
HETATM   10  C19 UNL     1       2.638  -0.117   1.293  1.00  0.00     0.292 C 
HETATM   11  C20 UNL     1       3.302   1.017   0.553  1.00  0.00     0.149 C 
BRANCH   9  12
HETATM   12  C7  UNL     1       0.660  -0.900   0.449  1.00  0.00     0.262 C 
HETATM   13  C8  UNL     1       0.200   0.522   0.085  1.00  0.00     0.061 C 
HETATM   14  C9  UNL     1      -1.316   0.224   0.162  1.00  0.00     0.125 C 
HETATM   15  N4  UNL     1      -1.450  -1.087  -0.316  1.00  0.00    -0.386 N 
HETATM   16  C18 UNL     1      -0.212  -1.720  -0.461  1.00  0.00     0.094 C 
BRANCH  15  17
HETATM   17  C10 UNL     1      -2.513  -1.867   0.208  1.00  0.00     0.169 C 
BRANCH  17  18
HETATM   18  C11 UNL     1      -3.654  -0.925   0.506  1.00  0.00     0.018 A 
HETATM   19  S1  UNL     1      -3.891  -0.034   1.918  1.00  0.00    -0.073 SA
HETATM   20  C12 UNL     1      -5.372   0.675   1.578  1.00  0.00     0.090 A 
HETATM   21  N5  UNL     1      -6.134   1.570   2.263  1.00  0.00    -0.346 N 
HETATM   22  C15 UNL     1      -5.689   0.195   0.321  1.00  0.00     0.058 A 
HETATM   23  C13 UNL     1      -7.284   2.078   1.760  1.00  0.00     0.182 A 
ATOM     24  H5  UNL     1      -5.828   1.869   3.189  1.00  0.00     0.167 HD
HETATM   25  N6  UNL     1      -7.592   1.624   0.540  1.00  0.00    -0.338 N 
HETATM   26  C14 UNL     1      -6.895   0.757  -0.172  1.00  0.00     0.113 A 
ATOM     27  H6  UNL     1      -8.449   1.982   0.118  1.00  0.00     0.168 HD
HETATM   28  N7  UNL     1      -7.320   0.509  -1.371  1.00  0.00    -0.385 N 
ATOM     29  H72 UNL     1      -8.187   0.913  -1.725  1.00  0.00     0.157 HD
ATOM     30  H71 UNL     1      -6.782  -0.161  -1.921  1.00  0.00     0.157 HD
HETATM   31  C16 UNL     1      -4.800  -0.652  -0.262  1.00  0.00     0.079 A 
BRANCH  31  32
HETATM   32  C17 UNL     1      -4.823  -1.289  -1.627  1.00  0.00     0.419 C 
HETATM   33  F1  UNL     1      -3.711  -0.808  -2.355  1.00  0.00    -0.166 F 
HETATM   34  F2  UNL     1      -4.460  -2.654  -1.505  1.00  0.00    -0.166 F 
HETATM   35  F3  UNL     1      -5.951  -1.355  -2.324  1.00  0.00    -0.166 F 
ENDBRANCH  31  32
ENDBRANCH  17  18
ENDBRANCH  15  17
ENDBRANCH   9  12
ENDBRANCH   2   6
TORSDOF 5
