REMARK  6 active torsions:
REMARK  status: ('A' for Active; 'I' for Inactive)
REMARK    1  A    between atoms: C4_9  and  C5_10 
REMARK    2  A    between atoms: C9_14  and  N3_15 
REMARK    3  A    between atoms: N4_18  and  C12_19 
REMARK    4  A    between atoms: C12_19  and  C14_21 
REMARK    5  A    between atoms: C14_21  and  N5_24 
REMARK    6  A    between atoms: C19_31  and  C20_32 
ROOT
HETATM    1  N3  UNL     1      -1.124  -0.491  -0.628  1.00  0.00    -0.363 N 
HETATM    2  C10 UNL     1      -0.477  -1.492   0.173  1.00  0.00     0.143 C 
HETATM    3  C11 UNL     1       0.984  -1.228   0.375  1.00  0.00     0.138 C 
HETATM    4  N4  UNL     1       1.715  -0.632  -0.674  1.00  0.00    -0.391 N 
HETATM    5  C19 UNL     1       1.051  -0.241  -1.812  1.00  0.00     0.206 C 
HETATM    6  C21 UNL     1      -0.332   0.343  -1.464  1.00  0.00     0.158 C 
ENDROOT
BRANCH   1   7
HETATM    7  C9  UNL     1      -2.556  -0.462  -0.623  1.00  0.00     0.115 A 
HETATM    8  C4  UNL     1      -3.273   0.359   0.163  1.00  0.00     0.037 A 
HETATM    9  C3  UNL     1      -4.687   0.273  -0.013  1.00  0.00     0.111 A 
HETATM   10  N1  UNL     1      -5.257  -0.552  -0.878  1.00  0.00    -0.332 N 
HETATM   11  N2  UNL     1      -5.454   1.066   0.676  1.00  0.00    -0.385 N 
HETATM   12  C2  UNL     1      -4.463  -1.340  -1.623  1.00  0.00     0.080 A 
ATOM     13  H1  UNL     1      -6.272  -0.588  -0.976  1.00  0.00     0.168 HD
HETATM   14  C1  UNL     1      -5.099  -2.273  -2.595  1.00  0.00     0.089 C 
HETATM   15  N8  UNL     1      -3.154  -1.317  -1.520  1.00  0.00    -0.332 N 
ATOM     16  H8  UNL     1      -2.583  -1.930  -2.102  1.00  0.00     0.168 HD
ATOM     17  H22 UNL     1      -6.464   1.005   0.550  1.00  0.00     0.157 HD
ATOM     18  H21 UNL     1      -5.015   1.701   1.342  1.00  0.00     0.157 HD
BRANCH   8  19
HETATM   19  C5  UNL     1      -2.863   1.317   1.184  1.00  0.00    -0.017 C 
HETATM   20  C6  UNL     1      -3.370   2.738   0.814  1.00  0.00     0.019 C 
HETATM   21  C7  UNL     1      -1.500   1.393   1.726  1.00  0.00     0.019 C 
HETATM   22  C8  UNL     1      -3.706   0.948   2.446  1.00  0.00     0.019 C 
ENDBRANCH   8  19
ENDBRANCH   1   7
BRANCH   5  23
HETATM   23  C20 UNL     1       0.887  -1.113  -2.999  1.00  0.00     0.408 C 
HETATM   24  F1  UNL     1       0.161  -0.417  -3.995  1.00  0.00    -0.169 F 
HETATM   25  F2  UNL     1       2.070  -1.401  -3.678  1.00  0.00    -0.169 F 
HETATM   26  F3  UNL     1       0.234  -2.286  -2.862  1.00  0.00    -0.169 F 
ENDBRANCH   5  23
BRANCH   4  27
HETATM   27  C12 UNL     1       3.111  -0.769  -0.574  1.00  0.00     0.105 C 
HETATM   28  C13 UNL     1       3.939  -0.060  -1.615  1.00  0.00     0.034 C 
BRANCH  27  29
HETATM   29  C14 UNL     1       3.817  -0.524   0.708  1.00  0.00     0.067 C 
HETATM   30  C15 UNL     1       3.523  -1.301   1.917  1.00  0.00     0.042 C 
HETATM   31  C16 UNL     1       5.332  -0.710   0.451  1.00  0.00     0.042 C 
BRANCH  29  32
HETATM   32  N5  UNL     1       3.699   0.886   1.132  1.00  0.00    -0.276 N 
HETATM   33  C17 UNL     1       4.363   1.529   2.103  1.00  0.00     0.202 A 
HETATM   34  N6  UNL     1       3.984   2.801   2.189  1.00  0.00    -0.346 N 
HETATM   35  C18 UNL     1       3.049   2.973   1.243  1.00  0.00     0.198 A 
ATOM     36  H6  UNL     1       4.333   3.503   2.842  1.00  0.00     0.167 HD
HETATM   37  N7  UNL     1       2.890   1.792   0.609  1.00  0.00    -0.292 N 
ATOM     38  H7  UNL     1       2.242   1.623  -0.160  1.00  0.00     0.188 HD
ENDBRANCH  29  32
ENDBRANCH  27  29
ENDBRANCH   4  27
TORSDOF 6
