REMARK  4 active torsions:
REMARK  status: ('A' for Active; 'I' for Inactive)
REMARK    1  A    between atoms: C2_2  and  N1_3 
REMARK       I    between atoms: N1_3  and  C3_5 
REMARK       I    between atoms: C3_5  and  N2_7 
REMARK    2  A    between atoms: N2_7  and  C4_9 
REMARK    3  A    between atoms: C5_10  and  C6_11 
REMARK       I    between atoms: C6_11  and  N3_13 
REMARK    4  A    between atoms: N3_13  and  C7_15 
ROOT
HETATM    1  C4  UNL     1       0.849   1.269  -0.413  1.00  0.00     0.069 A 
HETATM    2  C5  UNL     1      -0.441   1.151   0.024  1.00  0.00     0.100 A 
HETATM    3  S1  UNL     1      -1.219   2.494  -0.679  1.00  0.00    -0.086 SA
HETATM    4  C11 UNL     1       0.096   3.177  -1.510  1.00  0.00    -0.005 A 
HETATM    5  C12 UNL     1       1.122   2.331  -1.215  1.00  0.00     0.017 A 
HETATM    6  C13 UNL     1       2.343   2.890  -1.936  1.00  0.00     0.206 C 
HETATM    7  F1  UNL     1       3.473   2.721  -1.202  1.00  0.00    -0.244 F 
HETATM    8  C14 UNL     1       2.021   4.340  -2.073  1.00  0.00     0.047 C 
HETATM    9  C15 UNL     1       0.550   4.306  -2.406  1.00  0.00     0.050 C 
ENDROOT
BRANCH   1  10
HETATM   10  N2  UNL     1       1.869   0.289  -0.023  1.00  0.00    -0.307 N 
HETATM   11  C3  UNL     1       2.102  -0.864  -0.813  1.00  0.00     0.320 C 
HETATM   12  N1  UNL     1       3.057  -1.843  -0.508  1.00  0.00    -0.343 N 
HETATM   13  O1  UNL     1       1.403  -1.007  -1.849  1.00  0.00    -0.247 OA
ATOM     14  H1  UNL     1       3.627  -1.733   0.331  1.00  0.00     0.164 HD
ATOM     15  H2  UNL     1       2.416   0.439   0.825  1.00  0.00     0.170 HD
BRANCH  12  16
HETATM   16  C2  UNL     1       3.260  -3.005  -1.346  1.00  0.00     0.120 C 
HETATM   17  C1  UNL     1       1.999  -3.842  -1.460  1.00  0.00     0.026 C 
ENDBRANCH  12  16
ENDBRANCH   1  10
BRANCH   2  18
HETATM   18  C6  UNL     1      -1.020   0.112   0.895  1.00  0.00     0.261 C 
HETATM   19  O2  UNL     1      -0.254  -0.789   1.299  1.00  0.00    -0.267 OA
HETATM   20  N3  UNL     1      -2.384   0.139   1.254  1.00  0.00    -0.348 N 
ATOM     21  H3  UNL     1      -2.971   0.895   0.900  1.00  0.00     0.163 HD
BRANCH  20  22
HETATM   22  C7  UNL     1      -2.974  -0.855   2.096  1.00  0.00     0.022 C 
HETATM   23  C8  UNL     1      -4.459  -0.548   2.301  1.00  0.00     0.037 C 
HETATM   24  C9  UNL     1      -2.853  -2.248   1.556  1.00  0.00     0.037 C 
HETATM   25  C10 UNL     1      -2.357  -0.852   3.480  1.00  0.00     0.037 C 
ENDBRANCH  20  22
ENDBRANCH   2  18
TORSDOF 4
