REMARK  7 active torsions:
REMARK  status: ('A' for Active; 'I' for Inactive)
REMARK    1  A    between atoms: C3_3  and  C14_25 
REMARK    2  A    between atoms: N1_4  and  C4_6 
REMARK    3  A    between atoms: C7_9  and  N2_10 
REMARK    4  A    between atoms: N2_10  and  C8_12 
REMARK    5  A    between atoms: C8_12  and  N3_14 
REMARK    6  A    between atoms: N3_14  and  N4_16 
REMARK    7  A    between atoms: C9_19  and  C10_20 
ROOT
HETATM    1  C1  UNL     1       2.222   0.429   2.637  1.00  0.00     0.019 C 
HETATM    2  C2  UNL     1       2.705   0.525   1.531  1.00  0.00    -0.064 C 
HETATM    3  C3  UNL     1       3.267   0.618   0.212  1.00  0.00     0.067 C 
HETATM    4  N1  UNL     1       2.567   0.593  -0.872  1.00  0.00    -0.351 N 
ATOM      5  H1  UNL     1       3.034   0.664  -1.776  1.00  0.00     0.166 HD
ENDROOT
BRANCH   3   6
HETATM    6  C14 UNL     1       4.740   0.752   0.067  1.00  0.00     0.044 A 
HETATM    7  C15 UNL     1       5.533  -0.415   0.661  1.00  0.00     0.012 A 
HETATM    8  C16 UNL     1       5.573   0.925   1.298  1.00  0.00     0.012 A 
ENDBRANCH   3   6
BRANCH   4   9
HETATM    9  C4  UNL     1       1.147   0.467  -0.820  1.00  0.00     0.056 A 
HETATM   10  C5  UNL     1       0.444   1.446  -0.168  1.00  0.00     0.033 A 
HETATM   11  C6  UNL     1      -0.938   1.312  -0.123  1.00  0.00     0.033 A 
HETATM   12  C7  UNL     1      -1.606   0.243  -0.704  1.00  0.00     0.055 A 
HETATM   13  C9  UNL     1      -0.857  -0.747  -1.367  1.00  0.00     0.068 A 
HETATM   14  C13 UNL     1       0.507  -0.603  -1.404  1.00  0.00     0.081 A 
HETATM   15 CL1  UNL     1       1.430  -1.847  -2.235  1.00  0.00    -0.080 Cl
BRANCH  12  16
HETATM   16  N2  UNL     1      -2.993   0.125  -0.672  1.00  0.00    -0.331 N 
ATOM     17  H2  UNL     1      -3.307  -0.657  -1.247  1.00  0.00     0.168 HD
BRANCH  16  18
HETATM   18  C8  UNL     1      -4.053   0.760  -0.089  1.00  0.00     0.190 C 
HETATM   19  S1  UNL     1      -5.576   0.126  -0.466  1.00  0.00    -0.039 SA
BRANCH  18  20
HETATM   20  N3  UNL     1      -4.121   1.855   0.777  1.00  0.00    -0.283 N 
ATOM     21  H3  UNL     1      -3.266   2.321   1.080  1.00  0.00     0.188 HD
BRANCH  20  22
HETATM   22  N4  UNL     1      -5.407   2.324   1.241  1.00  0.00    -0.343 N 
ATOM     23  H42 UNL     1      -6.252   1.846   0.928  1.00  0.00     0.176 HD
ATOM     24  H41 UNL     1      -5.457   3.123   1.873  1.00  0.00     0.176 HD
ENDBRANCH  20  22
ENDBRANCH  18  20
ENDBRANCH  16  18
ENDBRANCH  12  16
BRANCH  13  25
HETATM   25  C10 UNL     1      -1.544  -1.851  -1.964  1.00  0.00    -0.063 C 
HETATM   26  C11 UNL     1      -2.137  -2.799  -2.454  1.00  0.00    -0.105 C 
HETATM   27  C12 UNL     1      -2.861  -3.935  -3.020  1.00  0.00     0.112 C 
ENDBRANCH  13  25
ENDBRANCH   4   9
TORSDOF 7
