REMARK  3 active torsions:
REMARK  status: ('A' for Active; 'I' for Inactive)
REMARK    1  A    between atoms: C1_4  and  C2_6 
REMARK    2  A    between atoms: N3_8  and  C4_9 
REMARK    3  A    between atoms: C4_9  and  C5_10 
ROOT
HETATM    1  C2  UNL     1      -2.190   0.242   0.051  1.00  0.00     0.033 A 
HETATM    2  C3  UNL     1      -0.897   0.733   0.003  1.00  0.00     0.107 A 
HETATM    3  N3  UNL     1      -0.140  -0.035  -0.792  1.00  0.00    -0.348 N 
HETATM    4  C9  UNL     1      -0.959  -1.030  -1.258  1.00  0.00     0.088 A 
HETATM    5  S1  UNL     1      -1.051  -2.419  -2.238  1.00  0.00    -0.064 SA
HETATM    6  C10 UNL     1      -2.693  -2.813  -2.010  1.00  0.00     0.054 A 
HETATM    7 BR1  UNL     1      -3.711  -4.275  -2.753  1.00  0.00    -0.043 Br
HETATM    8  C11 UNL     1      -3.129  -1.835  -1.163  1.00  0.00     0.042 A 
HETATM    9  C12 UNL     1      -2.227  -0.904  -0.769  1.00  0.00     0.015 A 
ENDROOT
BRANCH   3  10
HETATM   10  C4  UNL     1       1.245   0.159  -1.108  1.00  0.00     0.162 C 
BRANCH  10  11
HETATM   11  C5  UNL     1       2.187  -0.562  -0.223  1.00  0.00     0.204 C 
HETATM   12  C6  UNL     1       2.064  -0.146   1.218  1.00  0.00     0.036 C 
HETATM   13  C7  UNL     1       2.992   1.079   1.216  1.00  0.00     0.029 C 
HETATM   14  C8  UNL     1       4.148   0.544   0.400  1.00  0.00     0.233 C 
HETATM   15  N4  UNL     1       3.563  -0.290  -0.599  1.00  0.00    -0.069 N 
ATOM     16  H42 UNL     1       4.100  -1.142  -0.762  1.00  0.00     0.277 HD
ATOM     17  H41 UNL     1       3.642   0.106  -1.536  1.00  0.00     0.277 HD
ENDBRANCH  10  11
ENDBRANCH   3  10
BRANCH   1  18
HETATM   18  C1  UNL     1      -3.273   0.837   0.822  1.00  0.00     0.122 C 
HETATM   19  N1  UNL     1      -4.426   0.268   0.770  1.00  0.00    -0.387 N 
ATOM     20  H12 UNL     1      -5.184   0.685   1.310  1.00  0.00     0.157 HD
ATOM     21  H11 UNL     1      -4.554  -0.569   0.202  1.00  0.00     0.157 HD
HETATM   22  N2  UNL     1      -3.097   1.989   1.604  1.00  0.00    -0.082 NA
ENDBRANCH   1  18
TORSDOF 3
