REMARK  5 active torsions:
REMARK  status: ('A' for Active; 'I' for Inactive)
REMARK    1  A    between atoms: C2_2  and  C3_3 
REMARK    2  A    between atoms: C2_2  and  C8_8 
REMARK    3  A    between atoms: C2_2  and  C11_22 
REMARK    4  A    between atoms: C3_3  and  C4_4 
REMARK    5  A    between atoms: C9_11  and  N2_12 
REMARK       I    between atoms: N2_12  and  C10_14 
ROOT
HETATM    1  C8  UNL     1       1.169   0.003   0.063  1.00  0.00     0.171 A 
HETATM    2  N1  UNL     1       2.027   0.429   1.023  1.00  0.00    -0.169 N 
ATOM      3  H1  UNL     1       1.797   0.533   2.011  1.00  0.00     0.186 HD
HETATM    4  C9  UNL     1       3.225   0.694   0.477  1.00  0.00     0.706 A 
HETATM    5  N5  UNL     1       3.089   0.425  -0.827  1.00  0.00    -0.089 N 
ATOM      6  H5  UNL     1       3.820   0.521  -1.532  1.00  0.00     0.213 HD
HETATM    7  O1  UNL     1       1.877   0.022  -1.048  1.00  0.00    -0.208 OA
ENDROOT
BRANCH   1   8
HETATM    8  C2  UNL     1      -0.263  -0.401   0.228  1.00  0.00     0.031 C 
HETATM    9  C1  UNL     1      -0.248  -1.138   1.582  1.00  0.00     0.025 C 
BRANCH   8  10
HETATM   10  C3  UNL     1      -0.548  -1.327  -0.879  1.00  0.00     0.022 C 
BRANCH  10  11
HETATM   11  C4  UNL     1      -1.805  -2.082  -0.928  1.00  0.00    -0.013 C 
HETATM   12  C5  UNL     1      -1.798  -2.947  -2.210  1.00  0.00     0.005 C 
HETATM   13  C6  UNL     1      -1.294  -4.087  -1.311  1.00  0.00     0.001 C 
HETATM   14  C7  UNL     1      -1.966  -3.354  -0.183  1.00  0.00     0.005 C 
ENDBRANCH  10  11
ENDBRANCH   8  10
BRANCH   8  15
HETATM   15  C11 UNL     1      -1.038   0.825   0.392  1.00  0.00     0.036 C 
HETATM   16  C12 UNL     1      -2.485   0.664   0.794  1.00  0.00     0.009 C 
HETATM   17  C13 UNL     1      -2.855   1.887   1.648  1.00  0.00     0.001 C 
HETATM   18  C14 UNL     1      -2.419   3.159   0.965  1.00  0.00     0.003 C 
HETATM   19  C15 UNL     1      -2.058   2.895  -0.458  1.00  0.00     0.037 C 
HETATM   20  C16 UNL     1      -0.923   1.902  -0.617  1.00  0.00     0.175 C 
HETATM   21  F1  UNL     1      -0.912   1.546  -1.927  1.00  0.00    -0.249 F 
ENDBRANCH   8  15
ENDBRANCH   1   8
BRANCH   4  22
HETATM   22  N2  UNL     1       4.281   1.109   1.073  1.00  0.00    -0.162 N 
HETATM   23  C10 UNL     1       5.506   1.366   0.431  1.00  0.00     0.200 C 
HETATM   24  N3  UNL     1       5.679   2.156  -0.572  1.00  0.00    -0.373 N 
HETATM   25  N4  UNL     1       6.670   0.689   0.929  1.00  0.00    -0.063 NA
ATOM     26  H32 UNL     1       4.852   2.637  -0.926  1.00  0.00     0.158 HD
ATOM     27  H31 UNL     1       6.567   2.342  -1.038  1.00  0.00     0.158 HD
ATOM     28  H2  UNL     1       4.230   1.263   2.080  1.00  0.00     0.187 HD
ENDBRANCH   4  22
TORSDOF 5
