REMARK  3 active torsions:
REMARK  status: ('A' for Active; 'I' for Inactive)
REMARK    1  A    between atoms: C3_4  and  N1_5 
REMARK       I    between atoms: N1_5  and  C4_7 
REMARK       I    between atoms: C4_7  and  N2_9 
REMARK    2  A    between atoms: N2_9  and  C5_11 
REMARK    3  A    between atoms: C8_14  and  C9_15 
ROOT
HETATM    1  N1  UNL     1      -1.325  -0.352   0.984  1.00  0.00    -0.301 N 
ATOM      2  H1  UNL     1      -0.858  -0.729   1.809  1.00  0.00     0.171 HD
HETATM    3  C4  UNL     1      -0.578   0.048  -0.130  1.00  0.00     0.321 C 
HETATM    4  O1  UNL     1      -1.171   0.516  -1.154  1.00  0.00    -0.247 OA
HETATM    5  N2  UNL     1       0.831  -0.064  -0.130  1.00  0.00    -0.338 N 
ATOM      6  H2  UNL     1       1.301  -0.440   0.693  1.00  0.00     0.164 HD
ENDROOT
BRANCH   1   7
HETATM    7  C3  UNL     1      -2.763  -0.226   0.955  1.00  0.00     0.101 A 
HETATM    8  S1  UNL     1      -3.738   0.370  -0.304  1.00  0.00    -0.075 SA
HETATM    9  C2  UNL     1      -5.265   0.194   0.418  1.00  0.00    -0.011 A 
HETATM   10  C1  UNL     1      -6.617   0.533  -0.144  1.00  0.00     0.057 C 
HETATM   11  C13 UNL     1      -4.972  -0.337   1.651  1.00  0.00    -0.025 A 
HETATM   12  C12 UNL     1      -3.667  -0.553   1.925  1.00  0.00     0.074 A 
HETATM   13  C14 UNL     1      -6.089  -0.659   2.651  1.00  0.00     0.051 C 
HETATM   14 CL1  UNL     1      -3.105  -1.240   3.483  1.00  0.00    -0.081 Cl
ENDBRANCH   1   7
BRANCH   5  15
HETATM   15  C5  UNL     1       1.635   0.350  -1.292  1.00  0.00     0.086 C 
HETATM   16  C6  UNL     1       2.478   1.524  -0.813  1.00  0.00     0.026 C 
HETATM   17  C7  UNL     1       3.648   0.910  -0.050  1.00  0.00     0.015 C 
HETATM   18  C8  UNL     1       4.629   0.430  -1.113  1.00  0.00     0.075 C 
HETATM   19  C10 UNL     1       3.880  -0.285  -2.212  1.00  0.00     0.015 C 
HETATM   20  C11 UNL     1       2.522  -0.772  -1.767  1.00  0.00     0.026 C 
BRANCH  18  21
HETATM   21  C9  UNL     1       5.628  -0.428  -0.459  1.00  0.00     0.235 C 
HETATM   22  N3  UNL     1       5.222  -1.604   0.216  1.00  0.00    -0.062 NA
HETATM   23  O2  UNL     1       6.837  -0.137  -0.485  1.00  0.00    -0.277 OA
ENDBRANCH  18  21
ENDBRANCH   5  15
TORSDOF 3
