REMARK  8 active torsions:
REMARK  status: ('A' for Active; 'I' for Inactive)
REMARK    1  A    between atoms: C2_2  and  O1_3 
REMARK    2  A    between atoms: C2_2  and  C3_5 
REMARK    3  A    between atoms: C3_5  and  C4_6 
REMARK    4  A    between atoms: C4_6  and  C6_8 
REMARK    5  A    between atoms: C6_8  and  C8_10 
REMARK    6  A    between atoms: C8_10  and  C9_12 
REMARK    7  A    between atoms: C13_16  and  O3_18 
REMARK    8  A    between atoms: C16_21  and  O4_23 
ROOT
HETATM    1  C9  UNL     1      -1.150  -0.265  -0.219  1.00  0.00     0.048 C 
HETATM    2  C10 UNL     1      -1.383  -0.562  -1.662  1.00  0.00     0.026 C 
HETATM    3  C11 UNL     1      -1.643  -1.410   0.630  1.00  0.00     0.023 C 
HETATM    4  C12 UNL     1      -3.100  -1.646   0.574  1.00  0.00     0.038 C 
HETATM    5  C13 UNL     1      -3.961  -0.428   0.622  1.00  0.00     0.057 C 
HETATM    6  C14 UNL     1      -5.228  -0.728  -0.170  1.00  0.00     0.045 C 
HETATM    7  C15 UNL     1      -3.381   0.814   0.100  1.00  0.00     0.076 C 
HETATM    8  C16 UNL     1      -1.913   0.993   0.148  1.00  0.00     0.071 C 
HETATM    9  C17 UNL     1      -1.578   2.097  -0.865  1.00  0.00     0.047 C 
ENDROOT
BRANCH   1  10
HETATM   10  C8  UNL     1       0.287  -0.100   0.134  1.00  0.00     0.142 C 
HETATM   11  O2  UNL     1       0.646   0.999   0.595  1.00  0.00    -0.297 OA
BRANCH  10  12
HETATM   12  C6  UNL     1       1.339  -1.099  -0.002  1.00  0.00     0.056 C 
HETATM   13  C7  UNL     1       1.511  -1.644  -1.393  1.00  0.00     0.018 C 
BRANCH  12  14
HETATM   14  C4  UNL     1       2.694  -0.640   0.470  1.00  0.00    -0.005 C 
HETATM   15  C5  UNL     1       2.731  -0.305   1.920  1.00  0.00     0.011 C 
BRANCH  14  16
HETATM   16  C3  UNL     1       3.341   0.409  -0.343  1.00  0.00     0.036 C 
BRANCH  16  17
HETATM   17  C2  UNL     1       4.792   0.561   0.043  1.00  0.00     0.114 C 
HETATM   18  C1  UNL     1       5.439   1.649  -0.828  1.00  0.00     0.039 C 
BRANCH  17  19
HETATM   19  O1  UNL     1       4.974   0.922   1.369  1.00  0.00    -0.396 OA
ATOM     20  H1  UNL     1       4.574   0.249   1.908  1.00  0.00     0.210 HD
ENDBRANCH  17  19
ENDBRANCH  16  17
ENDBRANCH  14  16
ENDBRANCH  12  14
ENDBRANCH  10  12
ENDBRANCH   1  10
BRANCH   8  21
HETATM   21  O4  UNL     1      -1.545   1.471   1.393  1.00  0.00    -0.389 OA
ATOM     22  H4  UNL     1      -2.023   2.259   1.623  1.00  0.00     0.210 HD
ENDBRANCH   8  21
BRANCH   5  23
HETATM   23  O3  UNL     1      -4.405  -0.218   1.950  1.00  0.00    -0.390 OA
ATOM     24  H3  UNL     1      -4.953   0.557   1.981  1.00  0.00     0.210 HD
ENDBRANCH   5  23
TORSDOF 8
