REMARK  6 active torsions:
REMARK  status: ('A' for Active; 'I' for Inactive)
REMARK    1  A    between atoms: C2_2  and  C3_3 
REMARK    2  A    between atoms: C3_3  and  S1_5 
REMARK    3  A    between atoms: S1_5  and  C5_6 
REMARK    4  A    between atoms: C5_6  and  C6_7 
REMARK       I    between atoms: C6_7  and  N1_9 
REMARK    5  A    between atoms: N1_9  and  N2_11 
REMARK    6  A    between atoms: N2_11  and  C7_12 
ROOT
HETATM    1  C7  UNL     1      -1.606  -0.307  -0.418  1.00  0.00     0.309 C 
HETATM    2  N3  UNL     1      -1.875   0.633   0.651  1.00  0.00    -0.054 N 
ATOM      3  H31 UNL     1      -1.085   0.762   1.284  1.00  0.00     0.279 HD
ATOM      4  H32 UNL     1      -2.536   0.279   1.343  1.00  0.00     0.279 HD
HETATM    5  C8  UNL     1      -2.317   1.882   0.008  1.00  0.00     0.235 C 
HETATM    6  C9  UNL     1      -3.688   2.173   0.582  1.00  0.00     0.031 C 
HETATM    7  C10 UNL     1      -4.658   1.254  -0.146  1.00  0.00     0.028 C 
HETATM    8  C11 UNL     1      -4.649  -0.115   0.383  1.00  0.00    -0.030 C 
HETATM    9  C12 UNL     1      -3.835  -1.155   0.281  1.00  0.00    -0.018 C 
HETATM   10  C13 UNL     1      -2.572  -1.473  -0.383  1.00  0.00     0.014 C 
HETATM   11  C14 UNL     1      -2.711  -2.026  -1.777  1.00  0.00     0.023 C 
HETATM   12  C15 UNL     1      -1.885  -2.571   0.444  1.00  0.00     0.023 C 
ENDROOT
BRANCH   1  13
HETATM   13  N2  UNL     1      -0.256  -0.818  -0.240  1.00  0.00    -0.104 NA
BRANCH  13  14
HETATM   14  N1  UNL     1       0.703   0.174  -0.147  1.00  0.00    -0.271 N 
HETATM   15  C6  UNL     1       1.043   1.072  -1.182  1.00  0.00     0.242 C 
HETATM   16  O1  UNL     1       0.469   1.025  -2.287  1.00  0.00    -0.271 OA
ATOM     17  H1  UNL     1       1.203   0.264   0.737  1.00  0.00     0.185 HD
BRANCH  15  18
HETATM   18  C5  UNL     1       2.113   2.085  -0.913  1.00  0.00     0.178 C 
BRANCH  18  19
HETATM   19  S1  UNL     1       2.892   1.732   0.704  1.00  0.00    -0.155 SA
BRANCH  19  20
HETATM   20  C3  UNL     1       3.854   0.194   0.605  1.00  0.00     0.043 C 
HETATM   21  C4  UNL     1       4.390  -0.241   1.939  1.00  0.00     0.021 C 
BRANCH  20  22
HETATM   22  C2  UNL     1       5.060   0.411  -0.320  1.00  0.00     0.010 C 
HETATM   23  C1  UNL     1       5.865  -0.860  -0.487  1.00  0.00     0.006 C 
ENDBRANCH  20  22
ENDBRANCH  19  20
ENDBRANCH  18  19
ENDBRANCH  15  18
ENDBRANCH  13  14
ENDBRANCH   1  13
TORSDOF 6
