REMARK  19 active torsions:
REMARK  status: ('A' for Active; 'I' for Inactive)
REMARK    1  A    between atoms: C2_2  and  C4_4 
REMARK    2  A    between atoms: C5_5  and  C6_6 
REMARK    3  A    between atoms: C6_6  and  N1_7 
REMARK    4  A    between atoms: N1_7  and  C8_9 
REMARK    5  A    between atoms: C8_9  and  C10_11 
REMARK    6  A    between atoms: C8_9  and  C13_18 
REMARK    7  A    between atoms: C10_11  and  O2_13 
REMARK    8  A    between atoms: O2_13  and  C11_14 
REMARK    9  A    between atoms: C11_14  and  C12_15 
REMARK   10  A    between atoms: C12_15  and  O3_16 
REMARK   11  A    between atoms: C13_18  and  O4_19 
REMARK   12  A    between atoms: C13_18  and  O5_21 
REMARK   13  A    between atoms: C16_29  and  N4_30 
REMARK   14  A    between atoms: C20_36  and  C21_37 
REMARK   15  A    between atoms: C21_37  and  O7_38 
REMARK   16  A    between atoms: C21_37  and  N6_40 
REMARK   17  A    between atoms: N6_40  and  C22_42 
REMARK   18  A    between atoms: C23_43  and  C24_44 
REMARK   19  A    between atoms: C26_51  and  C27_52 
REMARK       I    between atoms: C27_52  and  N9_54 
ROOT
HETATM    1  C27 UNL     1      -5.587  -0.839   2.016  1.00  0.00     0.285 C 
HETATM    2  O10 UNL     1      -4.653  -0.132   2.554  1.00  0.00    -0.265 OA
HETATM    3  N9  UNL     1      -6.418  -1.482   2.939  1.00  0.00    -0.258 N 
ATOM      4  H9  UNL     1      -7.186  -2.066   2.608  1.00  0.00     0.181 HD
HETATM    5  C28 UNL     1      -6.199  -1.327   4.347  1.00  0.00     0.184 C 
HETATM    6  N10 UNL     1      -6.002  -1.201   5.479  1.00  0.00    -0.172 NA
ENDROOT
BRANCH   1   7
HETATM    7  C26 UNL     1      -5.685  -0.901   0.571  1.00  0.00     0.148 A 
HETATM    8  C22 UNL     1      -4.793  -0.224  -0.257  1.00  0.00     0.103 A 
HETATM    9  C23 UNL     1      -5.151  -0.478  -1.542  1.00  0.00     0.154 A 
HETATM   10  N7  UNL     1      -6.247  -1.298  -1.498  1.00  0.00    -0.290 N 
HETATM   11  N8  UNL     1      -6.557  -1.545  -0.215  1.00  0.00    -0.289 N 
ATOM     12  H7  UNL     1      -6.747  -1.662  -2.309  1.00  0.00     0.187 HD
HETATM   13  C25 UNL     1      -7.672  -2.384   0.222  1.00  0.00     0.178 C 
BRANCH   8  14
HETATM   14  N6  UNL     1      -3.698   0.611   0.223  1.00  0.00    -0.332 N 
ATOM     15  H6  UNL     1      -3.836   1.591   0.468  1.00  0.00     0.168 HD
BRANCH  14  16
HETATM   16  C21 UNL     1      -2.436  -0.013   0.329  1.00  0.00     0.155 C 
BRANCH  16  17
HETATM   17  C20 UNL     1      -1.235   0.534   0.520  1.00  0.00     0.071 A 
HETATM   18  C4  UNL     1      -0.103  -0.231   0.651  1.00  0.00    -0.007 A 
HETATM   19  C5  UNL     1       1.121   0.235   0.135  1.00  0.00    -0.002 A 
HETATM   20  C14 UNL     1       1.097   1.490  -0.469  1.00  0.00     0.113 A 
HETATM   21  N2  UNL     1       0.023   2.261  -0.586  1.00  0.00    -0.258 N 
HETATM   22  C15 UNL     1       0.103   3.477  -1.151  1.00  0.00     0.346 A 
HETATM   23  C19 UNL     1      -1.170   1.801  -0.094  1.00  0.00     0.146 A 
HETATM   24  O6  UNL     1       1.201   3.866  -1.591  1.00  0.00    -0.246 OA
HETATM   25  N3  UNL     1      -0.998   4.272  -1.242  1.00  0.00    -0.141 N 
HETATM   26  C16 UNL     1      -2.188   3.843  -0.763  1.00  0.00     0.686 A 
ATOM     27  H3  UNL     1      -0.926   5.194  -1.673  1.00  0.00     0.189 HD
HETATM   28  N5  UNL     1      -2.201   2.621  -0.213  1.00  0.00    -0.175 N 
ATOM     29  H5  UNL     1      -3.095   2.290   0.150  1.00  0.00     0.186 HD
BRANCH  18  30
HETATM   30  C2  UNL     1      -0.136  -1.342   1.340  1.00  0.00    -0.076 C 
HETATM   31  C1  UNL     1       0.915  -2.308   1.669  1.00  0.00     0.044 C 
HETATM   32  C3  UNL     1      -1.251  -1.494   2.448  1.00  0.00     0.044 C 
ENDBRANCH  18  30
BRANCH  19  33
HETATM   33  C6  UNL     1       2.386  -0.502   0.148  1.00  0.00     0.314 C 
BRANCH  33  34
HETATM   34  N1  UNL     1       3.478   0.335  -0.416  1.00  0.00     0.112 N 
HETATM   35  C7  UNL     1       3.883   1.316   0.537  1.00  0.00     0.312 C 
BRANCH  34  36
HETATM   36  C8  UNL     1       4.493  -0.447  -0.988  1.00  0.00     0.290 C 
HETATM   37  C9  UNL     1       3.974  -1.318  -2.145  1.00  0.00     0.066 C 
BRANCH  36  38
HETATM   38  C10 UNL     1       5.236  -1.363  -0.098  1.00  0.00     0.303 C 
HETATM   39  O1  UNL     1       4.984  -1.404   1.110  1.00  0.00    -0.262 OA
BRANCH  38  40
HETATM   40  O2  UNL     1       6.194  -2.148  -0.647  1.00  0.00    -0.317 OA
BRANCH  40  41
HETATM   41  C11 UNL     1       7.034  -3.056  -0.089  1.00  0.00     0.204 C 
BRANCH  41  42
HETATM   42  C12 UNL     1       8.060  -2.479   0.820  1.00  0.00     0.191 C 
BRANCH  42  43
HETATM   43  O3  UNL     1       7.508  -1.823   1.881  1.00  0.00    -0.399 OA
ATOM     44  H3  UNL     1       8.163  -1.454   2.462  1.00  0.00     0.209 HD
ENDBRANCH  42  43
ENDBRANCH  41  42
ENDBRANCH  40  41
ENDBRANCH  38  40
ENDBRANCH  36  38
BRANCH  36  45
HETATM   45  C13 UNL     1       5.506   0.481  -1.672  1.00  0.00     0.302 C 
BRANCH  45  46
HETATM   46  O4  UNL     1       6.507  -0.300  -2.272  1.00  0.00    -0.368 OA
ATOM     47  H4  UNL     1       7.134   0.274  -2.695  1.00  0.00     0.212 HD
ENDBRANCH  45  46
BRANCH  45  48
HETATM   48  O5  UNL     1       6.158   1.316  -0.797  1.00  0.00    -0.368 OA
ATOM     49  H5  UNL     1       6.785   1.890  -1.220  1.00  0.00     0.212 HD
ENDBRANCH  45  48
ENDBRANCH  36  45
ENDBRANCH  34  36
ENDBRANCH  33  34
ENDBRANCH  19  33
BRANCH  26  50
HETATM   50  N4  UNL     1      -3.339   4.654  -0.842  1.00  0.00    -0.214 N 
HETATM   51  C17 UNL     1      -4.812   4.734  -0.596  1.00  0.00     0.161 A 
HETATM   52  C18 UNL     1      -4.025   5.882  -1.151  1.00  0.00     0.161 A 
ENDBRANCH  26  50
ENDBRANCH  16  17
BRANCH  16  53
HETATM   53  O7  UNL     1      -2.479  -1.439   0.220  1.00  0.00    -0.345 OA
ATOM     54  H7  UNL     1      -3.335  -1.829   0.084  1.00  0.00     0.219 HD
ENDBRANCH  16  53
ENDBRANCH  14  16
ENDBRANCH   8  14
BRANCH   9  55
HETATM   55  C24 UNL     1      -4.532  -0.019  -2.779  1.00  0.00     0.230 C 
HETATM   56  O8  UNL     1      -5.045  -0.382  -3.869  1.00  0.00    -0.643 OA
HETATM   57  O9  UNL     1      -3.437   0.773  -2.832  1.00  0.00    -0.643 OA
ENDBRANCH   9  55
ENDBRANCH   1   7
TORSDOF 19
