REMARK  13 active torsions:
REMARK  status: ('A' for Active; 'I' for Inactive)
REMARK    1  A    between atoms: C2_2  and  N1_3 
REMARK       I    between atoms: N1_3  and  C3_5 
REMARK    2  A    between atoms: C3_5  and  C4_7 
REMARK    3  A    between atoms: C4_7  and  C5_9 
REMARK    4  A    between atoms: C5_9  and  C6_10 
REMARK    5  A    between atoms: C6_10  and  C7_12 
REMARK    6  A    between atoms: N5_19  and  C8_20 
REMARK    7  A    between atoms: C9_22  and  N6_23 
REMARK    8  A    between atoms: N6_23  and  S1_25 
REMARK    9  A    between atoms: S1_25  and  C10_28 
REMARK   10  A    between atoms: C13_31  and  N7_32 
REMARK   11  A    between atoms: C18_43  and  N12_44 
REMARK   12  A    between atoms: N12_44  and  C19_46 
REMARK   13  A    between atoms: C21_50  and  O8_51 
ROOT
HETATM    1  C10 UNL     1      -1.359  -1.532   0.778  1.00  0.00     0.106 A 
HETATM    2  C11 UNL     1      -1.248  -2.174  -0.435  1.00  0.00     0.030 A 
HETATM    3  C12 UNL     1      -2.195  -1.999  -1.393  1.00  0.00     0.031 A 
HETATM    4  C13 UNL     1      -3.309  -1.173  -1.199  1.00  0.00     0.043 A 
HETATM    5  C17 UNL     1      -3.371  -0.557   0.027  1.00  0.00     0.061 A 
HETATM    6  C18 UNL     1      -2.444  -0.692   1.042  1.00  0.00     0.074 A 
ENDROOT
BRANCH   1   7
HETATM    7  S1  UNL     1      -0.110  -1.758   1.949  1.00  0.00     0.263 S 
HETATM    8  O5  UNL     1      -0.619  -2.239   3.275  1.00  0.00    -0.200 OA
HETATM    9  O6  UNL     1       0.923  -2.696   1.394  1.00  0.00    -0.200 OA
BRANCH   7  10
HETATM   10  N6  UNL     1       0.759  -0.264   2.262  1.00  0.00    -0.283 N 
ATOM     11  H6  UNL     1       0.814   0.216   3.160  1.00  0.00     0.175 HD
BRANCH  10  12
HETATM   12  C9  UNL     1       1.387   0.174   1.023  1.00  0.00     0.284 A 
HETATM   13  C8  UNL     1       2.683   0.857   1.017  1.00  0.00     0.299 A 
HETATM   14  O4  UNL     1       1.413   1.572   0.881  1.00  0.00    -0.331 OA
BRANCH  13  15
HETATM   15  N5  UNL     1       3.384   0.851  -0.261  1.00  0.00    -0.222 N 
HETATM   16  C7  UNL     1       4.605   0.319  -0.426  1.00  0.00     0.189 A 
HETATM   17  N2  UNL     1       4.904   0.488  -1.741  1.00  0.00    -0.265 N 
HETATM   18  N3  UNL     1       3.905   1.099  -2.350  1.00  0.00    -0.226 N 
ATOM     19  H2  UNL     1       5.770   0.188  -2.190  1.00  0.00     0.190 HD
HETATM   20  N4  UNL     1       2.978   1.320  -1.444  1.00  0.00    -0.222 N 
ATOM     21  H3  UNL     1       3.860   1.352  -3.337  1.00  0.00     0.210 HD
ATOM     22  H4  UNL     1       2.084   1.780  -1.618  1.00  0.00     0.210 HD
BRANCH  16  23
HETATM   23  C6  UNL     1       5.459  -0.323   0.570  1.00  0.00     0.203 C 
HETATM   24  O3  UNL     1       5.068  -0.385   1.753  1.00  0.00    -0.289 OA
BRANCH  23  25
HETATM   25  C5  UNL     1       6.774  -0.899   0.218  1.00  0.00     0.176 C 
BRANCH  25  26
HETATM   26  C4  UNL     1       7.759   0.195   0.015  1.00  0.00     0.223 C 
HETATM   27  O2  UNL     1       7.378   1.372   0.131  1.00  0.00    -0.287 OA
BRANCH  26  28
HETATM   28  C3  UNL     1       9.156  -0.069  -0.319  1.00  0.00     0.287 C 
HETATM   29  N1  UNL     1      10.044   1.016  -0.535  1.00  0.00    -0.355 N 
ATOM     30  H1  UNL     1       9.704   1.975  -0.457  1.00  0.00     0.162 HD
HETATM   31  O1  UNL     1       9.601  -1.238  -0.422  1.00  0.00    -0.264 OA
BRANCH  29  32
HETATM   32  C2  UNL     1      11.413   0.769  -0.861  1.00  0.00     0.118 C 
HETATM   33  C1  UNL     1      11.540  -0.024  -2.137  1.00  0.00     0.026 C 
ENDBRANCH  29  32
ENDBRANCH  26  28
ENDBRANCH  25  26
ENDBRANCH  23  25
ENDBRANCH  16  23
ENDBRANCH  13  15
ENDBRANCH  10  12
ENDBRANCH   7  10
ENDBRANCH   1   7
BRANCH   6  34
HETATM   34  N12 UNL     1      -2.566  -0.034   2.282  1.00  0.00    -0.191 N 
ATOM     35  H12 UNL     1      -1.843  -0.132   2.994  1.00  0.00     0.184 HD
BRANCH  34  36
HETATM   36  C19 UNL     1      -3.720   0.772   2.524  1.00  0.00     0.676 C 
HETATM   37  N13 UNL     1      -3.837   1.963   2.085  1.00  0.00    -0.224 N 
HETATM   38  C20 UNL     1      -4.960   2.798   2.298  1.00  0.00     0.171 C 
ATOM     39  H13 UNL     1      -3.063   2.343   1.539  1.00  0.00     0.177 HD
HETATM   40  C21 UNL     1      -5.913   2.434   3.371  1.00  0.00     0.155 C 
HETATM   41  C22 UNL     1      -5.746   1.096   3.998  1.00  0.00     0.174 C 
HETATM   42  N14 UNL     1      -4.819   0.242   3.297  1.00  0.00    -0.220 N 
HETATM   43  C23 UNL     1      -4.947  -1.219   3.337  1.00  0.00     0.168 C 
BRANCH  40  44
HETATM   44  O8  UNL     1      -7.256   2.490   2.909  1.00  0.00    -0.392 OA
ATOM     45  H8  UNL     1      -7.867   2.256   3.597  1.00  0.00     0.210 HD
ENDBRANCH  40  44
ENDBRANCH  34  36
ENDBRANCH   6  34
BRANCH   4  46
HETATM   46  N7  UNL     1      -4.267  -0.985  -2.179  1.00  0.00    -0.274 N 
HETATM   47  C14 UNL     1      -5.571  -1.682  -2.305  1.00  0.00     0.344 C 
HETATM   48  O7  UNL     1      -5.965  -2.590  -1.564  1.00  0.00    -0.245 OA
HETATM   49  N8  UNL     1      -6.178  -1.090  -3.395  1.00  0.00    -0.224 N 
HETATM   50  C15 UNL     1      -5.831   0.347  -3.159  1.00  0.00     0.199 C 
HETATM   51  N11 UNL     1      -6.752  -1.320  -4.598  1.00  0.00    -0.003 NA
HETATM   52  C16 UNL     1      -4.324  -0.088  -3.372  1.00  0.00     0.227 C 
HETATM   53  N9  UNL     1      -4.430  -0.912  -4.523  1.00  0.00    -0.297 N 
HETATM   54  N10 UNL     1      -5.544  -0.828  -5.365  1.00  0.00    -0.011 NA
ATOM     55  H9  UNL     1      -3.684  -1.574  -4.739  1.00  0.00     0.179 HD
ENDBRANCH   4  46
TORSDOF 13
