REMARK  15 active torsions:
REMARK  status: ('A' for Active; 'I' for Inactive)
REMARK    1  A    between atoms: C4_6  and  N1_7 
REMARK    2  A    between atoms: N2_12  and  C6_14 
REMARK    3  A    between atoms: C6_14  and  O3_15 
REMARK    4  A    between atoms: C7_17  and  O4_18 
REMARK    5  A    between atoms: C7_17  and  N3_20 
REMARK    6  A    between atoms: C9_26  and  C10_27 
REMARK    7  A    between atoms: C10_27  and  O6_28 
REMARK    8  A    between atoms: C10_27  and  N5_30 
REMARK    9  A    between atoms: N5_30  and  C11_32 
REMARK   10  A    between atoms: C11_32  and  O7_33 
REMARK   11  A    between atoms: C11_32  and  O10_53 
REMARK   12  A    between atoms: O7_33  and  C12_34 
REMARK   13  A    between atoms: N7_41  and  N8_43 
REMARK   14  A    between atoms: C16_45  and  C17_47 
REMARK   15  A    between atoms: O10_53  and  S1_54 
ROOT
HETATM    1  C10 UNL     1      -0.572   1.278   1.602  1.00  0.00     0.256 C 
ENDROOT
BRANCH   1   2
HETATM    2  C9  UNL     1      -0.204   0.099   2.416  1.00  0.00     0.269 C 
HETATM    3  C8  UNL     1      -0.260  -1.243   1.847  1.00  0.00     0.139 C 
HETATM    4  N3  UNL     1      -0.853  -1.960   1.037  1.00  0.00    -0.319 N 
HETATM    5  N4  UNL     1       0.827  -1.477   2.747  1.00  0.00    -0.250 N 
ATOM      6  H3  UNL     1      -0.481  -2.909   1.014  1.00  0.00     0.169 HD
HETATM    7  O5  UNL     1       1.127  -0.167   2.659  1.00  0.00    -0.261 OA
ATOM      8  H4  UNL     1       1.209  -2.284   3.240  1.00  0.00     0.196 HD
BRANCH   4   9
HETATM    9  C7  UNL     1      -1.901  -1.785   0.153  1.00  0.00     0.194 C 
HETATM   10  C6  UNL     1      -3.193  -1.965   0.478  1.00  0.00     0.192 C 
BRANCH  10  11
HETATM   11  N2  UNL     1      -4.229  -1.778  -0.453  1.00  0.00    -0.338 N 
HETATM   12  C5  UNL     1      -5.191  -0.957  -0.401  1.00  0.00     0.035 C 
HETATM   13  C4  UNL     1      -5.329  -0.028   0.753  1.00  0.00     0.328 C 
HETATM   14  C21 UNL     1      -6.240  -0.856  -1.453  1.00  0.00     0.059 C 
HETATM   15  C3  UNL     1      -6.690  -0.322   1.327  1.00  0.00     0.295 C 
HETATM   16  O1  UNL     1      -7.723  -0.407   0.435  1.00  0.00    -0.314 OA
HETATM   17  O2  UNL     1      -6.787  -0.467   2.565  1.00  0.00    -0.262 OA
HETATM   18  C2  UNL     1      -7.633  -0.926  -0.872  1.00  0.00     0.137 C 
HETATM   19  C1  UNL     1      -8.123  -2.364  -0.878  1.00  0.00     0.041 C 
HETATM   20  C22 UNL     1      -6.097   0.349  -2.334  1.00  0.00     0.018 C 
ATOM     21  H2  UNL     1      -4.202  -2.381  -1.275  1.00  0.00     0.167 HD
BRANCH  13  22
HETATM   22  N1  UNL     1      -5.388   1.352   0.259  1.00  0.00    -0.061 N 
ATOM     23  H13 UNL     1      -6.151   1.517  -0.398  1.00  0.00     0.275 HD
ATOM     24  H12 UNL     1      -5.686   2.025   0.966  1.00  0.00     0.275 HD
ATOM     25  H11 UNL     1      -4.466   1.551  -0.130  1.00  0.00     0.275 HD
ENDBRANCH  13  22
ENDBRANCH  10  11
BRANCH  10  26
HETATM   26  O3  UNL     1      -3.538  -2.351   1.782  1.00  0.00    -0.343 OA
ATOM     27  H3  UNL     1      -2.838  -2.477   2.411  1.00  0.00     0.219 HD
ENDBRANCH  10  26
BRANCH   9  28
HETATM   28  O4  UNL     1      -1.648  -1.403  -1.156  1.00  0.00    -0.343 OA
ATOM     29  H4  UNL     1      -0.735  -1.276  -1.386  1.00  0.00     0.219 HD
ENDBRANCH   9  28
ENDBRANCH   4   9
ENDBRANCH   1   2
BRANCH   1  30
HETATM   30  O6  UNL     1      -2.006   1.286   1.576  1.00  0.00    -0.374 OA
ATOM     31  H6  UNL     1      -2.242   2.043   1.053  1.00  0.00     0.212 HD
ENDBRANCH   1  30
BRANCH   1  32
HETATM   32  N5  UNL     1      -0.151   1.440   0.295  1.00  0.00    -0.346 N 
ATOM     33  H5  UNL     1      -0.856   1.452  -0.442  1.00  0.00     0.160 HD
BRANCH  32  34
HETATM   34  C11 UNL     1       1.201   1.590  -0.072  1.00  0.00     0.387 C 
BRANCH  34  35
HETATM   35  O7  UNL     1       1.897   0.413   0.040  1.00  0.00    -0.330 OA
BRANCH  35  36
HETATM   36  C12 UNL     1       2.475  -0.037  -1.141  1.00  0.00     0.204 C 
HETATM   37  C13 UNL     1       2.125  -1.483  -1.459  1.00  0.00     0.143 C 
HETATM   38  C14 UNL     1       3.200  -1.788  -2.472  1.00  0.00     0.225 C 
HETATM   39  O8  UNL     1       3.142  -2.491  -3.503  1.00  0.00    -0.273 OA
HETATM   40  N6  UNL     1       4.359  -1.081  -2.000  1.00  0.00    -0.313 N 
HETATM   41  C15 UNL     1       3.966  -0.182  -0.972  1.00  0.00     0.128 C 
ATOM     42  H6  UNL     1       5.310  -1.205  -2.347  1.00  0.00     0.170 HD
HETATM   43  N7  UNL     1       4.632   0.409  -0.074  1.00  0.00    -0.285 N 
ATOM     44  H7  UNL     1       4.096   1.009   0.553  1.00  0.00     0.188 HD
BRANCH  43  45
HETATM   45  N8  UNL     1       5.981   0.348   0.167  1.00  0.00    -0.284 N 
HETATM   46  C16 UNL     1       6.608  -0.709   0.557  1.00  0.00     0.167 C 
HETATM   47  N9  UNL     1       5.915  -1.923   0.770  1.00  0.00    -0.078 NA
ATOM     48  H8  UNL     1       6.526   1.199   0.028  1.00  0.00     0.188 HD
BRANCH  46  49
HETATM   49  C17 UNL     1       8.063  -0.673   0.799  1.00  0.00     0.142 A 
HETATM   50  C18 UNL     1       8.907   0.401   0.668  1.00  0.00     0.062 A 
HETATM   51  C19 UNL     1      10.177  -0.024   0.996  1.00  0.00     0.117 A 
HETATM   52  N10 UNL     1      10.042  -1.326   1.307  1.00  0.00    -0.272 N 
HETATM   53  O9  UNL     1       8.804  -1.682   1.185  1.00  0.00    -0.235 OA
ATOM     54  H10 UNL     1      10.803  -1.941   1.596  1.00  0.00     0.194 HD
ENDBRANCH  46  49
ENDBRANCH  43  45
ENDBRANCH  35  36
ENDBRANCH  34  35
BRANCH  34  55
HETATM   55  O10 UNL     1       1.840   2.624   0.656  1.00  0.00    -0.225 OA
BRANCH  55  56
HETATM   56  S1  UNL     1       2.401   3.839  -0.316  1.00  0.00     0.265 S 
HETATM   57  C20 UNL     1       4.017   4.377   0.245  1.00  0.00     0.194 C 
HETATM   58  O11 UNL     1       2.516   3.482  -1.750  1.00  0.00    -0.199 OA
HETATM   59  O12 UNL     1       1.508   5.070  -0.232  1.00  0.00    -0.199 OA
ENDBRANCH  55  56
ENDBRANCH  34  55
ENDBRANCH  32  34
ENDBRANCH   1  32
TORSDOF 15
