REMARK  15 active torsions:
REMARK  status: ('A' for Active; 'I' for Inactive)
REMARK    1  A    between atoms: C2_2  and  O1_3 
REMARK    2  A    between atoms: O1_3  and  N1_4 
REMARK    3  A    between atoms: N1_4  and  S1_6 
REMARK    4  A    between atoms: S1_6  and  C3_9 
REMARK    5  A    between atoms: C3_9  and  C4_10 
REMARK    6  A    between atoms: C3_9  and  C23_56 
REMARK    7  A    between atoms: C4_10  and  O4_11 
REMARK    8  A    between atoms: O4_11  and  C5_12 
REMARK    9  A    between atoms: C5_12  and  N4_18 
REMARK   10  A    between atoms: N2_13  and  N3_15 
REMARK   11  A    between atoms: N4_18  and  N5_20 
REMARK       I    between atoms: N5_20  and  C6_22 
REMARK   12  A    between atoms: C6_22  and  C7_24 
REMARK   13  A    between atoms: C7_24  and  N6_25 
REMARK   14  A    between atoms: N9_33  and  C12_35 
REMARK   15  A    between atoms: C14_43  and  C15_44 
ROOT
HETATM    1  N6  UNL     1      -2.335   0.581   1.267  1.00  0.00    -0.292 N 
HETATM    2  C8  UNL     1      -2.274  -0.385   2.181  1.00  0.00     0.135 A 
HETATM    3  C9  UNL     1      -1.689  -0.178   3.490  1.00  0.00     0.119 C 
HETATM    4  N7  UNL     1      -1.236   0.005   4.538  1.00  0.00    -0.190 NA
HETATM    5  C10 UNL     1      -2.797  -1.626   1.846  1.00  0.00     0.131 A 
HETATM    6  N8  UNL     1      -3.352  -1.885   0.657  1.00  0.00    -0.345 N 
ATOM      7  H8  UNL     1      -3.724  -2.813   0.454  1.00  0.00     0.167 HD
HETATM    8  C11 UNL     1      -3.416  -0.891  -0.287  1.00  0.00     0.176 A 
HETATM    9  N9  UNL     1      -3.956  -1.182  -1.416  1.00  0.00    -0.322 N 
ATOM     10  H9  UNL     1      -4.300  -2.136  -1.525  1.00  0.00     0.169 HD
HETATM   11  C22 UNL     1      -2.898   0.333   0.049  1.00  0.00     0.293 A 
HETATM   12  O6  UNL     1      -2.949   1.274  -0.813  1.00  0.00    -0.264 OA
ENDROOT
BRANCH   1  13
HETATM   13  C7  UNL     1      -1.794   1.897   1.525  1.00  0.00     0.237 C 
BRANCH  13  14
HETATM   14  C6  UNL     1      -0.367   1.979   1.085  1.00  0.00     0.254 C 
HETATM   15  N5  UNL     1       0.323   0.882   0.555  1.00  0.00    -0.266 N 
ATOM     16  H5  UNL     1      -0.206   0.012   0.488  1.00  0.00     0.190 HD
HETATM   17  O5  UNL     1       0.210   3.083   1.207  1.00  0.00    -0.270 OA
BRANCH  15  18
HETATM   18  N4  UNL     1       1.625   0.830   0.113  1.00  0.00    -0.261 N 
ATOM     19  H4  UNL     1       1.773   0.404  -0.802  1.00  0.00     0.190 HD
BRANCH  18  20
HETATM   20  C5  UNL     1       2.774   1.294   0.772  1.00  0.00     0.253 C 
HETATM   21  N2  UNL     1       2.944   1.181   2.070  1.00  0.00    -0.271 N 
ATOM     22  H2  UNL     1       3.807   1.547   2.472  1.00  0.00     0.190 HD
BRANCH  20  23
HETATM   23  O4  UNL     1       3.820   1.908   0.125  1.00  0.00    -0.318 OA
BRANCH  23  24
HETATM   24  C4  UNL     1       5.183   1.762   0.318  1.00  0.00     0.212 C 
BRANCH  24  25
HETATM   25  C3  UNL     1       5.772   0.431   0.046  1.00  0.00     0.256 C 
BRANCH  25  26
HETATM   26  S1  UNL     1       7.551   0.474   0.363  1.00  0.00     0.265 S 
HETATM   27  O2  UNL     1       8.176   1.517  -0.504  1.00  0.00    -0.203 OA
HETATM   28  O3  UNL     1       7.807   0.795   1.805  1.00  0.00    -0.203 OA
BRANCH  26  29
HETATM   29  N1  UNL     1       8.250  -1.042   0.019  1.00  0.00    -0.191 N 
ATOM     30  H1  UNL     1       8.316  -1.785   0.714  1.00  0.00     0.207 HD
BRANCH  29  31
HETATM   31  O1  UNL     1       8.707  -1.185  -1.233  1.00  0.00    -0.271 OA
BRANCH  31  32
HETATM   32  C2  UNL     1      10.118  -1.200  -1.122  1.00  0.00     0.197 C 
HETATM   33  C1  UNL     1      10.688  -1.360  -2.502  1.00  0.00     0.036 C 
ENDBRANCH  31  32
ENDBRANCH  29  31
ENDBRANCH  26  29
ENDBRANCH  25  26
BRANCH  25  34
HETATM   34  C23 UNL     1       5.261  -0.693   0.831  1.00  0.00     0.196 C 
HETATM   35  O7  UNL     1       5.759  -0.954   1.969  1.00  0.00    -0.647 OA
HETATM   36  O8  UNL     1       4.225  -1.499   0.357  1.00  0.00    -0.647 OA
ENDBRANCH  25  34
ENDBRANCH  24  25
ENDBRANCH  23  24
ENDBRANCH  20  23
BRANCH  21  37
HETATM   37  N3  UNL     1       2.032   0.601   2.922  1.00  0.00    -0.342 N 
ATOM     38  H32 UNL     1       1.175   0.241   2.503  1.00  0.00     0.176 HD
ATOM     39  H31 UNL     1       2.164   0.513   3.930  1.00  0.00     0.176 HD
ENDBRANCH  21  37
ENDBRANCH  18  20
ENDBRANCH  15  18
ENDBRANCH  13  14
ENDBRANCH   1  13
BRANCH   9  40
HETATM   40  C12 UNL     1      -4.124  -0.315  -2.527  1.00  0.00     0.135 A 
HETATM   41  N10 UNL     1      -3.129  -0.127  -3.364  1.00  0.00    -0.357 N 
HETATM   42  C13 UNL     1      -3.267   0.741  -4.493  1.00  0.00     0.262 A 
ATOM     43  H10 UNL     1      -2.243  -0.608  -3.206  1.00  0.00     0.162 HD
HETATM   44  N11 UNL     1      -4.573   1.348  -4.614  1.00  0.00    -0.318 N 
HETATM   45  N12 UNL     1      -5.600   1.122  -3.708  1.00  0.00    -0.298 N 
ATOM     46  H11 UNL     1      -4.748   1.972  -5.402  1.00  0.00     0.182 HD
HETATM   47  C14 UNL     1      -5.417   0.327  -2.693  1.00  0.00     0.125 A 
ATOM     48  H12 UNL     1      -6.502   1.581  -3.838  1.00  0.00     0.187 HD
BRANCH  47  49
HETATM   49  C15 UNL     1      -6.533   0.099  -1.757  1.00  0.00     0.107 A 
HETATM   50  N13 UNL     1      -6.559  -0.662  -0.692  1.00  0.00    -0.347 N 
HETATM   51  C16 UNL     1      -7.638  -0.753   0.029  1.00  0.00     0.050 A 
ATOM     52  H13 UNL     1      -5.727  -1.188  -0.425  1.00  0.00     0.167 HD
HETATM   53  C17 UNL     1      -7.807  -1.529   1.195  1.00  0.00     0.031 A 
HETATM   54  C21 UNL     1      -8.730  -0.025  -0.373  1.00  0.00     0.033 A 
HETATM   55  C18 UNL     1      -8.995  -1.522   1.841  1.00  0.00     0.002 A 
HETATM   56  C19 UNL     1     -10.117  -0.796   1.457  1.00  0.00     0.002 A 
HETATM   57  C20 UNL     1      -9.951  -0.035   0.314  1.00  0.00     0.021 A 
HETATM   58  S2  UNL     1      -8.114   0.749  -1.783  1.00  0.00    -0.068 SA
ENDBRANCH  47  49
ENDBRANCH   9  40
TORSDOF 15
