REMARK  7 active torsions:
REMARK  status: ('A' for Active; 'I' for Inactive)
REMARK    1  A    between atoms: C2_2  and  N1_3 
REMARK    2  A    between atoms: C8_11  and  N3_12 
REMARK    3  A    between atoms: N3_12  and  C9_14 
REMARK    4  A    between atoms: C9_14  and  C10_15 
REMARK    5  A    between atoms: C9_14  and  C17_23 
REMARK    6  A    between atoms: C13_18  and  O1_19 
REMARK    7  A    between atoms: C17_23  and  N4_25 
ROOT
HETATM    1  C9  UNL     1       0.653  -0.641   0.668  1.00  0.00     0.162 C 
ENDROOT
BRANCH   1   2
HETATM    2  N3  UNL     1      -0.421   0.011   0.009  1.00  0.00    -0.215 N 
ATOM      3  H3  UNL     1      -0.179   0.489  -0.859  1.00  0.00     0.178 HD
BRANCH   2   4
HETATM    4  C8  UNL     1      -1.644   0.081   0.352  1.00  0.00     0.681 A 
HETATM    5  N1  UNL     1      -2.537   0.750  -0.401  1.00  0.00    -0.188 N 
HETATM    6  C3  UNL     1      -3.837   0.847  -0.072  1.00  0.00     0.027 A 
HETATM    7  C4  UNL     1      -4.818   1.575  -0.890  1.00  0.00     0.069 C 
HETATM    8  C5  UNL     1      -4.279   0.229   1.096  1.00  0.00     0.050 A 
HETATM    9  C6  UNL     1      -3.371  -0.457   1.873  1.00  0.00     0.024 A 
HETATM   10  C7  UNL     1      -3.780  -1.136   3.129  1.00  0.00     0.068 C 
HETATM   11  N2  UNL     1      -2.081  -0.510   1.477  1.00  0.00    -0.196 N 
ATOM     12  H2  UNL     1      -1.412  -1.019   2.055  1.00  0.00     0.184 HD
BRANCH   5  13
HETATM   13  C2  UNL     1      -2.122   1.413  -1.633  1.00  0.00     0.143 C 
HETATM   14  C1  UNL     1      -2.245   0.467  -2.802  1.00  0.00     0.027 C 
ENDBRANCH   5  13
ENDBRANCH   2   4
ENDBRANCH   1   2
BRANCH   1  15
HETATM   15  C10 UNL     1       1.948   0.003   0.246  1.00  0.00    -0.033 A 
HETATM   16  C11 UNL     1       2.158   0.316  -1.081  1.00  0.00     0.012 A 
HETATM   17  C12 UNL     1       3.319   0.904  -1.539  1.00  0.00     0.037 A 
HETATM   18  C13 UNL     1       4.284   1.172  -0.588  1.00  0.00     0.068 A 
HETATM   19  C15 UNL     1       4.087   0.865   0.740  1.00  0.00     0.037 A 
HETATM   20  C16 UNL     1       2.924   0.278   1.184  1.00  0.00     0.012 A 
BRANCH  18  21
HETATM   21  O1  UNL     1       5.454   1.763  -1.037  1.00  0.00    -0.356 OA
HETATM   22  C14 UNL     1       6.516   2.080  -0.125  1.00  0.00     0.210 C 
ENDBRANCH  18  21
ENDBRANCH   1  15
BRANCH   1  23
HETATM   23  C17 UNL     1       0.784  -2.107   0.383  1.00  0.00     0.207 C 
HETATM   24  C18 UNL     1       0.999  -2.451  -1.058  1.00  0.00     0.042 C 
BRANCH  23  25
HETATM   25  N4  UNL     1       1.940  -2.644   1.114  1.00  0.00    -0.073 N 
ATOM     26  H43 UNL     1       2.798  -2.132   0.909  1.00  0.00     0.274 HD
ATOM     27  H42 UNL     1       1.890  -2.448   2.114  1.00  0.00     0.274 HD
ATOM     28  H41 UNL     1       2.029  -3.641   0.920  1.00  0.00     0.274 HD
ENDBRANCH  23  25
ENDBRANCH   1  23
TORSDOF 7
