REMARK  7 active torsions:
REMARK  status: ('A' for Active; 'I' for Inactive)
REMARK    1  A    between atoms: O1_2  and  C2_3 
REMARK    2  A    between atoms: C5_6  and  C6_7 
REMARK    3  A    between atoms: C6_7  and  N1_9 
REMARK    4  A    between atoms: N1_9  and  C8_11 
REMARK    5  A    between atoms: C8_11  and  N2_13 
REMARK    6  A    between atoms: N2_13  and  N3_15 
REMARK    7  A    between atoms: C9_17  and  C10_18 
ROOT
HETATM    1  C8  UNL     1       0.216  -1.187   0.416  1.00  0.00     0.187 C 
HETATM    2  S1  UNL     1       0.928  -2.679   0.409  1.00  0.00    -0.040 SA
ENDROOT
BRANCH   1   3
HETATM    3  N1  UNL     1      -1.188  -1.138   0.523  1.00  0.00    -0.358 N 
ATOM      4  H1  UNL     1      -1.735  -1.997   0.580  1.00  0.00     0.162 HD
BRANCH   3   5
HETATM    5  C6  UNL     1      -1.839   0.154   0.551  1.00  0.00     0.113 C 
HETATM    6  C7  UNL     1      -1.568   0.905   1.818  1.00  0.00     0.037 C 
BRANCH   5   7
HETATM    7  C5  UNL     1      -3.298   0.097   0.320  1.00  0.00    -0.036 A 
HETATM    8  C4  UNL     1      -4.256   0.806   0.962  1.00  0.00     0.012 A 
HETATM    9  C3  UNL     1      -5.608   0.644   0.643  1.00  0.00     0.037 A 
HETATM   10  C2  UNL     1      -6.020  -0.235  -0.329  1.00  0.00     0.068 A 
HETATM   11  C17 UNL     1      -5.056  -0.962  -0.991  1.00  0.00     0.037 A 
HETATM   12  C16 UNL     1      -3.736  -0.793  -0.668  1.00  0.00     0.012 A 
BRANCH  10  13
HETATM   13  O1  UNL     1      -7.376  -0.366  -0.617  1.00  0.00    -0.356 OA
HETATM   14  C1  UNL     1      -8.378   0.354   0.032  1.00  0.00     0.210 C 
ENDBRANCH  10  13
ENDBRANCH   5   7
ENDBRANCH   3   5
ENDBRANCH   1   3
BRANCH   1  15
HETATM   15  N2  UNL     1       1.064  -0.052   0.314  1.00  0.00    -0.277 N 
ATOM     16  H2  UNL     1       0.648   0.879   0.310  1.00  0.00     0.189 HD
BRANCH  15  17
HETATM   17  N3  UNL     1       2.458  -0.176   0.218  1.00  0.00    -0.309 N 
HETATM   18  C9  UNL     1       3.075   0.586  -0.602  1.00  0.00     0.120 C 
ATOM     19  H3  UNL     1       2.965  -0.855   0.786  1.00  0.00     0.186 HD
BRANCH  18  20
HETATM   20  C10 UNL     1       4.530   0.479  -0.722  1.00  0.00    -0.004 A 
HETATM   21  C11 UNL     1       5.242   1.279  -1.594  1.00  0.00     0.015 A 
HETATM   22  C12 UNL     1       6.609   1.190  -1.718  1.00  0.00     0.018 A 
HETATM   23  C13 UNL     1       7.259   0.248  -0.922  1.00  0.00     0.090 A 
HETATM   24  N4  UNL     1       6.584  -0.526  -0.081  1.00  0.00    -0.370 N 
HETATM   25  C14 UNL     1       7.267  -1.508   0.749  1.00  0.00     0.154 C 
HETATM   26  C15 UNL     1       5.247  -0.426   0.029  1.00  0.00     0.102 A 
ENDBRANCH  18  20
ENDBRANCH  15  17
ENDBRANCH   1  15
TORSDOF 7
