REMARK  6 active torsions:
REMARK  status: ('A' for Active; 'I' for Inactive)
REMARK    1  A    between atoms: C2_2  and  C4_4 
REMARK    2  A    between atoms: C4_4  and  N1_5 
REMARK       I    between atoms: C5_7  and  N3_9 
REMARK    3  A    between atoms: N3_9  and  C6_10 
REMARK    4  A    between atoms: C7_13  and  C8_14 
REMARK    5  A    between atoms: C14_20  and  O1_21 
REMARK    6  A    between atoms: O1_21  and  C15_22 
ROOT
HETATM    1  C6  UNL     1       0.461   0.069   0.628  1.00  0.00     0.262 A 
HETATM    2  N4  UNL     1      -0.474   0.955   0.072  1.00  0.00    -0.313 N 
ATOM      3  H4  UNL     1      -0.177   1.889  -0.211  1.00  0.00     0.170 HD
HETATM    4  C7  UNL     1      -1.746   0.590  -0.090  1.00  0.00     0.081 A 
HETATM    5  C14 UNL     1      -2.167  -0.678   0.286  1.00  0.00     0.112 A 
HETATM    6  C18 UNL     1      -1.267  -1.562   0.838  1.00  0.00     0.131 A 
HETATM    7  N5  UNL     1      -0.008  -1.161   0.984  1.00  0.00    -0.324 N 
ATOM      8  H5  UNL     1       0.655  -1.821   1.392  1.00  0.00     0.169 HD
ENDROOT
BRANCH   1   9
HETATM    9  N3  UNL     1       1.606   0.361   0.704  1.00  0.00    -0.338 NA
HETATM   10  C5  UNL     1       2.859   0.667   0.794  1.00  0.00     0.266 C 
HETATM   11  N1  UNL     1       3.634   0.654  -0.285  1.00  0.00    -0.353 N 
HETATM   12  N2  UNL     1       3.482   1.045   2.038  1.00  0.00    -0.049 NA
ATOM     13  H1  UNL     1       3.226   0.389  -1.181  1.00  0.00     0.163 HD
BRANCH  11  14
HETATM   14  C4  UNL     1       5.034   1.002  -0.232  1.00  0.00     0.127 C 
BRANCH  14  15
HETATM   15  C2  UNL     1       5.865  -0.168   0.273  1.00  0.00    -0.005 C 
HETATM   16  C1  UNL     1       7.293   0.262   0.305  1.00  0.00     0.011 C 
HETATM   17  C3  UNL     1       5.623  -1.313  -0.709  1.00  0.00     0.011 C 
ENDBRANCH  14  15
ENDBRANCH  11  14
ENDBRANCH   1   9
BRANCH   4  18
HETATM   18  C8  UNL     1      -2.744   1.548  -0.571  1.00  0.00    -0.006 A 
HETATM   19  C9  UNL     1      -2.812   2.780   0.054  1.00  0.00     0.014 A 
HETATM   20  C10 UNL     1      -3.757   3.701  -0.378  1.00  0.00     0.001 A 
HETATM   21  C11 UNL     1      -4.602   3.398  -1.403  1.00  0.00     0.000 A 
HETATM   22  C12 UNL     1      -4.545   2.164  -2.043  1.00  0.00     0.001 A 
HETATM   23  C13 UNL     1      -3.584   1.243  -1.592  1.00  0.00     0.014 A 
ENDBRANCH   4  18
BRANCH   5  24
HETATM   24  O1  UNL     1      -3.463  -0.999   0.086  1.00  0.00    -0.343 OA
BRANCH  24  25
HETATM   25  C15 UNL     1      -4.192  -2.135   0.389  1.00  0.00     0.121 C 
HETATM   26  C16 UNL     1      -5.647  -1.841   0.303  1.00  0.00     0.040 C 
HETATM   27  C17 UNL     1      -3.813  -3.302  -0.546  1.00  0.00     0.040 C 
ENDBRANCH  24  25
ENDBRANCH   5  24
TORSDOF 6
