REMARK  7 active torsions:
REMARK  status: ('A' for Active; 'I' for Inactive)
REMARK    1  A    between atoms: O1_2  and  C2_3 
REMARK    2  A    between atoms: C2_3  and  C3_4 
REMARK    3  A    between atoms: C3_4  and  C4_5 
REMARK    4  A    between atoms: C4_5  and  N1_6 
REMARK    5  A    between atoms: N1_6  and  C5_8 
REMARK    6  A    between atoms: C6_9  and  N2_10 
REMARK    7  A    between atoms: N2_10  and  C7_12 
ROOT
HETATM    1  C5  UNL     1       0.311   0.827  -0.223  1.00  0.00     0.086 A 
HETATM    2  C6  UNL     1      -0.994   0.412  -0.258  1.00  0.00     0.148 A 
HETATM    3  N3  UNL     1      -2.031   1.283  -0.068  1.00  0.00    -0.283 N 
ATOM      4  H3  UNL     1      -2.989   0.933  -0.101  1.00  0.00     0.188 HD
HETATM    5  N4  UNL     1      -1.820   2.563   0.157  1.00  0.00    -0.298 N 
ATOM      6  H4  UNL     1      -2.602   3.203   0.297  1.00  0.00     0.187 HD
HETATM    7  C14 UNL     1      -0.553   3.010   0.199  1.00  0.00     0.060 A 
HETATM    8  C15 UNL     1      -0.343   4.368   0.439  1.00  0.00     0.032 A 
HETATM    9  C16 UNL     1       0.944   4.850   0.486  1.00  0.00     0.002 A 
HETATM   10  C17 UNL     1       2.039   4.032   0.305  1.00  0.00     0.001 A 
HETATM   11  C18 UNL     1       1.821   2.692   0.069  1.00  0.00     0.016 A 
HETATM   12  C19 UNL     1       0.534   2.180   0.015  1.00  0.00     0.022 A 
ENDROOT
BRANCH   2  13
HETATM   13  N2  UNL     1      -1.239  -0.828  -0.475  1.00  0.00    -0.339 N 
ATOM     14  H2  UNL     1      -0.470  -1.483  -0.617  1.00  0.00     0.167 HD
BRANCH  13  15
HETATM   15  C7  UNL     1      -2.590  -1.293  -0.518  1.00  0.00     0.039 A 
HETATM   16  C8  UNL     1      -3.337  -1.213  -1.678  1.00  0.00     0.030 A 
HETATM   17  C9  UNL     1      -4.635  -1.664  -1.706  1.00  0.00     0.002 A 
HETATM   18  C10 UNL     1      -5.200  -2.201  -0.571  1.00  0.00     0.001 A 
HETATM   19  C11 UNL     1      -4.489  -2.299   0.607  1.00  0.00     0.009 A 
HETATM   20  C12 UNL     1      -3.188  -1.840   0.612  1.00  0.00    -0.035 A 
HETATM   21  C13 UNL     1      -2.372  -1.920   1.854  1.00  0.00     0.050 C 
ENDBRANCH  13  15
ENDBRANCH   2  13
BRANCH   1  22
HETATM   22  N1  UNL     1       1.306   0.084  -0.388  1.00  0.00    -0.386 N 
ATOM     23  H1  UNL     1       2.202   0.567  -0.328  1.00  0.00     0.159 HD
BRANCH  22  24
HETATM   24  C4  UNL     1       1.413  -1.305  -0.643  1.00  0.00     0.122 C 
BRANCH  24  25
HETATM   25  C3  UNL     1       2.860  -1.753  -0.756  1.00  0.00     0.046 C 
BRANCH  25  26
HETATM   26  C2  UNL     1       3.633  -1.486   0.490  1.00  0.00     0.168 C 
BRANCH  26  27
HETATM   27  O1  UNL     1       4.955  -1.875   0.466  1.00  0.00    -0.396 OA
HETATM   28  C1  UNL     1       5.733  -1.284  -0.497  1.00  0.00     0.201 C 
ENDBRANCH  26  27
ENDBRANCH  25  26
ENDBRANCH  24  25
ENDBRANCH  22  24
ENDBRANCH   1  22
TORSDOF 7
