REMARK  9 active torsions:
REMARK  status: ('A' for Active; 'I' for Inactive)
REMARK    1  A    between atoms: O1_2  and  C2_3 
REMARK    2  A    between atoms: C3_5  and  C4_6 
REMARK    3  A    between atoms: C4_6  and  O3_7 
REMARK    4  A    between atoms: C4_6  and  C5_9 
REMARK    5  A    between atoms: C6_11  and  O5_12 
REMARK    6  A    between atoms: C7_14  and  O6_15 
REMARK    7  A    between atoms: C8_18  and  O8_19 
REMARK    8  A    between atoms: C9_21  and  O9_22 
REMARK    9  A    between atoms: C10_24  and  O10_25 
ROOT
HETATM    1  C2  UNL     1      -1.904   0.724   0.050  1.00  0.00     0.290 C 
HETATM    2  O2  UNL     1      -0.686   0.524  -0.639  1.00  0.00    -0.348 OA
HETATM    3  C3  UNL     1      -0.342  -0.805  -0.392  1.00  0.00     0.189 C 
HETATM    4  C8  UNL     1      -1.146  -1.752  -1.268  1.00  0.00     0.181 C 
HETATM    5  C9  UNL     1      -2.448  -1.045  -1.583  1.00  0.00     0.183 C 
HETATM    6  C10 UNL     1      -2.886  -0.331  -0.327  1.00  0.00     0.204 C 
ENDROOT
BRANCH   3   7
HETATM    7  C4  UNL     1       1.118  -1.072  -0.609  1.00  0.00     0.205 C 
BRANCH   7   8
HETATM    8  O3  UNL     1       1.553  -0.816  -1.887  1.00  0.00    -0.388 OA
ATOM      9  H3  UNL     1       2.478  -0.985  -2.024  1.00  0.00     0.210 HD
ENDBRANCH   7   8
BRANCH   7  10
HETATM   10  C5  UNL     1       1.953  -0.338   0.441  1.00  0.00     0.297 C 
HETATM   11  O4  UNL     1       3.275  -0.701   0.394  1.00  0.00    -0.324 OA
HETATM   12  C6  UNL     1       4.044   0.443   0.447  1.00  0.00     0.315 C 
HETATM   13  C7  UNL     1       3.022   1.477   0.905  1.00  0.00     0.315 C 
HETATM   14  O7  UNL     1       1.870   1.019   0.227  1.00  0.00    -0.324 OA
BRANCH  12  15
HETATM   15  O5  UNL     1       4.469   0.768  -0.841  1.00  0.00    -0.367 OA
ATOM     16  H5  UNL     1       4.999   1.556  -0.805  1.00  0.00     0.212 HD
ENDBRANCH  12  15
BRANCH  13  17
HETATM   17  O6  UNL     1       2.768   1.316   2.261  1.00  0.00    -0.367 OA
ATOM     18  H6  UNL     1       2.131   1.960   2.546  1.00  0.00     0.212 HD
ENDBRANCH  13  17
ENDBRANCH   7  10
ENDBRANCH   3   7
BRANCH   4  19
HETATM   19  O8  UNL     1      -1.343  -2.925  -0.576  1.00  0.00    -0.390 OA
ATOM     20  H8  UNL     1      -1.845  -3.517  -1.123  1.00  0.00     0.210 HD
ENDBRANCH   4  19
BRANCH   1  21
HETATM   21  O1  UNL     1      -2.359   2.004  -0.048  1.00  0.00    -0.363 OA
HETATM   22  C1  UNL     1      -2.363   2.701   1.154  1.00  0.00     0.204 C 
ENDBRANCH   1  21
BRANCH   5  23
HETATM   23  O9  UNL     1      -3.422  -2.002  -1.869  1.00  0.00    -0.390 OA
ATOM     24  H9  UNL     1      -4.239  -1.559  -2.067  1.00  0.00     0.210 HD
ENDBRANCH   5  23
BRANCH   6  25
HETATM   25  O10 UNL     1      -3.008  -1.322   0.672  1.00  0.00    -0.388 OA
ATOM     26  H10 UNL     1      -3.634  -1.995   0.432  1.00  0.00     0.210 HD
ENDBRANCH   6  25
TORSDOF 9
