REMARK  8 active torsions:
REMARK  status: ('A' for Active; 'I' for Inactive)
REMARK    1  A    between atoms: C2_2  and  O1_3 
REMARK    2  A    between atoms: O1_3  and  C3_4 
REMARK    3  A    between atoms: C3_4  and  C4_5 
REMARK    4  A    between atoms: C3_4  and  N4_30 
REMARK    5  A    between atoms: C6_8  and  N1_9 
REMARK    6  A    between atoms: N1_9  and  C7_11 
REMARK    7  A    between atoms: C8_12  and  N2_13 
REMARK    8  A    between atoms: N2_13  and  C9_15 
ROOT
HETATM    1  C7  UNL     1      -0.242   1.548   1.197  1.00  0.00     0.120 A 
HETATM    2  C8  UNL     1      -1.538   1.830   0.798  1.00  0.00     0.114 A 
HETATM    3  C18 UNL     1      -1.538   3.013   1.505  1.00  0.00     0.252 A 
HETATM    4  O2  UNL     1      -2.311   3.978   1.743  1.00  0.00    -0.281 OA
HETATM    5  C19 UNL     1      -0.251   2.733   1.902  1.00  0.00     0.253 A 
HETATM    6  O3  UNL     1       0.633   3.286   2.620  1.00  0.00    -0.281 OA
ENDROOT
BRANCH   1   7
HETATM    7  N1  UNL     1       0.700   0.479   0.971  1.00  0.00    -0.331 N 
ATOM      8  H1  UNL     1       0.459  -0.500   1.126  1.00  0.00     0.168 HD
BRANCH   7   9
HETATM    9  C6  UNL     1       1.894   0.851   0.550  1.00  0.00     0.149 A 
HETATM   10  S1  UNL     1       2.485   2.415   0.234  1.00  0.00    -0.064 SA
HETATM   11  C5  UNL     1       4.063   1.989  -0.251  1.00  0.00     0.083 A 
HETATM   12  C4  UNL     1       4.044   0.629  -0.138  1.00  0.00     0.066 A 
HETATM   13  N3  UNL     1       2.933   0.064   0.270  1.00  0.00    -0.336 N 
ATOM     14  H3  UNL     1       2.866  -0.949   0.370  1.00  0.00     0.168 HD
BRANCH  12  15
HETATM   15  C3  UNL     1       5.292  -0.214  -0.478  1.00  0.00     0.269 C 
BRANCH  15  16
HETATM   16  O1  UNL     1       5.436  -1.194   0.484  1.00  0.00    -0.362 OA
BRANCH  16  17
HETATM   17  C2  UNL     1       5.301  -2.487   0.101  1.00  0.00     0.166 C 
HETATM   18  C1  UNL     1       6.264  -2.999  -0.937  1.00  0.00     0.033 C 
ENDBRANCH  16  17
ENDBRANCH  15  16
BRANCH  15  19
HETATM   19  N4  UNL     1       6.416   0.640  -0.483  1.00  0.00    -0.391 N 
HETATM   20  C20 UNL     1       6.795   1.262   0.736  1.00  0.00     0.145 C 
HETATM   21  C21 UNL     1       7.500   0.190  -1.262  1.00  0.00     0.145 C 
ENDBRANCH  15  19
ENDBRANCH  12  15
ENDBRANCH   7   9
ENDBRANCH   1   7
BRANCH   2  22
HETATM   22  N2  UNL     1      -2.508   1.187  -0.012  1.00  0.00    -0.380 N 
ATOM     23  H2  UNL     1      -2.515   1.407  -1.008  1.00  0.00     0.160 HD
BRANCH  22  24
HETATM   24  C9  UNL     1      -3.476   0.253   0.468  1.00  0.00     0.086 C 
HETATM   25  C10 UNL     1      -4.364   0.879   1.506  1.00  0.00     0.025 C 
HETATM   26  C11 UNL     1      -5.275  -0.143   2.143  1.00  0.00     0.003 C 
HETATM   27  C12 UNL     1      -5.541  -1.330   1.260  1.00  0.00     0.009 C 
HETATM   28  C13 UNL     1      -5.552  -0.974  -0.209  1.00  0.00    -0.043 C 
HETATM   29  C14 UNL     1      -6.731  -0.087  -0.557  1.00  0.00     0.015 C 
HETATM   30  C15 UNL     1      -5.736  -2.270  -0.973  1.00  0.00     0.015 C 
HETATM   31  C16 UNL     1      -4.236  -0.376  -0.651  1.00  0.00     0.012 C 
HETATM   32  C17 UNL     1      -4.493   0.670  -1.713  1.00  0.00     0.012 C 
ENDBRANCH  22  24
ENDBRANCH   2  22
TORSDOF 8
