REMARK  10 active torsions:
REMARK  status: ('A' for Active; 'I' for Inactive)
REMARK    1  A    between atoms: C3_3  and  C4_4 
REMARK    2  A    between atoms: C5_5  and  C6_6 
REMARK    3  A    between atoms: C6_6  and  C8_8 
REMARK    4  A    between atoms: C11_11  and  O1_12 
REMARK    5  A    between atoms: O1_12  and  C12_13 
REMARK    6  A    between atoms: C12_13  and  C13_15 
REMARK    7  A    between atoms: C13_15  and  C14_16 
REMARK    8  A    between atoms: C14_16  and  C15_17 
REMARK    9  A    between atoms: C21_25  and  O5_26 
REMARK   10  A    between atoms: C23_30  and  O7_31 
ROOT
HETATM    1  C8  UNL     1      -2.099  -0.876   0.613  1.00  0.00     0.035 C 
HETATM    2  C9  UNL     1      -1.043  -1.124  -0.410  1.00  0.00     0.048 C 
HETATM    3  C10 UNL     1       0.185  -0.310  -0.163  1.00  0.00     0.025 C 
HETATM    4  C11 UNL     1       1.238  -0.728   0.508  1.00  0.00     0.150 C 
HETATM    5  C18 UNL     1       1.205  -2.085   1.044  1.00  0.00     0.317 C 
HETATM    6  O3  UNL     1       2.190  -2.520   1.696  1.00  0.00    -0.257 OA
HETATM    7  O4  UNL     1       0.047  -2.827   0.792  1.00  0.00    -0.310 OA
HETATM    8  C19 UNL     1      -0.656  -2.570  -0.435  1.00  0.00     0.145 C 
HETATM    9  C20 UNL     1      -1.693  -3.578  -0.600  1.00  0.00     0.104 C 
HETATM   10  C21 UNL     1      -3.104  -3.149  -0.730  1.00  0.00     0.193 C 
HETATM   11  O6  UNL     1      -3.310  -1.888  -1.200  1.00  0.00    -0.344 OA
HETATM   12  C22 UNL     1      -3.404  -1.460   0.120  1.00  0.00     0.164 C 
HETATM   13  C23 UNL     1      -3.657  -2.846   0.648  1.00  0.00     0.209 C 
ENDROOT
BRANCH   4  14
HETATM   14  O1  UNL     1       2.366   0.055   0.724  1.00  0.00    -0.273 OA
BRANCH  14  15
HETATM   15  C12 UNL     1       3.447   0.094  -0.120  1.00  0.00     0.264 C 
HETATM   16  O2  UNL     1       3.424  -0.620  -1.154  1.00  0.00    -0.265 OA
BRANCH  15  17
HETATM   17  C13 UNL     1       4.652   0.930   0.110  1.00  0.00     0.112 C 
BRANCH  17  18
HETATM   18  C14 UNL     1       5.662   0.750  -0.996  1.00  0.00     0.013 C 
BRANCH  18  19
HETATM   19  C15 UNL     1       6.847   1.661  -0.642  1.00  0.00    -0.022 C 
HETATM   20  C16 UNL     1       7.881   1.511  -1.724  1.00  0.00     0.009 C 
HETATM   21  C17 UNL     1       7.372   1.331   0.722  1.00  0.00     0.009 C 
ENDBRANCH  18  19
ENDBRANCH  17  18
ENDBRANCH  15  17
ENDBRANCH  14  15
ENDBRANCH   4  14
BRANCH   1  22
HETATM   22  C6  UNL     1      -2.286   0.592   0.975  1.00  0.00     0.011 C 
HETATM   23  C7  UNL     1      -3.116   0.623   2.216  1.00  0.00     0.015 C 
BRANCH  22  24
HETATM   24  C5  UNL     1      -2.687   1.414  -0.147  1.00  0.00    -0.022 C 
HETATM   25  C4  UNL     1      -3.718   2.150  -0.390  1.00  0.00    -0.004 C 
BRANCH  25  26
HETATM   26  C3  UNL     1      -4.888   2.447   0.367  1.00  0.00    -0.005 C 
HETATM   27  C2  UNL     1      -5.855   3.260  -0.094  1.00  0.00    -0.031 C 
HETATM   28  C1  UNL     1      -5.655   3.844  -1.435  1.00  0.00     0.036 C 
ENDBRANCH  25  26
ENDBRANCH  22  24
ENDBRANCH   1  22
BRANCH  13  29
HETATM   29  O7  UNL     1      -2.828  -3.275   1.660  1.00  0.00    -0.387 OA
ATOM     30  H7  UNL     1      -3.175  -3.085   2.524  1.00  0.00     0.210 HD
ENDBRANCH  13  29
BRANCH  10  31
HETATM   31  O5  UNL     1      -3.935  -4.066  -1.371  1.00  0.00    -0.363 OA
ATOM     32  H5  UNL     1      -4.840  -3.791  -1.454  1.00  0.00     0.213 HD
ENDBRANCH  10  31
TORSDOF 10
