REMARK  11 active torsions:
REMARK  status: ('A' for Active; 'I' for Inactive)
REMARK    1  A    between atoms: C2_2  and  C3_3 
REMARK    2  A    between atoms: C3_3  and  C4_4 
REMARK    3  A    between atoms: C4_4  and  C5_6 
REMARK    4  A    between atoms: C6_7  and  O2_8 
REMARK    5  A    between atoms: C12_15  and  O3_16 
REMARK    6  A    between atoms: O3_16  and  C13_17 
REMARK    7  A    between atoms: C13_17  and  C14_19 
REMARK    8  A    between atoms: C15_20  and  C16_21 
REMARK    9  A    between atoms: C18_23  and  O5_24 
REMARK   10  A    between atoms: C20_26  and  O6_27 
REMARK   11  A    between atoms: C21_29  and  O7_30 
ROOT
HETATM    1  O3  UNL     1      -0.785  -0.794  -0.483  1.00  0.00    -0.312 OA
ENDROOT
BRANCH   1   2
HETATM    2  C12 UNL     1      -1.901  -1.629  -0.423  1.00  0.00     0.141 C 
HETATM    3  C8  UNL     1      -2.733  -1.606  -1.696  1.00  0.00     0.018 C 
HETATM    4  C7  UNL     1      -3.145  -0.205  -1.993  1.00  0.00     0.039 C 
HETATM    5  C9  UNL     1      -3.980  -2.362  -1.235  1.00  0.00     0.008 C 
HETATM    6  C6  UNL     1      -3.977   0.406  -0.916  1.00  0.00     0.130 C 
HETATM    7  C5  UNL     1      -3.299   0.283   0.421  1.00  0.00     0.091 C 
HETATM    8  C11 UNL     1      -2.918  -1.183   0.599  1.00  0.00     0.029 C 
HETATM    9  C10 UNL     1      -4.102  -2.086   0.249  1.00  0.00     0.008 C 
BRANCH   6  10
HETATM   10  O2  UNL     1      -4.153   1.765  -1.269  1.00  0.00    -0.395 OA
ATOM     11  H2  UNL     1      -4.581   1.843  -2.113  1.00  0.00     0.210 HD
ENDBRANCH   6  10
BRANCH   7  12
HETATM   12  C4  UNL     1      -4.126   0.694   1.558  1.00  0.00     0.137 C 
HETATM   13  O1  UNL     1      -4.408  -0.079   2.458  1.00  0.00    -0.297 OA
BRANCH  12  14
HETATM   14  C3  UNL     1      -4.666   2.084   1.675  1.00  0.00     0.105 C 
BRANCH  14  15
HETATM   15  C2  UNL     1      -5.464   2.244   2.916  1.00  0.00    -0.029 C 
HETATM   16  C1  UNL     1      -6.735   2.583   2.834  1.00  0.00     0.007 C 
ENDBRANCH  14  15
ENDBRANCH  12  14
ENDBRANCH   7  12
ENDBRANCH   1   2
BRANCH   1  17
HETATM   17  C13 UNL     1       0.472  -1.371  -0.262  1.00  0.00     0.283 C 
HETATM   18  O4  UNL     1       0.550  -2.603  -0.021  1.00  0.00    -0.260 OA
BRANCH  17  19
HETATM   19  C14 UNL     1       1.690  -0.589  -0.303  1.00  0.00     0.083 C 
HETATM   20  C15 UNL     1       2.850  -1.152  -0.094  1.00  0.00     0.017 C 
BRANCH  20  21
HETATM   21  C16 UNL     1       4.131  -0.471  -0.110  1.00  0.00    -0.031 A 
HETATM   22  C17 UNL     1       5.297  -1.165   0.125  1.00  0.00     0.051 A 
HETATM   23  C18 UNL     1       6.523  -0.528   0.112  1.00  0.00     0.104 A 
HETATM   24  C20 UNL     1       6.575   0.835  -0.142  1.00  0.00     0.133 A 
HETATM   25  C21 UNL     1       5.430   1.549  -0.379  1.00  0.00     0.104 A 
HETATM   26  C23 UNL     1       4.208   0.874  -0.359  1.00  0.00     0.051 A 
BRANCH  23  27
HETATM   27  O5  UNL     1       7.705  -1.212   0.347  1.00  0.00    -0.353 OA
HETATM   28  C19 UNL     1       7.710  -2.595   0.610  1.00  0.00     0.210 C 
ENDBRANCH  23  27
BRANCH  24  29
HETATM   29  O6  UNL     1       7.797   1.515  -0.163  1.00  0.00    -0.356 OA
ATOM     30  H6  UNL     1       7.833   2.448  -0.337  1.00  0.00     0.218 HD
ENDBRANCH  24  29
BRANCH  25  31
HETATM   31  O7  UNL     1       5.488   2.930  -0.637  1.00  0.00    -0.353 OA
HETATM   32  C22 UNL     1       4.268   3.641  -0.879  1.00  0.00     0.210 C 
ENDBRANCH  25  31
ENDBRANCH  20  21
ENDBRANCH  17  19
ENDBRANCH   1  17
TORSDOF 11
