REMARK  9 active torsions:
REMARK  status: ('A' for Active; 'I' for Inactive)
REMARK    1  A    between atoms: C2_2  and  S1_4 
REMARK    2  A    between atoms: S1_4  and  C4_5 
REMARK    3  A    between atoms: C5_6  and  N1_7 
REMARK    4  A    between atoms: N1_7  and  C6_9 
REMARK    5  A    between atoms: C11_17  and  S2_18 
REMARK    6  A    between atoms: S2_18  and  C12_19 
REMARK    7  A    between atoms: C12_19  and  C13_20 
REMARK    8  A    between atoms: C13_20  and  O2_21 
REMARK    9  A    between atoms: C13_20  and  N3_23 
ROOT
HETATM    1  C4  UNL     1      -2.026  -1.717  -1.390  1.00  0.00     0.113 A 
HETATM    2  C5  UNL     1      -1.739  -0.442  -0.907  1.00  0.00     0.126 A 
HETATM    3  N2  UNL     1      -0.463  -0.189  -0.586  1.00  0.00    -0.322 N 
ATOM      4  H2  UNL     1      -0.242   0.741  -0.231  1.00  0.00     0.169 HD
HETATM    5  C11 UNL     1       0.549  -1.068  -0.696  1.00  0.00     0.149 A 
HETATM    6  N4  UNL     1       0.229  -2.282  -1.165  1.00  0.00    -0.303 N 
ATOM      7  H4  UNL     1       0.972  -2.974  -1.261  1.00  0.00     0.171 HD
HETATM    8  C18 UNL     1      -1.017  -2.636  -1.515  1.00  0.00     0.268 A 
HETATM    9  O3  UNL     1      -1.259  -3.818  -1.959  1.00  0.00    -0.267 OA
ENDROOT
BRANCH   5  10
HETATM   10  S2  UNL     1       2.220  -0.611  -0.232  1.00  0.00    -0.086 SA
BRANCH  10  11
HETATM   11  C12 UNL     1       3.377  -1.934  -0.473  1.00  0.00     0.166 C 
BRANCH  11  12
HETATM   12  C13 UNL     1       4.735  -1.591  -0.106  1.00  0.00     0.123 C 
BRANCH  12  13
HETATM   13  O2  UNL     1       5.593  -2.559  -0.272  1.00  0.00    -0.349 OA
ATOM     14  H2  UNL     1       6.484  -2.334  -0.031  1.00  0.00     0.219 HD
ENDBRANCH  12  13
BRANCH  12  15
HETATM   15  N3  UNL     1       5.262  -0.407   0.390  1.00  0.00    -0.365 N 
HETATM   16  C14 UNL     1       6.737  -0.268   0.717  1.00  0.00     0.124 C 
HETATM   17  C15 UNL     1       7.083   1.120   0.234  1.00  0.00     0.021 C 
HETATM   18  C16 UNL     1       5.759   1.765  -0.104  1.00  0.00     0.021 C 
HETATM   19  C17 UNL     1       4.794   0.900   0.738  1.00  0.00     0.124 C 
ENDBRANCH  12  15
ENDBRANCH  11  12
ENDBRANCH  10  11
ENDBRANCH   5  10
BRANCH   2  20
HETATM   20  N1  UNL     1      -2.767   0.536  -0.805  1.00  0.00    -0.370 N 
ATOM     21  H1  UNL     1      -3.713   0.310  -1.114  1.00  0.00     0.161 HD
BRANCH  20  22
HETATM   22  C6  UNL     1      -2.485   1.833  -0.273  1.00  0.00     0.087 C 
HETATM   23  C7  UNL     1      -2.212   1.873   1.203  1.00  0.00     0.051 C 
HETATM   24  C8  UNL     1      -1.472   3.182   1.478  1.00  0.00     0.169 C 
HETATM   25  O1  UNL     1      -1.972   4.165   0.625  1.00  0.00    -0.391 OA
HETATM   26  C9  UNL     1      -3.335   4.026   0.376  1.00  0.00     0.169 C 
HETATM   27  C10 UNL     1      -3.627   2.819  -0.518  1.00  0.00     0.051 C 
ENDBRANCH  20  22
ENDBRANCH   2  20
BRANCH   1  28
HETATM   28  S1  UNL     1      -3.690  -2.156  -1.827  1.00  0.00    -0.117 SA
BRANCH  28  29
HETATM   29  C2  UNL     1      -4.630  -2.874  -0.490  1.00  0.00     0.044 C 
HETATM   30  C1  UNL     1      -4.922  -1.963   0.655  1.00  0.00     0.021 C 
HETATM   31  C3  UNL     1      -4.016  -4.143   0.056  1.00  0.00     0.021 C 
ENDBRANCH  28  29
ENDBRANCH   1  28
TORSDOF 9
