REMARK  12 active torsions:
REMARK  status: ('A' for Active; 'I' for Inactive)
REMARK    1  A    between atoms: C5_9  and  C6_10 
REMARK    2  A    between atoms: C6_10  and  O3_11 
REMARK    3  A    between atoms: C6_10  and  N2_13 
REMARK    4  A    between atoms: N2_13  and  N3_14 
REMARK    5  A    between atoms: N3_14  and  C7_16 
REMARK    6  A    between atoms: C7_16  and  C8_17 
REMARK    7  A    between atoms: C9_18  and  C10_19 
REMARK       I    between atoms: C10_19  and  N4_21 
REMARK    8  A    between atoms: N4_21  and  N5_23 
REMARK    9  A    between atoms: N7_28  and  S1_29 
REMARK   10  A    between atoms: S1_29  and  C11_32 
REMARK   11  A    between atoms: C11_32  and  C12_33 
REMARK   12  A    between atoms: C15_36  and  C16_37 
ROOT
HETATM    1  C8  UNL     1       0.701  -1.152   0.234  1.00  0.00     0.086 A 
HETATM    2  C9  UNL     1       0.204  -2.430   0.370  1.00  0.00     0.136 A 
HETATM    3  N6  UNL     1      -1.133  -2.288   0.215  1.00  0.00    -0.275 N 
ATOM      4  H6  UNL     1      -1.797  -3.061   0.263  1.00  0.00     0.188 HD
HETATM    5  N7  UNL     1      -1.478  -1.035  -0.005  1.00  0.00    -0.141 N 
HETATM    6  C18 UNL     1      -0.368  -0.279  -0.002  1.00  0.00     0.290 A 
HETATM    7  O7  UNL     1      -0.254   0.950  -0.170  1.00  0.00    -0.264 OA
ENDROOT
BRANCH   1   8
HETATM    8  C7  UNL     1       2.099  -0.754   0.338  1.00  0.00     0.140 C 
BRANCH   8   9
HETATM    9  N3  UNL     1       2.471   0.443   0.186  1.00  0.00    -0.243 N 
ATOM     10  H3  UNL     1       1.689   1.067  -0.013  1.00  0.00     0.201 HD
BRANCH   9  11
HETATM   11  N2  UNL     1       3.613   1.078   0.221  1.00  0.00    -0.298 NA
BRANCH  11  12
HETATM   12  C6  UNL     1       4.788   1.743   0.260  1.00  0.00     0.269 C 
BRANCH  12  13
HETATM   13  C5  UNL     1       6.149   1.270  -0.085  1.00  0.00     0.158 A 
HETATM   14  C4  UNL     1       6.407  -0.000  -0.529  1.00  0.00     0.271 A 
HETATM   15  C3  UNL     1       7.765  -0.358  -0.802  1.00  0.00     0.299 A 
HETATM   16  O2  UNL     1       5.507  -0.910  -0.722  1.00  0.00    -0.280 OA
HETATM   17  N1  UNL     1       8.722   0.548  -0.619  1.00  0.00    -0.310 N 
HETATM   18  O1  UNL     1       7.990  -1.519  -1.210  1.00  0.00    -0.264 OA
HETATM   19  C2  UNL     1       8.473   1.794  -0.189  1.00  0.00     0.080 A 
ATOM     20  H1  UNL     1       9.688   0.283  -0.814  1.00  0.00     0.170 HD
HETATM   21  C1  UNL     1       9.537   2.793  -0.002  1.00  0.00     0.089 C 
HETATM   22  N11 UNL     1       7.206   2.109   0.062  1.00  0.00    -0.338 N 
ATOM     23  H11 UNL     1       7.013   3.055   0.391  1.00  0.00     0.167 HD
ENDBRANCH  12  13
BRANCH  12  24
HETATM   24  O3  UNL     1       4.817   2.993   0.647  1.00  0.00    -0.332 OA
ATOM     25  H3  UNL     1       3.944   3.296   0.868  1.00  0.00     0.220 HD
ENDBRANCH  12  24
ENDBRANCH  11  12
ENDBRANCH   9  11
ENDBRANCH   8   9
ENDBRANCH   1   8
BRANCH   2  26
HETATM   26  C10 UNL     1       0.900  -3.683   0.606  1.00  0.00     0.288 C 
HETATM   27  O4  UNL     1       2.132  -3.713   0.781  1.00  0.00    -0.264 OA
HETATM   28  N4  UNL     1       0.159  -4.891   0.634  1.00  0.00    -0.271 N 
ATOM     29  H4  UNL     1      -0.851  -4.891   0.495  1.00  0.00     0.189 HD
BRANCH  28  30
HETATM   30  N5  UNL     1       0.867  -6.102   0.862  1.00  0.00    -0.342 N 
ATOM     31  H52 UNL     1       1.878  -6.085   0.999  1.00  0.00     0.176 HD
ATOM     32  H51 UNL     1       0.334  -6.971   0.882  1.00  0.00     0.176 HD
ENDBRANCH  28  30
ENDBRANCH   2  26
BRANCH   5  33
HETATM   33  S1  UNL     1      -3.090  -0.525  -0.258  1.00  0.00     0.257 S 
HETATM   34  O5  UNL     1      -4.033  -1.707  -0.336  1.00  0.00    -0.203 OA
HETATM   35  O6  UNL     1      -3.187   0.185  -1.576  1.00  0.00    -0.203 OA
BRANCH  33  36
HETATM   36  C11 UNL     1      -3.612   0.636   1.000  1.00  0.00     0.205 C 
BRANCH  36  37
HETATM   37  C12 UNL     1      -5.030   0.978   0.616  1.00  0.00    -0.027 A 
HETATM   38  C13 UNL     1      -6.082   0.220   1.070  1.00  0.00     0.012 A 
HETATM   39  C14 UNL     1      -7.345   0.578   0.652  1.00  0.00     0.033 A 
HETATM   40  C15 UNL     1      -7.621   1.641  -0.188  1.00  0.00     0.073 A 
HETATM   41  N10 UNL     1      -6.534   2.342  -0.591  1.00  0.00    -0.363 N 
HETATM   42  C17 UNL     1      -5.282   2.035  -0.212  1.00  0.00     0.096 A 
ATOM     43  H10 UNL     1      -6.672   3.140  -1.211  1.00  0.00     0.165 HD
BRANCH  40  44
HETATM   44  C16 UNL     1      -8.964   1.999  -0.640  1.00  0.00     0.137 C 
HETATM   45  N8  UNL     1      -9.133   2.987  -1.438  1.00  0.00    -0.386 N 
ATOM     46  H82 UNL     1      -8.321   3.522  -1.747  1.00  0.00     0.157 HD
ATOM     47  H81 UNL     1     -10.070   3.237  -1.753  1.00  0.00     0.157 HD
HETATM   48  N9  UNL     1     -10.083   1.262  -0.214  1.00  0.00    -0.081 NA
ENDBRANCH  40  44
ENDBRANCH  36  37
ENDBRANCH  33  36
ENDBRANCH   5  33
TORSDOF 12
