REMARK  13 active torsions:
REMARK  status: ('A' for Active; 'I' for Inactive)
REMARK    1  A    between atoms: C2_2  and  C3_3 
REMARK    2  A    between atoms: C5_5  and  S1_6 
REMARK    3  A    between atoms: S1_6  and  N1_9 
REMARK    4  A    between atoms: N1_9  and  C6_11 
REMARK    5  A    between atoms: C7_14  and  O3_15 
REMARK    6  A    between atoms: C8_17  and  C9_18 
REMARK       I    between atoms: C9_18  and  N3_20 
REMARK    7  A    between atoms: N3_20  and  N4_22 
REMARK    8  A    between atoms: N4_22  and  C10_23 
REMARK    9  A    between atoms: C10_23  and  O5_24 
REMARK   10  A    between atoms: C10_23  and  C11_26 
REMARK   11  A    between atoms: C11_26  and  S2_27 
REMARK   12  A    between atoms: S2_27  and  C12_28 
REMARK   13  A    between atoms: C14_41  and  C15_42 
ROOT
HETATM    1  C6  UNL     1       0.624  -0.855   0.002  1.00  0.00     0.701 C 
HETATM    2  N2  UNL     1       0.938   0.387  -0.090  1.00  0.00    -0.196 N 
ATOM      3  H2  UNL     1       0.230   1.053   0.218  1.00  0.00     0.180 HD
HETATM    4  C7  UNL     1       2.164   0.948  -0.574  1.00  0.00     0.265 C 
HETATM    5  C8  UNL     1       3.010  -0.110  -1.279  1.00  0.00     0.243 C 
HETATM    6  N9  UNL     1       2.983  -1.244  -0.348  1.00  0.00    -0.107 NA
HETATM    7  N10 UNL     1       1.692  -1.751  -0.468  1.00  0.00    -0.135 N 
ATOM      8  H10 UNL     1       1.501  -2.676  -0.853  1.00  0.00     0.201 HD
ENDROOT
BRANCH   5   9
HETATM    9  C9  UNL     1       4.393   0.408  -1.471  1.00  0.00     0.272 C 
HETATM   10  O4  UNL     1       4.779   1.507  -1.025  1.00  0.00    -0.269 OA
HETATM   11  N3  UNL     1       5.327  -0.420  -2.214  1.00  0.00    -0.199 N 
ATOM     12  H3  UNL     1       4.960  -1.332  -2.485  1.00  0.00     0.205 HD
BRANCH  11  13
HETATM   13  N4  UNL     1       6.569  -0.194  -2.599  1.00  0.00    -0.301 NA
BRANCH  13  14
HETATM   14  C10 UNL     1       7.785   0.092  -3.132  1.00  0.00     0.224 C 
BRANCH  14  15
HETATM   15  O5  UNL     1       7.790   0.588  -4.406  1.00  0.00    -0.337 OA
ATOM     16  H5  UNL     1       8.641   0.788  -4.779  1.00  0.00     0.220 HD
ENDBRANCH  14  15
BRANCH  14  17
HETATM   17  C11 UNL     1       9.178  -0.006  -2.669  1.00  0.00     0.184 C 
BRANCH  17  18
HETATM   18  S2  UNL     1       9.497  -1.006  -1.275  1.00  0.00    -0.082 SA
BRANCH  18  19
HETATM   19  C12 UNL     1       9.937  -0.159   0.226  1.00  0.00     0.176 A 
HETATM   20  N5  UNL     1      11.121   0.182   0.640  1.00  0.00    -0.263 N 
HETATM   21  N6  UNL     1      11.135   0.698   1.832  1.00  0.00    -0.226 N 
ATOM     22  H5  UNL     1      11.964   0.056   0.079  1.00  0.00     0.190 HD
HETATM   23  N7  UNL     1       9.904   0.700   2.231  1.00  0.00    -0.226 N 
ATOM     24  H6  UNL     1      11.949   1.033   2.348  1.00  0.00     0.210 HD
HETATM   25  N8  UNL     1       9.062   0.172   1.290  1.00  0.00    -0.263 N 
ATOM     26  H7  UNL     1       9.598   1.053   3.138  1.00  0.00     0.210 HD
ATOM     27  H8  UNL     1       8.051   0.047   1.342  1.00  0.00     0.190 HD
ENDBRANCH  18  19
ENDBRANCH  17  18
ENDBRANCH  14  17
ENDBRANCH  13  14
ENDBRANCH  11  13
ENDBRANCH   5   9
BRANCH   4  28
HETATM   28  O3  UNL     1       1.966   2.105  -1.240  1.00  0.00    -0.374 OA
ATOM     29  H3  UNL     1       2.779   2.477  -1.561  1.00  0.00     0.212 HD
ENDBRANCH   4  28
BRANCH   1  30
HETATM   30  N1  UNL     1      -0.560  -1.412   0.472  1.00  0.00    -0.112 N 
ATOM     31  H1  UNL     1      -0.847  -2.304   0.069  1.00  0.00     0.197 HD
BRANCH  30  32
HETATM   32  S1  UNL     1      -1.567  -0.740   1.655  1.00  0.00     0.276 S 
HETATM   33  O1  UNL     1      -1.491  -1.442   2.959  1.00  0.00    -0.200 OA
HETATM   34  O2  UNL     1      -0.953   0.676   1.936  1.00  0.00    -0.200 OA
BRANCH  32  35
HETATM   35  C5  UNL     1      -3.200  -0.418   1.105  1.00  0.00     0.081 A 
HETATM   36  C4  UNL     1      -3.653  -1.051  -0.036  1.00  0.00     0.034 A 
HETATM   37  C3  UNL     1      -4.926  -0.786  -0.440  1.00  0.00    -0.032 A 
HETATM   38  C18 UNL     1      -5.756   0.099   0.265  1.00  0.00     0.063 A 
HETATM   39  C14 UNL     1      -5.328   0.734   1.394  1.00  0.00    -0.008 A 
HETATM   40  N11 UNL     1      -7.074   0.329  -0.210  1.00  0.00    -0.101 NA
HETATM   41  C13 UNL     1      -4.000   0.425   1.774  1.00  0.00     0.038 A 
BRANCH  37  42
HETATM   42  C2  UNL     1      -5.623  -1.495  -1.579  1.00  0.00     0.036 C 
HETATM   43  C1  UNL     1      -6.490  -2.607  -0.951  1.00  0.00     0.010 C 
ENDBRANCH  37  42
BRANCH  39  44
HETATM   44  C15 UNL     1      -6.075   1.756   2.115  1.00  0.00    -0.075 C 
HETATM   45  C16 UNL     1      -6.124   1.387   3.632  1.00  0.00     0.044 C 
HETATM   46  C17 UNL     1      -7.254   2.383   1.577  1.00  0.00     0.044 C 
ENDBRANCH  39  44
ENDBRANCH  32  35
ENDBRANCH  30  32
ENDBRANCH   1  30
TORSDOF 13
