REMARK  13 active torsions:
REMARK  status: ('A' for Active; 'I' for Inactive)
REMARK    1  A    between atoms: C2_2  and  C3_3 
REMARK    2  A    between atoms: C3_3  and  C5_5 
REMARK       I    between atoms: C5_5  and  N1_7 
REMARK    3  A    between atoms: N1_7  and  C6_9 
REMARK    4  A    between atoms: C7_10  and  O2_11 
REMARK    5  A    between atoms: C8_14  and  C9_15 
REMARK    6  A    between atoms: C9_15  and  N2_16 
REMARK    7  A    between atoms: N2_16  and  C10_18 
REMARK    8  A    between atoms: C11_19  and  N3_20 
REMARK    9  A    between atoms: C13_25  and  N4_26 
REMARK   10  A    between atoms: N4_26  and  C14_28 
REMARK   11  A    between atoms: C22_38  and  O6_39 
REMARK   12  A    between atoms: C23_42  and  O8_43 
REMARK   13  A    between atoms: C24_45  and  O9_46 
ROOT
HETATM    1  C10 UNL     1       0.166  -0.865   1.849  1.00  0.00     0.162 C 
HETATM    2  C11 UNL     1       0.842  -1.880   0.986  1.00  0.00     0.214 C 
HETATM    3  C12 UNL     1       2.335  -1.669   0.800  1.00  0.00     0.088 C 
HETATM    4  C13 UNL     1       3.062  -1.236   2.013  1.00  0.00     0.222 C 
HETATM    5  O7  UNL     1       2.170  -0.747   3.005  1.00  0.00    -0.335 OA
HETATM    6  C23 UNL     1       1.210   0.070   2.413  1.00  0.00     0.283 C 
ENDROOT
BRANCH   1   7
HETATM    7  N2  UNL     1      -0.815  -0.137   1.100  1.00  0.00    -0.408 N 
ATOM      8  H2  UNL     1      -0.735   0.864   0.924  1.00  0.00     0.153 HD
BRANCH   7   9
HETATM    9  C9  UNL     1      -1.922  -0.921   0.614  1.00  0.00     0.149 C 
BRANCH   9  10
HETATM   10  C8  UNL     1      -2.816   0.038  -0.165  1.00  0.00     0.172 C 
HETATM   11  O3  UNL     1      -3.219   1.033   0.665  1.00  0.00    -0.350 OA
HETATM   12  C7  UNL     1      -4.562   1.278   0.578  1.00  0.00     0.282 C 
HETATM   13  C6  UNL     1      -5.052   0.473  -0.589  1.00  0.00     0.170 C 
HETATM   14  C24 UNL     1      -4.066  -0.671  -0.648  1.00  0.00     0.176 C 
BRANCH  12  15
HETATM   15  O2  UNL     1      -4.726   2.655   0.358  1.00  0.00    -0.369 OA
ATOM     16  H2  UNL     1      -4.416   3.165   1.097  1.00  0.00     0.212 HD
ENDBRANCH  12  15
BRANCH  13  17
HETATM   17  N1  UNL     1      -6.408   0.000  -0.398  1.00  0.00    -0.349 N 
HETATM   18  C5  UNL     1      -7.400   0.397  -1.329  1.00  0.00     0.222 C 
HETATM   19  O1  UNL     1      -7.110   1.138  -2.291  1.00  0.00    -0.273 OA
ATOM     20  H1  UNL     1      -6.643  -0.605   0.389  1.00  0.00     0.163 HD
BRANCH  18  21
HETATM   21  C3  UNL     1      -8.823  -0.083  -1.153  1.00  0.00     0.073 C 
HETATM   22  C4  UNL     1      -9.699   0.419  -2.252  1.00  0.00     0.020 C 
BRANCH  21  23
HETATM   23  C2  UNL     1      -9.291   0.388   0.207  1.00  0.00     0.009 C 
HETATM   24  C1  UNL     1      -9.311   1.872   0.341  1.00  0.00     0.006 C 
ENDBRANCH  21  23
ENDBRANCH  18  21
ENDBRANCH  13  17
BRANCH  14  25
HETATM   25  O9  UNL     1      -4.512  -1.627   0.264  1.00  0.00    -0.391 OA
ATOM     26  H9  UNL     1      -3.892  -2.346   0.227  1.00  0.00     0.210 HD
ENDBRANCH  14  25
ENDBRANCH   9  10
ENDBRANCH   7   9
ENDBRANCH   1   7
BRANCH   2  27
HETATM   27  N3  UNL     1       0.680  -3.237   1.534  1.00  0.00    -0.073 N 
ATOM     28  H33 UNL     1       1.002  -3.292   2.500  1.00  0.00     0.274 HD
ATOM     29  H32 UNL     1      -0.303  -3.466   1.683  1.00  0.00     0.274 HD
ATOM     30  H31 UNL     1       1.142  -3.930   0.945  1.00  0.00     0.274 HD
ENDBRANCH   2  27
BRANCH   6  31
HETATM   31  O8  UNL     1       1.689   0.936   1.468  1.00  0.00    -0.369 OA
ATOM     32  H8  UNL     1       2.346   1.524   1.823  1.00  0.00     0.212 HD
ENDBRANCH   6  31
BRANCH   4  33
HETATM   33  N4  UNL     1       4.195  -0.422   1.895  1.00  0.00    -0.389 N 
ATOM     34  H4  UNL     1       4.155   0.520   2.285  1.00  0.00     0.156 HD
BRANCH  33  35
HETATM   35  C14 UNL     1       5.376  -0.830   1.273  1.00  0.00     0.116 C 
HETATM   36  C15 UNL     1       5.418  -1.117  -0.177  1.00  0.00     0.038 C 
HETATM   37  C16 UNL     1       6.604  -2.037  -0.489  1.00  0.00     0.015 C 
HETATM   38  C17 UNL     1       5.673   0.241  -0.825  1.00  0.00     0.162 C 
HETATM   39  O4  UNL     1       6.669   0.178  -1.774  1.00  0.00    -0.347 OA
HETATM   40  C21 UNL     1       6.279   1.114   0.239  1.00  0.00     0.185 C 
HETATM   41  C18 UNL     1       7.258   1.435  -1.690  1.00  0.00     0.158 C 
HETATM   42  C19 UNL     1       6.359   2.510  -2.278  1.00  0.00     0.078 C 
HETATM   43  C20 UNL     1       8.598   1.456  -2.407  1.00  0.00     0.078 C 
HETATM   44  O5  UNL     1       7.435   1.593  -0.320  1.00  0.00    -0.345 OA
HETATM   45  C22 UNL     1       6.488   0.218   1.409  1.00  0.00     0.172 C 
BRANCH  45  46
HETATM   46  O6  UNL     1       6.394   0.878   2.631  1.00  0.00    -0.391 OA
ATOM     47  H6  UNL     1       7.083   1.527   2.715  1.00  0.00     0.210 HD
ENDBRANCH  45  46
ENDBRANCH  33  35
ENDBRANCH   4  33
TORSDOF 13
