REMARK  15 active torsions:
REMARK  status: ('A' for Active; 'I' for Inactive)
REMARK    1  A    between atoms: C2_2  and  C3_3 
REMARK    2  A    between atoms: C4_5  and  N1_6 
REMARK    3  A    between atoms: C5_9  and  C6_10 
REMARK    4  A    between atoms: C6_10  and  N2_11 
REMARK    5  A    between atoms: N2_11  and  N3_13 
REMARK    6  A    between atoms: C7_14  and  C8_15 
REMARK    7  A    between atoms: C8_15  and  N4_16 
REMARK    8  A    between atoms: C10_19  and  N5_20 
REMARK    9  A    between atoms: N5_20  and  C11_22 
REMARK   10  A    between atoms: C11_22  and  O3_23 
REMARK   11  A    between atoms: C11_22  and  C12_25 
REMARK   12  A    between atoms: C15_31  and  O4_32 
REMARK   13  A    between atoms: C15_31  and  C16_34 
REMARK   14  A    between atoms: C19_39  and  C20_40 
REMARK   15  A    between atoms: C23_45  and  O8_46 
ROOT
HETATM    1  C12 UNL     1       4.808   2.086   3.233  1.00  0.00     0.177 C 
HETATM    2  C13 UNL     1       5.389   3.436   3.433  1.00  0.00     0.063 C 
HETATM    3  N6  UNL     1       5.825   4.499   3.572  1.00  0.00    -0.197 NA
ENDROOT
BRANCH   1   4
HETATM    4  C11 UNL     1       3.382   2.291   2.834  1.00  0.00     0.232 C 
BRANCH   4   5
HETATM    5  N5  UNL     1       2.651   1.072   2.593  1.00  0.00    -0.345 N 
ATOM      6  H5  UNL     1       1.835   0.900   3.180  1.00  0.00     0.163 HD
BRANCH   5   7
HETATM    7  C10 UNL     1       2.954   0.101   1.629  1.00  0.00     0.168 C 
HETATM    8  C9  UNL     1       2.366   0.135   0.270  1.00  0.00     0.290 C 
HETATM    9  N4  UNL     1       2.703  -0.899  -0.689  1.00  0.00    -0.297 N 
HETATM   10  O2  UNL     1       1.581   1.063  -0.034  1.00  0.00    -0.264 OA
HETATM   11  C15 UNL     1       4.014  -1.458  -0.496  1.00  0.00     0.244 C 
HETATM   12  C14 UNL     1       4.112  -1.882   0.981  1.00  0.00     0.194 C 
HETATM   13  N7  UNL     1       3.750  -0.855   1.893  1.00  0.00    -0.367 N 
ATOM     14  H7  UNL     1       4.158  -0.887   2.827  1.00  0.00     0.161 HD
BRANCH   9  15
HETATM   15  C8  UNL     1       1.729  -1.178  -1.676  1.00  0.00     0.189 C 
BRANCH  15  16
HETATM   16  C7  UNL     1       0.690  -2.183  -1.359  1.00  0.00     0.052 A 
HETATM   17  N3  UNL     1      -0.677  -2.027  -1.453  1.00  0.00    -0.254 N 
HETATM   18  C19 UNL     1      -1.250  -3.164  -1.115  1.00  0.00     0.121 A 
HETATM   19  C18 UNL     1      -0.238  -4.076  -0.793  1.00  0.00     0.039 A 
HETATM   20  C17 UNL     1       0.948  -3.442  -0.952  1.00  0.00     0.031 A 
BRANCH  17  21
HETATM   21  N2  UNL     1      -1.264  -0.792  -1.824  1.00  0.00    -0.304 N 
ATOM     22  H2  UNL     1      -0.584  -0.037  -1.905  1.00  0.00     0.186 HD
BRANCH  21  23
HETATM   23  C6  UNL     1      -2.546  -0.389  -2.098  1.00  0.00     0.124 C 
BRANCH  23  24
HETATM   24  C5  UNL     1      -3.400   0.430  -1.567  1.00  0.00     0.040 A 
HETATM   25  C4  UNL     1      -4.668   0.584  -2.165  1.00  0.00     0.154 A 
HETATM   26  O1  UNL     1      -5.555   1.405  -1.685  1.00  0.00    -0.291 OA
HETATM   27  C3  UNL     1      -5.398   2.168  -0.631  1.00  0.00     0.107 A 
HETATM   28  C23 UNL     1      -4.187   2.088   0.024  1.00  0.00     0.106 A 
HETATM   29  C21 UNL     1      -3.195   1.198  -0.470  1.00  0.00    -0.010 A 
HETATM   30  C22 UNL     1      -1.966   1.173   0.350  1.00  0.00     0.052 C 
BRANCH  25  31
HETATM   31  N1  UNL     1      -5.007  -0.084  -3.215  1.00  0.00    -0.379 N 
ATOM     32  H12 UNL     1      -5.924   0.027  -3.647  1.00  0.00     0.158 HD
ATOM     33  H11 UNL     1      -4.311  -0.728  -3.591  1.00  0.00     0.158 HD
ENDBRANCH  25  31
BRANCH  27  34
HETATM   34  C2  UNL     1      -6.382   2.965  -0.245  1.00  0.00     0.009 C 
HETATM   35  C1  UNL     1      -6.382   3.876   0.897  1.00  0.00     0.039 C 
ENDBRANCH  27  34
BRANCH  28  36
HETATM   36  O8  UNL     1      -3.951   2.869   1.143  1.00  0.00    -0.357 OA
ATOM     37  H8  UNL     1      -3.117   2.814   1.594  1.00  0.00     0.217 HD
ENDBRANCH  28  36
ENDBRANCH  23  24
ENDBRANCH  21  23
ENDBRANCH  17  21
BRANCH  18  38
HETATM   38  C20 UNL     1      -2.628  -3.594  -1.032  1.00  0.00     0.283 C 
HETATM   39  N8  UNL     1      -2.949  -4.944  -0.602  1.00  0.00    -0.056 NA
HETATM   40  O7  UNL     1      -3.640  -2.940  -1.288  1.00  0.00    -0.269 OA
ENDBRANCH  18  38
ENDBRANCH  15  16
ENDBRANCH   9  15
BRANCH  11  41
HETATM   41  O4  UNL     1       4.262  -2.628  -1.221  1.00  0.00    -0.361 OA
ATOM     42  H4  UNL     1       5.128  -2.997  -1.094  1.00  0.00     0.213 HD
ENDBRANCH  11  41
BRANCH  11  43
HETATM   43  C16 UNL     1       5.117  -0.481  -0.740  1.00  0.00     0.233 C 
HETATM   44  O5  UNL     1       5.188   0.676  -0.292  1.00  0.00    -0.644 OA
HETATM   45  O6  UNL     1       6.201  -0.873  -1.553  1.00  0.00    -0.644 OA
ENDBRANCH  11  43
ENDBRANCH   5   7
ENDBRANCH   4   5
BRANCH   4  46
HETATM   46  O3  UNL     1       3.385   2.993   1.609  1.00  0.00    -0.376 OA
ATOM     47  H3  UNL     1       3.867   3.796   1.768  1.00  0.00     0.212 HD
ENDBRANCH   4  46
ENDBRANCH   1   4
TORSDOF 15
