REMARK  5 active torsions:
REMARK  status: ('A' for Active; 'I' for Inactive)
REMARK    1  A    between atoms: O1_2  and  C2_3 
REMARK    2  A    between atoms: C2_3  and  C3_5 
REMARK    3  A    between atoms: C5_10  and  S1_11 
REMARK    4  A    between atoms: S1_11  and  C6_14 
REMARK    5  A    between atoms: C12_20  and  N3_21 
ROOT
HETATM    1  C3  UNL     1      -2.427   0.205  -0.345  1.00  0.00     0.136 A 
HETATM    2  N1  UNL     1      -1.644   0.331  -1.424  1.00  0.00    -0.337 N 
ATOM      3  H1  UNL     1      -1.988   0.868  -2.220  1.00  0.00     0.167 HD
HETATM    4  C4  UNL     1      -0.419  -0.225  -1.498  1.00  0.00     0.141 A 
HETATM    5  N2  UNL     1       0.348  -0.046  -2.676  1.00  0.00    -0.081 NA
HETATM    6  C5  UNL     1       0.105  -0.971  -0.435  1.00  0.00     0.140 A 
HETATM    7  C12 UNL     1      -0.661  -1.122   0.677  1.00  0.00     0.154 A 
HETATM    8  C13 UNL     1      -1.937  -0.523   0.710  1.00  0.00     0.114 A 
HETATM    9  N4  UNL     1      -2.771  -0.649   1.847  1.00  0.00    -0.097 NA
ENDROOT
BRANCH   6  10
HETATM   10  S1  UNL     1       1.695  -1.657  -0.536  1.00  0.00     0.212 S 
HETATM   11  O3  UNL     1       2.020  -1.879  -2.011  1.00  0.00    -0.217 OA
HETATM   12  O4  UNL     1       1.776  -2.935   0.198  1.00  0.00    -0.217 OA
BRANCH  10  13
HETATM   13  C6  UNL     1       2.930  -0.594   0.086  1.00  0.00     0.064 A 
HETATM   14  C7  UNL     1       3.339  -0.598   1.402  1.00  0.00     0.024 A 
HETATM   15  C8  UNL     1       4.332   0.278   1.826  1.00  0.00     0.002 A 
HETATM   16  C9  UNL     1       4.929   1.165   0.960  1.00  0.00     0.000 A 
HETATM   17  C10 UNL     1       4.536   1.185  -0.352  1.00  0.00     0.002 A 
HETATM   18  C11 UNL     1       3.535   0.295  -0.760  1.00  0.00     0.024 A 
ENDBRANCH  10  13
ENDBRANCH   6  10
BRANCH   7  19
HETATM   19  N3  UNL     1      -0.318  -1.826   1.853  1.00  0.00    -0.112 N 
HETATM   20  O5  UNL     1      -0.423  -3.058   1.875  1.00  0.00    -0.532 OA
HETATM   21  O6  UNL     1       0.094  -1.092   2.944  1.00  0.00    -0.532 OA
ENDBRANCH   7  19
BRANCH   1  22
HETATM   22  C2  UNL     1      -3.744   0.815  -0.291  1.00  0.00     0.311 C 
HETATM   23  O2  UNL     1      -4.479   0.701   0.719  1.00  0.00    -0.258 OA
BRANCH  22  24
HETATM   24  O1  UNL     1      -4.254   1.553  -1.347  1.00  0.00    -0.321 OA
HETATM   25  C1  UNL     1      -5.532   2.160  -1.326  1.00  0.00     0.213 C 
ENDBRANCH  22  24
ENDBRANCH   1  22
TORSDOF 5
