REMARK  4 active torsions:
REMARK  status: ('A' for Active; 'I' for Inactive)
REMARK    1  A    between atoms: C3_6  and  C4_7 
REMARK    2  A    between atoms: C6_12  and  S1_13 
REMARK    3  A    between atoms: S1_13  and  C7_16 
REMARK    4  A    between atoms: C12_21  and  N4_22 
ROOT
HETATM    1  N1  UNL     1       3.379   4.248   1.800  1.00  0.00    -0.188 NA
HETATM    2  C1  UNL     1       2.830   3.231   1.742  1.00  0.00     0.137 C 
HETATM    3  C2  UNL     1       2.136   1.980   1.692  1.00  0.00     0.190 A 
HETATM    4  N2  UNL     1       2.750   0.868   2.136  1.00  0.00    -0.326 N 
ATOM      5  H2  UNL     1       3.700   0.963   2.496  1.00  0.00     0.168 HD
HETATM    6  C3  UNL     1       2.207  -0.349   2.140  1.00  0.00     0.139 A 
HETATM    7  C5  UNL     1       0.912  -0.463   1.645  1.00  0.00     0.118 A 
HETATM    8  N3  UNL     1       0.247  -1.705   1.604  1.00  0.00    -0.097 NA
HETATM    9  C6  UNL     1       0.260   0.651   1.185  1.00  0.00     0.162 A 
HETATM   10  N5  UNL     1       0.879   1.830   1.219  1.00  0.00    -0.322 N 
ATOM     11  H5  UNL     1       0.384   2.653   0.874  1.00  0.00     0.169 HD
ENDROOT
BRANCH   6  12
HETATM   12  C4  UNL     1       2.924  -1.515   2.635  1.00  0.00     0.229 C 
HETATM   13  O1  UNL     1       2.417  -2.664   2.641  1.00  0.00    -0.643 OA
HETATM   14  O2  UNL     1       4.222  -1.406   3.132  1.00  0.00    -0.643 OA
ENDBRANCH   6  12
BRANCH   9  15
HETATM   15  S1  UNL     1      -1.355   0.522   0.563  1.00  0.00     0.226 S 
HETATM   16  O3  UNL     1      -2.174  -0.475   1.310  1.00  0.00    -0.216 OA
HETATM   17  O4  UNL     1      -1.993   1.891   0.801  1.00  0.00    -0.216 OA
BRANCH  15  18
HETATM   18  C7  UNL     1      -1.402   0.224  -1.131  1.00  0.00     0.098 A 
HETATM   19  C8  UNL     1      -0.225   0.199  -1.835  1.00  0.00     0.026 A 
HETATM   20  C9  UNL     1      -0.189  -0.027  -3.195  1.00  0.00     0.002 A 
HETATM   21  C10 UNL     1      -1.392  -0.229  -3.834  1.00  0.00     0.003 A 
HETATM   22  C11 UNL     1      -2.591  -0.212  -3.172  1.00  0.00     0.037 A 
HETATM   23  C12 UNL     1      -2.583   0.022  -1.783  1.00  0.00     0.124 A 
BRANCH  23  24
HETATM   24  N4  UNL     1      -3.869  -0.006  -1.197  1.00  0.00    -0.114 N 
HETATM   25  O5  UNL     1      -4.234   0.684  -0.252  1.00  0.00    -0.532 OA
HETATM   26  O6  UNL     1      -4.815  -0.869  -1.740  1.00  0.00    -0.532 OA
ENDBRANCH  23  24
ENDBRANCH  15  18
ENDBRANCH   9  15
TORSDOF 4
