REMARK  8 active torsions:
REMARK  status: ('A' for Active; 'I' for Inactive)
REMARK    1  A    between atoms: O1_2  and  C2_3 
REMARK    2  A    between atoms: C2_3  and  C3_5 
REMARK    3  A    between atoms: C5_7  and  O3_8 
REMARK    4  A    between atoms: C6_10  and  C7_11 
REMARK    5  A    between atoms: N1_12  and  O4_14 
REMARK    6  A    between atoms: C9_17  and  O5_18 
REMARK    7  A    between atoms: O5_18  and  C10_19 
REMARK    8  A    between atoms: C10_19  and  C12_24 
ROOT
HETATM    1  C10 UNL     1       1.220  -0.578   1.512  1.00  0.00     0.185 C 
HETATM    2  N2  UNL     1       2.404  -0.960   1.087  1.00  0.00    -0.272 N 
ATOM      3  H2  UNL     1       2.505  -1.139   0.088  1.00  0.00     0.180 HD
HETATM    4  C11 UNL     1       3.478  -1.133   1.846  1.00  0.00     0.183 C 
HETATM    5  N3  UNL     1       4.420  -1.299   2.488  1.00  0.00    -0.172 NA
ENDROOT
BRANCH   1   6
HETATM    6  O5  UNL     1       0.396  -0.515   0.453  1.00  0.00    -0.290 OA
BRANCH   6   7
HETATM    7  C9  UNL     1       0.131  -0.087  -0.693  1.00  0.00     0.095 A 
HETATM    8  C3  UNL     1      -1.088  -0.508  -1.344  1.00  0.00     0.076 A 
HETATM    9  C4  UNL     1      -1.350  -0.026  -2.564  1.00  0.00     0.057 A 
HETATM   10  C5  UNL     1      -0.533   0.869  -3.285  1.00  0.00     0.078 A 
HETATM   11  C6  UNL     1       0.621   1.279  -2.680  1.00  0.00     0.017 A 
HETATM   12  C8  UNL     1       0.917   0.785  -1.400  1.00  0.00     0.054 A 
BRANCH   8  13
HETATM   13  C2  UNL     1      -1.968  -1.439  -0.621  1.00  0.00     0.295 C 
HETATM   14  O2  UNL     1      -1.567  -1.790   0.545  1.00  0.00    -0.259 OA
BRANCH  13  15
HETATM   15  O1  UNL     1      -3.127  -1.934  -1.076  1.00  0.00    -0.322 OA
HETATM   16  C1  UNL     1      -3.999  -2.834  -0.425  1.00  0.00     0.213 C 
ENDBRANCH  13  15
ENDBRANCH   8  13
BRANCH  10  17
HETATM   17  O3  UNL     1      -0.952   1.254  -4.516  1.00  0.00    -0.360 OA
ATOM     18  H3  UNL     1      -0.402   1.857  -5.002  1.00  0.00     0.217 HD
ENDBRANCH  10  17
BRANCH  11  19
HETATM   19  C7  UNL     1       1.555   2.203  -3.281  1.00  0.00     0.128 C 
HETATM   20  N1  UNL     1       1.357   2.689  -4.437  1.00  0.00    -0.280 N 
ATOM     21  H1  UNL     1       0.522   2.404  -4.949  1.00  0.00     0.193 HD
BRANCH  20  22
HETATM   22  O4  UNL     1       2.219   3.584  -5.030  1.00  0.00    -0.290 OA
ATOM     23  H4  UNL     1       2.071   3.948  -5.895  1.00  0.00     0.244 HD
ENDBRANCH  20  22
ENDBRANCH  11  19
ENDBRANCH   6   7
ENDBRANCH   1   6
BRANCH   1  24
HETATM   24  C12 UNL     1       0.934  -0.295   2.900  1.00  0.00     0.100 A 
HETATM   25  C13 UNL     1      -0.318   0.190   3.260  1.00  0.00     0.121 A 
HETATM   26  N4  UNL     1      -0.659   0.436   4.513  1.00  0.00    -0.372 N 
HETATM   27  C14 UNL     1       0.201   0.226   5.539  1.00  0.00     0.104 A 
ATOM     28  H4  UNL     1      -1.593   0.793   4.713  1.00  0.00     0.164 HD
HETATM   29  C15 UNL     1       1.433  -0.248   5.176  1.00  0.00     0.105 A 
HETATM   30  N5  UNL     1       1.804  -0.507   3.905  1.00  0.00    -0.360 N 
ATOM     31  H5  UNL     1       2.739  -0.862   3.707  1.00  0.00     0.165 HD
ENDBRANCH   1  24
TORSDOF 8
