REMARK  6 active torsions:
REMARK  status: ('A' for Active; 'I' for Inactive)
REMARK    1  A    between atoms: S1_2  and  N1_4 
REMARK    2  A    between atoms: S1_2  and  C5_17 
REMARK    3  A    between atoms: N1_4  and  C1_6 
REMARK    4  A    between atoms: C1_6  and  C2_11 
REMARK    5  A    between atoms: N2_7  and  O3_9 
REMARK    6  A    between atoms: N4_19  and  C7_20 
ROOT
HETATM    1  O1  UNL     1       2.049   2.349   0.005  1.00  0.00    -0.199 OA
HETATM    2  S1  UNL     1       1.323   1.458   1.003  1.00  0.00     0.282 S 
HETATM    3  O2  UNL     1       0.849   2.323   2.136  1.00  0.00    -0.199 OA
ENDROOT
BRANCH   2   4
HETATM    4  N1  UNL     1       2.416   0.236   1.556  1.00  0.00    -0.261 N 
ATOM      5  H1  UNL     1       2.622   0.157   2.552  1.00  0.00     0.180 HD
BRANCH   4   6
HETATM    6  C1  UNL     1       3.014  -0.635   0.662  1.00  0.00     0.169 C 
HETATM    7  N2  UNL     1       2.399  -1.654   0.201  1.00  0.00    -0.250 N 
ATOM      8  H2  UNL     1       1.441  -1.827   0.504  1.00  0.00     0.196 HD
BRANCH   7   9
HETATM    9  O3  UNL     1       2.983  -2.534  -0.695  1.00  0.00    -0.288 OA
ATOM     10  H3  UNL     1       2.525  -3.292  -1.038  1.00  0.00     0.244 HD
ENDBRANCH   7   9
BRANCH   6  11
HETATM   11  C2  UNL     1       4.393  -0.405   0.213  1.00  0.00     0.120 A 
HETATM   12  N3  UNL     1       5.401   0.169   0.844  1.00  0.00    -0.357 N 
HETATM   13  C3  UNL     1       6.558   0.279   0.273  1.00  0.00     0.096 A 
ATOM     14  H3  UNL     1       5.267   0.529   1.789  1.00  0.00     0.166 HD
HETATM   15  C4  UNL     1       6.689  -0.220  -1.000  1.00  0.00     0.069 A 
HETATM   16  S2  UNL     1       5.120  -0.822  -1.293  1.00  0.00    -0.079 SA
ENDBRANCH   6  11
ENDBRANCH   4   6
ENDBRANCH   2   4
BRANCH   2  17
HETATM   17  C5  UNL     1      -0.067   0.766   0.227  1.00  0.00     0.182 A 
HETATM   18  C6  UNL     1      -1.392   0.905   0.593  1.00  0.00     0.163 A 
HETATM   19  N4  UNL     1      -2.147   0.217  -0.261  1.00  0.00    -0.250 N 
HETATM   20  N5  UNL     1      -1.315  -0.334  -1.132  1.00  0.00    -0.235 N 
HETATM   21  N6  UNL     1      -0.071  -0.021  -0.861  1.00  0.00    -0.273 N 
ATOM     22  H5  UNL     1      -1.604  -0.925  -1.912  1.00  0.00     0.209 HD
ATOM     23  H6  UNL     1       0.750  -0.323  -1.385  1.00  0.00     0.189 HD
BRANCH  19  24
HETATM   24  C7  UNL     1      -3.565   0.051  -0.306  1.00  0.00     0.057 A 
HETATM   25  C8  UNL     1      -4.382   0.889  -1.035  1.00  0.00     0.031 A 
HETATM   26  C9  UNL     1      -5.746   0.701  -1.058  1.00  0.00     0.002 A 
HETATM   27  C10 UNL     1      -6.332  -0.337  -0.346  1.00  0.00     0.000 A 
HETATM   28  C11 UNL     1      -5.518  -1.170   0.378  1.00  0.00     0.002 A 
HETATM   29  C12 UNL     1      -4.157  -0.985   0.403  1.00  0.00     0.031 A 
ENDBRANCH  19  24
ENDBRANCH   2  17
TORSDOF 6
