REMARK  5 active torsions:
REMARK  status: ('A' for Active; 'I' for Inactive)
REMARK       I    between atoms: C1_2  and  N1_3 
REMARK    1  A    between atoms: C1_2  and  C10_23 
REMARK    2  A    between atoms: N1_3  and  N2_5 
REMARK       I    between atoms: N2_5  and  C2_7 
REMARK    3  A    between atoms: C2_7  and  C3_9 
REMARK    4  A    between atoms: C4_15  and  C5_16 
REMARK    5  A    between atoms: C13_26  and  N6_27 
ROOT
HETATM    1  N2  UNL     1       0.213   1.544  -0.791  1.00  0.00    -0.262 N 
ATOM      2  H2  UNL     1      -0.145   2.355  -0.287  1.00  0.00     0.190 HD
HETATM    3  C2  UNL     1      -0.577   1.009  -1.834  1.00  0.00     0.291 C 
HETATM    4  O2  UNL     1      -0.232  -0.002  -2.484  1.00  0.00    -0.264 OA
ENDROOT
BRANCH   3   5
HETATM    5  C3  UNL     1      -1.833   1.660  -2.164  1.00  0.00     0.156 A 
HETATM    6  N3  UNL     1      -1.923   2.641  -3.130  1.00  0.00    -0.234 N 
HETATM    7  O3  UNL     1      -3.151   3.025  -3.174  1.00  0.00    -0.156 OA
ATOM      8  H3  UNL     1      -1.158   2.996  -3.703  1.00  0.00     0.197 HD
HETATM    9  N4  UNL     1      -3.859   2.372  -2.317  1.00  0.00    -0.237 N 
HETATM   10  C4  UNL     1      -3.075   1.476  -1.633  1.00  0.00     0.117 A 
ATOM     11  H4  UNL     1      -4.860   2.502  -2.168  1.00  0.00     0.197 HD
BRANCH  10  12
HETATM   12  C5  UNL     1      -3.554   0.599  -0.592  1.00  0.00     0.063 A 
HETATM   13  C6  UNL     1      -2.850  -0.319   0.104  1.00  0.00     0.032 A 
HETATM   14  C7  UNL     1      -3.426  -1.121   1.080  1.00  0.00     0.004 A 
HETATM   15  C8  UNL     1      -4.780  -0.999   1.376  1.00  0.00     0.017 A 
HETATM   16  C9  UNL     1      -5.474  -0.054   0.648  1.00  0.00     0.088 A 
HETATM   17  N5  UNL     1      -4.882   0.688  -0.272  1.00  0.00    -0.364 N 
ATOM     18  H5  UNL     1      -5.450   1.370  -0.775  1.00  0.00     0.165 HD
ENDBRANCH  10  12
ENDBRANCH   3   5
BRANCH   1  19
HETATM   19  N1  UNL     1       1.438   1.037  -0.412  1.00  0.00    -0.261 N 
HETATM   20  C1  UNL     1       1.767  -0.253   0.001  1.00  0.00     0.293 C 
HETATM   21  O1  UNL     1       0.900  -1.141   0.071  1.00  0.00    -0.264 OA
ATOM     22  H1  UNL     1       2.213   1.700  -0.437  1.00  0.00     0.190 HD
BRANCH  20  23
HETATM   23  C10 UNL     1       3.155  -0.614   0.373  1.00  0.00     0.147 A 
HETATM   24  C11 UNL     1       4.239   0.242   0.279  1.00  0.00     0.048 A 
HETATM   25  C12 UNL     1       5.361  -0.413   0.705  1.00  0.00     0.066 A 
HETATM   26  C13 UNL     1       4.917  -1.690   1.058  1.00  0.00     0.215 A 
HETATM   27  O6  UNL     1       3.623  -1.733   0.838  1.00  0.00    -0.283 OA
BRANCH  26  28
HETATM   28  N6  UNL     1       5.695  -2.760   1.562  1.00  0.00    -0.090 N 
HETATM   29  O4  UNL     1       6.911  -2.616   1.732  1.00  0.00    -0.530 OA
HETATM   30  O5  UNL     1       5.108  -3.948   1.865  1.00  0.00    -0.530 OA
ENDBRANCH  26  28
ENDBRANCH  20  23
ENDBRANCH   1  19
TORSDOF 5
