REMARK  5 active torsions:
REMARK  status: ('A' for Active; 'I' for Inactive)
REMARK    1  A    between atoms: C4_5  and  C5_6 
REMARK       I    between atoms: C5_6  and  N2_8 
REMARK    2  A    between atoms: N2_8  and  N3_10 
REMARK    3  A    between atoms: C6_12  and  C7_13 
REMARK    4  A    between atoms: C11_18  and  O3_19 
REMARK    5  A    between atoms: C12_21  and  C13_22 
ROOT
HETATM    1  N1  UNL     1      -3.221   3.734  -2.186  1.00  0.00    -0.195 NA
HETATM    2  C1  UNL     1      -3.034   2.602  -2.211  1.00  0.00     0.091 C 
HETATM    3  C2  UNL     1      -2.785   1.157  -2.267  1.00  0.00     0.229 C 
HETATM    4  C3  UNL     1      -1.324   0.933  -2.087  1.00  0.00     0.064 C 
HETATM    5  C4  UNL     1      -0.987   1.443  -0.703  1.00  0.00     0.114 C 
HETATM    6  C11 UNL     1      -1.862   0.840   0.328  1.00  0.00     0.168 C 
HETATM    7  C12 UNL     1      -3.260   0.562  -0.064  1.00  0.00     0.229 C 
HETATM    8  O5  UNL     1      -3.586   0.532  -1.363  1.00  0.00    -0.355 OA
ENDROOT
BRANCH   5   9
HETATM    9  C5  UNL     1       0.458   1.353  -0.421  1.00  0.00     0.242 C 
HETATM   10  O1  UNL     1       1.145   2.383  -0.107  1.00  0.00    -0.271 OA
HETATM   11  N2  UNL     1       1.153   0.116  -0.485  1.00  0.00    -0.270 N 
ATOM     12  H2  UNL     1       0.633  -0.726  -0.733  1.00  0.00     0.190 HD
BRANCH  11  13
HETATM   13  N3  UNL     1       2.513   0.008  -0.223  1.00  0.00    -0.307 N 
HETATM   14  C6  UNL     1       3.056  -1.101   0.164  1.00  0.00     0.144 C 
ATOM     15  H3  UNL     1       3.104   0.831  -0.340  1.00  0.00     0.186 HD
BRANCH  14  16
HETATM   16  C7  UNL     1       4.483  -1.200   0.436  1.00  0.00     0.091 A 
HETATM   17  C8  UNL     1       5.376  -0.138   0.308  1.00  0.00     0.040 A 
HETATM   18  C9  UNL     1       6.625  -0.613   0.648  1.00  0.00     0.027 A 
HETATM   19  C10 UNL     1       6.424  -1.947   0.967  1.00  0.00     0.142 A 
HETATM   20  O2  UNL     1       5.162  -2.228   0.824  1.00  0.00    -0.321 OA
ENDBRANCH  14  16
ENDBRANCH  11  13
ENDBRANCH   5   9
BRANCH   7  21
HETATM   21  C13 UNL     1      -3.732  -0.726   0.568  1.00  0.00     0.171 A 
HETATM   22  N4  UNL     1      -3.591  -1.975   0.076  1.00  0.00    -0.280 N 
HETATM   23  N5  UNL     1      -4.124  -2.856   0.893  1.00  0.00    -0.288 N 
ATOM     24  H4  UNL     1      -3.134  -2.203  -0.807  1.00  0.00     0.189 HD
HETATM   25  C14 UNL     1      -4.614  -2.147   1.928  1.00  0.00     0.251 A 
ATOM     26  H5  UNL     1      -4.159  -3.868   0.769  1.00  0.00     0.188 HD
HETATM   27  O4  UNL     1      -4.366  -0.882   1.706  1.00  0.00    -0.288 OA
ENDBRANCH   7  21
BRANCH   6  28
HETATM   28  O3  UNL     1      -1.285  -0.356   0.755  1.00  0.00    -0.392 OA
ATOM     29  H3  UNL     1      -1.846  -0.743   1.417  1.00  0.00     0.210 HD
ENDBRANCH   6  28
TORSDOF 5
