REMARK  11 active torsions:
REMARK  status: ('A' for Active; 'I' for Inactive)
REMARK    1  A    between atoms: C2_2  and  C3_3 
REMARK    2  A    between atoms: C2_2  and  N1_11 
REMARK    3  A    between atoms: C3_3  and  C4_4 
REMARK    4  A    between atoms: C4_4  and  C5_5 
REMARK    5  A    between atoms: N1_11  and  C11_13 
REMARK    6  A    between atoms: C11_13  and  C12_14 
REMARK    7  A    between atoms: C12_14  and  C13_15 
REMARK    8  A    between atoms: C17_20  and  N3_21 
REMARK    9  A    between atoms: N3_21  and  C18_23 
REMARK   10  A    between atoms: C18_23  and  C19_24 
REMARK   11  A    between atoms: C19_24  and  N4_25 
ROOT
HETATM    1  C13 UNL     1       0.630   1.401  -2.196  1.00  0.00    -0.054 A 
HETATM    2  C14 UNL     1       0.673   2.748  -1.911  1.00  0.00     0.009 A 
HETATM    3  C15 UNL     1       1.874   3.364  -1.542  1.00  0.00     0.029 A 
HETATM    4  C16 UNL     1       3.048   2.654  -1.451  1.00  0.00     0.072 A 
HETATM    5  N2  UNL     1       4.235   3.338  -1.070  1.00  0.00    -0.100 NA
HETATM    6  C17 UNL     1       3.021   1.307  -1.733  1.00  0.00     0.053 A 
HETATM    7  C24 UNL     1       1.826   0.702  -2.098  1.00  0.00     0.038 A 
ENDROOT
BRANCH   1   8
HETATM    8  C12 UNL     1      -0.620   0.703  -2.588  1.00  0.00     0.058 C 
BRANCH   8   9
HETATM    9  C11 UNL     1      -1.248   0.173  -1.276  1.00  0.00     0.124 C 
BRANCH   9  10
HETATM   10  N1  UNL     1      -1.499   1.299  -0.469  1.00  0.00    -0.396 N 
ATOM     11  H1  UNL     1      -1.326   2.235  -0.837  1.00  0.00     0.159 HD
BRANCH  10  12
HETATM   12  C2  UNL     1      -1.988   1.142   0.843  1.00  0.00    -0.022 C 
HETATM   13  C1  UNL     1      -1.051   0.362   1.754  1.00  0.00     0.062 C 
BRANCH  12  14
HETATM   14  C3  UNL     1      -3.421   0.854   1.072  1.00  0.00     0.052 C 
BRANCH  14  15
HETATM   15  C4  UNL     1      -3.878  -0.549   0.914  1.00  0.00     0.010 C 
BRANCH  15  16
HETATM   16  C5  UNL     1      -5.356  -0.727   1.182  1.00  0.00    -0.014 C 
HETATM   17  C6  UNL     1      -5.781  -0.343   2.559  1.00  0.00     0.004 C 
HETATM   18  C7  UNL     1      -7.282  -0.371   2.723  1.00  0.00     0.000 C 
HETATM   19  C8  UNL     1      -7.920  -1.201   1.621  1.00  0.00     0.000 C 
HETATM   20  C9  UNL     1      -7.625  -0.580   0.280  1.00  0.00     0.000 C 
HETATM   21  C10 UNL     1      -6.223  -0.019   0.186  1.00  0.00     0.004 C 
ENDBRANCH  15  16
ENDBRANCH  14  15
ENDBRANCH  12  14
ENDBRANCH  10  12
ENDBRANCH   9  10
ENDBRANCH   8   9
ENDBRANCH   1   8
BRANCH   6  22
HETATM   22  N3  UNL     1       4.230   0.573  -1.642  1.00  0.00    -0.387 N 
ATOM     23  H3  UNL     1       5.087   1.060  -1.378  1.00  0.00     0.159 HD
BRANCH  22  24
HETATM   24  C18 UNL     1       4.283  -0.860  -1.915  1.00  0.00     0.150 C 
BRANCH  24  25
HETATM   25  C19 UNL     1       5.699  -1.328  -1.756  1.00  0.00     0.292 C 
BRANCH  25  26
HETATM   26  N4  UNL     1       6.172  -1.073  -0.388  1.00  0.00     0.090 N 
HETATM   27  C20 UNL     1       7.549  -1.548  -0.332  1.00  0.00     0.272 C 
HETATM   28  C21 UNL     1       7.782  -1.663   1.142  1.00  0.00     0.032 C 
HETATM   29  C22 UNL     1       6.481  -2.289   1.633  1.00  0.00     0.032 C 
HETATM   30  C23 UNL     1       5.491  -1.951   0.547  1.00  0.00     0.272 C 
ENDBRANCH  25  26
ENDBRANCH  24  25
ENDBRANCH  22  24
ENDBRANCH   6  22
TORSDOF 11
