REMARK  10 active torsions:
REMARK  status: ('A' for Active; 'I' for Inactive)
REMARK    1  A    between atoms: N2_10  and  C8_12 
REMARK    2  A    between atoms: C13_17  and  N3_18 
REMARK    3  A    between atoms: C14_20  and  C15_21 
REMARK    4  A    between atoms: C15_21  and  C16_22 
REMARK    5  A    between atoms: C16_22  and  C17_23 
REMARK    6  A    between atoms: C17_23  and  C18_24 
REMARK    7  A    between atoms: C18_24  and  C19_25 
REMARK    8  A    between atoms: C19_25  and  N4_26 
REMARK    9  A    between atoms: N4_26  and  C20_28 
REMARK   10  A    between atoms: C20_28  and  C21_29 
ROOT
HETATM    1  C8  UNL     1      -2.828  -0.612  -0.021  1.00  0.00     0.129 C 
HETATM    2  C9  UNL     1      -3.169  -0.837   1.415  1.00  0.00     0.031 C 
HETATM    3  C10 UNL     1      -1.952  -1.357   2.172  1.00  0.00     0.003 C 
HETATM    4  C11 UNL     1      -1.710  -2.713   1.631  1.00  0.00     0.006 C 
HETATM    5  C12 UNL     1      -1.344  -2.706   0.170  1.00  0.00     0.054 C 
HETATM    6  C13 UNL     1      -2.046  -1.725  -0.656  1.00  0.00     0.009 C 
ENDROOT
BRANCH   6   7
HETATM    7  N3  UNL     1      -1.439  -1.466  -1.883  1.00  0.00    -0.374 N 
HETATM    8  C14 UNL     1      -0.619  -0.428  -2.174  1.00  0.00     0.061 C 
ATOM      9  H3  UNL     1      -1.631  -2.124  -2.638  1.00  0.00     0.164 HD
BRANCH   8  10
HETATM   10  C15 UNL     1       0.728  -0.178  -1.626  1.00  0.00     0.044 C 
BRANCH  10  11
HETATM   11  C16 UNL     1       1.842  -1.145  -1.879  1.00  0.00     0.005 C 
BRANCH  11  12
HETATM   12  C17 UNL     1       3.126  -0.600  -1.228  1.00  0.00     0.005 C 
BRANCH  12  13
HETATM   13  C18 UNL     1       3.578   0.678  -1.812  1.00  0.00     0.044 C 
BRANCH  13  14
HETATM   14  C19 UNL     1       4.683   1.348  -1.122  1.00  0.00     0.056 C 
BRANCH  14  15
HETATM   15  N4  UNL     1       5.960   0.916  -0.860  1.00  0.00    -0.398 N 
ATOM     16  H4  UNL     1       6.752   1.362  -1.323  1.00  0.00     0.158 HD
BRANCH  15  17
HETATM   17  C20 UNL     1       6.182  -0.150   0.054  1.00  0.00     0.159 C 
BRANCH  17  18
HETATM   18  C21 UNL     1       6.864   0.422   1.267  1.00  0.00    -0.017 A 
HETATM   19  C22 UNL     1       7.451   1.654   1.352  1.00  0.00     0.035 A 
HETATM   20  C23 UNL     1       7.850   1.756   2.681  1.00  0.00     0.142 A 
HETATM   21  O1  UNL     1       7.517   0.657   3.311  1.00  0.00    -0.334 OA
HETATM   22  C24 UNL     1       6.921  -0.175   2.500  1.00  0.00     0.150 A 
ENDBRANCH  17  18
ENDBRANCH  15  17
ENDBRANCH  14  15
ENDBRANCH  13  14
ENDBRANCH  12  13
ENDBRANCH  11  12
ENDBRANCH  10  11
ENDBRANCH   8  10
ENDBRANCH   6   7
BRANCH   1  23
HETATM   23  N2  UNL     1      -3.875  -0.116  -0.746  1.00  0.00    -0.366 N 
HETATM   24  C7  UNL     1      -4.935   0.504  -0.674  1.00  0.00     0.114 A 
HETATM   25  C4  UNL     1      -5.806   1.144   0.290  1.00  0.00     0.034 A 
HETATM   26  N1  UNL     1      -5.892   0.908  -1.673  1.00  0.00    -0.341 N 
HETATM   27  C3  UNL     1      -6.116   1.510   1.612  1.00  0.00     0.017 A 
HETATM   28  C5  UNL     1      -6.678   1.506  -0.670  1.00  0.00     0.047 A 
HETATM   29  C2  UNL     1      -7.250   2.201   1.923  1.00  0.00     0.001 A 
HETATM   30  C1  UNL     1      -8.138   2.567   0.935  1.00  0.00     0.002 A 
HETATM   31  C6  UNL     1      -7.871   2.224  -0.386  1.00  0.00     0.030 A 
ATOM     32  H1  UNL     1      -5.968   0.804  -2.685  1.00  0.00     0.167 HD
ATOM     33  H2  UNL     1      -3.716  -0.351  -1.726  1.00  0.00     0.161 HD
ENDBRANCH   1  23
TORSDOF 10
