REMARK  12 active torsions:
REMARK  status: ('A' for Active; 'I' for Inactive)
REMARK    1  A    between atoms: C4_4  and  N1_5 
REMARK    2  A    between atoms: N1_5  and  C5_7 
REMARK    3  A    between atoms: C5_7  and  C6_8 
REMARK    4  A    between atoms: C6_8  and  C7_9 
REMARK    5  A    between atoms: C7_9  and  C8_10 
REMARK    6  A    between atoms: C8_10  and  C9_11 
REMARK    7  A    between atoms: C9_11  and  C10_12 
REMARK    8  A    between atoms: C10_12  and  C11_13 
REMARK    9  A    between atoms: C11_13  and  C12_14 
REMARK   10  A    between atoms: C12_14  and  C13_15 
REMARK   11  A    between atoms: C13_15  and  N2_16 
REMARK   12  A    between atoms: C20_26  and  N3_27 
ROOT
HETATM    1  C1  UNL     1      -3.933   0.785  -2.055  1.00  0.00     0.050 C 
HETATM    2  C2  UNL     1      -2.966   0.058  -1.227  1.00  0.00    -0.032 A 
HETATM    3  C3  UNL     1      -1.736  -0.327  -1.747  1.00  0.00     0.039 A 
HETATM    4  C4  UNL     1      -0.790  -1.019  -0.997  1.00  0.00     0.039 A 
HETATM    5  C14 UNL     1      -1.104  -1.328   0.317  1.00  0.00     0.003 A 
HETATM    6  C15 UNL     1      -0.240  -2.000   1.138  1.00  0.00     0.014 A 
HETATM    7  C16 UNL     1      -0.556  -2.306   2.462  1.00  0.00     0.001 A 
HETATM    8  C17 UNL     1      -1.783  -1.908   2.937  1.00  0.00     0.001 A 
HETATM    9  C18 UNL     1      -2.681  -1.232   2.154  1.00  0.00     0.014 A 
HETATM   10  C19 UNL     1      -2.343  -0.945   0.855  1.00  0.00     0.003 A 
HETATM   11  C20 UNL     1      -3.271  -0.251   0.078  1.00  0.00     0.047 A 
ENDROOT
BRANCH   4  12
HETATM   12  N1  UNL     1       0.432  -1.442  -1.553  1.00  0.00    -0.389 N 
ATOM     13  H1  UNL     1       1.017  -2.106  -1.046  1.00  0.00     0.159 HD
BRANCH  12  14
HETATM   14  C5  UNL     1       0.859  -0.944  -2.828  1.00  0.00     0.119 C 
BRANCH  14  15
HETATM   15  C6  UNL     1       1.263   0.480  -2.884  1.00  0.00     0.020 C 
BRANCH  15  16
HETATM   16  C7  UNL     1       2.432   0.923  -2.099  1.00  0.00     0.002 C 
BRANCH  16  17
HETATM   17  C8  UNL     1       2.326   0.754  -0.629  1.00  0.00     0.000 C 
BRANCH  17  18
HETATM   18  C9  UNL     1       3.553   1.314   0.099  1.00  0.00     0.000 C 
BRANCH  18  19
HETATM   19  C10 UNL     1       4.824   0.632  -0.323  1.00  0.00     0.000 C 
BRANCH  19  20
HETATM   20  C11 UNL     1       5.948   1.269   0.481  1.00  0.00     0.002 C 
BRANCH  20  21
HETATM   21  C12 UNL     1       7.275   0.654   0.133  1.00  0.00     0.027 C 
BRANCH  21  22
HETATM   22  C13 UNL     1       7.303  -0.829   0.413  1.00  0.00     0.229 C 
BRANCH  22  23
HETATM   23  N2  UNL     1       7.065  -1.128   1.805  1.00  0.00    -0.079 N 
ATOM     24  H23 UNL     1       7.719  -0.627   2.406  1.00  0.00     0.274 HD
ATOM     25  H22 UNL     1       6.193  -0.709   2.128  1.00  0.00     0.274 HD
ATOM     26  H21 UNL     1       7.084  -2.130   1.994  1.00  0.00     0.274 HD
ENDBRANCH  22  23
ENDBRANCH  21  22
ENDBRANCH  20  21
ENDBRANCH  19  20
ENDBRANCH  18  19
ENDBRANCH  17  18
ENDBRANCH  16  17
ENDBRANCH  15  16
ENDBRANCH  14  15
ENDBRANCH  12  14
ENDBRANCH   4  12
BRANCH  11  27
HETATM   27  N3  UNL     1      -4.526   0.143   0.600  1.00  0.00    -0.377 N 
HETATM   28  C21 UNL     1      -4.771   1.415   1.271  1.00  0.00     0.142 C 
HETATM   29  C22 UNL     1      -6.258   1.766   1.186  1.00  0.00     0.133 C 
HETATM   30  N4  UNL     1      -7.035   0.782   1.869  1.00  0.00    -0.418 N 
HETATM   31  C23 UNL     1      -6.651  -0.581   1.622  1.00  0.00     0.133 C 
ATOM     32  H4  UNL     1      -7.807   1.029   2.488  1.00  0.00     0.153 HD
HETATM   33  C24 UNL     1      -5.683  -0.723   0.488  1.00  0.00     0.142 C 
ENDBRANCH  11  27
TORSDOF 12
