REMARK  12 active torsions:
REMARK  status: ('A' for Active; 'I' for Inactive)
REMARK    1  A    between atoms: C2_2  and  C4_4 
REMARK    2  A    between atoms: C5_5  and  C6_6 
REMARK    3  A    between atoms: C7_7  and  C8_8 
REMARK    4  A    between atoms: C8_8  and  O1_11 
REMARK    5  A    between atoms: C14_16  and  C15_17 
REMARK    6  A    between atoms: C19_21  and  O2_22 
REMARK    7  A    between atoms: O2_22  and  C20_23 
REMARK    8  A    between atoms: C20_23  and  C21_25 
REMARK    9  A    between atoms: C22_26  and  C23_27 
REMARK   10  A    between atoms: C26_30  and  O4_31 
REMARK   11  A    between atoms: C28_33  and  O5_34 
REMARK   12  A    between atoms: C32_38  and  O6_39 
ROOT
HETATM    1  C4  UNL     1      -3.730  -1.069   0.512  1.00  0.00    -0.056 C 
HETATM    2  C5  UNL     1      -3.450  -0.081  -0.583  1.00  0.00     0.039 C 
HETATM    3  C11 UNL     1      -1.961  -0.297  -0.876  1.00  0.00     0.023 C 
HETATM    4  C12 UNL     1      -1.581  -1.500  -0.080  1.00  0.00     0.033 C 
HETATM    5  C13 UNL     1      -0.185  -1.692   0.264  1.00  0.00    -0.048 C 
HETATM    6  C14 UNL     1       0.553  -2.663  -0.228  1.00  0.00    -0.012 C 
HETATM    7  C19 UNL     1       0.510  -0.767   1.252  1.00  0.00     0.164 C 
HETATM    8  C31 UNL     1      -0.437  -0.391   2.360  1.00  0.00     0.070 C 
HETATM    9  C32 UNL     1      -1.808  -0.011   1.807  1.00  0.00     0.134 C 
HETATM   10  C33 UNL     1      -2.438  -1.201   1.210  1.00  0.00     0.014 C 
HETATM   11  C34 UNL     1      -2.265  -2.403   2.081  1.00  0.00     0.023 C 
ENDROOT
BRANCH   7  12
HETATM   12  O2  UNL     1       0.956   0.334   0.494  1.00  0.00    -0.308 OA
BRANCH  12  13
HETATM   13  C20 UNL     1       2.351   0.633   0.345  1.00  0.00     0.283 C 
HETATM   14  O3  UNL     1       3.044  -0.192   0.958  1.00  0.00    -0.260 OA
BRANCH  13  15
HETATM   15  C21 UNL     1       2.783   1.742  -0.419  1.00  0.00     0.083 C 
HETATM   16  C22 UNL     1       3.859   2.311  -0.783  1.00  0.00     0.017 C 
BRANCH  16  17
HETATM   17  C23 UNL     1       5.275   2.156  -0.630  1.00  0.00    -0.033 A 
HETATM   18  C24 UNL     1       6.106   3.175  -1.153  1.00  0.00     0.014 A 
HETATM   19  C25 UNL     1       7.470   3.088  -1.066  1.00  0.00     0.040 A 
HETATM   20  C26 UNL     1       8.070   2.004  -0.466  1.00  0.00     0.101 A 
HETATM   21  C28 UNL     1       7.292   1.001   0.050  1.00  0.00     0.102 A 
HETATM   22  C30 UNL     1       5.906   1.101  -0.045  1.00  0.00     0.051 A 
BRANCH  20  23
HETATM   23  O4  UNL     1       9.468   1.958  -0.399  1.00  0.00    -0.353 OA
HETATM   24  C27 UNL     1      10.217   3.022  -0.948  1.00  0.00     0.210 C 
ENDBRANCH  20  23
BRANCH  21  25
HETATM   25  O5  UNL     1       7.919  -0.079   0.649  1.00  0.00    -0.353 OA
HETATM   26  C29 UNL     1       7.232  -1.169   1.214  1.00  0.00     0.210 C 
ENDBRANCH  21  25
ENDBRANCH  16  17
ENDBRANCH  13  15
ENDBRANCH  12  13
ENDBRANCH   7  12
BRANCH   6  27
HETATM   27  C15 UNL     1       0.202  -3.727  -1.176  1.00  0.00    -0.033 C 
HETATM   28  C16 UNL     1       1.440  -4.563  -1.535  1.00  0.00     0.018 C 
HETATM   29  C17 UNL     1      -0.845  -4.687  -0.734  1.00  0.00     0.018 C 
HETATM   30  C18 UNL     1      -0.222  -3.097  -2.485  1.00  0.00     0.018 C 
ENDBRANCH   6  27
BRANCH   9  31
HETATM   31  O6  UNL     1      -2.464   0.583   2.877  1.00  0.00    -0.394 OA
ATOM     32  H6  UNL     1      -3.317   0.820   2.533  1.00  0.00     0.210 HD
ENDBRANCH   9  31
BRANCH   2  33
HETATM   33  C6  UNL     1      -3.852   1.290  -0.362  1.00  0.00    -0.019 C 
HETATM   34  C7  UNL     1      -4.764   1.913  -1.151  1.00  0.00     0.006 C 
BRANCH  34  35
HETATM   35  C8  UNL     1      -5.198   3.309  -0.956  1.00  0.00     0.068 C 
HETATM   36  C9  UNL     1      -6.705   3.415  -1.106  1.00  0.00     0.050 C 
HETATM   37  C10 UNL     1      -4.871   3.825   0.437  1.00  0.00     0.050 C 
BRANCH  35  38
HETATM   38  O1  UNL     1      -4.606   4.195  -1.860  1.00  0.00    -0.387 OA
ATOM     39  H1  UNL     1      -4.886   5.094  -1.734  1.00  0.00     0.211 HD
ENDBRANCH  35  38
ENDBRANCH  34  35
ENDBRANCH   2  33
BRANCH   1  40
HETATM   40  C2  UNL     1      -4.984  -1.022   1.182  1.00  0.00    -0.067 C 
HETATM   41  C1  UNL     1      -5.171  -1.128   2.462  1.00  0.00     0.018 C 
HETATM   42  C3  UNL     1      -6.222  -0.813   0.326  1.00  0.00     0.047 C 
ENDBRANCH   1  40
TORSDOF 12
