REMARK  14 active torsions:
REMARK  status: ('A' for Active; 'I' for Inactive)
REMARK    1  A    between atoms: C2_2  and  C4_4 
REMARK    2  A    between atoms: C7_7  and  C8_8 
REMARK    3  A    between atoms: C8_8  and  C10_10 
REMARK    4  A    between atoms: C10_10  and  C11_11 
REMARK    5  A    between atoms: C11_11  and  O2_13 
REMARK    6  A    between atoms: C16_18  and  O3_19 
REMARK    7  A    between atoms: O3_19  and  C17_20 
REMARK    8  A    between atoms: C17_20  and  O4_21 
REMARK    9  A    between atoms: C17_20  and  C18_23 
REMARK   10  A    between atoms: C18_23  and  C19_24 
REMARK   11  A    between atoms: C21_26  and  O5_27 
REMARK   12  A    between atoms: C25_32  and  C26_33 
REMARK   13  A    between atoms: C26_33  and  O6_36 
REMARK   14  A    between atoms: C29_38  and  C31_40 
ROOT
HETATM    1  C4  UNL     1       3.026  -1.627  -0.806  1.00  0.00     0.019 C 
HETATM    2  C5  UNL     1       4.053  -1.071   0.270  1.00  0.00     0.010 C 
HETATM    3  C6  UNL     1       3.414  -1.179   1.573  1.00  0.00     0.010 C 
HETATM    4  C7  UNL     1       2.177  -0.379   1.504  1.00  0.00     0.023 C 
HETATM    5  C13 UNL     1       1.154  -0.784   0.426  1.00  0.00    -0.029 C 
HETATM    6  C14 UNL     1       0.884  -2.233   0.758  1.00  0.00     0.016 C 
HETATM    7  C15 UNL     1       0.091   0.141   0.719  1.00  0.00     0.045 C 
HETATM    8  C16 UNL     1      -0.981   0.682  -0.193  1.00  0.00     0.164 C 
HETATM    9  C21 UNL     1      -1.439  -0.252  -1.142  1.00  0.00     0.114 C 
HETATM   10  C22 UNL     1      -0.340  -0.786  -2.048  1.00  0.00    -0.038 C 
HETATM   11  C23 UNL     1      -0.982  -1.632  -2.841  1.00  0.00    -0.019 C 
HETATM   12  C24 UNL     1      -2.458  -1.690  -2.528  1.00  0.00     0.038 C 
HETATM   13  C25 UNL     1      -2.586  -0.213  -2.037  1.00  0.00     0.064 C 
HETATM   14  C29 UNL     1       1.145  -0.452  -2.125  1.00  0.00    -0.010 C 
HETATM   15  C30 UNL     1       1.621  -1.279  -3.342  1.00  0.00     0.021 C 
HETATM   16  C34 UNL     1       1.928  -0.652  -0.908  1.00  0.00     0.015 C 
ENDROOT
BRANCH   4  17
HETATM   17  C8  UNL     1       1.684  -0.183   2.870  1.00  0.00    -0.075 C 
HETATM   18  C9  UNL     1       1.820   1.017   3.430  1.00  0.00     0.015 C 
BRANCH  17  19
HETATM   19  C10 UNL     1       1.137  -1.237   3.751  1.00  0.00     0.144 C 
BRANCH  19  20
HETATM   20  C11 UNL     1       0.981  -0.783   5.154  1.00  0.00     0.262 C 
HETATM   21  O1  UNL     1       1.892  -0.920   5.976  1.00  0.00    -0.265 OA
BRANCH  20  22
HETATM   22  O2  UNL     1      -0.210  -0.173   5.624  1.00  0.00    -0.326 OA
HETATM   23  C12 UNL     1      -0.285   0.244   6.986  1.00  0.00     0.213 C 
ENDBRANCH  20  22
ENDBRANCH  19  20
ENDBRANCH  17  19
ENDBRANCH   4  17
BRANCH   1  24
HETATM   24  C2  UNL     1       4.040  -1.947  -1.768  1.00  0.00    -0.088 C 
HETATM   25  C1  UNL     1       4.157  -3.145  -2.304  1.00  0.00     0.014 C 
HETATM   26  C3  UNL     1       5.191  -1.043  -2.207  1.00  0.00     0.043 C 
ENDBRANCH   1  24
BRANCH   8  27
HETATM   27  O3  UNL     1      -2.076   0.891   0.744  1.00  0.00    -0.353 OA
BRANCH  27  28
HETATM   28  C17 UNL     1      -2.366   2.008   1.394  1.00  0.00     0.257 C 
BRANCH  28  29
HETATM   29  O4  UNL     1      -1.585   3.036   1.225  1.00  0.00    -0.371 OA
ATOM     30  H4  UNL     1      -1.793   3.837   1.691  1.00  0.00     0.212 HD
ENDBRANCH  28  29
BRANCH  28  31
HETATM   31  C18 UNL     1      -3.485   2.256   2.309  1.00  0.00     0.060 C 
BRANCH  31  32
HETATM   32  C19 UNL     1      -3.482   3.673   2.884  1.00  0.00     0.000 C 
HETATM   33  C20 UNL     1      -3.551   4.749   1.854  1.00  0.00     0.005 C 
ENDBRANCH  31  32
ENDBRANCH  28  31
ENDBRANCH  27  28
ENDBRANCH   8  27
BRANCH  14  34
HETATM   34  C31 UNL     1       1.169   0.963  -2.704  1.00  0.00    -0.010 C 
HETATM   35  C32 UNL     1       2.506   1.594  -2.897  1.00  0.00     0.010 C 
HETATM   36  C33 UNL     1       0.533   1.067  -4.078  1.00  0.00     0.010 C 
ENDBRANCH  14  34
BRANCH   9  37
HETATM   37  O5  UNL     1      -1.836  -1.411  -0.304  1.00  0.00    -0.382 OA
ATOM     38  H5  UNL     1      -2.145  -2.041  -0.944  1.00  0.00     0.211 HD
ENDBRANCH   9  37
BRANCH  13  39
HETATM   39  C26 UNL     1      -3.958   0.046  -1.670  1.00  0.00     0.058 C 
HETATM   40  C27 UNL     1      -4.613  -0.825  -0.646  1.00  0.00     0.046 C 
HETATM   41  C28 UNL     1      -4.767  -0.309  -2.975  1.00  0.00     0.046 C 
BRANCH  39  42
HETATM   42  O6  UNL     1      -4.352   1.358  -1.467  1.00  0.00    -0.390 OA
ATOM     43  H6  UNL     1      -5.255   1.528  -1.225  1.00  0.00     0.210 HD
ENDBRANCH  39  42
ENDBRANCH  13  39
TORSDOF 14
