REMARK  12 active torsions:
REMARK  status: ('A' for Active; 'I' for Inactive)
REMARK    1  A    between atoms: C13_14  and  C14_15 
REMARK    2  A    between atoms: C14_15  and  C15_16 
REMARK    3  A    between atoms: C15_16  and  C16_17 
REMARK    4  A    between atoms: C16_17  and  C17_18 
REMARK    5  A    between atoms: C17_18  and  O2_20 
REMARK    6  A    between atoms: C17_18  and  C19_22 
REMARK    7  A    between atoms: C19_22  and  C20_23 
REMARK    8  A    between atoms: C20_23  and  C21_24 
REMARK    9  A    between atoms: C21_24  and  C22_25 
REMARK   10  A    between atoms: C24_28  and  C25_29 
REMARK   11  A    between atoms: C28_33  and  O5_34 
REMARK   12  A    between atoms: O5_34  and  C29_35 
ROOT
HETATM    1  C1  UNL     1      -2.262   4.056   1.723  1.00  0.00     0.015 C 
HETATM    2  C2  UNL     1      -2.198   2.878   2.271  1.00  0.00    -0.078 C 
HETATM    3  C3  UNL     1      -2.681   2.651   3.678  1.00  0.00     0.034 C 
HETATM    4  C4  UNL     1      -2.345   1.167   3.960  1.00  0.00     0.010 C 
HETATM    5  C5  UNL     1      -2.681   0.692   2.574  1.00  0.00     0.006 C 
HETATM    6  C6  UNL     1      -2.256  -0.557   2.088  1.00  0.00     0.011 C 
HETATM    7  C7  UNL     1      -3.219  -1.699   2.472  1.00  0.00     0.036 C 
HETATM    8  C8  UNL     1      -2.738  -2.850   1.653  1.00  0.00     0.007 C 
HETATM    9  C9  UNL     1      -2.606  -2.540   0.402  1.00  0.00     0.053 C 
HETATM   10  O1  UNL     1      -2.148  -3.163  -0.726  1.00  0.00    -0.340 OA
HETATM   11  C10 UNL     1      -0.802  -2.394  -0.906  1.00  0.00     0.086 C 
HETATM   12  C11 UNL     1      -0.323  -2.384  -2.234  1.00  0.00     0.051 C 
HETATM   13  C12 UNL     1       0.044  -3.650  -0.405  1.00  0.00     0.051 C 
HETATM   14  C13 UNL     1      -0.686  -1.303   0.151  1.00  0.00    -0.015 C 
HETATM   15  C27 UNL     1      -1.886  -0.457   0.555  1.00  0.00     0.032 C 
HETATM   16  C28 UNL     1      -1.834   1.027   0.472  1.00  0.00     0.159 C 
HETATM   17  C31 UNL     1      -1.717   1.636   1.825  1.00  0.00     0.011 C 
HETATM   18  C32 UNL     1      -0.323   1.599   2.413  1.00  0.00     0.023 C 
HETATM   19  C33 UNL     1      -3.088  -1.133  -0.043  1.00  0.00     0.016 C 
HETATM   20  C34 UNL     1      -3.216  -1.130  -1.543  1.00  0.00     0.023 C 
HETATM   21  C35 UNL     1      -4.453  -1.034   0.385  1.00  0.00     0.023 C 
ENDROOT
BRANCH  14  22
HETATM   22  C14 UNL     1       0.615  -0.684  -0.199  1.00  0.00     0.015 C 
HETATM   23  C24 UNL     1       1.690  -0.868   0.566  1.00  0.00     0.069 C 
BRANCH  22  24
HETATM   24  C15 UNL     1       0.951   0.074  -1.371  1.00  0.00    -0.141 C 
BRANCH  24  25
HETATM   25  C16 UNL     1       1.239   0.723  -2.374  1.00  0.00     0.123 C 
BRANCH  25  26
HETATM   26  C17 UNL     1       2.481   1.291  -2.886  1.00  0.00     0.064 C 
HETATM   27  C18 UNL     1       2.899   2.379  -1.893  1.00  0.00     0.046 C 
BRANCH  26  28
HETATM   28  O2  UNL     1       2.168   2.050  -4.094  1.00  0.00    -0.389 OA
ATOM     29  H2  UNL     1       2.977   2.420  -4.427  1.00  0.00     0.210 HD
ENDBRANCH  26  28
BRANCH  26  30
HETATM   30  C19 UNL     1       3.592   0.436  -3.269  1.00  0.00     0.038 C 
BRANCH  30  31
HETATM   31  C20 UNL     1       4.341  -0.427  -2.358  1.00  0.00     0.010 C 
BRANCH  31  32
HETATM   32  C21 UNL     1       5.150   0.247  -1.277  1.00  0.00     0.078 C 
BRANCH  32  33
HETATM   33  C22 UNL     1       5.901  -0.793  -0.484  1.00  0.00     0.123 C 
HETATM   34  C23 UNL     1       6.730  -0.390   0.667  1.00  0.00     0.091 C 
HETATM   35  O3  UNL     1       5.803  -1.947  -0.817  1.00  0.00    -0.298 OA
ENDBRANCH  32  33
ENDBRANCH  31  32
ENDBRANCH  30  31
ENDBRANCH  26  30
ENDBRANCH  25  26
ENDBRANCH  24  25
ENDBRANCH  22  24
BRANCH  23  36
HETATM   36  C25 UNL     1       2.001  -1.556   1.760  1.00  0.00     0.146 C 
HETATM   37  C26 UNL     1       3.394  -1.572   2.350  1.00  0.00     0.096 C 
HETATM   38  O4  UNL     1       1.197  -2.209   2.447  1.00  0.00    -0.294 OA
ENDBRANCH  23  36
ENDBRANCH  14  22
BRANCH  16  39
HETATM   39  O5  UNL     1      -2.777   1.519  -0.381  1.00  0.00    -0.314 OA
BRANCH  39  40
HETATM   40  C29 UNL     1      -2.729   2.355  -1.435  1.00  0.00     0.255 C 
HETATM   41  C30 UNL     1      -3.840   2.800  -2.283  1.00  0.00     0.126 C 
HETATM   42  O6  UNL     1      -1.588   2.735  -1.632  1.00  0.00    -0.266 OA
ENDBRANCH  39  40
ENDBRANCH  16  39
TORSDOF 12
