REMARK  11 active torsions:
REMARK  status: ('A' for Active; 'I' for Inactive)
REMARK    1  A    between atoms: C2_2  and  C4_4 
REMARK    2  A    between atoms: C13_15  and  C15_17 
REMARK    3  A    between atoms: C15_17  and  C16_18 
REMARK    4  A    between atoms: C16_18  and  C17_19 
REMARK    5  A    between atoms: C17_19  and  C20_22 
REMARK    6  A    between atoms: C20_22  and  C21_23 
REMARK    7  A    between atoms: C21_23  and  C22_24 
REMARK    8  A    between atoms: C26_28  and  O3_29 
REMARK    9  A    between atoms: C27_31  and  O4_32 
REMARK   10  A    between atoms: C29_36  and  C30_37 
REMARK   11  A    between atoms: C30_37  and  C31_38 
ROOT
HETATM    1  C31 UNL     1      -6.367  -1.785  -0.794  1.00  0.00     0.019 C 
HETATM    2  C32 UNL     1      -7.492  -2.341  -1.239  1.00  0.00     0.018 C 
HETATM    3  C33 UNL     1      -8.720  -2.429  -0.421  1.00  0.00     0.060 C 
HETATM    4  C34 UNL     1      -7.496  -2.871  -2.568  1.00  0.00     0.094 C 
HETATM    5  N1  UNL     1      -7.482  -3.294  -3.649  1.00  0.00    -0.192 NA
ENDROOT
BRANCH   1   6
HETATM    6  C30 UNL     1      -5.170  -1.711  -1.620  1.00  0.00     0.015 C 
BRANCH   6   7
HETATM    7  C29 UNL     1      -4.066  -1.164  -1.189  1.00  0.00     0.020 C 
HETATM    8  C9  UNL     1      -3.945  -0.580   0.156  1.00  0.00     0.163 C 
HETATM    9  C7  UNL     1      -4.537   0.719   0.439  1.00  0.00     0.015 C 
HETATM   10  O1  UNL     1      -2.610  -0.576   0.421  1.00  0.00    -0.359 OA
HETATM   11  C6  UNL     1      -3.617   1.783   1.021  1.00  0.00     0.008 C 
HETATM   12  C8  UNL     1      -5.329   1.375  -0.669  1.00  0.00     0.013 C 
HETATM   13  C5  UNL     1      -2.709   1.311   2.070  1.00  0.00     0.013 C 
HETATM   14  C4  UNL     1      -1.226   1.306   1.828  1.00  0.00     0.054 C 
HETATM   15  C26 UNL     1      -0.658   0.503   0.723  1.00  0.00     0.133 C 
HETATM   16  C10 UNL     1      -1.755   0.164  -0.260  1.00  0.00     0.171 A 
HETATM   17  C13 UNL     1       0.382   1.162  -0.104  1.00  0.00     0.093 C 
HETATM   18  C11 UNL     1      -1.282   0.614  -1.484  1.00  0.00     0.138 A 
HETATM   19  C27 UNL     1      -1.524  -0.813  -1.436  1.00  0.00     0.194 A 
HETATM   20  C12 UNL     1      -1.988   1.490  -2.526  1.00  0.00     0.053 C 
HETATM   21  O2  UNL     1       0.073   0.951  -1.436  1.00  0.00    -0.360 OA
HETATM   22  C28 UNL     1      -2.887  -1.136  -2.022  1.00  0.00     0.199 C 
HETATM   23  O5  UNL     1      -2.920  -1.372  -3.246  1.00  0.00    -0.289 OA
HETATM   24  C14 UNL     1       0.247   2.726  -0.008  1.00  0.00     0.049 C 
BRANCH  14  25
HETATM   25  C2  UNL     1      -0.668   0.892   3.145  1.00  0.00    -0.086 C 
HETATM   26  C1  UNL     1       0.077   1.680   3.911  1.00  0.00     0.014 C 
HETATM   27  C3  UNL     1      -1.006  -0.434   3.704  1.00  0.00     0.043 C 
ENDBRANCH  14  25
BRANCH  15  28
HETATM   28  O3  UNL     1      -0.174  -0.710   1.206  1.00  0.00    -0.383 OA
ATOM     29  H3  UNL     1       0.191  -1.226   0.496  1.00  0.00     0.210 HD
ENDBRANCH  15  28
BRANCH  19  30
HETATM   30  O4  UNL     1      -0.624  -1.823  -1.314  1.00  0.00    -0.376 OA
ATOM     31  H4  UNL     1      -0.482  -2.423  -2.037  1.00  0.00     0.211 HD
ENDBRANCH  19  30
BRANCH  17  32
HETATM   32  C15 UNL     1       1.820   0.950   0.206  1.00  0.00     0.042 C 
BRANCH  32  33
HETATM   33  C16 UNL     1       2.433  -0.344  -0.111  1.00  0.00     0.012 C 
BRANCH  33  34
HETATM   34  C17 UNL     1       3.914  -0.367   0.350  1.00  0.00    -0.047 C 
HETATM   35  C18 UNL     1       4.001  -0.118   1.824  1.00  0.00     0.015 C 
HETATM   36  C19 UNL     1       4.360  -1.835   0.146  1.00  0.00     0.015 C 
BRANCH  34  37
HETATM   37  C20 UNL     1       4.718   0.521  -0.502  1.00  0.00     0.012 C 
BRANCH  37  38
HETATM   38  C21 UNL     1       6.162   0.703  -0.246  1.00  0.00     0.028 C 
BRANCH  38  39
HETATM   39  C22 UNL     1       6.977  -0.501  -0.362  1.00  0.00    -0.025 C 
HETATM   40  C23 UNL     1       7.905  -0.603  -1.322  1.00  0.00    -0.091 C 
HETATM   41  C24 UNL     1       8.745  -1.838  -1.444  1.00  0.00     0.042 C 
HETATM   42  C25 UNL     1       8.098   0.509  -2.265  1.00  0.00     0.042 C 
ENDBRANCH  38  39
ENDBRANCH  37  38
ENDBRANCH  34  37
ENDBRANCH  33  34
ENDBRANCH  32  33
ENDBRANCH  17  32
ENDBRANCH   6   7
ENDBRANCH   1   6
TORSDOF 11
