REMARK  14 active torsions:
REMARK  status: ('A' for Active; 'I' for Inactive)
REMARK    1  A    between atoms: C3_3  and  C4_4 
REMARK    2  A    between atoms: C5_5  and  C6_6 
REMARK    3  A    between atoms: C8_8  and  C9_9 
REMARK    4  A    between atoms: C10_10  and  C11_11 
REMARK    5  A    between atoms: C11_11  and  C13_13 
REMARK    6  A    between atoms: C13_13  and  C14_14 
REMARK    7  A    between atoms: C14_14  and  C15_15 
REMARK    8  A    between atoms: C15_15  and  C16_16 
REMARK    9  A    between atoms: C16_16  and  C18_18 
REMARK   10  A    between atoms: C19_21  and  O3_23 
REMARK   11  A    between atoms: C22_26  and  O4_27 
REMARK   12  A    between atoms: O4_27  and  C23_28 
REMARK   13  A    between atoms: C27_33  and  O6_34 
REMARK   14  A    between atoms: O6_34  and  C28_35 
ROOT
HETATM    1  C1  UNL     1      -1.592  -2.288   0.753  1.00  0.00     0.020 C 
HETATM    2  C2  UNL     1      -2.247  -1.233   1.240  1.00  0.00    -0.050 C 
HETATM    3  C3  UNL     1      -1.588  -0.305   2.132  1.00  0.00    -0.018 C 
HETATM    4  C19 UNL     1      -2.412   0.100   3.325  1.00  0.00     0.084 C 
HETATM    5  C20 UNL     1      -1.513  -0.272   4.520  1.00  0.00     0.051 C 
HETATM    6  C21 UNL     1      -3.656  -0.722   3.436  1.00  0.00     0.082 C 
HETATM    7  C22 UNL     1      -4.489  -0.843   2.207  1.00  0.00     0.082 C 
HETATM    8  C25 UNL     1      -5.380   0.420   2.215  1.00  0.00     0.042 C 
HETATM    9  C26 UNL     1      -6.112   0.368   0.889  1.00  0.00     0.036 C 
HETATM   10  C27 UNL     1      -5.168   0.736  -0.204  1.00  0.00     0.140 C 
HETATM   11  C30 UNL     1      -3.882  -0.065  -0.168  1.00  0.00    -0.010 C 
HETATM   12  C31 UNL     1      -3.910  -0.871  -1.492  1.00  0.00     0.018 C 
HETATM   13  C32 UNL     1      -2.757   0.919  -0.436  1.00  0.00     0.018 C 
HETATM   14  C33 UNL     1      -3.706  -0.997   0.937  1.00  0.00     0.064 C 
ENDROOT
BRANCH   3  15
HETATM   15  C4  UNL     1      -0.371   0.164   1.981  1.00  0.00     0.011 C 
HETATM   16  C5  UNL     1       0.583  -0.098   0.959  1.00  0.00     0.007 C 
BRANCH  16  17
HETATM   17  C6  UNL     1       1.789   0.505   0.975  1.00  0.00    -0.062 C 
HETATM   18  C7  UNL     1       2.148   1.456   2.044  1.00  0.00     0.048 C 
HETATM   19  C8  UNL     1       2.714   0.096  -0.041  1.00  0.00     0.007 C 
BRANCH  19  20
HETATM   20  C9  UNL     1       3.925   0.613  -0.200  1.00  0.00     0.001 C 
HETATM   21  C10 UNL     1       4.739   0.097  -1.255  1.00  0.00     0.007 C 
BRANCH  21  22
HETATM   22  C11 UNL     1       5.955   0.468  -1.638  1.00  0.00    -0.062 C 
HETATM   23  C12 UNL     1       6.671   1.564  -0.969  1.00  0.00     0.048 C 
BRANCH  22  24
HETATM   24  C13 UNL     1       6.546  -0.358  -2.678  1.00  0.00     0.007 C 
BRANCH  24  25
HETATM   25  C14 UNL     1       7.653  -0.259  -3.316  1.00  0.00     0.001 C 
BRANCH  25  26
HETATM   26  C15 UNL     1       8.675   0.718  -3.219  1.00  0.00     0.013 C 
BRANCH  26  27
HETATM   27  C16 UNL     1       9.769   0.561  -4.022  1.00  0.00     0.015 C 
HETATM   28  C17 UNL     1       9.831  -0.591  -4.902  1.00  0.00     0.055 C 
BRANCH  27  29
HETATM   29  C18 UNL     1      10.808   1.549  -3.941  1.00  0.00     0.204 C 
HETATM   30  O1  UNL     1      11.847   1.438  -4.675  1.00  0.00    -0.644 OA
HETATM   31  O2  UNL     1      10.720   2.616  -3.096  1.00  0.00    -0.644 OA
ENDBRANCH  27  29
ENDBRANCH  26  27
ENDBRANCH  25  26
ENDBRANCH  24  25
ENDBRANCH  22  24
ENDBRANCH  21  22
ENDBRANCH  19  20
ENDBRANCH  16  17
ENDBRANCH   3  15
BRANCH   4  32
HETATM   32  O3  UNL     1      -2.591   1.466   3.415  1.00  0.00    -0.385 OA
ATOM     33  H3  UNL     1      -3.111   1.722   4.168  1.00  0.00     0.211 HD
ENDBRANCH   4  32
BRANCH   7  34
HETATM   34  O4  UNL     1      -5.444  -1.862   2.402  1.00  0.00    -0.309 OA
BRANCH  34  35
HETATM   35  C23 UNL     1      -5.285  -3.170   2.668  1.00  0.00     0.255 C 
HETATM   36  C24 UNL     1      -6.407  -4.141   2.850  1.00  0.00     0.126 C 
HETATM   37  O5  UNL     1      -4.142  -3.636   2.777  1.00  0.00    -0.266 OA
ENDBRANCH  34  35
ENDBRANCH   7  34
BRANCH  10  38
HETATM   38  O6  UNL     1      -5.790   0.747  -1.455  1.00  0.00    -0.316 OA
BRANCH  38  39
HETATM   39  C28 UNL     1      -5.984   1.900  -2.202  1.00  0.00     0.255 C 
HETATM   40  C29 UNL     1      -6.625   1.902  -3.523  1.00  0.00     0.126 C 
HETATM   41  O7  UNL     1      -5.583   2.987  -1.707  1.00  0.00    -0.266 OA
ENDBRANCH  38  39
ENDBRANCH  10  38
TORSDOF 14
