REMARK  15 active torsions:
REMARK  status: ('A' for Active; 'I' for Inactive)
REMARK    1  A    between atoms: C4_4  and  C5_5 
REMARK    2  A    between atoms: C5_5  and  C6_6 
REMARK    3  A    between atoms: C9_9  and  C10_10 
REMARK    4  A    between atoms: C10_10  and  C11_11 
REMARK    5  A    between atoms: C11_11  and  C12_12 
REMARK    6  A    between atoms: C12_12  and  C14_14 
REMARK    7  A    between atoms: C14_14  and  C15_15 
REMARK    8  A    between atoms: C15_15  and  C17_17 
REMARK    9  A    between atoms: C17_17  and  C18_18 
REMARK   10  A    between atoms: C18_18  and  O1_19 
REMARK   11  A    between atoms: C18_18  and  O2_21 
REMARK   12  A    between atoms: O2_21  and  C19_22 
REMARK   13  A    between atoms: C19_22  and  C20_24 
REMARK   14  A    between atoms: C32_37  and  O5_38 
REMARK   15  A    between atoms: C33_40  and  O6_42 
ROOT
HETATM    1  C11 UNL     1      -0.856  -0.618  -1.575  1.00  0.00     0.007 C 
ENDROOT
BRANCH   1   2
HETATM    2  C10 UNL     1      -2.137  -0.356  -1.765  1.00  0.00     0.001 C 
BRANCH   2   3
HETATM    3  C9  UNL     1      -3.091  -0.077  -0.735  1.00  0.00     0.011 C 
HETATM    4  C8  UNL     1      -4.358   0.130  -0.919  1.00  0.00    -0.011 C 
HETATM    5  C7  UNL     1      -5.179   0.431   0.296  1.00  0.00     0.050 C 
HETATM    6  C29 UNL     1      -4.927  -0.027  -2.253  1.00  0.00     0.162 C 
HETATM    7  C6  UNL     1      -6.625   0.616  -0.114  1.00  0.00     0.030 C 
HETATM    8  C33 UNL     1      -7.230  -0.696  -0.392  1.00  0.00     0.085 C 
HETATM    9  C32 UNL     1      -7.252  -0.989  -1.848  1.00  0.00     0.163 C 
HETATM   10  C34 UNL     1      -8.713  -0.718   0.051  1.00  0.00     0.049 C 
HETATM   11  C30 UNL     1      -6.055  -0.900  -2.675  1.00  0.00     0.088 C 
HETATM   12  C31 UNL     1      -5.494  -2.310  -3.020  1.00  0.00     0.021 C 
HETATM   13  O4  UNL     1      -4.380   0.668  -3.138  1.00  0.00    -0.292 OA
BRANCH   7  14
HETATM   14  C5  UNL     1      -7.347   1.616   0.693  1.00  0.00     0.035 C 
BRANCH  14  15
HETATM   15  C4  UNL     1      -6.738   2.965   0.610  1.00  0.00    -0.024 C 
HETATM   16  C2  UNL     1      -6.554   3.717   1.658  1.00  0.00    -0.091 C 
HETATM   17  C1  UNL     1      -6.962   3.252   3.020  1.00  0.00     0.042 C 
HETATM   18  C3  UNL     1      -5.934   5.078   1.553  1.00  0.00     0.042 C 
ENDBRANCH  14  15
ENDBRANCH   7  14
BRANCH   8  19
HETATM   19  O6  UNL     1      -6.618  -1.687   0.387  1.00  0.00    -0.387 OA
ATOM     20  H6  UNL     1      -7.009  -2.534   0.207  1.00  0.00     0.210 HD
ENDBRANCH   8  19
BRANCH   9  21
HETATM   21  O5  UNL     1      -7.821  -2.272  -2.078  1.00  0.00    -0.392 OA
ATOM     22  H5  UNL     1      -8.601  -2.330  -1.539  1.00  0.00     0.210 HD
ENDBRANCH   9  21
ENDBRANCH   2   3
ENDBRANCH   1   2
BRANCH   1  23
HETATM   23  C12 UNL     1      -0.113  -0.718  -0.404  1.00  0.00    -0.061 C 
HETATM   24  C13 UNL     1       0.667  -2.309  -1.030  1.00  0.00     0.048 C 
BRANCH  23  25
HETATM   25  C14 UNL     1       0.548  -0.807   0.632  1.00  0.00     0.013 C 
BRANCH  25  26
HETATM   26  C15 UNL     1       1.997  -1.025   0.778  1.00  0.00    -0.057 C 
HETATM   27  C16 UNL     1       2.845  -0.832  -0.439  1.00  0.00     0.048 C 
BRANCH  26  28
HETATM   28  C17 UNL     1       2.598  -1.241   1.928  1.00  0.00     0.070 C 
BRANCH  28  29
HETATM   29  C18 UNL     1       4.012  -1.456   2.093  1.00  0.00     0.186 C 
BRANCH  29  30
HETATM   30  O1  UNL     1       4.436  -1.748   3.290  1.00  0.00    -0.341 OA
ATOM     31  H1  UNL     1       5.369  -1.890   3.399  1.00  0.00     0.220 HD
ENDBRANCH  29  30
BRANCH  29  32
HETATM   32  O2  UNL     1       5.003  -1.392   1.172  1.00  0.00    -0.255 OA
BRANCH  32  33
HETATM   33  C19 UNL     1       6.331  -1.605   1.297  1.00  0.00     0.274 C 
HETATM   34  O3  UNL     1       6.763  -1.994   2.426  1.00  0.00    -0.264 OA
BRANCH  33  35
HETATM   35  C20 UNL     1       7.275  -1.373   0.141  1.00  0.00     0.045 C 
HETATM   36  C21 UNL     1       6.896  -2.221  -1.021  1.00  0.00     0.026 C 
HETATM   37  C22 UNL     1       8.692  -1.513   0.545  1.00  0.00     0.020 C 
HETATM   38  C23 UNL     1       9.536  -0.380   0.068  1.00  0.00     0.010 C 
HETATM   39  C24 UNL     1       9.122   0.911   0.732  1.00  0.00    -0.048 C 
HETATM   40  C25 UNL     1       9.659   0.935   2.138  1.00  0.00     0.015 C 
HETATM   41  C26 UNL     1       9.668   2.071  -0.041  1.00  0.00     0.015 C 
HETATM   42  C27 UNL     1       7.599   0.983   0.808  1.00  0.00     0.010 C 
HETATM   43  C28 UNL     1       7.031   0.096  -0.297  1.00  0.00     0.020 C 
ENDBRANCH  33  35
ENDBRANCH  32  33
ENDBRANCH  29  32
ENDBRANCH  28  29
ENDBRANCH  26  28
ENDBRANCH  25  26
ENDBRANCH  23  25
ENDBRANCH   1  23
TORSDOF 15
