REMARK  6 active torsions:
REMARK  status: ('A' for Active; 'I' for Inactive)
REMARK    1  A    between atoms: C15_15  and  O1_16 
REMARK    2  A    between atoms: O1_16  and  C16_17 
REMARK    3  A    between atoms: C16_17  and  C17_19 
REMARK    4  A    between atoms: C21_23  and  O3_24 
REMARK    5  A    between atoms: C24_29  and  O5_30 
REMARK    6  A    between atoms: C27_35  and  C29_37 
ROOT
HETATM    1  C1  UNL     1      -3.855  -1.306  -2.043  1.00  0.00     0.017 C 
HETATM    2  C2  UNL     1      -3.331  -0.157  -1.208  1.00  0.00     0.040 C 
HETATM    3  C3  UNL     1      -1.877  -0.226  -1.014  1.00  0.00    -0.069 C 
HETATM    4  C4  UNL     1      -1.141  -0.732  -1.970  1.00  0.00    -0.022 C 
HETATM    5  C5  UNL     1       0.372  -0.851  -1.873  1.00  0.00     0.033 C 
HETATM    6  C6  UNL     1       0.758  -0.680  -0.443  1.00  0.00    -0.001 C 
HETATM    7  C7  UNL     1       2.157  -0.484  -0.056  1.00  0.00     0.003 C 
HETATM    8  C8  UNL     1       2.266   1.009   0.100  1.00  0.00     0.023 C 
HETATM    9  C9  UNL     1       0.959   1.233   0.910  1.00  0.00     0.013 C 
HETATM   10  C10 UNL     1       0.055   0.639  -0.062  1.00  0.00     0.003 C 
HETATM   11  C11 UNL     1      -1.339   0.297   0.271  1.00  0.00    -0.016 C 
HETATM   12  C12 UNL     1      -1.444  -0.737   1.382  1.00  0.00     0.020 C 
HETATM   13  C13 UNL     1      -2.160   1.492   0.723  1.00  0.00     0.016 C 
HETATM   14  C14 UNL     1      -3.617   1.203   0.822  1.00  0.00     0.034 C 
HETATM   15  C15 UNL     1      -4.097   0.012   0.062  1.00  0.00     0.139 C 
HETATM   16  C21 UNL     1       3.361   1.494   0.964  1.00  0.00     0.160 C 
HETATM   17  C22 UNL     1       4.744   1.210   0.347  1.00  0.00     0.117 C 
HETATM   18  C23 UNL     1       4.928   2.012  -0.911  1.00  0.00     0.212 C 
HETATM   19  O4  UNL     1       5.903   2.950  -0.725  1.00  0.00    -0.358 OA
HETATM   20  C24 UNL     1       6.711   2.566   0.342  1.00  0.00     0.263 C 
HETATM   21  C25 UNL     1       5.680   1.998   1.286  1.00  0.00     0.076 C 
HETATM   22  C26 UNL     1       6.248   1.146   2.360  1.00  0.00     0.018 C 
HETATM   23  O6  UNL     1       5.102  -0.050   0.360  1.00  0.00    -0.363 OA
HETATM   24  C27 UNL     1       4.559  -1.113  -0.191  1.00  0.00     0.071 C 
HETATM   25  C28 UNL     1       4.457  -2.183   0.923  1.00  0.00     0.047 C 
HETATM   26  C30 UNL     1       3.225  -1.102  -0.852  1.00  0.00     0.021 C 
HETATM   27  C31 UNL     1       2.887  -2.570  -1.194  1.00  0.00     0.013 C 
ENDROOT
BRANCH  15  28
HETATM   28  O1  UNL     1      -5.459   0.283  -0.304  1.00  0.00    -0.315 OA
BRANCH  28  29
HETATM   29  C16 UNL     1      -6.513  -0.517   0.072  1.00  0.00     0.267 C 
HETATM   30  O2  UNL     1      -6.296  -1.530   0.763  1.00  0.00    -0.264 OA
BRANCH  29  31
HETATM   31  C17 UNL     1      -7.880  -0.159  -0.352  1.00  0.00     0.037 C 
HETATM   32  C18 UNL     1      -7.896  -0.150  -1.886  1.00  0.00     0.025 C 
HETATM   33  C19 UNL     1      -8.265   1.231   0.133  1.00  0.00     0.025 C 
HETATM   34  C20 UNL     1      -8.832  -1.207   0.179  1.00  0.00     0.025 C 
ENDBRANCH  29  31
ENDBRANCH  28  29
ENDBRANCH  15  28
BRANCH  16  35
HETATM   35  O3  UNL     1       3.313   1.139   2.283  1.00  0.00    -0.392 OA
ATOM     36  H3  UNL     1       4.017   1.451   2.839  1.00  0.00     0.210 HD
ENDBRANCH  16  35
BRANCH  24  37
HETATM   37  C29 UNL     1       5.631  -1.701  -1.148  1.00  0.00     0.123 C 
HETATM   38 BR1  UNL     1       7.224  -2.185  -0.158  1.00  0.00    -0.093 Br
ENDBRANCH  24  37
BRANCH  20  39
HETATM   39  O5  UNL     1       7.619   1.585   0.030  1.00  0.00    -0.371 OA
ATOM     40  H5  UNL     1       8.170   1.323   0.758  1.00  0.00     0.212 HD
ENDBRANCH  20  39
TORSDOF 6
