REMARK  4 active torsions:
REMARK  status: ('A' for Active; 'I' for Inactive)
REMARK    1  A    between atoms: C29_37  and  O3_38 
REMARK    2  A    between atoms: O3_38  and  C30_39 
REMARK    3  A    between atoms: C32_42  and  O5_43 
REMARK    4  A    between atoms: O5_43  and  C33_44 
ROOT
HETATM    1  C1  UNL     1      -2.169  -2.059   2.062  1.00  0.00     0.017 C 
HETATM    2  C2  UNL     1      -1.651  -2.272   0.864  1.00  0.00    -0.053 C 
HETATM    3  C3  UNL     1      -0.168  -2.495   0.829  1.00  0.00     0.016 C 
HETATM    4  C4  UNL     1       0.074  -3.863   1.473  1.00  0.00     0.015 C 
HETATM    5  C5  UNL     1       0.622  -1.405   1.500  1.00  0.00    -0.010 C 
HETATM    6  C6  UNL     1       1.423  -2.016   2.625  1.00  0.00     0.010 C 
HETATM    7  C7  UNL     1       1.509  -0.801   0.442  1.00  0.00     0.018 C 
HETATM    8  C8  UNL     1       2.464   0.232   0.895  1.00  0.00     0.067 C 
HETATM    9  C9  UNL     1       3.802  -0.131   0.287  1.00  0.00    -0.044 C 
HETATM   10  C10 UNL     1       4.660  -1.081   0.579  1.00  0.00    -0.014 C 
HETATM   11  C11 UNL     1       5.930  -1.229  -0.186  1.00  0.00     0.106 C 
HETATM   12  C12 UNL     1       6.354   0.142  -0.562  1.00  0.00     0.140 C 
HETATM   13  O1  UNL     1       7.470   0.503  -0.313  1.00  0.00    -0.297 OA
HETATM   14  C13 UNL     1       5.379   1.029  -1.239  1.00  0.00     0.046 C 
HETATM   15  C14 UNL     1       5.867   2.461  -1.141  1.00  0.00     0.025 C 
HETATM   16  C15 UNL     1       5.466   0.675  -2.731  1.00  0.00     0.025 C 
HETATM   17  C16 UNL     1       3.973   0.863  -0.790  1.00  0.00     0.232 C 
HETATM   18  N1  UNL     1       3.429   2.053  -0.161  1.00  0.00    -0.044 N 
ATOM     19  H11 UNL     1       3.377   2.867  -0.774  1.00  0.00     0.280 HD
ATOM     20  H12 UNL     1       4.042   2.479   0.534  1.00  0.00     0.280 HD
HETATM   21  C17 UNL     1       2.153   1.616   0.358  1.00  0.00     0.295 C 
HETATM   22  N2  UNL     1       1.651   2.450   1.424  1.00  0.00    -0.329 N 
ATOM     23  H2  UNL     1       1.200   1.981   2.209  1.00  0.00     0.164 HD
HETATM   24  C18 UNL     1       1.731   3.869   1.475  1.00  0.00     0.245 C 
HETATM   25  O2  UNL     1       2.200   4.407   2.551  1.00  0.00    -0.268 OA
HETATM   26  C19 UNL     1       1.322   4.775   0.403  1.00  0.00     0.112 C 
HETATM   27  C20 UNL     1       0.110   4.842  -0.119  1.00  0.00     0.103 C 
HETATM   28  F1  UNL     1      -0.112   5.749  -1.125  1.00  0.00    -0.210 F 
HETATM   29  C21 UNL     1      -1.058   4.030   0.293  1.00  0.00     0.044 C 
HETATM   30  C22 UNL     1      -2.255   4.995   0.276  1.00  0.00     0.017 C 
HETATM   31  C23 UNL     1      -1.401   2.911  -0.625  1.00  0.00     0.015 C 
HETATM   32  C24 UNL     1      -1.916   1.661   0.033  1.00  0.00    -0.017 C 
HETATM   33  C25 UNL     1      -2.167   1.911   1.514  1.00  0.00     0.010 C 
HETATM   34  C26 UNL     1      -3.237   1.245  -0.557  1.00  0.00     0.011 C 
HETATM   35  C27 UNL     1      -3.243  -0.080  -1.255  1.00  0.00     0.014 C 
HETATM   36  C28 UNL     1      -2.073  -0.202  -2.154  1.00  0.00     0.012 C 
HETATM   37  C29 UNL     1      -3.515  -1.260  -0.357  1.00  0.00     0.169 C 
HETATM   38  C32 UNL     1      -2.468  -2.313  -0.376  1.00  0.00     0.190 C 
ENDROOT
BRANCH  37  39
HETATM   39  O3  UNL     1      -4.783  -1.831  -0.608  1.00  0.00    -0.313 OA
BRANCH  39  40
HETATM   40  C30 UNL     1      -5.882  -1.799   0.205  1.00  0.00     0.255 C 
HETATM   41  C31 UNL     1      -7.180  -2.450  -0.171  1.00  0.00     0.126 C 
HETATM   42  O4  UNL     1      -5.789  -1.208   1.288  1.00  0.00    -0.266 OA
ENDBRANCH  39  40
ENDBRANCH  37  39
BRANCH  38  43
HETATM   43  O5  UNL     1      -3.001  -3.630  -0.432  1.00  0.00    -0.309 OA
BRANCH  43  44
HETATM   44  C33 UNL     1      -2.662  -4.556  -1.373  1.00  0.00     0.255 C 
HETATM   45  C34 UNL     1      -3.284  -5.900  -1.329  1.00  0.00     0.126 C 
HETATM   46  O6  UNL     1      -1.845  -4.288  -2.258  1.00  0.00    -0.266 OA
ENDBRANCH  43  44
ENDBRANCH  38  43
TORSDOF 4
