REMARK  3 active torsions:
REMARK  status: ('A' for Active; 'I' for Inactive)
REMARK    1  A    between atoms: C2_2  and  O2_4 
REMARK    2  A    between atoms: O2_4  and  C3_5 
REMARK    3  A    between atoms: C15_20  and  O5_21 
ROOT
HETATM    1  C3  UNL     1      -2.127  -1.507   0.188  1.00  0.00     0.161 C 
HETATM    2  C4  UNL     1      -1.131  -1.833   1.280  1.00  0.00     0.058 C 
HETATM    3  C5  UNL     1      -0.226  -0.706   1.607  1.00  0.00     0.096 C 
HETATM    4 CL1  UNL     1      -0.147  -0.472   3.392  1.00  0.00    -0.124 Cl
HETATM    5  C6  UNL     1       1.202  -0.854   1.146  1.00  0.00     0.003 C 
HETATM    6  C7  UNL     1       1.880  -1.737   2.203  1.00  0.00     0.019 C 
HETATM    7  C8  UNL     1       1.336  -1.445  -0.220  1.00  0.00     0.013 C 
HETATM    8  C9  UNL     1       2.766  -1.506  -0.640  1.00  0.00     0.002 C 
HETATM    9  C10 UNL     1       3.309  -0.108  -0.701  1.00  0.00     0.011 C 
HETATM   10  C11 UNL     1       3.150   0.631   0.582  1.00  0.00    -0.018 C 
HETATM   11  C12 UNL     1       3.494   2.090   0.334  1.00  0.00     0.018 C 
HETATM   12  C13 UNL     1       4.234   0.114   1.536  1.00  0.00     0.018 C 
HETATM   13  C14 UNL     1       1.794   0.564   1.187  1.00  0.00     0.178 C 
HETATM   14  O3  UNL     1       0.903   1.510   0.710  1.00  0.00    -0.226 OA
HETATM   15  O4  UNL     1       0.986   1.663  -0.591  1.00  0.00    -0.171 OA
HETATM   16  C15 UNL     1       0.475   2.636  -1.390  1.00  0.00     0.214 C 
HETATM   17  C16 UNL     1      -0.765   3.104  -1.380  1.00  0.00    -0.023 C 
HETATM   18  C17 UNL     1      -1.189   4.193  -2.332  1.00  0.00     0.048 C 
HETATM   19  C18 UNL     1      -1.824   2.612  -0.460  1.00  0.00     0.042 C 
HETATM   20  C19 UNL     1      -2.499   1.358  -1.034  1.00  0.00     0.032 C 
HETATM   21  C20 UNL     1      -3.226   0.740   0.106  1.00  0.00    -0.021 C 
HETATM   22  C21 UNL     1      -3.070  -0.447   0.611  1.00  0.00    -0.058 C 
HETATM   23  C22 UNL     1      -3.960  -0.806   1.781  1.00  0.00     0.046 C 
ENDROOT
BRANCH   1  24
HETATM   24  O2  UNL     1      -2.793  -2.662  -0.280  1.00  0.00    -0.312 OA
BRANCH  24  25
HETATM   25  C2  UNL     1      -2.689  -3.145  -1.557  1.00  0.00     0.255 C 
HETATM   26  C1  UNL     1      -3.379  -4.357  -2.069  1.00  0.00     0.126 C 
HETATM   27  O1  UNL     1      -1.955  -2.523  -2.366  1.00  0.00    -0.266 OA
ENDBRANCH  24  25
ENDBRANCH   1  24
BRANCH  16  28
HETATM   28  O5  UNL     1       1.320   3.244  -2.349  1.00  0.00    -0.339 OA
ATOM     29  H5  UNL     1       0.963   3.924  -2.908  1.00  0.00     0.220 HD
ENDBRANCH  16  28
TORSDOF 3
