REMARK  3 active torsions:
REMARK  status: ('A' for Active; 'I' for Inactive)
REMARK    1  A    between atoms: C2_2  and  C3_3 
REMARK    2  A    between atoms: C3_3  and  N1_4 
REMARK    3  A    between atoms: C12_18  and  C13_19 
ROOT
HETATM    1  N1  UNL     1       4.146  -1.313   0.573  1.00  0.00    -0.365 N 
ATOM      2  H1  UNL     1       4.480  -2.263   0.413  1.00  0.00     0.162 HD
HETATM    3  C4  UNL     1       2.998  -1.084   1.082  1.00  0.00     0.178 C 
HETATM    4  O1  UNL     1       2.087  -2.101   1.470  1.00  0.00    -0.323 OA
HETATM    5  C5  UNL     1       0.914  -1.551   1.977  1.00  0.00     0.158 A 
HETATM    6  C6  UNL     1      -0.453  -1.777   1.819  1.00  0.00     0.100 A 
HETATM    7  C7  UNL     1      -1.528  -0.854   2.257  1.00  0.00     0.083 C 
HETATM    8  N2  UNL     1      -1.676  -0.517   3.482  1.00  0.00    -0.378 N 
ATOM      9  H2  UNL     1      -1.093  -0.835   4.257  1.00  0.00     0.160 HD
HETATM   10  C8  UNL     1      -2.787   0.375   3.593  1.00  0.00     0.141 C 
HETATM   11  C9  UNL     1      -3.427   0.440   2.221  1.00  0.00     0.144 C 
HETATM   12  N3  UNL     1      -2.478  -0.264   1.390  1.00  0.00    -0.360 N 
HETATM   13  C10 UNL     1      -2.617  -0.274  -0.045  1.00  0.00     0.120 C 
HETATM   14  C11 UNL     1      -1.538  -1.019  -0.760  1.00  0.00     0.003 C 
HETATM   15  C12 UNL     1      -0.275  -1.299  -0.406  1.00  0.00    -0.069 C 
HETATM   16  C15 UNL     1       0.313  -0.906   0.835  1.00  0.00     0.036 A 
HETATM   17  C16 UNL     1       0.553   0.533   0.958  1.00  0.00     0.077 C 
HETATM   18  C17 UNL     1       0.315   1.384  -0.236  1.00  0.00     0.067 C 
HETATM   19  C18 UNL     1      -0.800   2.319   0.031  1.00  0.00     0.010 C 
HETATM   20 CL1  UNL     1      -0.259   3.886   0.721  1.00  0.00    -0.089 Cl
HETATM   21  C19 UNL     1      -2.075   2.181  -0.145  1.00  0.00     0.004 C 
HETATM   22  C20 UNL     1      -2.876   1.073  -0.663  1.00  0.00    -0.005 C 
HETATM   23  C21 UNL     1      -4.381   1.418  -0.518  1.00  0.00     0.021 C 
HETATM   24  C22 UNL     1      -2.661   0.972  -2.155  1.00  0.00     0.021 C 
HETATM   25  S1  UNL     1       2.360   0.587   1.383  1.00  0.00    -0.081 SA
ENDROOT
BRANCH   1  26
HETATM   26  C3  UNL     1       4.951  -0.157   0.233  1.00  0.00     0.122 C 
BRANCH  26  27
HETATM   27  C2  UNL     1       5.556  -0.334  -1.166  1.00  0.00     0.015 C 
HETATM   28  C1  UNL     1       6.397   0.872  -1.520  1.00  0.00     0.006 C 
ENDBRANCH  26  27
ENDBRANCH   1  26
BRANCH  15  29
HETATM   29  C13 UNL     1       0.470  -2.072  -1.423  1.00  0.00     0.030 C 
HETATM   30  C14 UNL     1      -0.316  -2.403  -2.663  1.00  0.00     0.010 C 
ENDBRANCH  15  29
TORSDOF 3
