REMARK  2 active torsions:
REMARK  status: ('A' for Active; 'I' for Inactive)
REMARK    1  A    between atoms: N1_1  and  N2_4 
REMARK    2  A    between atoms: C1_6  and  C2_7 
ROOT
HETATM    1  C2  UNL     1       0.595  -0.044   0.847  1.00  0.00     0.025 C 
HETATM    2  C3  UNL     1       0.199   1.178   0.100  1.00  0.00     0.010 C 
HETATM    3  C4  UNL     1      -0.967   0.991  -0.824  1.00  0.00     0.001 C 
HETATM    4  C5  UNL     1      -2.268   0.755  -0.114  1.00  0.00     0.000 C 
HETATM    5  C6  UNL     1      -2.113  -0.027   1.164  1.00  0.00     0.000 C 
HETATM    6  C7  UNL     1      -1.530  -1.371   0.824  1.00  0.00     0.001 C 
HETATM    7  C8  UNL     1      -0.095  -1.293   0.394  1.00  0.00     0.010 C 
ENDROOT
BRANCH   1   8
HETATM    8  C1  UNL     1       2.059  -0.251   0.711  1.00  0.00     0.084 C 
HETATM    9  N2  UNL     1       2.660   0.228  -0.297  1.00  0.00    -0.322 N 
ATOM     10  H2  UNL     1       2.104   0.742  -0.980  1.00  0.00     0.185 HD
BRANCH   9  11
HETATM   11  N1  UNL     1       4.030   0.101  -0.538  1.00  0.00    -0.346 N 
ATOM     12  H12 UNL     1       4.570  -0.416   0.156  1.00  0.00     0.176 HD
ATOM     13  H11 UNL     1       4.514   0.486  -1.349  1.00  0.00     0.176 HD
ENDBRANCH   9  11
ENDBRANCH   1   8
TORSDOF 2
