REMARK  2 active torsions:
REMARK  status: ('A' for Active; 'I' for Inactive)
REMARK    1  A    between atoms: C2_3  and  C3_4 
REMARK    2  A    between atoms: C3_4  and  O1_5 
ROOT
HETATM    1  N1  UNL     1      -2.288   2.205   0.858  1.00  0.00    -0.197 NA
HETATM    2  C1  UNL     1      -2.194   1.088   0.584  1.00  0.00     0.062 C 
HETATM    3  C2  UNL     1      -2.102  -0.302   0.235  1.00  0.00     0.161 C 
ENDROOT
BRANCH   3   4
HETATM    4  C3  UNL     1      -0.669  -0.743  -0.102  1.00  0.00     0.070 C 
HETATM    5  C4  UNL     1      -0.156  -0.082  -1.320  1.00  0.00     0.039 C 
HETATM    6  C5  UNL     1       1.027   0.787  -1.184  1.00  0.00     0.003 C 
HETATM    7  C6  UNL     1       1.932   0.503  -0.032  1.00  0.00     0.000 C 
HETATM    8  C7  UNL     1       1.087   0.500   1.223  1.00  0.00     0.003 C 
HETATM    9  C8  UNL     1       0.162  -0.664   1.116  1.00  0.00     0.039 C 
BRANCH   4  10
HETATM   10  O1  UNL     1      -0.818  -2.122  -0.410  1.00  0.00    -0.389 OA
ATOM     11  H1  UNL     1       0.068  -2.395  -0.618  1.00  0.00     0.210 HD
ENDBRANCH   4  10
ENDBRANCH   3   4
TORSDOF 2
