REMARK  3 active torsions:
REMARK  status: ('A' for Active; 'I' for Inactive)
REMARK    1  A    between atoms: C2_2  and  O1_3 
REMARK    2  A    between atoms: C4_7  and  O2_8 
REMARK    3  A    between atoms: C5_10  and  O3_11 
ROOT
HETATM    1  C1  UNL     1       1.872  -0.225   0.601  1.00  0.00     0.061 C 
HETATM    2  C2  UNL     1       0.909  -0.473  -0.521  1.00  0.00     0.130 C 
HETATM    3  S1  UNL     1       0.777   1.054  -1.536  1.00  0.00    -0.127 SA
HETATM    4  C3  UNL     1      -0.533   1.790  -0.516  1.00  0.00     0.111 C 
HETATM    5  C4  UNL     1      -1.208   0.619   0.063  1.00  0.00     0.160 C 
HETATM    6  C5  UNL     1      -0.484  -0.626  -0.056  1.00  0.00     0.192 C 
ENDROOT
BRANCH   2   7
HETATM    7  O1  UNL     1       1.306  -1.527  -1.331  1.00  0.00    -0.377 OA
ATOM      8  H1  UNL     1       0.696  -1.684  -2.042  1.00  0.00     0.211 HD
ENDBRANCH   2   7
BRANCH   6   9
HETATM    9  O3  UNL     1      -1.116  -1.553  -0.922  1.00  0.00    -0.389 OA
ATOM     10  H3  UNL     1      -2.012  -1.651  -0.623  1.00  0.00     0.210 HD
ENDBRANCH   6   9
BRANCH   5  11
HETATM   11  O2  UNL     1      -1.538   0.928   1.405  1.00  0.00    -0.392 OA
ATOM     12  H2  UNL     1      -1.974   0.171   1.779  1.00  0.00     0.210 HD
ENDBRANCH   5  11
TORSDOF 3
