REMARK  3 active torsions:
REMARK  status: ('A' for Active; 'I' for Inactive)
REMARK    1  A    between atoms: C2_2  and  O1_3 
REMARK    2  A    between atoms: C3_6  and  O3_7 
REMARK    3  A    between atoms: C6_11  and  O4_12 
ROOT
HETATM    1  C1  UNL     1      -2.087   0.876  -0.499  1.00  0.00     0.082 C 
HETATM    2  C2  UNL     1      -0.899   0.503   0.340  1.00  0.00     0.187 C 
HETATM    3  O2  UNL     1       0.176   1.341   0.203  1.00  0.00    -0.323 OA
HETATM    4  C3  UNL     1       1.245   0.820  -0.476  1.00  0.00     0.260 C 
HETATM    5  C4  UNL     1       1.837  -0.412   0.165  1.00  0.00     0.063 C 
HETATM    6  C5  UNL     1       0.750  -1.180   0.902  1.00  0.00     0.042 C 
HETATM    7  C6  UNL     1      -0.531  -0.967   0.136  1.00  0.00     0.180 C 
ENDROOT
BRANCH   2   8
HETATM    8  O1  UNL     1      -1.311   0.585   1.693  1.00  0.00    -0.363 OA
ATOM      9  H1  UNL     1      -0.559   0.349   2.224  1.00  0.00     0.213 HD
ENDBRANCH   2   8
BRANCH   7  10
HETATM   10  O4  UNL     1      -0.453  -1.306  -1.189  1.00  0.00    -0.390 OA
ATOM     11  H4  UNL     1      -0.224  -2.219  -1.316  1.00  0.00     0.210 HD
ENDBRANCH   7  10
BRANCH   4  12
HETATM   12  O3  UNL     1       2.263   1.796  -0.459  1.00  0.00    -0.371 OA
ATOM     13  H3  UNL     1       3.005   1.435  -0.930  1.00  0.00     0.212 HD
ENDBRANCH   4  12
TORSDOF 3
