REMARK  3 active torsions:
REMARK  status: ('A' for Active; 'I' for Inactive)
REMARK    1  A    between atoms: C2_2  and  O1_3 
REMARK    2  A    between atoms: C4_7  and  O3_8 
REMARK    3  A    between atoms: C6_11  and  O4_12 
ROOT
HETATM    1  C1  UNL     1      -2.375  -0.783   0.114  1.00  0.00     0.081 C 
HETATM    2  C2  UNL     1      -1.052  -0.092   0.275  1.00  0.00     0.184 C 
HETATM    3  O2  UNL     1      -0.237  -0.702   1.212  1.00  0.00    -0.351 OA
HETATM    4  C3  UNL     1       0.798   0.137   1.514  1.00  0.00     0.203 C 
HETATM    5  C4  UNL     1       1.669   0.526   0.376  1.00  0.00     0.144 C 
HETATM    6  C5  UNL     1       1.034   0.543  -0.957  1.00  0.00     0.071 C 
HETATM    7  C6  UNL     1      -0.290  -0.146  -1.048  1.00  0.00     0.182 C 
ENDROOT
BRANCH   2   8
HETATM    8  O1  UNL     1      -1.283   1.252   0.538  1.00  0.00    -0.364 OA
ATOM      9  H1  UNL     1      -0.446   1.689   0.640  1.00  0.00     0.213 HD
ENDBRANCH   2   8
BRANCH   7  10
HETATM   10  O4  UNL     1      -0.137  -1.516  -1.336  1.00  0.00    -0.390 OA
ATOM     11  H4  UNL     1       0.337  -1.550  -2.159  1.00  0.00     0.210 HD
ENDBRANCH   7  10
BRANCH   5  12
HETATM   12  O3  UNL     1       2.837  -0.270   0.325  1.00  0.00    -0.393 OA
ATOM     13  H3  UNL     1       3.394  -0.021  -0.403  1.00  0.00     0.210 HD
ENDBRANCH   5  12
TORSDOF 3
