REMARK  2 active torsions:
REMARK  status: ('A' for Active; 'I' for Inactive)
REMARK    1  A    between atoms: C4_5  and  O2_6 
REMARK    2  A    between atoms: C6_9  and  O3_10 
ROOT
HETATM    1  C1  UNL     1      -1.277   0.861  -0.949  1.00  0.00     0.078 C 
HETATM    2  C2  UNL     1      -0.974  -0.013   0.236  1.00  0.00     0.163 C 
HETATM    3  C3  UNL     1      -2.264  -0.248   1.024  1.00  0.00     0.078 C 
HETATM    4  O1  UNL     1      -0.065   0.533   1.109  1.00  0.00    -0.326 OA
HETATM    5  C4  UNL     1       1.173   0.785   0.579  1.00  0.00     0.265 C 
HETATM    6  C5  UNL     1       1.580  -0.092  -0.546  1.00  0.00     0.121 C 
HETATM    7  C6  UNL     1       0.666  -1.208  -0.869  1.00  0.00     0.265 C 
HETATM    8  O4  UNL     1      -0.500  -1.258  -0.158  1.00  0.00    -0.326 OA
ENDROOT
BRANCH   5   9
HETATM    9  O2  UNL     1       2.096   0.743   1.644  1.00  0.00    -0.371 OA
ATOM     10  H2  UNL     1       2.954   0.918   1.276  1.00  0.00     0.212 HD
ENDBRANCH   5   9
BRANCH   7  11
HETATM   11  O3  UNL     1       1.337  -2.433  -0.657  1.00  0.00    -0.371 OA
ATOM     12  H3  UNL     1       0.750  -3.150  -0.865  1.00  0.00     0.212 HD
ENDBRANCH   7  11
TORSDOF 2
