REMARK  3 active torsions:
REMARK  status: ('A' for Active; 'I' for Inactive)
REMARK    1  A    between atoms: C2_2  and  O1_3 
REMARK    2  A    between atoms: N1_6  and  O2_7 
REMARK    3  A    between atoms: C6_11  and  O3_12 
ROOT
HETATM    1  C1  UNL     1      -2.275  -0.584  -0.083  1.00  0.00     0.050 C 
HETATM    2  C2  UNL     1      -0.829  -0.269   0.098  1.00  0.00     0.098 C 
HETATM    3  C3  UNL     1       0.068  -1.295  -0.609  1.00  0.00     0.194 C 
HETATM    4  N1  UNL     1       1.375  -1.111  -0.062  1.00  0.00    -0.273 N 
HETATM    5  C4  UNL     1       1.924   0.178  -0.167  1.00  0.00     0.092 C 
HETATM    6  C5  UNL     1       1.010   1.334  -0.198  1.00  0.00     0.081 C 
HETATM    7  C6  UNL     1      -0.418   1.059  -0.489  1.00  0.00     0.158 C 
ENDROOT
BRANCH   2   8
HETATM    8  O1  UNL     1      -0.460  -0.224   1.463  1.00  0.00    -0.386 OA
ATOM      9  H1  UNL     1       0.461  -0.023   1.578  1.00  0.00     0.210 HD
ENDBRANCH   2   8
BRANCH   7  10
HETATM   10  O3  UNL     1      -1.206   2.106  -0.046  1.00  0.00    -0.392 OA
ATOM     11  H3  UNL     1      -0.947   2.942  -0.416  1.00  0.00     0.210 HD
ENDBRANCH   7  10
BRANCH   4  12
HETATM   12  O2  UNL     1       1.542  -1.709   1.140  1.00  0.00    -0.288 OA
ATOM     13  H2  UNL     1       2.411  -1.587   1.504  1.00  0.00     0.244 HD
ENDBRANCH   4  12
TORSDOF 3
