REMARK  7 active torsions:
REMARK  status: ('A' for Active; 'I' for Inactive)
REMARK    1  A    between atoms: N1_1  and  C1_5 
REMARK    2  A    between atoms: C1_5  and  C2_6 
REMARK    3  A    between atoms: C2_6  and  N2_7 
REMARK    4  A    between atoms: N2_7  and  C3_10 
REMARK    5  A    between atoms: C3_10  and  C4_11 
REMARK    6  A    between atoms: C4_11  and  N3_12 
REMARK    7  A    between atoms: N3_12  and  C5_14 
ROOT
HETATM    1  N3  UNL     1      -1.024   0.019  -0.099  1.00  0.00    -0.373 N 
ATOM      2  H3  UNL     1      -0.314   0.693  -0.386  1.00  0.00     0.161 HD
ENDROOT
BRANCH   1   3
HETATM    3  C4  UNL     1      -0.591  -1.177   0.566  1.00  0.00     0.148 C 
BRANCH   3   4
HETATM    4  C3  UNL     1       0.868  -1.417   0.155  1.00  0.00     0.251 C 
BRANCH   4   5
HETATM    5  N2  UNL     1       1.701  -0.319   0.540  1.00  0.00    -0.072 N 
ATOM      6  H22 UNL     1       1.636  -0.100   1.534  1.00  0.00     0.277 HD
ATOM      7  H21 UNL     1       1.368   0.577   0.184  1.00  0.00     0.277 HD
BRANCH   5   8
HETATM    8  C2  UNL     1       3.067  -0.632   0.111  1.00  0.00     0.259 C 
BRANCH   8   9
HETATM    9  C1  UNL     1       4.005   0.511   0.498  1.00  0.00     0.257 C 
BRANCH   9  10
HETATM   10  N1  UNL     1       3.529   1.701  -0.167  1.00  0.00    -0.078 N 
ATOM     11  H13 UNL     1       3.438   1.584  -1.176  1.00  0.00     0.274 HD
ATOM     12  H12 UNL     1       2.549   1.904   0.032  1.00  0.00     0.274 HD
ATOM     13  H11 UNL     1       4.155   2.464   0.091  1.00  0.00     0.274 HD
ENDBRANCH   9  10
ENDBRANCH   8   9
ENDBRANCH   5   8
ENDBRANCH   4   5
ENDBRANCH   3   4
ENDBRANCH   1   3
BRANCH   1  14
HETATM   14  C5  UNL     1      -2.260   0.293  -0.356  1.00  0.00     0.133 A 
HETATM   15  N4  UNL     1      -2.482   1.469  -0.990  1.00  0.00    -0.337 N 
HETATM   16  C6  UNL     1      -3.723   1.871  -1.314  1.00  0.00     0.183 A 
ATOM     17  H4  UNL     1      -1.688   2.064  -1.227  1.00  0.00     0.168 HD
HETATM   18  N5  UNL     1      -4.761   1.088  -1.000  1.00  0.00    -0.337 N 
HETATM   19  C7  UNL     1      -4.591  -0.082  -0.373  1.00  0.00     0.138 A 
ATOM     20  H5  UNL     1      -5.704   1.390  -1.244  1.00  0.00     0.168 HD
HETATM   21  C8  UNL     1      -3.290  -0.536  -0.017  1.00  0.00     0.122 A 
HETATM   22  N6  UNL     1      -4.456  -1.300   0.276  1.00  0.00    -0.334 N 
ATOM     23  H6  UNL     1      -4.882  -2.137   0.674  1.00  0.00     0.168 HD
ENDBRANCH   1  14
TORSDOF 7
