REMARK  6 active torsions:
REMARK  status: ('A' for Active; 'I' for Inactive)
REMARK    1  A    between atoms: C2_5  and  N3_6 
REMARK    2  A    between atoms: N3_6  and  C3_8 
REMARK    3  A    between atoms: C3_8  and  C4_9 
REMARK    4  A    between atoms: C4_9  and  C5_10 
REMARK    5  A    between atoms: C5_10  and  C6_11 
REMARK    6  A    between atoms: C6_11  and  N4_12 
ROOT
HETATM    1  C1  UNL     1      -3.214   1.664   0.758  1.00  0.00     0.198 C 
HETATM    2  N1  UNL     1      -2.626   0.393   0.396  1.00  0.00    -0.114 N 
HETATM    3  N2  UNL     1      -1.343   0.075   0.400  1.00  0.00    -0.116 N 
ATOM      4  H2  UNL     1      -0.579   0.697   0.664  1.00  0.00     0.206 HD
HETATM    5  C2  UNL     1      -1.209  -1.190   0.004  1.00  0.00     0.707 A 
HETATM    6  N5  UNL     1      -2.455  -1.648  -0.248  1.00  0.00    -0.020 N 
ATOM      7  H5  UNL     1      -2.686  -2.587  -0.571  1.00  0.00     0.203 HD
HETATM    8  C7  UNL     1      -3.329  -0.680  -0.008  1.00  0.00     0.707 A 
HETATM    9  N6  UNL     1      -4.627  -0.768  -0.145  1.00  0.00    -0.233 N 
ATOM     10  H61 UNL     1      -5.160  -1.582  -0.451  1.00  0.00     0.174 HD
ATOM     11  H62 UNL     1      -5.299  -0.023   0.040  1.00  0.00     0.174 HD
ENDROOT
BRANCH   5  12
HETATM   12  N3  UNL     1      -0.169  -1.923  -0.146  1.00  0.00    -0.224 N 
ATOM     13  H3  UNL     1      -0.310  -2.881  -0.467  1.00  0.00     0.177 HD
BRANCH  12  14
HETATM   14  C3  UNL     1       1.175  -1.501   0.102  1.00  0.00     0.138 C 
BRANCH  14  15
HETATM   15  C4  UNL     1       1.747  -0.750  -1.069  1.00  0.00     0.022 C 
BRANCH  15  16
HETATM   16  C5  UNL     1       3.159  -0.297  -0.830  1.00  0.00     0.029 C 
BRANCH  16  17
HETATM   17  C6  UNL     1       3.279   0.624   0.359  1.00  0.00     0.229 C 
BRANCH  17  18
HETATM   18  N4  UNL     1       2.502   1.821   0.226  1.00  0.00    -0.079 N 
ATOM     19  H43 UNL     1       2.735   2.311  -0.638  1.00  0.00     0.274 HD
ATOM     20  H42 UNL     1       1.525   1.600   0.035  1.00  0.00     0.274 HD
ATOM     21  H41 UNL     1       2.583   2.444   1.030  1.00  0.00     0.274 HD
ENDBRANCH  17  18
ENDBRANCH  16  17
ENDBRANCH  15  16
ENDBRANCH  14  15
ENDBRANCH  12  14
ENDBRANCH   5  12
TORSDOF 6
