REMARK  6 active torsions:
REMARK  status: ('A' for Active; 'I' for Inactive)
REMARK    1  A    between atoms: C2_2  and  C3_3 
REMARK    2  A    between atoms: C3_3  and  N1_4 
REMARK    3  A    between atoms: N1_4  and  C4_6 
REMARK    4  A    between atoms: C4_6  and  C5_7 
REMARK    5  A    between atoms: C5_7  and  C6_8 
REMARK    6  A    between atoms: C6_8  and  N2_9 
ROOT
HETATM    1  C1  UNL     1      -1.069  -1.507  -0.264  1.00  0.00     0.024 C 
HETATM    2  C2  UNL     1      -1.057  -0.062   0.134  1.00  0.00     0.027 C 
HETATM    3  C7  UNL     1      -1.993   0.764  -0.741  1.00  0.00     0.250 C 
HETATM    4  N3  UNL     1      -3.209  -0.048  -0.858  1.00  0.00    -0.059 N 
ATOM      5  H31 UNL     1      -3.014  -0.961  -1.269  1.00  0.00     0.279 HD
ATOM      6  H32 UNL     1      -3.836   0.314  -1.577  1.00  0.00     0.279 HD
HETATM    7  C8  UNL     1      -3.865  -0.166   0.404  1.00  0.00     0.349 C 
HETATM    8  N4  UNL     1      -2.983  -0.657   1.406  1.00  0.00    -0.399 N 
ATOM      9  H4  UNL     1      -3.240  -1.437   2.011  1.00  0.00     0.154 HD
HETATM   10  C9  UNL     1      -1.723  -0.005   1.522  1.00  0.00     0.131 C 
ENDROOT
BRANCH   2  11
HETATM   11  C3  UNL     1       0.281   0.560   0.293  1.00  0.00     0.072 C 
BRANCH  11  12
HETATM   12  N1  UNL     1       1.154   0.612  -0.789  1.00  0.00    -0.382 N 
ATOM     13  H1  UNL     1       1.355   1.520  -1.208  1.00  0.00     0.164 HD
BRANCH  12  14
HETATM   14  C4  UNL     1       1.767  -0.517  -1.328  1.00  0.00     0.061 C 
BRANCH  14  15
HETATM   15  C5  UNL     1       2.806  -1.219  -0.499  1.00  0.00     0.072 C 
BRANCH  15  16
HETATM   16  C6  UNL     1       3.997  -0.400  -0.144  1.00  0.00     0.234 C 
BRANCH  16  17
HETATM   17  N2  UNL     1       3.609   0.758   0.615  1.00  0.00    -0.079 N 
ATOM     18  H23 UNL     1       2.902   1.310   0.129  1.00  0.00     0.274 HD
ATOM     19  H22 UNL     1       3.065   0.505   1.440  1.00  0.00     0.274 HD
ATOM     20  H21 UNL     1       4.425   1.319   0.858  1.00  0.00     0.274 HD
ENDBRANCH  16  17
ENDBRANCH  15  16
ENDBRANCH  14  15
ENDBRANCH  12  14
ENDBRANCH  11  12
ENDBRANCH   2  11
TORSDOF 6
