REMARK  4 active torsions:
REMARK  status: ('A' for Active; 'I' for Inactive)
REMARK    1  A    between atoms: C2_2  and  N1_3 
REMARK    2  A    between atoms: C2_2  and  N2_7 
REMARK    3  A    between atoms: N2_7  and  C3_9 
REMARK    4  A    between atoms: C6_12  and  C7_13 
ROOT
HETATM    1  C3  UNL     1      -1.518  -0.290  -0.653  1.00  0.00     0.078 C 
HETATM    2  C4  UNL     1      -0.751  -1.354   0.079  1.00  0.00     0.025 C 
HETATM    3  C5  UNL     1       0.733  -1.060  -0.184  1.00  0.00     0.009 C 
HETATM    4  C6  UNL     1       1.033   0.275   0.423  1.00  0.00     0.016 C 
HETATM    5  C11 UNL     1       0.331   1.363  -0.359  1.00  0.00     0.009 C 
HETATM    6  C12 UNL     1      -1.160   1.098  -0.226  1.00  0.00     0.025 C 
ENDROOT
BRANCH   1   7
HETATM    7  N2  UNL     1      -2.913  -0.450  -0.733  1.00  0.00    -0.392 N 
ATOM      8  H2  UNL     1      -3.365  -0.558  -1.641  1.00  0.00     0.155 HD
BRANCH   7   9
HETATM    9  C2  UNL     1      -3.685  -0.461   0.450  1.00  0.00     0.273 C 
HETATM   10  C1  UNL     1      -5.082  -0.980   0.051  1.00  0.00     0.062 C 
BRANCH   9  11
HETATM   11  N1  UNL     1      -3.969   0.849   1.021  1.00  0.00    -0.059 N 
ATOM     12  H13 UNL     1      -4.496   1.473   0.410  1.00  0.00     0.276 HD
ATOM     13  H12 UNL     1      -4.652   0.843   1.778  1.00  0.00     0.276 HD
ATOM     14  H11 UNL     1      -3.045   1.192   1.285  1.00  0.00     0.276 HD
ENDBRANCH   9  11
ENDBRANCH   7   9
ENDBRANCH   1   7
BRANCH   4  15
HETATM   15  C7  UNL     1       2.487   0.562   0.625  1.00  0.00     0.190 C 
HETATM   16  C8  UNL     1       3.294   0.536  -0.655  1.00  0.00     0.035 C 
HETATM   17  C9  UNL     1       4.714   0.583  -0.093  1.00  0.00     0.029 C 
HETATM   18  C10 UNL     1       4.577   0.002   1.278  1.00  0.00     0.233 C 
HETATM   19  N3  UNL     1       3.184  -0.391   1.440  1.00  0.00    -0.070 N 
ATOM     20  H32 UNL     1       2.864  -0.440   2.407  1.00  0.00     0.277 HD
ATOM     21  H31 UNL     1       2.987  -1.367   1.218  1.00  0.00     0.277 HD
ENDBRANCH   4  15
TORSDOF 4
