REMARK  3 active torsions:
REMARK  status: ('A' for Active; 'I' for Inactive)
REMARK       I    between atoms: C1_4  and  N2_5 
REMARK       I    between atoms: C1_4  and  N3_13 
REMARK    1  A    between atoms: N2_5  and  C2_7 
REMARK    2  A    between atoms: C2_7  and  C3_8 
REMARK    3  A    between atoms: N3_13  and  C7_15 
ROOT
HETATM    1  N1  UNL     1      -0.049  -1.389  -1.720  1.00  0.00    -0.235 N 
ATOM      2  H11 UNL     1      -0.782  -1.546  -2.412  1.00  0.00     0.174 HD
ATOM      3  H12 UNL     1       0.660  -2.090  -1.505  1.00  0.00     0.174 HD
HETATM    4  C1  UNL     1      -0.047  -0.252  -1.112  1.00  0.00     0.667 C 
HETATM    5  N2  UNL     1       0.973  -0.034  -0.149  1.00  0.00    -0.224 N 
ATOM      6  H2  UNL     1       0.814   0.630   0.608  1.00  0.00     0.177 HD
HETATM    7  N3  UNL     1      -1.032   0.721  -1.410  1.00  0.00    -0.222 N 
ATOM      8  H3  UNL     1      -0.790   1.477  -2.050  1.00  0.00     0.178 HD
ENDROOT
BRANCH   5   9
HETATM    9  C2  UNL     1       2.254  -0.749  -0.225  1.00  0.00     0.170 C 
BRANCH   9  10
HETATM   10  C3  UNL     1       3.128  -0.311   0.926  1.00  0.00     0.139 C 
HETATM   11  C4  UNL     1       4.437  -1.018   0.829  1.00  0.00     0.035 C 
HETATM   12  C5  UNL     1       5.363   0.093   0.336  1.00  0.00     0.029 C 
HETATM   13  C6  UNL     1       4.670   1.312   0.931  1.00  0.00     0.168 C 
HETATM   14  O1  UNL     1       3.332   1.038   0.822  1.00  0.00    -0.384 OA
ENDBRANCH   9  10
ENDBRANCH   5   9
BRANCH   7  15
HETATM   15  C7  UNL     1      -2.363   0.692  -0.849  1.00  0.00     0.099 C 
HETATM   16  C8  UNL     1      -2.317   0.770   0.646  1.00  0.00     0.026 C 
HETATM   17  C9  UNL     1      -3.622   0.484   1.294  1.00  0.00     0.002 C 
HETATM   18  C10 UNL     1      -4.770   0.285   0.385  1.00  0.00     0.000 C 
HETATM   19  C11 UNL     1      -4.479  -0.512  -0.847  1.00  0.00     0.002 C 
HETATM   20  C12 UNL     1      -3.036  -0.648  -1.176  1.00  0.00     0.026 C 
ENDBRANCH   7  15
TORSDOF 3
