REMARK  4 active torsions:
REMARK  status: ('A' for Active; 'I' for Inactive)
REMARK    1  A    between atoms: C3_7  and  N3_8 
REMARK    2  A    between atoms: C4_13  and  N5_14 
REMARK    3  A    between atoms: N5_14  and  N6_16 
REMARK    4  A    between atoms: N6_16  and  C5_18 
ROOT
HETATM    1  C1  UNL     1      -0.068  -1.658   2.128  1.00  0.00     0.180 C 
HETATM    2  N1  UNL     1      -0.757  -1.015   1.028  1.00  0.00    -0.135 N 
HETATM    3  C2  UNL     1      -1.999  -1.337   0.634  1.00  0.00     0.354 A 
HETATM    4  O1  UNL     1      -2.631  -2.265   1.252  1.00  0.00    -0.245 OA
HETATM    5  N2  UNL     1      -2.578  -0.699  -0.395  1.00  0.00    -0.140 N 
ATOM      6  H2  UNL     1      -3.522  -0.950  -0.689  1.00  0.00     0.189 HD
HETATM    7  C3  UNL     1      -1.906   0.274  -1.037  1.00  0.00     0.694 A 
HETATM    8  N4  UNL     1      -0.659   0.615  -0.659  1.00  0.00    -0.021 N 
ATOM      9  H4  UNL     1      -0.148   1.353  -1.144  1.00  0.00     0.203 HD
HETATM   10  C4  UNL     1      -0.108  -0.041   0.371  1.00  0.00     0.717 A 
ENDROOT
BRANCH  10  11
HETATM   11  N5  UNL     1       1.107   0.309   0.720  1.00  0.00    -0.130 N 
ATOM     12  H5  UNL     1       1.553  -0.172   1.501  1.00  0.00     0.205 HD
BRANCH  11  13
HETATM   13  N6  UNL     1       1.801   1.303   0.069  1.00  0.00    -0.282 N 
ATOM     14  H6  UNL     1       1.426   2.251   0.090  1.00  0.00     0.188 HD
BRANCH  13  15
HETATM   15  C5  UNL     1       3.028   1.068  -0.638  1.00  0.00     0.191 C 
HETATM   16  N7  UNL     1       3.214   1.740  -1.718  1.00  0.00    -0.394 N 
ATOM     17  H72 UNL     1       2.513   2.405  -2.044  1.00  0.00     0.156 HD
ATOM     18  H71 UNL     1       4.086   1.573  -2.220  1.00  0.00     0.156 HD
ENDBRANCH  13  15
ENDBRANCH  11  13
ENDBRANCH  10  11
BRANCH   7  19
HETATM   19  N3  UNL     1      -2.446   0.890  -2.018  1.00  0.00    -0.234 N 
ATOM     20  H32 UNL     1      -3.390   0.632  -2.304  1.00  0.00     0.174 HD
ATOM     21  H31 UNL     1      -1.937   1.628  -2.505  1.00  0.00     0.174 HD
ENDBRANCH   7  19
TORSDOF 4
