REMARK  2 active torsions:
REMARK  status: ('A' for Active; 'I' for Inactive)
REMARK    1  A    between atoms: N1_1  and  N2_4 
REMARK    2  A    between atoms: N2_4  and  C1_6 
ROOT
HETATM    1  C1  UNL     1      -1.300   0.353   0.024  1.00  0.00     0.192 C 
HETATM    2  N3  UNL     1      -0.752   1.569   0.200  1.00  0.00    -0.304 N 
ATOM      3  H3  UNL     1      -1.412   2.320   0.404  1.00  0.00     0.171 HD
HETATM    4  C2  UNL     1       0.559   1.943   0.145  1.00  0.00     0.250 C 
HETATM    5  O1  UNL     1       0.806   3.180   0.138  1.00  0.00    -0.268 OA
HETATM    6  C3  UNL     1       1.676   1.109   0.094  1.00  0.00     0.119 C 
HETATM    7  C4  UNL     1       1.687  -0.257  -0.097  1.00  0.00     0.124 C 
HETATM    8  N4  UNL     1       2.932  -0.891   0.166  1.00  0.00    -0.083 NA
HETATM    9  N5  UNL     1       0.661  -1.060  -0.503  1.00  0.00    -0.308 N 
ATOM     10  H5  UNL     1       0.918  -1.959  -0.912  1.00  0.00     0.170 HD
HETATM   11  C5  UNL     1      -0.662  -0.787  -0.419  1.00  0.00     0.292 C 
HETATM   12  O2  UNL     1      -1.432  -1.707  -0.801  1.00  0.00    -0.264 OA
ENDROOT
BRANCH   1  13
HETATM   13  N2  UNL     1      -2.564   0.282   0.312  1.00  0.00    -0.287 N 
ATOM     14  H2  UNL     1      -3.032   1.127   0.639  1.00  0.00     0.188 HD
BRANCH  13  15
HETATM   15  N1  UNL     1      -3.309  -0.872   0.200  1.00  0.00    -0.343 N 
ATOM     16  H12 UNL     1      -2.825  -1.708  -0.129  1.00  0.00     0.176 HD
ATOM     17  H11 UNL     1      -4.302  -0.928   0.426  1.00  0.00     0.176 HD
ENDBRANCH  13  15
ENDBRANCH   1  13
TORSDOF 2
