REMARK  2 active torsions:
REMARK  status: ('A' for Active; 'I' for Inactive)
REMARK    1  A    between atoms: N1_1  and  C1_4 
REMARK    2  A    between atoms: N4_14  and  N5_15 
ROOT
HETATM    1  C1  UNL     1      -1.974  -0.756  -0.064  1.00  0.00     0.680 A 
HETATM    2  N2  UNL     1      -2.281   0.553  -0.170  1.00  0.00    -0.154 N 
ATOM      3  H2  UNL     1      -3.264   0.814  -0.245  1.00  0.00     0.187 HD
HETATM    4  C2  UNL     1      -1.363   1.530  -0.182  1.00  0.00     0.290 A 
HETATM    5  O1  UNL     1      -1.661   2.753  -0.282  1.00  0.00    -0.265 OA
HETATM    6  C3  UNL     1      -0.037   1.188  -0.081  1.00  0.00     0.152 A 
HETATM    7  N3  UNL     1       1.127   1.879  -0.059  1.00  0.00    -0.299 N 
ATOM      8  H3  UNL     1       1.232   2.892  -0.121  1.00  0.00     0.171 HD
HETATM    9  C4  UNL     1       2.128   0.969   0.062  1.00  0.00     0.347 A 
HETATM   10  O2  UNL     1       3.359   1.224   0.117  1.00  0.00    -0.245 OA
HETATM   11  N4  UNL     1       1.622  -0.270   0.116  1.00  0.00    -0.192 N 
HETATM   12  C5  UNL     1       0.278  -0.153   0.028  1.00  0.00     0.179 A 
HETATM   13  N6  UNL     1      -0.685  -1.109   0.036  1.00  0.00    -0.172 N 
ATOM     14  H6  UNL     1      -0.429  -2.093   0.118  1.00  0.00     0.186 HD
ENDROOT
BRANCH   1  15
HETATM   15  N1  UNL     1      -2.929  -1.627  -0.061  1.00  0.00    -0.234 N 
ATOM     16  H12 UNL     1      -3.910  -1.358  -0.137  1.00  0.00     0.174 HD
ATOM     17  H11 UNL     1      -2.697  -2.617   0.019  1.00  0.00     0.174 HD
ENDBRANCH   1  15
BRANCH  11  18
HETATM   18  N5  UNL     1       2.348  -1.437   0.237  1.00  0.00    -0.333 N 
ATOM     19  H52 UNL     1       3.362  -1.525   0.303  1.00  0.00     0.177 HD
ATOM     20  H51 UNL     1       1.963  -2.381   0.278  1.00  0.00     0.177 HD
ENDBRANCH  11  18
TORSDOF 2
