REMARK  2 active torsions:
REMARK  status: ('A' for Active; 'I' for Inactive)
REMARK    1  A    between atoms: C1_4  and  C2_5 
REMARK       I    between atoms: C2_5  and  N2_7 
REMARK    2  A    between atoms: C3_8  and  N3_9 
ROOT
HETATM    1  C2  UNL     1       1.190  -0.413  -1.022  1.00  0.00     0.285 C 
HETATM    2  O1  UNL     1       1.130  -1.148  -2.084  1.00  0.00    -0.265 OA
HETATM    3  N2  UNL     1      -0.014  -0.232  -0.337  1.00  0.00    -0.058 N 
HETATM    4  C3  UNL     1      -0.202   0.481   0.779  1.00  0.00     0.693 A 
HETATM    5  N4  UNL     1      -1.398   0.628   1.411  1.00  0.00    -0.141 N 
ATOM      6  H4  UNL     1      -1.483   1.186   2.261  1.00  0.00     0.189 HD
HETATM    7  C4  UNL     1      -2.459   0.013   0.875  1.00  0.00     0.342 A 
HETATM    8  O2  UNL     1      -3.598   0.114   1.420  1.00  0.00    -0.246 OA
HETATM    9  N5  UNL     1      -2.322  -0.714  -0.244  1.00  0.00    -0.259 N 
ATOM     10  H5  UNL     1      -3.135  -1.179  -0.648  1.00  0.00     0.175 HD
HETATM   11  C5  UNL     1      -1.141  -0.832  -0.828  1.00  0.00     0.352 A 
HETATM   12  O3  UNL     1      -1.074  -1.533  -1.885  1.00  0.00    -0.245 OA
ENDROOT
BRANCH   1  13
HETATM   13  C1  UNL     1       2.464   0.123  -0.675  1.00  0.00     0.157 C 
HETATM   14  N1  UNL     1       3.490  -0.157  -1.444  1.00  0.00    -0.404 N 
ATOM     15  H12 UNL     1       3.362  -0.746  -2.267  1.00  0.00     0.155 HD
ATOM     16  H11 UNL     1       4.402   0.227  -1.196  1.00  0.00     0.155 HD
ENDBRANCH   1  13
BRANCH   4  17
HETATM   17  N3  UNL     1       0.774   1.084   1.328  1.00  0.00    -0.234 N 
ATOM     18  H32 UNL     1       1.671   0.974   0.854  1.00  0.00     0.174 HD
ATOM     19  H31 UNL     1       0.631   1.628   2.179  1.00  0.00     0.174 HD
ENDBRANCH   4  17
TORSDOF 2
