REMARK  4 active torsions:
REMARK  status: ('A' for Active; 'I' for Inactive)
REMARK    1  A    between atoms: N1_2  and  C2_4 
REMARK    2  A    between atoms: C3_7  and  C4_8 
REMARK       I    between atoms: C4_8  and  N3_10 
REMARK    3  A    between atoms: N3_10  and  N4_12 
REMARK    4  A    between atoms: C5_17  and  N6_18 
ROOT
HETATM    1  C2  UNL     1       1.466   0.287   0.250  1.00  0.00     0.694 A 
HETATM    2  N2  UNL     1       0.283   0.527   0.835  1.00  0.00    -0.170 N 
ATOM      3  H2  UNL     1       0.282   1.069   1.699  1.00  0.00     0.186 HD
HETATM    4  C3  UNL     1      -0.893   0.106   0.365  1.00  0.00     0.205 A 
HETATM    5  N5  UNL     1      -0.866  -0.614  -0.784  1.00  0.00    -0.170 N 
ATOM      6  H5  UNL     1      -1.742  -0.956  -1.178  1.00  0.00     0.186 HD
HETATM    7  C5  UNL     1       0.288  -0.887  -1.415  1.00  0.00     0.692 A 
HETATM    8  N7  UNL     1       1.441  -0.436  -0.895  1.00  0.00    -0.023 N 
ATOM      9  H7  UNL     1       2.318  -0.643  -1.373  1.00  0.00     0.203 HD
ENDROOT
BRANCH   4  10
HETATM   10  C4  UNL     1      -2.149   0.394   1.038  1.00  0.00     0.304 C 
HETATM   11  O1  UNL     1      -2.190   1.056   2.099  1.00  0.00    -0.263 OA
HETATM   12  N3  UNL     1      -3.353  -0.083   0.485  1.00  0.00    -0.270 N 
ATOM     13  H3  UNL     1      -3.317  -0.623  -0.380  1.00  0.00     0.189 HD
BRANCH  12  14
HETATM   14  N4  UNL     1      -4.589   0.156   1.076  1.00  0.00    -0.342 N 
ATOM     15  H42 UNL     1      -4.606   0.698   1.940  1.00  0.00     0.176 HD
ATOM     16  H41 UNL     1      -5.461  -0.190   0.675  1.00  0.00     0.176 HD
ENDBRANCH  12  14
ENDBRANCH   4  10
BRANCH   1  17
HETATM   17  N1  UNL     1       2.688   0.752   0.782  1.00  0.00    -0.230 N 
HETATM   18  C1  UNL     1       3.917   0.454   0.098  1.00  0.00     0.165 C 
ATOM     19  H1  UNL     1       2.699   1.295   1.645  1.00  0.00     0.177 HD
ENDBRANCH   1  17
BRANCH   7  20
HETATM   20  N6  UNL     1       0.326  -1.569  -2.507  1.00  0.00    -0.234 N 
ATOM     21  H62 UNL     1      -0.550  -1.912  -2.902  1.00  0.00     0.174 HD
ATOM     22  H61 UNL     1       1.202  -1.776  -2.986  1.00  0.00     0.174 HD
ENDBRANCH   7  20
TORSDOF 4
