REMARK  11 active torsions:
REMARK  status: ('A' for Active; 'I' for Inactive)
REMARK    1  A    between atoms: C1_2  and  C2_3 
REMARK    2  A    between atoms: C1_2  and  O9_31 
REMARK    3  A    between atoms: N1_4  and  N2_6 
REMARK    4  A    between atoms: N2_6  and  C3_8 
REMARK    5  A    between atoms: C3_8  and  N3_10 
REMARK    6  A    between atoms: N3_10  and  N4_12 
REMARK    7  A    between atoms: N4_12  and  C4_14 
REMARK    8  A    between atoms: C5_15  and  O2_16 
REMARK    9  A    between atoms: C6_18  and  N5_19 
REMARK   10  A    between atoms: C8_23  and  S2_24 
REMARK   11  A    between atoms: C9_28  and  O8_29 
ROOT
HETATM    1  C4  UNL     1      -0.943   0.130   0.686  1.00  0.00     0.118 A 
HETATM    2  C5  UNL     1      -1.033   1.500   0.814  1.00  0.00     0.130 A 
HETATM    3  C6  UNL     1      -2.207   2.157   0.447  1.00  0.00     0.140 A 
HETATM    4  C7  UNL     1      -3.292   1.475  -0.045  1.00  0.00     0.068 A 
HETATM    5  C8  UNL     1      -3.201   0.104  -0.172  1.00  0.00     0.118 A 
HETATM    6  C9  UNL     1      -2.024  -0.559   0.195  1.00  0.00     0.121 A 
ENDROOT
BRANCH   1   7
HETATM    7  N4  UNL     1       0.211  -0.593   1.036  1.00  0.00    -0.293 N 
ATOM      8  H4  UNL     1       0.288  -0.924   1.998  1.00  0.00     0.187 HD
BRANCH   7   9
HETATM    9  N3  UNL     1       1.251  -0.888   0.171  1.00  0.00    -0.274 N 
ATOM     10  H3  UNL     1       1.354  -0.359  -0.695  1.00  0.00     0.189 HD
BRANCH   9  11
HETATM   11  C3  UNL     1       2.181  -1.927   0.480  1.00  0.00     0.205 C 
HETATM   12  S1  UNL     1       2.005  -2.764   1.869  1.00  0.00    -0.038 SA
BRANCH  11  13
HETATM   13  N2  UNL     1       3.255  -2.243  -0.398  1.00  0.00    -0.275 N 
ATOM     14  H2  UNL     1       3.893  -2.993  -0.131  1.00  0.00     0.189 HD
BRANCH  13  15
HETATM   15  N1  UNL     1       3.481  -1.582  -1.602  1.00  0.00    -0.304 N 
HETATM   16  C2  UNL     1       4.435  -0.743  -1.689  1.00  0.00     0.190 C 
ATOM     17  H1  UNL     1       2.886  -1.768  -2.409  1.00  0.00     0.186 HD
BRANCH  16  18
HETATM   18  C1  UNL     1       5.288  -0.466  -0.557  1.00  0.00     0.312 C 
HETATM   19  O1  UNL     1       5.165  -1.008   0.564  1.00  0.00    -0.258 OA
BRANCH  18  20
HETATM   20  O9  UNL     1       6.334   0.464  -0.681  1.00  0.00    -0.226 OA
HETATM   21  S3  UNL     1       7.333   0.784   0.653  1.00  0.00     0.103 SA
ENDBRANCH  18  20
ENDBRANCH  16  18
ENDBRANCH  13  15
ENDBRANCH  11  13
ENDBRANCH   9  11
ENDBRANCH   7   9
ENDBRANCH   1   7
BRANCH   2  22
HETATM   22  O2  UNL     1       0.043   2.209   1.306  1.00  0.00    -0.356 OA
ATOM     23  H2  UNL     1      -0.019   3.153   1.394  1.00  0.00     0.218 HD
ENDBRANCH   2  22
BRANCH   6  24
HETATM   24  O8  UNL     1      -1.950  -1.935   0.060  1.00  0.00    -0.357 OA
ATOM     25  H8  UNL     1      -2.698  -2.412  -0.280  1.00  0.00     0.218 HD
ENDBRANCH   6  24
BRANCH   3  26
HETATM   26  N5  UNL     1      -2.310   3.572   0.576  1.00  0.00    -0.113 N 
HETATM   27  O3  UNL     1      -1.699   4.135   1.479  1.00  0.00    -0.532 OA
HETATM   28  O4  UNL     1      -3.095   4.252  -0.323  1.00  0.00    -0.532 OA
ENDBRANCH   3  26
BRANCH   5  29
HETATM   29  S2  UNL     1      -4.549  -0.812  -0.793  1.00  0.00     0.140 S 
HETATM   30  O5  UNL     1      -4.126  -1.434  -2.106  1.00  0.00    -0.591 OA
HETATM   31  O6  UNL     1      -5.022  -1.847   0.165  1.00  0.00    -0.591 OA
HETATM   32  O7  UNL     1      -5.811   0.232  -1.148  1.00  0.00    -0.591 OA
ENDBRANCH   5  29
TORSDOF 11
