REMARK  9 active torsions:
REMARK  status: ('A' for Active; 'I' for Inactive)
REMARK    1  A    between atoms: C2_3  and  C3_5 
REMARK    2  A    between atoms: C3_5  and  C4_6 
REMARK    3  A    between atoms: C3_5  and  N5_26 
REMARK       I    between atoms: C4_6  and  N2_8 
REMARK    4  A    between atoms: N2_8  and  N3_10 
REMARK    5  A    between atoms: C5_12  and  C6_13 
REMARK    6  A    between atoms: C8_15  and  N4_16 
REMARK    7  A    between atoms: C10_20  and  O5_21 
REMARK    8  A    between atoms: C11_23  and  O6_24 
REMARK    9  A    between atoms: C15_30  and  C16_31 
ROOT
HETATM    1  N1  UNL     1       3.742   3.705  -1.900  1.00  0.00    -0.188 NA
HETATM    2  C1  UNL     1       2.854   3.019  -1.607  1.00  0.00     0.141 C 
HETATM    3  C2  UNL     1       1.751   2.178  -1.257  1.00  0.00     0.260 C 
HETATM    4  O1  UNL     1       0.754   2.708  -0.660  1.00  0.00    -0.278 OA
ENDROOT
BRANCH   3   5
HETATM    5  C3  UNL     1       1.782   0.726  -1.587  1.00  0.00     0.271 C 
BRANCH   5   6
HETATM    6  C4  UNL     1       0.551   0.061  -1.137  1.00  0.00     0.268 C 
HETATM    7  O2  UNL     1       0.556  -0.894  -0.296  1.00  0.00    -0.269 OA
HETATM    8  N2  UNL     1      -0.698   0.492  -1.655  1.00  0.00    -0.268 N 
ATOM      9  H2  UNL     1      -0.726   1.255  -2.331  1.00  0.00     0.190 HD
BRANCH   8  10
HETATM   10  N3  UNL     1      -1.882  -0.111  -1.254  1.00  0.00    -0.308 N 
HETATM   11  C5  UNL     1      -2.662   0.466  -0.416  1.00  0.00     0.121 C 
ATOM     12  H3  UNL     1      -2.135  -1.025  -1.631  1.00  0.00     0.186 HD
BRANCH  11  13
HETATM   13  C6  UNL     1      -3.915  -0.023   0.096  1.00  0.00     0.019 A 
HETATM   14  C7  UNL     1      -4.612   0.773   1.009  1.00  0.00     0.052 A 
HETATM   15  C8  UNL     1      -5.807   0.417   1.562  1.00  0.00     0.106 A 
HETATM   16  C9  UNL     1      -6.326  -0.804   1.175  1.00  0.00     0.075 A 
HETATM   17  C10 UNL     1      -5.705  -1.622   0.296  1.00  0.00     0.102 A 
HETATM   18  C11 UNL     1      -4.481  -1.233  -0.256  1.00  0.00     0.110 A 
BRANCH  15  19
HETATM   19  N4  UNL     1      -6.494   1.251   2.491  1.00  0.00    -0.116 N 
HETATM   20  O3  UNL     1      -6.051   2.337   2.848  1.00  0.00    -0.532 OA
HETATM   21  O4  UNL     1      -7.693   0.824   3.005  1.00  0.00    -0.532 OA
ENDBRANCH  15  19
BRANCH  17  22
HETATM   22  O5  UNL     1      -6.277  -2.836  -0.053  1.00  0.00    -0.358 OA
ATOM     23  H5  UNL     1      -5.841  -3.411  -0.671  1.00  0.00     0.217 HD
ENDBRANCH  17  22
BRANCH  18  24
HETATM   24  O6  UNL     1      -3.916  -2.095  -1.124  1.00  0.00    -0.357 OA
ATOM     25  H6  UNL     1      -4.305  -2.927  -1.366  1.00  0.00     0.217 HD
ENDBRANCH  18  24
ENDBRANCH  11  13
ENDBRANCH   8  10
ENDBRANCH   5   6
BRANCH   5  26
HETATM   26  N5  UNL     1       2.980   0.078  -1.110  1.00  0.00    -0.302 N 
HETATM   27  C12 UNL     1       3.604  -0.814  -1.902  1.00  0.00     0.096 A 
HETATM   28  C13 UNL     1       4.753  -1.472  -1.512  1.00  0.00     0.018 A 
HETATM   29  C14 UNL     1       5.310  -1.232  -0.275  1.00  0.00     0.022 A 
HETATM   30  C15 UNL     1       4.681  -0.322   0.544  1.00  0.00     0.073 A 
HETATM   31  C17 UNL     1       3.518   0.313   0.093  1.00  0.00     0.262 A 
HETATM   32  O7  UNL     1       2.961   1.142   0.862  1.00  0.00    -0.267 OA
BRANCH  30  33
HETATM   33  C16 UNL     1       5.241  -0.051   1.846  1.00  0.00     0.125 C 
HETATM   34  N6  UNL     1       4.668   0.791   2.617  1.00  0.00    -0.387 N 
ATOM     35  H62 UNL     1       3.819   1.269   2.315  1.00  0.00     0.157 HD
ATOM     36  H61 UNL     1       5.064   0.983   3.537  1.00  0.00     0.157 HD
HETATM   37  N7  UNL     1       6.412  -0.711   2.262  1.00  0.00    -0.082 NA
ENDBRANCH  30  33
ENDBRANCH   5  26
ENDBRANCH   3   5
TORSDOF 9
