REMARK  9 active torsions:
REMARK  status: ('A' for Active; 'I' for Inactive)
REMARK    1  A    between atoms: C2_2  and  O1_3 
REMARK    2  A    between atoms: O1_3  and  C3_4 
REMARK    3  A    between atoms: C3_4  and  C4_6 
REMARK    4  A    between atoms: C5_7  and  C6_8 
REMARK    5  A    between atoms: C6_8  and  N1_9 
REMARK    6  A    between atoms: N1_9  and  N2_11 
REMARK    7  A    between atoms: C11_19  and  C12_20 
REMARK    8  A    between atoms: C15_30  and  N6_31 
REMARK    9  A    between atoms: N7_34  and  O6_35 
ROOT
HETATM    1  C4  UNL     1      -2.487  -0.153   0.363  1.00  0.00     0.125 C 
HETATM    2  C5  UNL     1      -1.208  -0.407   0.866  1.00  0.00     0.046 C 
HETATM    3  C14 UNL     1      -0.741   0.050   2.078  1.00  0.00     0.127 C 
HETATM    4  N4  UNL     1       0.400   0.540   2.171  1.00  0.00    -0.384 N 
ATOM      5  H41 UNL     1       0.746   0.879   3.069  1.00  0.00     0.157 HD
ATOM      6  H42 UNL     1       0.935   0.548   1.303  1.00  0.00     0.157 HD
HETATM    7  N5  UNL     1      -1.466   0.039   3.254  1.00  0.00    -0.174 N 
ATOM      8  H5  UNL     1      -0.939  -0.042   4.123  1.00  0.00     0.186 HD
HETATM    9  C15 UNL     1      -2.825   0.127   3.358  1.00  0.00     0.707 C 
HETATM   10  N7  UNL     1      -3.786   0.303   2.432  1.00  0.00    -0.012 N 
HETATM   11  C16 UNL     1      -3.632   0.155   1.101  1.00  0.00     0.305 C 
HETATM   12  O7  UNL     1      -4.664   0.319   0.438  1.00  0.00    -0.264 OA
ENDROOT
BRANCH   2  13
HETATM   13  C6  UNL     1      -0.375  -1.225   0.011  1.00  0.00     0.118 C 
BRANCH  13  14
HETATM   14  N1  UNL     1       0.922  -1.547   0.467  1.00  0.00    -0.329 N 
ATOM     15  H1  UNL     1       1.287  -1.197   1.353  1.00  0.00     0.180 HD
BRANCH  14  16
HETATM   16  N2  UNL     1       1.658  -2.356  -0.350  1.00  0.00    -0.226 NA
HETATM   17  C7  UNL     1       3.042  -2.412   0.130  1.00  0.00     0.118 C 
HETATM   18  C8  UNL     1       3.636  -1.052   0.317  1.00  0.00     0.060 C 
HETATM   19  C9  UNL     1       3.178  -0.156  -0.747  1.00  0.00     0.012 A 
HETATM   20  C10 UNL     1       2.282  -0.558  -1.734  1.00  0.00     0.056 A 
HETATM   21  C11 UNL     1       3.497   1.162  -0.989  1.00  0.00     0.183 A 
HETATM   22  N3  UNL     1       2.115   0.531  -2.503  1.00  0.00    -0.263 N 
HETATM   23  C13 UNL     1       1.751  -1.962  -1.734  1.00  0.00     0.173 C 
HETATM   24  O3  UNL     1       2.817   1.508  -2.066  1.00  0.00    -0.230 OA
ATOM     25  H3  UNL     1       1.511   0.573  -3.324  1.00  0.00     0.194 HD
BRANCH  21  26
HETATM   26  C12 UNL     1       4.403   2.033  -0.227  1.00  0.00     0.237 C 
HETATM   27  O4  UNL     1       4.965   1.527   0.773  1.00  0.00    -0.642 OA
HETATM   28  O5  UNL     1       4.636   3.341  -0.578  1.00  0.00    -0.642 OA
ENDBRANCH  21  26
ENDBRANCH  14  16
ENDBRANCH  13  14
ENDBRANCH   2  13
BRANCH   1  29
HETATM   29  C3  UNL     1      -2.584  -0.239  -1.077  1.00  0.00     0.300 C 
HETATM   30  O2  UNL     1      -2.861  -1.286  -1.717  1.00  0.00    -0.259 OA
BRANCH  29  31
HETATM   31  O1  UNL     1      -2.356   0.913  -1.817  1.00  0.00    -0.318 OA
BRANCH  31  32
HETATM   32  C2  UNL     1      -2.422   0.948  -3.227  1.00  0.00     0.174 C 
HETATM   33  C1  UNL     1      -2.113   2.381  -3.658  1.00  0.00     0.034 C 
ENDBRANCH  31  32
ENDBRANCH  29  31
ENDBRANCH   1  29
BRANCH  10  34
HETATM   34  O6  UNL     1      -5.047   0.666   2.845  1.00  0.00    -0.266 OA
ATOM     35  H6  UNL     1      -5.725   0.790   2.191  1.00  0.00     0.246 HD
ENDBRANCH  10  34
BRANCH   9  36
HETATM   36  N6  UNL     1      -3.316   0.026   4.549  1.00  0.00    -0.232 N 
ATOM     37  H62 UNL     1      -2.588  -0.107   5.251  1.00  0.00     0.174 HD
ATOM     38  H61 UNL     1      -4.331   0.092   4.627  1.00  0.00     0.174 HD
ENDBRANCH   9  36
TORSDOF 9
