REMARK  9 active torsions:
REMARK  status: ('A' for Active; 'I' for Inactive)
REMARK    1  A    between atoms: C3_4  and  N2_5 
REMARK       I    between atoms: N2_5  and  C4_7 
REMARK    2  A    between atoms: C4_7  and  C5_9 
REMARK    3  A    between atoms: C7_11  and  N3_12 
REMARK    4  A    between atoms: N3_12  and  C8_14 
REMARK    5  A    between atoms: C8_14  and  N4_15 
REMARK    6  A    between atoms: N6_21  and  N7_22 
REMARK       I    between atoms: N7_22  and  C11_24 
REMARK    7  A    between atoms: C11_24  and  C12_26 
REMARK    8  A    between atoms: C13_37  and  C14_38 
REMARK    9  A    between atoms: C14_38  and  O3_41 
ROOT
HETATM    1  C8  UNL     1      -3.734  -4.032  -2.265  1.00  0.00     0.182 C 
HETATM    2  C9  UNL     1      -3.177  -5.021  -1.356  1.00  0.00     0.136 C 
HETATM    3  N5  UNL     1      -2.747  -5.815  -0.618  1.00  0.00    -0.188 NA
ENDROOT
BRANCH   1   4
HETATM    4  N3  UNL     1      -4.456  -2.925  -1.759  1.00  0.00    -0.333 N 
ATOM      5  H3  UNL     1      -5.473  -2.908  -1.829  1.00  0.00     0.168 HD
BRANCH   4   6
HETATM    6  C7  UNL     1      -3.776  -1.845  -1.158  1.00  0.00     0.054 A 
HETATM    7  C6  UNL     1      -2.430  -1.650  -1.015  1.00  0.00     0.068 A 
HETATM    8  C5  UNL     1      -2.203  -0.444  -0.347  1.00  0.00     0.126 A 
HETATM    9  N6  UNL     1      -3.400   0.101  -0.080  1.00  0.00    -0.257 N 
HETATM   10  C10 UNL     1      -4.370  -0.732  -0.563  1.00  0.00     0.146 A 
BRANCH   8  11
HETATM   11  C4  UNL     1      -0.888   0.046   0.001  1.00  0.00     0.275 C 
HETATM   12  N2  UNL     1       0.293  -0.650  -0.401  1.00  0.00    -0.306 N 
ATOM     13  H2  UNL     1       0.190  -1.493  -0.966  1.00  0.00     0.170 HD
HETATM   14  O1  UNL     1      -0.757   1.101   0.667  1.00  0.00    -0.266 OA
BRANCH  12  15
HETATM   15  C3  UNL     1       1.603  -0.226  -0.053  1.00  0.00     0.125 A 
HETATM   16  C2  UNL     1       2.028   0.811   0.730  1.00  0.00     0.140 A 
HETATM   17  N1  UNL     1       3.396   0.829   0.753  1.00  0.00    -0.345 N 
HETATM   18  C1  UNL     1       4.138   1.817   1.520  1.00  0.00     0.157 C 
HETATM   19  C13 UNL     1       3.822  -0.166   0.006  1.00  0.00     0.119 A 
HETATM   20  N12 UNL     1       2.751  -0.813  -0.487  1.00  0.00    -0.328 N 
ATOM     21  H12 UNL     1       2.793  -1.628  -1.099  1.00  0.00     0.169 HD
BRANCH  19  22
HETATM   22  C14 UNL     1       5.207  -0.585  -0.316  1.00  0.00     0.109 C 
HETATM   23  C15 UNL     1       5.266  -0.547  -1.856  1.00  0.00     0.054 C 
HETATM   24  C16 UNL     1       6.282   0.316   0.145  1.00  0.00     0.054 C 
BRANCH  22  25
HETATM   25  O3  UNL     1       5.409  -1.921   0.063  1.00  0.00    -0.383 OA
ATOM     26  H3  UNL     1       6.297  -2.190  -0.143  1.00  0.00     0.211 HD
ENDBRANCH  22  25
ENDBRANCH  19  22
ENDBRANCH  12  15
ENDBRANCH   8  11
BRANCH   9  27
HETATM   27  N7  UNL     1      -3.646   1.314   0.545  1.00  0.00    -0.256 N 
HETATM   28  C11 UNL     1      -4.916   1.828   0.843  1.00  0.00     0.307 C 
HETATM   29  O2  UNL     1      -6.030   1.318   0.620  1.00  0.00    -0.262 OA
ATOM     30  H7  UNL     1      -2.838   1.878   0.809  1.00  0.00     0.191 HD
BRANCH  28  31
HETATM   31  C12 UNL     1      -4.953   3.163   1.519  1.00  0.00     0.208 A 
HETATM   32  N8  UNL     1      -6.021   3.828   1.981  1.00  0.00    -0.264 N 
HETATM   33  N9  UNL     1      -5.569   4.979   2.493  1.00  0.00    -0.226 N 
ATOM     34  H8  UNL     1      -6.992   3.517   1.949  1.00  0.00     0.190 HD
HETATM   35  N10 UNL     1      -4.261   5.051   2.364  1.00  0.00    -0.226 N 
ATOM     36  H9  UNL     1      -6.154   5.697   2.921  1.00  0.00     0.210 HD
HETATM   37  N11 UNL     1      -3.885   3.939   1.768  1.00  0.00    -0.264 N 
ATOM     38  H10 UNL     1      -3.658   5.817   2.666  1.00  0.00     0.210 HD
ATOM     39  H11 UNL     1      -2.922   3.701   1.530  1.00  0.00     0.190 HD
ENDBRANCH  28  31
ENDBRANCH   9  27
ENDBRANCH   4   6
ENDBRANCH   1   4
BRANCH   1  40
HETATM   40  N4  UNL     1      -3.541  -4.215  -3.522  1.00  0.00    -0.377 N 
ATOM     41  H42 UNL     1      -3.932  -3.521  -4.160  1.00  0.00     0.158 HD
ATOM     42  H41 UNL     1      -3.021  -5.013  -3.887  1.00  0.00     0.158 HD
ENDBRANCH   1  40
TORSDOF 9
