REMARK  11 active torsions:
REMARK  status: ('A' for Active; 'I' for Inactive)
REMARK       I    between atoms: N1_2  and  C2_4 
REMARK    1  A    between atoms: C2_4  and  C3_6 
REMARK       I    between atoms: C3_6  and  N2_8 
REMARK    2  A    between atoms: N2_8  and  C4_10 
REMARK    3  A    between atoms: C4_10  and  N3_11 
REMARK    4  A    between atoms: N3_11  and  N4_13 
REMARK    5  A    between atoms: N4_13  and  C5_15 
REMARK    6  A    between atoms: C8_18  and  N5_19 
REMARK    7  A    between atoms: C10_23  and  N6_24 
REMARK    8  A    between atoms: C11_27  and  O7_28 
REMARK    9  A    between atoms: C11_27  and  N7_30 
REMARK   10  A    between atoms: N7_30  and  C12_32 
REMARK   11  A    between atoms: C13_38  and  N10_39 
ROOT
HETATM    1  C4  UNL     1       0.308   0.814  -0.520  1.00  0.00     0.175 C 
HETATM    2  C11 UNL     1       0.582   2.148  -0.195  1.00  0.00     0.188 C 
ENDROOT
BRANCH   1   3
HETATM    3  N2  UNL     1       1.027  -0.353  -0.597  1.00  0.00    -0.300 N 
HETATM    4  C3  UNL     1       2.369  -0.650  -0.384  1.00  0.00     0.315 C 
HETATM    5  O2  UNL     1       3.286   0.101  -0.060  1.00  0.00    -0.262 OA
ATOM      6  H2  UNL     1       0.466  -1.162  -0.863  1.00  0.00     0.171 HD
BRANCH   4   7
HETATM    7  C2  UNL     1       2.769  -2.090  -0.571  1.00  0.00     0.309 C 
HETATM    8  N1  UNL     1       4.117  -2.447  -0.382  1.00  0.00    -0.357 N 
HETATM    9  C1  UNL     1       4.518  -3.818  -0.554  1.00  0.00     0.149 C 
ATOM     10  H1  UNL     1       4.805  -1.739  -0.125  1.00  0.00     0.162 HD
HETATM   11  O1  UNL     1       1.925  -2.939  -0.885  1.00  0.00    -0.262 OA
ENDBRANCH   4   7
ENDBRANCH   1   3
BRANCH   1  12
HETATM   12  N3  UNL     1      -1.010   0.627  -0.828  1.00  0.00    -0.281 N 
ATOM     13  H3  UNL     1      -1.627   1.439  -0.798  1.00  0.00     0.188 HD
BRANCH  12  14
HETATM   14  N4  UNL     1      -1.551  -0.566  -1.171  1.00  0.00    -0.297 N 
ATOM     15  H4  UNL     1      -1.271  -1.002  -2.050  1.00  0.00     0.187 HD
BRANCH  14  16
HETATM   16  C5  UNL     1      -2.510  -1.238  -0.332  1.00  0.00     0.081 A 
HETATM   17  C6  UNL     1      -2.160  -2.471   0.218  1.00  0.00     0.036 A 
HETATM   18  C7  UNL     1      -3.042  -3.127   1.043  1.00  0.00     0.038 A 
HETATM   19  C8  UNL     1      -4.275  -2.557   1.324  1.00  0.00     0.105 A 
HETATM   20  C9  UNL     1      -4.594  -1.342   0.768  1.00  0.00     0.074 A 
HETATM   21  C10 UNL     1      -3.725  -0.645  -0.076  1.00  0.00     0.133 A 
BRANCH  19  22
HETATM   22  N5  UNL     1      -5.204  -3.243   2.191  1.00  0.00    -0.116 N 
HETATM   23  O3  UNL     1      -4.936  -4.355   2.685  1.00  0.00    -0.532 OA
HETATM   24  O4  UNL     1      -6.415  -2.663   2.479  1.00  0.00    -0.532 OA
ENDBRANCH  19  22
BRANCH  21  25
HETATM   25  N6  UNL     1      -4.118   0.607  -0.620  1.00  0.00    -0.113 N 
HETATM   26  O5  UNL     1      -3.756   0.928  -1.748  1.00  0.00    -0.532 OA
HETATM   27  O6  UNL     1      -4.922   1.432   0.111  1.00  0.00    -0.532 OA
ENDBRANCH  21  25
ENDBRANCH  14  16
ENDBRANCH  12  14
ENDBRANCH   1  12
BRANCH   2  28
HETATM   28  O7  UNL     1      -0.508   2.936  -0.288  1.00  0.00    -0.343 OA
ATOM     29  H7  UNL     1      -0.322   3.841  -0.067  1.00  0.00     0.219 HD
ENDBRANCH   2  28
BRANCH   2  30
HETATM   30  N7  UNL     1       1.729   2.804   0.193  1.00  0.00    -0.316 N 
ATOM     31  H7  UNL     1       2.606   2.299   0.323  1.00  0.00     0.169 HD
BRANCH  30  32
HETATM   32  C12 UNL     1       1.649   4.252   0.413  1.00  0.00     0.175 A 
HETATM   33  N8  UNL     1       0.592   5.048   0.257  1.00  0.00    -0.222 N 
HETATM   34  O8  UNL     1       0.915   6.279   0.532  1.00  0.00    -0.153 OA
ATOM     35  H8  UNL     1      -0.335   4.738  -0.035  1.00  0.00     0.198 HD
HETATM   36  N9  UNL     1       2.160   6.338   0.869  1.00  0.00    -0.222 N 
HETATM   37  C13 UNL     1       2.673   5.079   0.811  1.00  0.00     0.167 A 
ATOM     38  H9  UNL     1       2.670   7.181   1.133  1.00  0.00     0.198 HD
BRANCH  37  39
HETATM   39  N10 UNL     1       3.880   4.693   1.074  1.00  0.00    -0.381 N 
ATOM     40 2H10 UNL     1       4.265   3.749   1.031  1.00  0.00     0.157 HD
ATOM     41 1H10 UNL     1       4.640   5.306   1.369  1.00  0.00     0.157 HD
ENDBRANCH  37  39
ENDBRANCH  30  32
ENDBRANCH   2  30
TORSDOF 11
