REMARK  5 active torsions:
REMARK  status: ('A' for Active; 'I' for Inactive)
REMARK    1  A    between atoms: O1_2  and  C2_3 
REMARK    2  A    between atoms: C6_7  and  O2_8 
REMARK    3  A    between atoms: C8_10  and  O3_11 
REMARK    4  A    between atoms: C11_14  and  C12_15 
REMARK    5  A    between atoms: C12_15  and  C13_16 
ROOT
HETATM    1  C2  UNL     1      -3.185  -0.200  -0.585  1.00  0.00     0.105 A 
HETATM    2  C3  UNL     1      -2.323  -1.154  -1.087  1.00  0.00     0.055 A 
HETATM    3  C4  UNL     1      -1.011  -1.248  -0.686  1.00  0.00     0.022 A 
HETATM    4  C5  UNL     1      -0.546  -0.353   0.253  1.00  0.00    -0.007 A 
HETATM    5  C6  UNL     1      -1.368   0.628   0.793  1.00  0.00     0.111 A 
HETATM    6  C8  UNL     1      -2.668   0.670   0.351  1.00  0.00     0.135 A 
HETATM    7  C10 UNL     1       0.893  -0.644   0.538  1.00  0.00     0.055 C 
HETATM    8  C11 UNL     1       1.319  -1.351  -0.724  1.00  0.00     0.070 C 
HETATM    9  C17 UNL     1       0.112  -2.142  -1.043  1.00  0.00     0.165 C 
HETATM   10  O4  UNL     1      -0.021  -3.300  -1.509  1.00  0.00    -0.292 OA
ENDROOT
BRANCH   8  11
HETATM   11  C12 UNL     1       2.543  -2.206  -0.507  1.00  0.00     0.071 C 
BRANCH  11  12
HETATM   12  C13 UNL     1       3.636  -1.291  -0.052  1.00  0.00     0.025 A 
HETATM   13  C14 UNL     1       3.848  -1.021   1.289  1.00  0.00     0.114 A 
HETATM   14  N1  UNL     1       4.846  -0.187   1.678  1.00  0.00    -0.357 N 
HETATM   15  C15 UNL     1       5.644   0.389   0.768  1.00  0.00     0.095 A 
ATOM     16  H1  UNL     1       4.990   0.003   2.670  1.00  0.00     0.166 HD
HETATM   17 BR1  UNL     1       7.064   1.569   1.240  1.00  0.00    -0.030 Br
HETATM   18  C16 UNL     1       5.443   0.128  -0.569  1.00  0.00     0.125 A 
HETATM   19  N2  UNL     1       4.464  -0.688  -0.925  1.00  0.00    -0.365 N 
ATOM     20  H2  UNL     1       4.329  -0.871  -1.919  1.00  0.00     0.165 HD
ENDBRANCH  11  12
ENDBRANCH   8  11
BRANCH   5  21
HETATM   21  O2  UNL     1      -0.844   1.489   1.723  1.00  0.00    -0.352 OA
HETATM   22  C7  UNL     1      -0.226   2.711   1.464  1.00  0.00     0.210 C 
ENDBRANCH   5  21
BRANCH   6  23
HETATM   23  O3  UNL     1      -3.520   1.630   0.861  1.00  0.00    -0.351 OA
HETATM   24  C9  UNL     1      -3.683   2.911   0.285  1.00  0.00     0.210 C 
ENDBRANCH   6  23
BRANCH   1  25
HETATM   25  O1  UNL     1      -4.505  -0.126  -1.006  1.00  0.00    -0.353 OA
HETATM   26  C1  UNL     1      -4.946  -1.062  -1.971  1.00  0.00     0.210 C 
ENDBRANCH   1  25
TORSDOF 5
