REMARK  5 active torsions:
REMARK  status: ('A' for Active; 'I' for Inactive)
REMARK    1  A    between atoms: O1_2  and  C2_3 
REMARK    2  A    between atoms: C4_5  and  C5_6 
REMARK    3  A    between atoms: C8_9  and  N1_10 
REMARK    4  A    between atoms: N1_10  and  S1_12 
REMARK    5  A    between atoms: S1_12  and  C10_15 
ROOT
HETATM    1  N1  UNL     1      -1.223   0.535   0.988  1.00  0.00    -0.274 N 
HETATM    2  C9  UNL     1      -1.601   0.037   2.351  1.00  0.00     0.170 C 
ENDROOT
BRANCH   1   3
HETATM    3  C8  UNL     1       0.128   0.747   0.807  1.00  0.00     0.052 A 
HETATM    4  C4  UNL     1       1.050  -0.110   0.326  1.00  0.00    -0.025 A 
HETATM    5  C3  UNL     1       2.410   0.227   0.214  1.00  0.00     0.047 A 
HETATM    6  C2  UNL     1       2.835   1.453   0.597  1.00  0.00     0.074 A 
HETATM    7  C15 UNL     1       1.943   2.364   1.092  1.00  0.00    -0.026 A 
HETATM    8  C14 UNL     1       0.629   2.017   1.193  1.00  0.00     0.040 A 
HETATM    9  C16 UNL     1       2.383   3.706   1.516  1.00  0.00     0.051 C 
BRANCH   4  10
HETATM   10  C5  UNL     1       0.700  -1.455  -0.161  1.00  0.00     0.013 C 
HETATM   11  C6  UNL     1       1.933  -2.357  -0.036  1.00  0.00     0.015 C 
HETATM   12  C7  UNL     1       0.581  -1.266  -1.705  1.00  0.00     0.015 C 
ENDBRANCH   4  10
BRANCH   6  13
HETATM   13  O1  UNL     1       4.173   1.816   0.498  1.00  0.00    -0.355 OA
HETATM   14  C1  UNL     1       5.092   0.876  -0.012  1.00  0.00     0.210 C 
ENDBRANCH   6  13
ENDBRANCH   1   3
BRANCH   1  15
HETATM   15  S1  UNL     1      -2.542   0.814  -0.035  1.00  0.00     0.284 S 
HETATM   16  O2  UNL     1      -2.024   1.487  -1.314  1.00  0.00    -0.198 OA
HETATM   17  O3  UNL     1      -3.498   1.845   0.612  1.00  0.00    -0.198 OA
BRANCH  15  18
HETATM   18  C10 UNL     1      -3.554  -0.541  -0.404  1.00  0.00     0.202 A 
HETATM   19  C11 UNL     1      -4.546  -1.024   0.465  1.00  0.00     0.190 A 
HETATM   20 CL1  UNL     1      -4.978  -0.481   2.073  1.00  0.00    -0.053 Cl
HETATM   21  O4  UNL     1      -5.165  -2.023  -0.139  1.00  0.00    -0.245 OA
HETATM   22  C12 UNL     1      -4.655  -2.211  -1.309  1.00  0.00     0.373 A 
HETATM   23  O5  UNL     1      -5.011  -3.079  -2.139  1.00  0.00    -0.237 OA
HETATM   24  N2  UNL     1      -3.647  -1.299  -1.504  1.00  0.00    -0.283 N 
HETATM   25  C13 UNL     1      -2.914  -1.226  -2.764  1.00  0.00     0.163 C 
ENDBRANCH  15  18
ENDBRANCH   1  15
TORSDOF 5
