REMARK  7 active torsions:
REMARK  status: ('A' for Active; 'I' for Inactive)
REMARK    1  A    between atoms: C2_2  and  C3_3 
REMARK    2  A    between atoms: C4_4  and  C5_5 
REMARK    3  A    between atoms: C7_9  and  N2_10 
REMARK    4  A    between atoms: N2_10  and  C8_11 
REMARK    5  A    between atoms: N2_10  and  S1_15 
REMARK    6  A    between atoms: C8_11  and  C9_12 
REMARK    7  A    between atoms: S1_15  and  C11_18 
ROOT
HETATM    1  C9  UNL     1      -2.349  -4.499  -0.531  1.00  0.00     0.144 C 
HETATM    2  C10 UNL     1      -1.874  -5.893  -0.744  1.00  0.00     0.060 C 
HETATM    3  N3  UNL     1      -1.502  -6.982  -0.890  1.00  0.00    -0.197 NA
ENDROOT
BRANCH   1   4
HETATM    4  C8  UNL     1      -1.124  -3.672  -0.346  1.00  0.00     0.155 C 
BRANCH   4   5
HETATM    5  N2  UNL     1      -1.326  -2.278  -0.105  1.00  0.00    -0.278 N 
BRANCH   5   6
HETATM    6  C7  UNL     1      -0.160  -1.457   0.013  1.00  0.00     0.137 A 
HETATM    7  N1  UNL     1       0.102  -0.570  -0.990  1.00  0.00    -0.349 N 
HETATM    8  C6  UNL     1       1.176   0.237  -0.990  1.00  0.00     0.110 A 
ATOM      9  H1  UNL     1      -0.547  -0.517  -1.775  1.00  0.00     0.167 HD
HETATM   10  C5  UNL     1       2.098   0.226   0.034  1.00  0.00     0.034 A 
HETATM   11  C16 UNL     1       1.865  -0.657   1.064  1.00  0.00     0.049 A 
HETATM   12  C15 UNL     1       0.738  -1.490   1.044  1.00  0.00     0.080 A 
HETATM   13 CL1  UNL     1       0.440  -2.597   2.378  1.00  0.00    -0.080 Cl
BRANCH  10  14
HETATM   14  C4  UNL     1       3.250   1.102   0.017  1.00  0.00    -0.066 C 
HETATM   15  C3  UNL     1       4.202   1.845   0.011  1.00  0.00    -0.101 C 
BRANCH  15  16
HETATM   16  C2  UNL     1       5.361   2.759   0.024  1.00  0.00     0.090 C 
HETATM   17  C1  UNL     1       5.024   4.034   0.789  1.00  0.00     0.018 C 
ENDBRANCH  15  16
ENDBRANCH  10  14
ENDBRANCH   5   6
BRANCH   5  18
HETATM   18  S1  UNL     1      -2.879  -1.524   0.065  1.00  0.00     0.129 S 
HETATM   19  O1  UNL     1      -3.951  -2.323  -0.605  1.00  0.00    -0.232 OA
HETATM   20  S2  UNL     1      -3.228  -1.545   1.758  1.00  0.00     0.035 SA
BRANCH  18  21
HETATM   21  C11 UNL     1      -2.853   0.121  -0.517  1.00  0.00     0.084 A 
HETATM   22  C12 UNL     1      -3.123   0.542  -1.801  1.00  0.00     0.131 A 
HETATM   23  N4  UNL     1      -2.991   1.902  -1.826  1.00  0.00    -0.309 N 
HETATM   24  N5  UNL     1      -2.658   2.337  -0.644  1.00  0.00    -0.307 N 
ATOM     25  H4  UNL     1      -3.132   2.489  -2.648  1.00  0.00     0.186 HD
HETATM   26  C13 UNL     1      -2.435   3.742  -0.321  1.00  0.00     0.177 C 
HETATM   27  C14 UNL     1      -2.564   1.272   0.186  1.00  0.00     0.133 A 
ENDBRANCH  18  21
ENDBRANCH   5  18
ENDBRANCH   4   5
ENDBRANCH   1   4
TORSDOF 7
