REMARK  6 active torsions:
REMARK  status: ('A' for Active; 'I' for Inactive)
REMARK    1  A    between atoms: C2_2  and  O1_3 
REMARK    2  A    between atoms: O1_3  and  C3_4 
REMARK    3  A    between atoms: C3_4  and  C5_9 
REMARK    4  A    between atoms: N3_13  and  S1_14 
REMARK    5  A    between atoms: S1_14  and  C9_17 
REMARK    6  A    between atoms: C12_23  and  C13_24 
ROOT
HETATM    1  C3  UNL     1       2.386   0.891   0.025  1.00  0.00     0.151 C 
HETATM    2  N1  UNL     1       2.310   1.782   0.901  1.00  0.00    -0.276 N 
ATOM      3  H1  UNL     1       1.350   1.929   1.212  1.00  0.00     0.180 HD
HETATM    4  C4  UNL     1       3.177   2.599   1.540  1.00  0.00     0.183 C 
HETATM    5  N2  UNL     1       3.890   3.308   2.094  1.00  0.00    -0.172 NA
ENDROOT
BRANCH   1   6
HETATM    6  O1  UNL     1       3.569   0.518  -0.545  1.00  0.00    -0.337 OA
BRANCH   6   7
HETATM    7  C2  UNL     1       4.839   0.968  -0.161  1.00  0.00     0.172 C 
HETATM    8  C1  UNL     1       5.885   0.283  -1.061  1.00  0.00     0.034 C 
ENDBRANCH   6   7
ENDBRANCH   1   6
BRANCH   1   9
HETATM    9  C5  UNL     1       1.084   0.200  -0.417  1.00  0.00     0.171 C 
HETATM   10  C6  UNL     1       0.895   0.701  -1.864  1.00  0.00     0.036 C 
HETATM   11  C7  UNL     1       0.419   2.108  -1.574  1.00  0.00     0.023 C 
HETATM   12  C8  UNL     1      -0.480   1.905  -0.374  1.00  0.00     0.136 C 
HETATM   13  N3  UNL     1       0.056   0.801   0.326  1.00  0.00    -0.294 N 
BRANCH  13  14
HETATM   14  S1  UNL     1      -0.915  -0.095   1.339  1.00  0.00     0.266 S 
HETATM   15  O2  UNL     1       0.003  -0.670   2.440  1.00  0.00    -0.200 OA
HETATM   16  O3  UNL     1      -1.774   0.900   2.140  1.00  0.00    -0.200 OA
BRANCH  14  17
HETATM   17  C9  UNL     1      -1.890  -1.336   0.663  1.00  0.00     0.139 A 
HETATM   18  C10 UNL     1      -1.546  -2.652   0.473  1.00  0.00     0.055 A 
HETATM   19  C11 UNL     1      -0.263  -3.343   0.765  1.00  0.00     0.072 C 
HETATM   20  N4  UNL     1      -2.639  -3.287  -0.057  1.00  0.00    -0.264 N 
HETATM   21  O4  UNL     1      -3.571  -2.417  -0.176  1.00  0.00    -0.236 OA
ATOM     22  H4  UNL     1      -2.699  -4.273  -0.311  1.00  0.00     0.194 HD
HETATM   23  C12 UNL     1      -3.181  -1.233   0.238  1.00  0.00     0.125 A 
BRANCH  23  24
HETATM   24  C13 UNL     1      -4.039  -0.063   0.211  1.00  0.00     0.060 C 
HETATM   25  C14 UNL     1      -5.290  -0.104   0.625  1.00  0.00     0.010 C 
HETATM   26  C15 UNL     1      -5.847  -1.368   1.133  1.00  0.00     0.062 C 
HETATM   27 CL1  UNL     1      -6.281   1.316   0.572  1.00  0.00    -0.089 Cl
ENDBRANCH  23  24
ENDBRANCH  14  17
ENDBRANCH  13  14
ENDBRANCH   1   9
TORSDOF 6
