REMARK  7 active torsions:
REMARK  status: ('A' for Active; 'I' for Inactive)
REMARK       I    between atoms: N1_2  and  C2_4 
REMARK    1  A    between atoms: C2_4  and  C3_6 
REMARK    2  A    between atoms: C4_12  and  N5_13 
REMARK    3  A    between atoms: N5_13  and  C5_15 
REMARK    4  A    between atoms: C5_15  and  C6_16 
REMARK    5  A    between atoms: C6_16  and  N6_17 
REMARK    6  A    between atoms: C11_23  and  N7_24 
REMARK    7  A    between atoms: N7_24  and  N8_26 
ROOT
HETATM    1  C3  UNL     1       3.597  -0.135   0.013  1.00  0.00     0.192 A 
HETATM    2  N2  UNL     1       2.718   0.881   0.111  1.00  0.00    -0.259 N 
ATOM      3  H2  UNL     1       3.077   1.834   0.056  1.00  0.00     0.191 HD
HETATM    4  N3  UNL     1       1.409   0.712   0.276  1.00  0.00    -0.188 N 
HETATM    5  N4  UNL     1       0.433   1.577   0.388  1.00  0.00    -0.262 N 
ATOM      6  H4  UNL     1       0.529   2.592   0.365  1.00  0.00     0.191 HD
HETATM    7  C4  UNL     1      -0.747   0.880   0.543  1.00  0.00     0.142 A 
HETATM    8  C9  UNL     1      -0.445  -0.468   0.519  1.00  0.00     0.113 A 
HETATM    9 CL1  UNL     1      -1.541  -1.829   0.670  1.00  0.00    -0.077 Cl
HETATM   10  C10 UNL     1       0.936  -0.541   0.348  1.00  0.00     0.145 A 
HETATM   11  C11 UNL     1       1.777  -1.609   0.254  1.00  0.00     0.154 A 
HETATM   12  N9  UNL     1       3.093  -1.404   0.088  1.00  0.00    -0.320 N 
ATOM     13  H9  UNL     1       3.723  -2.203   0.017  1.00  0.00     0.169 HD
ENDROOT
BRANCH   7  14
HETATM   14  N5  UNL     1      -1.851   1.478   0.678  1.00  0.00    -0.372 N 
ATOM     15  H5  UNL     1      -1.789   2.496   0.663  1.00  0.00     0.161 HD
BRANCH  14  16
HETATM   16  C5  UNL     1      -3.152   0.970   0.846  1.00  0.00     0.151 C 
BRANCH  16  17
HETATM   17  C6  UNL     1      -3.857   0.806  -0.504  1.00  0.00     0.290 C 
BRANCH  17  18
HETATM   18  N6  UNL     1      -5.194   0.318  -0.385  1.00  0.00     0.081 N 
HETATM   19  C7  UNL     1      -5.298  -1.036   0.067  1.00  0.00     0.309 C 
HETATM   20  C8  UNL     1      -6.088   1.227   0.262  1.00  0.00     0.309 C 
ENDBRANCH  17  18
ENDBRANCH  16  17
ENDBRANCH  14  16
ENDBRANCH   7  14
BRANCH  11  21
HETATM   21  N7  UNL     1       1.345  -2.838   0.319  1.00  0.00    -0.290 N 
ATOM     22  H7  UNL     1       0.349  -3.016   0.444  1.00  0.00     0.188 HD
BRANCH  21  23
HETATM   23  N8  UNL     1       2.229  -3.911   0.219  1.00  0.00    -0.344 N 
ATOM     24  H82 UNL     1       3.222  -3.716   0.094  1.00  0.00     0.176 HD
ATOM     25  H81 UNL     1       1.891  -4.872   0.270  1.00  0.00     0.176 HD
ENDBRANCH  21  23
ENDBRANCH  11  21
BRANCH   1  26
HETATM   26  C2  UNL     1       5.026   0.075  -0.168  1.00  0.00     0.286 C 
HETATM   27  N1  UNL     1       5.572   1.367  -0.254  1.00  0.00    -0.359 N 
HETATM   28  C1  UNL     1       6.986   1.599  -0.428  1.00  0.00     0.149 C 
ATOM     29  H1  UNL     1       4.946   2.170  -0.191  1.00  0.00     0.162 HD
HETATM   30  O1  UNL     1       5.779  -0.923  -0.247  1.00  0.00    -0.264 OA
ENDBRANCH   1  26
TORSDOF 7
