REMARK  11 active torsions:
REMARK  status: ('A' for Active; 'I' for Inactive)
REMARK    1  A    between atoms: N1_1  and  C1_5 
REMARK    2  A    between atoms: C1_5  and  C2_6 
REMARK    3  A    between atoms: C2_6  and  C3_7 
REMARK    4  A    between atoms: C3_7  and  C4_8 
REMARK    5  A    between atoms: C4_8  and  N2_9 
REMARK    6  A    between atoms: N2_9  and  C5_11 
REMARK    7  A    between atoms: C5_11  and  N3_13 
REMARK    8  A    between atoms: N3_13  and  C6_15 
REMARK    9  A    between atoms: C6_15  and  C7_16 
REMARK   10  A    between atoms: C7_16  and  C8_17 
REMARK   11  A    between atoms: C8_17  and  N4_18 
ROOT
HETATM    1  C5  UNL     1      -0.054  -0.630  -0.125  1.00  0.00     0.167 C 
HETATM    2  S1  UNL     1       0.434  -1.393   1.208  1.00  0.00    -0.041 SA
ENDROOT
BRANCH   1   3
HETATM    3  N2  UNL     1      -1.313   0.071  -0.020  1.00  0.00    -0.367 N 
ATOM      4  H2  UNL     1      -1.718   0.513  -0.845  1.00  0.00     0.161 HD
BRANCH   3   5
HETATM    5  C4  UNL     1      -1.997   0.149   1.239  1.00  0.00     0.122 C 
BRANCH   5   6
HETATM    6  C3  UNL     1      -3.400   0.751   1.067  1.00  0.00     0.021 C 
BRANCH   6   7
HETATM    7  C2  UNL     1      -4.122  -0.210   0.150  1.00  0.00     0.029 C 
BRANCH   7   8
HETATM    8  C1  UNL     1      -5.530   0.159  -0.171  1.00  0.00     0.229 C 
BRANCH   8   9
HETATM    9  N1  UNL     1      -6.334   0.220   1.020  1.00  0.00    -0.079 N 
ATOM     10  H13 UNL     1      -6.285  -0.650   1.551  1.00  0.00     0.274 HD
ATOM     11  H12 UNL     1      -5.930   0.849   1.714  1.00  0.00     0.274 HD
ATOM     12  H11 UNL     1      -7.298   0.473   0.800  1.00  0.00     0.274 HD
ENDBRANCH   8   9
ENDBRANCH   7   8
ENDBRANCH   6   7
ENDBRANCH   5   6
ENDBRANCH   3   5
ENDBRANCH   1   3
BRANCH   1  13
HETATM   13  N3  UNL     1       0.579  -0.659  -1.379  1.00  0.00    -0.367 N 
ATOM     14  H3  UNL     1       0.106  -0.200  -2.157  1.00  0.00     0.161 HD
BRANCH  13  15
HETATM   15  C6  UNL     1       1.832  -1.281  -1.644  1.00  0.00     0.123 C 
BRANCH  15  16
HETATM   16  C7  UNL     1       3.082  -0.626  -1.259  1.00  0.00     0.041 C 
BRANCH  16  17
HETATM   17  C8  UNL     1       3.379  -0.279   0.148  1.00  0.00     0.151 C 
BRANCH  17  18
HETATM   18  N4  UNL     1       4.738   0.340   0.203  1.00  0.00    -0.287 N 
HETATM   19  C9  UNL     1       4.974   1.648   0.071  1.00  0.00     0.201 A 
HETATM   20  N5  UNL     1       6.322   1.777   0.182  1.00  0.00    -0.346 N 
HETATM   21  C10 UNL     1       6.869   0.557   0.379  1.00  0.00     0.198 A 
ATOM     22  H5  UNL     1       6.839   2.655   0.126  1.00  0.00     0.167 HD
HETATM   23  N6  UNL     1       5.872  -0.337   0.391  1.00  0.00    -0.293 N 
ATOM     24  H6  UNL     1       5.963  -1.345   0.520  1.00  0.00     0.188 HD
ENDBRANCH  17  18
ENDBRANCH  16  17
ENDBRANCH  15  16
ENDBRANCH  13  15
ENDBRANCH   1  13
TORSDOF 11
