REMARK  7 active torsions:
REMARK  status: ('A' for Active; 'I' for Inactive)
REMARK    1  A    between atoms: N1_1  and  C1_5 
REMARK    2  A    between atoms: C1_5  and  C2_6 
REMARK    3  A    between atoms: C2_6  and  C3_7 
REMARK    4  A    between atoms: C3_7  and  C4_8 
REMARK    5  A    between atoms: C4_8  and  N2_9 
REMARK    6  A    between atoms: N2_9  and  C5_12 
REMARK    7  A    between atoms: C5_12  and  C6_13 
ROOT
HETATM    1  N2  UNL     1       0.119   0.475   0.884  1.00  0.00    -0.075 N 
ATOM      2  H21 UNL     1      -0.074   1.090   0.093  1.00  0.00     0.277 HD
ATOM      3  H22 UNL     1      -0.453   0.928   1.597  1.00  0.00     0.277 HD
ENDROOT
BRANCH   1   4
HETATM    4  C4  UNL     1       1.500   0.529   1.238  1.00  0.00     0.232 C 
BRANCH   4   5
HETATM    5  C3  UNL     1       2.460   0.190   0.139  1.00  0.00     0.029 C 
BRANCH   5   6
HETATM    6  C2  UNL     1       3.884   0.280   0.633  1.00  0.00     0.029 C 
BRANCH   6   7
HETATM    7  C1  UNL     1       4.785  -0.078  -0.541  1.00  0.00     0.229 C 
BRANCH   7   8
HETATM    8  N1  UNL     1       4.502   0.893  -1.586  1.00  0.00    -0.079 N 
ATOM      9  H13 UNL     1       3.514   0.943  -1.835  1.00  0.00     0.274 HD
ATOM     10  H12 UNL     1       4.604   1.860  -1.278  1.00  0.00     0.274 HD
ATOM     11  H11 UNL     1       5.106   0.653  -2.372  1.00  0.00     0.274 HD
ENDBRANCH   7   8
ENDBRANCH   6   7
ENDBRANCH   5   6
ENDBRANCH   4   5
ENDBRANCH   1   4
BRANCH   1  12
HETATM   12  C5  UNL     1      -0.356  -0.846   0.622  1.00  0.00     0.238 C 
BRANCH  12  13
HETATM   13  C6  UNL     1      -1.800  -0.917   0.253  1.00  0.00     0.036 C 
HETATM   14  C7  UNL     1      -2.720  -0.385   1.322  1.00  0.00     0.084 C 
HETATM   15  C8  UNL     1      -3.988  -0.254   0.527  1.00  0.00     0.083 A 
HETATM   16  N3  UNL     1      -5.328  -0.239   0.616  1.00  0.00    -0.354 N 
HETATM   17  N4  UNL     1      -3.658  -0.086  -0.788  1.00  0.00    -0.345 N 
HETATM   18  C9  UNL     1      -5.880  -0.071  -0.583  1.00  0.00     0.106 A 
ATOM     19  H3  UNL     1      -5.852  -0.342   1.485  1.00  0.00     0.166 HD
HETATM   20  C10 UNL     1      -4.811   0.027  -1.476  1.00  0.00     0.109 A 
HETATM   21  C11 UNL     1      -2.201  -0.094  -0.932  1.00  0.00     0.136 C 
ENDBRANCH  12  13
ENDBRANCH   1  12
TORSDOF 7
