REMARK  7 active torsions:
REMARK  status: ('A' for Active; 'I' for Inactive)
REMARK    1  A    between atoms: N1_1  and  C1_5 
REMARK    2  A    between atoms: C1_5  and  C2_6 
REMARK    3  A    between atoms: C2_6  and  C3_7 
REMARK    4  A    between atoms: C3_7  and  C4_8 
REMARK    5  A    between atoms: C4_8  and  C5_9 
REMARK    6  A    between atoms: C5_9  and  C6_10 
REMARK    7  A    between atoms: C6_10  and  N2_11 
ROOT
HETATM    1  N2  UNL     1       2.655  -0.547  -0.615  1.00  0.00    -0.326 N 
HETATM    2  C7  UNL     1       3.374  -1.683  -0.570  1.00  0.00     0.186 A 
HETATM    3  N3  UNL     1       4.559  -1.442   0.050  1.00  0.00    -0.335 N 
ATOM      4  H3  UNL     1       5.292  -2.131   0.217  1.00  0.00     0.168 HD
HETATM    5  C8  UNL     1       4.608  -0.141   0.409  1.00  0.00     0.152 A 
HETATM    6  N4  UNL     1       5.297   0.864   0.993  1.00  0.00    -0.335 N 
ATOM      7  H4  UNL     1       6.225   0.771   1.406  1.00  0.00     0.168 HD
HETATM    8  C9  UNL     1       4.587   2.000   0.952  1.00  0.00     0.183 A 
HETATM    9  N5  UNL     1       3.438   1.708   0.336  1.00  0.00    -0.335 N 
ATOM     10  H5  UNL     1       2.687   2.375   0.155  1.00  0.00     0.168 HD
HETATM   11  C10 UNL     1       3.413   0.397  -0.014  1.00  0.00     0.154 A 
ENDROOT
BRANCH   1  12
HETATM   12  C6  UNL     1       1.325  -0.334  -1.186  1.00  0.00     0.131 C 
BRANCH  12  13
HETATM   13  C5  UNL     1       0.334  -0.597  -0.090  1.00  0.00     0.020 C 
BRANCH  13  14
HETATM   14  C4  UNL     1      -1.093  -0.418  -0.521  1.00  0.00     0.002 C 
BRANCH  14  15
HETATM   15  C3  UNL     1      -1.977  -0.706   0.650  1.00  0.00     0.002 C 
BRANCH  15  16
HETATM   16  C2  UNL     1      -3.443  -0.563   0.353  1.00  0.00     0.027 C 
BRANCH  16  17
HETATM   17  C1  UNL     1      -3.812   0.828  -0.096  1.00  0.00     0.229 C 
BRANCH  17  18
HETATM   18  N1  UNL     1      -5.239   0.853  -0.354  1.00  0.00    -0.079 N 
ATOM     19  H13 UNL     1      -5.533   0.134  -1.015  1.00  0.00     0.274 HD
ATOM     20  H12 UNL     1      -5.790   0.537   0.444  1.00  0.00     0.274 HD
ATOM     21  H11 UNL     1      -5.489   1.794  -0.658  1.00  0.00     0.274 HD
ENDBRANCH  17  18
ENDBRANCH  16  17
ENDBRANCH  15  16
ENDBRANCH  14  15
ENDBRANCH  13  14
ENDBRANCH  12  13
ENDBRANCH   1  12
TORSDOF 7
