REMARK  17 active torsions:
REMARK  status: ('A' for Active; 'I' for Inactive)
REMARK    1  A    between atoms: C2_2  and  C3_3 
REMARK    2  A    between atoms: C3_3  and  C4_4 
REMARK    3  A    between atoms: C4_4  and  C5_5 
REMARK    4  A    between atoms: C5_5  and  N1_6 
REMARK    5  A    between atoms: N1_6  and  C7_8 
REMARK    6  A    between atoms: C7_8  and  C8_9 
REMARK    7  A    between atoms: C7_8  and  C25_29 
REMARK    8  A    between atoms: C8_9  and  C9_10 
REMARK    9  A    between atoms: C9_10  and  C10_11 
REMARK   10  A    between atoms: C10_11  and  C12_13 
REMARK   11  A    between atoms: C13_14  and  C14_15 
REMARK   12  A    between atoms: C14_15  and  C16_17 
REMARK   13  A    between atoms: C16_17  and  C17_18 
REMARK   14  A    between atoms: C17_18  and  C18_19 
REMARK   15  A    between atoms: C21_22  and  C22_23 
REMARK   16  A    between atoms: C22_23  and  O1_24 
REMARK   17  A    between atoms: C25_29  and  O3_32 
ROOT
HETATM    1  C10 UNL     1      -0.662  -0.069  -0.065  1.00  0.00     0.007 C 
HETATM    2  C11 UNL     1      -0.262  -1.534  -0.020  1.00  0.00     0.014 C 
ENDROOT
BRANCH   1   3
HETATM    3  C9  UNL     1      -1.308   0.309   1.265  1.00  0.00     0.036 C 
BRANCH   3   4
HETATM    4  C8  UNL     1      -2.466  -0.443   1.694  1.00  0.00    -0.004 C 
BRANCH   4   5
HETATM    5  C7  UNL     1      -3.727  -0.559   0.992  1.00  0.00     0.017 C 
BRANCH   5   6
HETATM    6  N1  UNL     1      -4.565   0.548   0.704  1.00  0.00    -0.289 NA
HETATM    7  C6  UNL     1      -4.703   1.462   1.835  1.00  0.00     0.116 C 
BRANCH   6   8
HETATM    8  C5  UNL     1      -4.042   1.366  -0.362  1.00  0.00     0.095 C 
BRANCH   8   9
HETATM    9  C4  UNL     1      -4.963   2.412  -0.894  1.00  0.00     0.015 C 
BRANCH   9  10
HETATM   10  C3  UNL     1      -6.248   1.975  -1.502  1.00  0.00     0.001 C 
BRANCH  10  11
HETATM   11  C2  UNL     1      -7.199   1.233  -0.645  1.00  0.00    -0.005 C 
HETATM   12  C1  UNL     1      -8.508   0.880  -1.332  1.00  0.00     0.005 C 
ENDBRANCH  10  11
ENDBRANCH   9  10
ENDBRANCH   8   9
ENDBRANCH   6   8
ENDBRANCH   5   6
BRANCH   5  13
HETATM   13  C25 UNL     1      -4.465  -1.805   1.440  1.00  0.00     0.087 C 
HETATM   14  C26 UNL     1      -5.230  -1.653   2.702  1.00  0.00     0.051 C 
HETATM   15  C27 UNL     1      -5.301  -2.392   0.320  1.00  0.00     0.051 C 
BRANCH  13  16
HETATM   16  O3  UNL     1      -3.468  -2.802   1.671  1.00  0.00    -0.385 OA
ATOM     17  H3  UNL     1      -3.931  -3.583   1.952  1.00  0.00     0.211 HD
ENDBRANCH  13  16
ENDBRANCH   5  13
ENDBRANCH   4   5
ENDBRANCH   3   4
ENDBRANCH   1   3
BRANCH   1  18
HETATM   18  C12 UNL     1       0.632   0.709  -0.006  1.00  0.00    -0.026 C 
HETATM   19  C13 UNL     1       1.775   0.108   0.118  1.00  0.00    -0.025 C 
BRANCH  19  20
HETATM   20  C14 UNL     1       3.033   0.808   0.188  1.00  0.00     0.014 C 
HETATM   21  C15 UNL     1       3.007   2.269   0.246  1.00  0.00     0.015 C 
BRANCH  20  22
HETATM   22  C16 UNL     1       3.926   0.274  -0.977  1.00  0.00     0.088 C 
BRANCH  22  23
HETATM   23  C17 UNL     1       4.829  -0.531  -0.590  1.00  0.00    -0.177 C 
BRANCH  23  24
HETATM   24  C18 UNL     1       5.843  -1.435  -0.156  1.00  0.00     0.059 C 
HETATM   25  C19 UNL     1       6.816  -1.996  -1.129  1.00  0.00     0.017 C 
HETATM   26  C20 UNL     1       8.211  -1.425  -1.053  1.00  0.00     0.015 C 
HETATM   27  C21 UNL     1       8.183   0.066  -1.017  1.00  0.00     0.079 C 
HETATM   28  C23 UNL     1       7.293   0.465   0.130  1.00  0.00     0.134 C 
HETATM   29  O2  UNL     1       7.077   1.641   0.404  1.00  0.00    -0.297 OA
HETATM   30  C24 UNL     1       6.707  -0.662   0.896  1.00  0.00     0.095 C 
BRANCH  27  31
HETATM   31  C22 UNL     1       9.557   0.643  -0.782  1.00  0.00     0.176 C 
BRANCH  31  32
HETATM   32  O1  UNL     1      10.107   0.232   0.424  1.00  0.00    -0.400 OA
ATOM     33  H1  UNL     1      10.972   0.595   0.572  1.00  0.00     0.209 HD
ENDBRANCH  31  32
ENDBRANCH  27  31
ENDBRANCH  23  24
ENDBRANCH  22  23
ENDBRANCH  20  22
ENDBRANCH  19  20
ENDBRANCH   1  18
TORSDOF 17
