REMARK  15 active torsions:
REMARK  status: ('A' for Active; 'I' for Inactive)
REMARK    1  A    between atoms: C2_2  and  O1_3 
REMARK    2  A    between atoms: O1_3  and  C3_4 
REMARK       I    between atoms: C3_4  and  N1_6 
REMARK    3  A    between atoms: N1_6  and  C4_8 
REMARK    4  A    between atoms: C4_8  and  C5_9 
REMARK    5  A    between atoms: C5_9  and  C6_10 
REMARK    6  A    between atoms: C5_9  and  C14_19 
REMARK    7  A    between atoms: C6_10  and  C7_11 
REMARK    8  A    between atoms: C7_11  and  C8_12 
REMARK    9  A    between atoms: C8_12  and  C9_13 
REMARK   10  A    between atoms: C9_13  and  N2_14 
REMARK   11  A    between atoms: C14_19  and  C15_20 
REMARK       I    between atoms: C15_20  and  N3_22 
REMARK   12  A    between atoms: N3_22  and  C16_24 
REMARK   13  A    between atoms: C16_24  and  C18_26 
REMARK   14  A    between atoms: C18_26  and  C19_27 
REMARK   15  A    between atoms: C19_27  and  C20_28 
ROOT
HETATM    1  C5  UNL     1      -1.141   1.090  -0.958  1.00  0.00     0.012 C 
ENDROOT
BRANCH   1   2
HETATM    2  C4  UNL     1      -2.018   2.370  -0.983  1.00  0.00     0.130 C 
BRANCH   2   3
HETATM    3  N1  UNL     1      -3.173   2.123  -1.778  1.00  0.00    -0.337 N 
HETATM    4  C3  UNL     1      -4.173   3.154  -1.927  1.00  0.00     0.360 C 
HETATM    5  O2  UNL     1      -4.011   4.264  -1.352  1.00  0.00    -0.239 OA
ATOM      6  H1  UNL     1      -3.294   1.222  -2.240  1.00  0.00     0.164 HD
BRANCH   4   7
HETATM    7  O1  UNL     1      -5.320   2.976  -2.681  1.00  0.00    -0.304 OA
BRANCH   7   8
HETATM    8  C2  UNL     1      -6.256   4.046  -2.764  1.00  0.00     0.176 C 
HETATM    9  C1  UNL     1      -5.559   5.248  -3.357  1.00  0.00     0.034 C 
ENDBRANCH   7   8
ENDBRANCH   4   7
ENDBRANCH   2   3
ENDBRANCH   1   2
BRANCH   1  10
HETATM   10  C6  UNL     1      -1.996   0.009  -0.350  1.00  0.00     0.007 C 
BRANCH  10  11
HETATM   11  C7  UNL     1      -2.449   0.350   1.037  1.00  0.00     0.002 C 
BRANCH  11  12
HETATM   12  C8  UNL     1      -3.265  -0.789   1.612  1.00  0.00     0.030 C 
BRANCH  12  13
HETATM   13  C9  UNL     1      -4.463  -1.038   0.747  1.00  0.00     0.272 C 
BRANCH  13  14
HETATM   14  N2  UNL     1      -5.288  -2.120   1.302  1.00  0.00     0.088 N 
HETATM   15  C10 UNL     1      -6.401  -2.410   0.411  1.00  0.00     0.272 C 
HETATM   16  C11 UNL     1      -7.551  -2.770   1.329  1.00  0.00     0.032 C 
HETATM   17  C12 UNL     1      -7.304  -1.821   2.474  1.00  0.00     0.032 C 
HETATM   18  C13 UNL     1      -5.810  -1.728   2.562  1.00  0.00     0.272 C 
ENDBRANCH  13  14
ENDBRANCH  12  13
ENDBRANCH  11  12
ENDBRANCH  10  11
ENDBRANCH   1  10
BRANCH   1  19
HETATM   19  C14 UNL     1       0.097   1.344  -0.201  1.00  0.00     0.109 C 
BRANCH  19  20
HETATM   20  C15 UNL     1       1.023   0.200  -0.138  1.00  0.00     0.218 C 
HETATM   21  O3  UNL     1       0.765  -0.856  -0.746  1.00  0.00    -0.274 OA
HETATM   22  N3  UNL     1       2.198   0.345   0.631  1.00  0.00    -0.357 N 
ATOM     23  H3  UNL     1       2.357   1.248   1.078  1.00  0.00     0.162 HD
BRANCH  22  24
HETATM   24  C16 UNL     1       3.176  -0.665   0.832  1.00  0.00     0.080 C 
HETATM   25  C17 UNL     1       2.603  -2.055   0.611  1.00  0.00     0.032 C 
BRANCH  24  26
HETATM   26  C18 UNL     1       4.440  -0.446   0.079  1.00  0.00     0.025 C 
BRANCH  26  27
HETATM   27  C19 UNL     1       5.462  -1.531   0.321  1.00  0.00     0.006 C 
BRANCH  27  28
HETATM   28  C20 UNL     1       6.691  -1.234  -0.505  1.00  0.00    -0.014 C 
HETATM   29  C21 UNL     1       7.763  -2.271  -0.314  1.00  0.00     0.004 C 
HETATM   30  C22 UNL     1       8.975  -1.793   0.428  1.00  0.00     0.000 C 
HETATM   31  C23 UNL     1       9.600  -0.574  -0.215  1.00  0.00     0.000 C 
HETATM   32  C24 UNL     1       8.547   0.314  -0.843  1.00  0.00     0.000 C 
HETATM   33  C25 UNL     1       7.203   0.132  -0.160  1.00  0.00     0.004 C 
ENDBRANCH  27  28
ENDBRANCH  26  27
ENDBRANCH  24  26
ENDBRANCH  22  24
ENDBRANCH  19  20
ENDBRANCH   1  19
TORSDOF 15
