REMARK  16 active torsions:
REMARK  status: ('A' for Active; 'I' for Inactive)
REMARK    1  A    between atoms: C2_2  and  C3_3 
REMARK    2  A    between atoms: C3_3  and  C4_4 
REMARK    3  A    between atoms: C4_4  and  C5_5 
REMARK    4  A    between atoms: C5_5  and  C6_6 
REMARK    5  A    between atoms: C11_13  and  C12_14 
REMARK    6  A    between atoms: C12_14  and  C13_15 
REMARK    7  A    between atoms: C14_16  and  C15_17 
REMARK    8  A    between atoms: C15_17  and  C17_19 
REMARK    9  A    between atoms: C19_21  and  C20_22 
REMARK   10  A    between atoms: C20_22  and  C21_23 
REMARK   11  A    between atoms: C21_23  and  O2_24 
REMARK   12  A    between atoms: C21_23  and  C22_26 
REMARK   13  A    between atoms: C22_26  and  C26_31 
REMARK   14  A    between atoms: C23_27  and  C24_28 
REMARK   15  A    between atoms: C24_28  and  O3_29 
REMARK   16  A    between atoms: C26_31  and  O4_32 
ROOT
HETATM    1  C5  UNL     1      -0.545  -1.712   1.284  1.00  0.00    -0.020 C 
HETATM    2  C8  UNL     1       0.507  -2.654   0.783  1.00  0.00     0.135 C 
HETATM    3  N1  UNL     1       1.861  -2.260   1.177  1.00  0.00    -0.355 N 
HETATM    4  C9  UNL     1       2.963  -3.205   1.257  1.00  0.00     0.152 C 
HETATM    5  C10 UNL     1       1.983  -0.893   1.490  1.00  0.00     0.224 C 
HETATM    6  O1  UNL     1       2.819  -0.542   2.397  1.00  0.00    -0.273 OA
HETATM    7  C11 UNL     1       1.125   0.072   0.750  1.00  0.00     0.086 C 
HETATM    8  C19 UNL     1      -0.338  -0.254   0.867  1.00  0.00     0.012 C 
ENDROOT
BRANCH   8   9
HETATM    9  C20 UNL     1      -1.074  -0.017  -0.429  1.00  0.00     0.042 C 
BRANCH   9  10
HETATM   10  C21 UNL     1      -1.046   1.366  -1.006  1.00  0.00     0.149 C 
BRANCH  10  11
HETATM   11  O2  UNL     1      -1.590   2.329  -0.238  1.00  0.00    -0.391 OA
ATOM     12  H2  UNL     1      -1.572   3.206  -0.604  1.00  0.00     0.210 HD
ENDBRANCH  10  11
BRANCH  10  13
HETATM   13  C22 UNL     1      -1.688   1.322  -2.354  1.00  0.00    -0.030 C 
HETATM   14  C23 UNL     1      -2.783   1.922  -2.703  1.00  0.00     0.006 C 
BRANCH  14  15
HETATM   15  C24 UNL     1      -3.730   2.785  -2.005  1.00  0.00     0.194 C 
BRANCH  15  16
HETATM   16  O3  UNL     1      -5.009   2.184  -2.011  1.00  0.00    -0.392 OA
HETATM   17  C25 UNL     1      -5.907   3.023  -1.341  1.00  0.00     0.201 C 
ENDBRANCH  15  16
ENDBRANCH  14  15
BRANCH  13  18
HETATM   18  C26 UNL     1      -1.014   0.473  -3.423  1.00  0.00     0.200 C 
BRANCH  18  19
HETATM   19  O4  UNL     1       0.250   1.014  -3.607  1.00  0.00    -0.397 OA
ATOM     20  H4  UNL     1       0.671   0.484  -4.274  1.00  0.00     0.209 HD
ENDBRANCH  18  19
ENDBRANCH  13  18
ENDBRANCH  10  13
ENDBRANCH   9  10
ENDBRANCH   8   9
BRANCH   1  21
HETATM   21  C4  UNL     1      -1.832  -2.239   0.598  1.00  0.00     0.011 C 
BRANCH  21  22
HETATM   22  C3  UNL     1      -2.068  -3.683   0.936  1.00  0.00     0.000 C 
BRANCH  22  23
HETATM   23  C2  UNL     1      -3.358  -4.109   0.238  1.00  0.00    -0.005 C 
HETATM   24  C1  UNL     1      -4.530  -3.292   0.688  1.00  0.00     0.005 C 
ENDBRANCH  22  23
ENDBRANCH  21  22
ENDBRANCH   1  21
BRANCH   1  25
HETATM   25  C6  UNL     1      -0.661  -1.837   2.760  1.00  0.00     0.007 C 
HETATM   26  C7  UNL     1      -1.811  -1.073   3.374  1.00  0.00     0.006 C 
ENDBRANCH   1  25
BRANCH   7  27
HETATM   27  C12 UNL     1       1.545   1.427   1.193  1.00  0.00     0.041 C 
BRANCH  27  28
HETATM   28  C13 UNL     1       2.946   1.777   0.816  1.00  0.00    -0.029 C 
HETATM   29  C14 UNL     1       3.790   1.075   0.114  1.00  0.00    -0.026 C 
BRANCH  29  30
HETATM   30  C15 UNL     1       5.162   1.469  -0.230  1.00  0.00     0.003 C 
HETATM   31  C16 UNL     1       5.414   1.297  -1.722  1.00  0.00     0.014 C 
BRANCH  30  32
HETATM   32  C17 UNL     1       5.591   2.819   0.204  1.00  0.00     0.003 C 
HETATM   33  C18 UNL     1       4.833   3.972  -0.367  1.00  0.00     0.006 C 
ENDBRANCH  30  32
ENDBRANCH  29  30
ENDBRANCH  27  28
ENDBRANCH   7  27
TORSDOF 16
