REMARK  16 active torsions:
REMARK  status: ('A' for Active; 'I' for Inactive)
REMARK    1  A    between atoms: C2_2  and  C3_3 
REMARK    2  A    between atoms: C3_3  and  C4_4 
REMARK    3  A    between atoms: C4_4  and  C5_5 
REMARK    4  A    between atoms: C5_5  and  C6_6 
REMARK    5  A    between atoms: C6_6  and  O1_7 
REMARK    6  A    between atoms: C6_6  and  C8_11 
REMARK    7  A    between atoms: O1_7  and  C7_8 
REMARK    8  A    between atoms: C11_14  and  C12_15 
REMARK    9  A    between atoms: C12_15  and  C13_16 
REMARK   10  A    between atoms: C13_16  and  C14_17 
REMARK   11  A    between atoms: C14_17  and  C15_18 
REMARK   12  A    between atoms: C16_19  and  C17_20 
REMARK   13  A    between atoms: C17_20  and  C18_21 
REMARK   14  A    between atoms: C18_21  and  C19_22 
REMARK   15  A    between atoms: C19_22  and  C20_23 
REMARK       I    between atoms: C20_23  and  N2_25 
REMARK   16  A    between atoms: C25_30  and  O4_31 
ROOT
HETATM    1  C8  UNL     1      -3.931   0.416  -0.104  1.00  0.00     0.044 C 
HETATM    2  C9  UNL     1      -3.973  -0.422  -1.340  1.00  0.00     0.010 C 
HETATM    3  C10 UNL     1      -2.526  -0.548  -1.841  1.00  0.00     0.007 C 
HETATM    4  C11 UNL     1      -1.886   0.660  -1.181  1.00  0.00     0.015 C 
HETATM    5  C25 UNL     1      -2.453   0.487   0.241  1.00  0.00     0.128 C 
ENDROOT
BRANCH   4   6
HETATM    6  C12 UNL     1      -0.394   0.591  -1.187  1.00  0.00     0.007 C 
BRANCH   6   7
HETATM    7  C13 UNL     1       0.078   0.524  -2.608  1.00  0.00     0.004 C 
BRANCH   7   8
HETATM    8  C14 UNL     1       1.602   0.450  -2.692  1.00  0.00     0.027 C 
BRANCH   8   9
HETATM    9  C15 UNL     1       2.009  -0.786  -1.963  1.00  0.00    -0.031 C 
HETATM   10  C16 UNL     1       2.809  -0.754  -0.907  1.00  0.00    -0.031 C 
BRANCH  10  11
HETATM   11  C17 UNL     1       3.168  -2.026  -0.237  1.00  0.00     0.027 C 
BRANCH  11  12
HETATM   12  C18 UNL     1       4.659  -2.206  -0.291  1.00  0.00     0.013 C 
BRANCH  12  13
HETATM   13  C19 UNL     1       5.367  -1.094   0.405  1.00  0.00     0.103 C 
BRANCH  13  14
HETATM   14  C20 UNL     1       6.832  -1.326   0.330  1.00  0.00     0.219 C 
HETATM   15  O3  UNL     1       7.258  -2.346  -0.259  1.00  0.00    -0.273 OA
HETATM   16  N2  UNL     1       7.725  -0.400   0.919  1.00  0.00    -0.352 N 
HETATM   17  C21 UNL     1       7.358   0.810   1.624  1.00  0.00     0.126 C 
HETATM   18  C24 UNL     1       9.187  -0.517   0.909  1.00  0.00     0.126 C 
HETATM   19  C22 UNL     1       8.541   1.747   1.408  1.00  0.00     0.021 C 
HETATM   20  C23 UNL     1       9.710   0.809   1.354  1.00  0.00     0.021 C 
ENDBRANCH  13  14
ENDBRANCH  12  13
ENDBRANCH  11  12
ENDBRANCH  10  11
ENDBRANCH   8   9
ENDBRANCH   7   8
ENDBRANCH   6   7
ENDBRANCH   4   6
BRANCH   5  21
HETATM   21  O4  UNL     1      -1.933  -0.700   0.710  1.00  0.00    -0.395 OA
ATOM     22  H4  UNL     1      -1.009  -0.656   0.926  1.00  0.00     0.210 HD
ENDBRANCH   5  21
BRANCH   1  23
HETATM   23  C6  UNL     1      -4.780  -0.047   1.028  1.00  0.00     0.140 C 
BRANCH  23  24
HETATM   24  C5  UNL     1      -6.230  -0.107   0.676  1.00  0.00     0.033 C 
BRANCH  24  25
HETATM   25  C4  UNL     1      -6.636   1.195   0.030  1.00  0.00     0.006 C 
BRANCH  25  26
HETATM   26  C3  UNL     1      -8.121   1.124  -0.313  1.00  0.00     0.026 C 
BRANCH  26  27
HETATM   27  C2  UNL     1      -8.558   2.391  -0.952  1.00  0.00    -0.037 C 
HETATM   28  C1  UNL     1      -9.070   2.455  -2.172  1.00  0.00     0.007 C 
ENDBRANCH  26  27
ENDBRANCH  25  26
ENDBRANCH  24  25
ENDBRANCH  23  24
BRANCH  23  29
HETATM   29  O1  UNL     1      -4.314  -1.230   1.650  1.00  0.00    -0.300 OA
BRANCH  29  30
HETATM   30  C7  UNL     1      -3.908  -1.297   2.979  1.00  0.00     0.373 C 
HETATM   31  N1  UNL     1      -3.442  -2.496   3.585  1.00  0.00    -0.032 NA
HETATM   32  O2  UNL     1      -3.980  -0.219   3.615  1.00  0.00    -0.242 OA
ENDBRANCH  29  30
ENDBRANCH  23  29
ENDBRANCH   1  23
TORSDOF 16
