REMARK  9 active torsions:
REMARK  status: ('A' for Active; 'I' for Inactive)
REMARK    1  A    between atoms: C2_2  and  C3_3 
REMARK    2  A    between atoms: C3_3  and  N1_4 
REMARK    3  A    between atoms: N1_4  and  C4_6 
REMARK    4  A    between atoms: C4_6  and  C5_7 
REMARK    5  A    between atoms: C5_7  and  C6_8 
REMARK    6  A    between atoms: C5_7  and  C13_15 
REMARK    7  A    between atoms: C6_8  and  C7_9 
REMARK       I    between atoms: C13_15  and  N2_17 
REMARK    8  A    between atoms: N2_17  and  C14_19 
REMARK    9  A    between atoms: C14_19  and  C15_20 
ROOT
HETATM    1  C5  UNL     1      -1.024   0.514   0.333  1.00  0.00     0.048 C 
ENDROOT
BRANCH   1   2
HETATM    2  C4  UNL     1      -1.890   1.373  -0.497  1.00  0.00     0.104 C 
BRANCH   2   3
HETATM    3  N1  UNL     1      -2.926   2.098   0.053  1.00  0.00    -0.374 N 
ATOM      4  H1  UNL     1      -2.800   3.110   0.049  1.00  0.00     0.164 HD
BRANCH   3   5
HETATM    5  C3  UNL     1      -4.106   1.653   0.607  1.00  0.00     0.087 C 
BRANCH   5   6
HETATM    6  C2  UNL     1      -4.954   2.841   1.004  1.00  0.00     0.007 C 
HETATM    7  C1  UNL     1      -6.137   2.969   0.456  1.00  0.00     0.012 C 
ENDBRANCH   5   6
ENDBRANCH   3   5
ENDBRANCH   2   3
ENDBRANCH   1   2
BRANCH   1   8
HETATM    8  C6  UNL     1      -1.485  -0.678   1.026  1.00  0.00     0.029 C 
BRANCH   8   9
HETATM    9  C7  UNL     1      -1.978  -1.839   0.319  1.00  0.00    -0.035 A 
HETATM   10  C8  UNL     1      -1.111  -2.920   0.103  1.00  0.00     0.011 A 
HETATM   11  C9  UNL     1      -1.495  -4.063  -0.570  1.00  0.00     0.001 A 
HETATM   12  C10 UNL     1      -2.785  -4.164  -1.058  1.00  0.00     0.000 A 
HETATM   13  C11 UNL     1      -3.662  -3.123  -0.862  1.00  0.00     0.001 A 
HETATM   14  C12 UNL     1      -3.230  -1.985  -0.176  1.00  0.00     0.011 A 
ENDBRANCH   8   9
ENDBRANCH   1   8
BRANCH   1  15
HETATM   15  C13 UNL     1       0.363   0.412  -0.302  1.00  0.00     0.256 C 
HETATM   16  O1  UNL     1       0.591  -0.628  -0.916  1.00  0.00    -0.267 OA
HETATM   17  N2  UNL     1       1.279   1.446  -0.179  1.00  0.00    -0.334 N 
ATOM     18  H2  UNL     1       0.951   2.257   0.346  1.00  0.00     0.168 HD
BRANCH  17  19
HETATM   19  C14 UNL     1       2.578   1.541  -0.665  1.00  0.00     0.098 C 
BRANCH  19  20
HETATM   20  C15 UNL     1       3.681   0.689  -0.202  1.00  0.00     0.241 C 
HETATM   21  C16 UNL     1       3.621  -0.768  -0.369  1.00  0.00     0.152 C 
HETATM   22  N3  UNL     1       4.885  -1.426  -0.087  1.00  0.00    -0.417 N 
HETATM   23  C17 UNL     1       5.841  -0.649   0.629  1.00  0.00     0.141 C 
ATOM     24  H3  UNL     1       5.076  -2.383  -0.383  1.00  0.00     0.153 HD
HETATM   25  C18 UNL     1       5.981   0.763   0.152  1.00  0.00     0.252 C 
HETATM   26  N4  UNL     1       4.968   1.124  -0.814  1.00  0.00    -0.063 N 
ATOM     27  H42 UNL     1       5.132   0.744  -1.746  1.00  0.00     0.278 HD
ATOM     28  H41 UNL     1       4.986   2.107  -1.084  1.00  0.00     0.278 HD
ENDBRANCH  19  20
ENDBRANCH  17  19
ENDBRANCH   1  15
TORSDOF 9
