REMARK  9 active torsions:
REMARK  status: ('A' for Active; 'I' for Inactive)
REMARK    1  A    between atoms: N1_2  and  C2_4 
REMARK    2  A    between atoms: C2_4  and  C3_5 
REMARK    3  A    between atoms: C2_4  and  C4_10 
REMARK       I    between atoms: C4_10  and  N4_12 
REMARK    4  A    between atoms: N4_12  and  C5_14 
REMARK    5  A    between atoms: C5_14  and  C6_15 
REMARK    6  A    between atoms: C5_14  and  C14_23 
REMARK    7  A    between atoms: C6_15  and  C7_16 
REMARK    8  A    between atoms: C7_16  and  C8_17 
REMARK    9  A    between atoms: C14_23  and  C15_24 
ROOT
HETATM    1  C5  UNL     1       0.593   0.359  -0.124  1.00  0.00    -0.005 C 
ENDROOT
BRANCH   1   2
HETATM    2  N4  UNL     1      -0.769  -0.070  -0.300  1.00  0.00    -0.332 N 
HETATM    3  C4  UNL     1      -1.915   0.188   0.426  1.00  0.00     0.251 C 
HETATM    4  O1  UNL     1      -1.961   0.873   1.453  1.00  0.00    -0.270 OA
ATOM      5  H4  UNL     1      -0.915  -0.675  -1.108  1.00  0.00     0.168 HD
BRANCH   3   6
HETATM    6  C2  UNL     1      -3.237  -0.385  -0.021  1.00  0.00     0.234 C 
BRANCH   6   7
HETATM    7  N1  UNL     1      -4.255  -0.092   0.940  1.00  0.00    -0.408 N 
HETATM    8  C1  UNL     1      -5.516  -0.634   0.733  1.00  0.00     0.141 C 
ATOM      9  H1  UNL     1      -4.061   0.496   1.751  1.00  0.00     0.153 HD
ENDBRANCH   6   7
BRANCH   6  10
HETATM   10  C3  UNL     1      -3.678   0.197  -1.302  1.00  0.00     0.118 C 
HETATM   11  N2  UNL     1      -4.741   0.911  -1.342  1.00  0.00    -0.389 N 
ATOM     12  H22 UNL     1      -5.274   1.067  -0.487  1.00  0.00     0.157 HD
ATOM     13  H21 UNL     1      -5.046   1.314  -2.228  1.00  0.00     0.157 HD
HETATM   14  N3  UNL     1      -2.942  -0.018  -2.482  1.00  0.00    -0.085 NA
ENDBRANCH   6  10
ENDBRANCH   3   6
ENDBRANCH   1   2
BRANCH   1  15
HETATM   15  C6  UNL     1       1.539  -0.763  -0.023  1.00  0.00     0.057 C 
BRANCH  15  16
HETATM   16  C7  UNL     1       2.974  -0.423   0.160  1.00  0.00     0.044 C 
BRANCH  16  17
HETATM   17  C8  UNL     1       3.791  -1.682   0.239  1.00  0.00    -0.058 A 
HETATM   18  C9  UNL     1       4.331  -2.275  -0.897  1.00  0.00     0.007 A 
HETATM   19  C10 UNL     1       5.079  -3.430  -0.821  1.00  0.00     0.001 A 
HETATM   20  C11 UNL     1       5.323  -4.047   0.385  1.00  0.00     0.000 A 
HETATM   21  C12 UNL     1       4.786  -3.460   1.518  1.00  0.00     0.001 A 
HETATM   22  C13 UNL     1       4.040  -2.307   1.442  1.00  0.00     0.007 A 
ENDBRANCH  16  17
ENDBRANCH  15  16
ENDBRANCH   1  15
BRANCH   1  23
HETATM   23  C14 UNL     1       0.757   1.489   0.834  1.00  0.00     0.111 C 
BRANCH  23  24
HETATM   24  C15 UNL     1       0.084   2.728   0.366  1.00  0.00     0.030 A 
HETATM   25  C16 UNL     1      -0.009   3.915   1.076  1.00  0.00     0.114 A 
HETATM   26  N5  UNL     1      -0.655   4.834   0.335  1.00  0.00    -0.360 N 
HETATM   27  C17 UNL     1      -0.974   4.258  -0.829  1.00  0.00     0.180 A 
ATOM     28  H5  UNL     1      -0.863   5.794   0.611  1.00  0.00     0.166 HD
HETATM   29  N6  UNL     1      -0.529   2.989  -0.810  1.00  0.00    -0.354 N 
ATOM     30  H6  UNL     1      -0.638   2.320  -1.573  1.00  0.00     0.166 HD
ENDBRANCH  23  24
ENDBRANCH   1  23
TORSDOF 9
