REMARK  9 active torsions:
REMARK  status: ('A' for Active; 'I' for Inactive)
REMARK    1  A    between atoms: C3_3  and  O1_4 
REMARK    2  A    between atoms: O1_4  and  C4_5 
REMARK    3  A    between atoms: C6_7  and  C7_8 
REMARK    4  A    between atoms: C8_9  and  C9_10 
REMARK    5  A    between atoms: C9_10  and  C10_11 
REMARK    6  A    between atoms: C10_11  and  O2_12 
REMARK    7  A    between atoms: C10_11  and  C11_14 
REMARK    8  A    between atoms: C22_27  and  O5_28 
REMARK    9  A    between atoms: C24_30  and  O6_31 
ROOT
HETATM    1  C1  UNL     1      -3.055   0.963   3.880  1.00  0.00     0.099 C 
HETATM    2  C2  UNL     1      -3.161   1.801   2.999  1.00  0.00    -0.161 C 
HETATM    3  C3  UNL     1      -3.306   2.811   1.961  1.00  0.00     0.255 C 
ENDROOT
BRANCH   3   4
HETATM    4  O1  UNL     1      -3.648   2.198   0.773  1.00  0.00    -0.337 OA
BRANCH   4   5
HETATM    5  C4  UNL     1      -2.958   1.258   0.045  1.00  0.00     0.106 A 
HETATM    6  C5  UNL     1      -1.727   0.753   0.416  1.00  0.00     0.052 A 
HETATM    7  C6  UNL     1      -1.052  -0.185  -0.323  1.00  0.00    -0.023 A 
HETATM    8  C21 UNL     1      -1.648  -0.631  -1.484  1.00  0.00     0.051 A 
HETATM    9  C22 UNL     1      -2.867  -0.155  -1.884  1.00  0.00     0.105 A 
HETATM   10  C24 UNL     1      -3.543   0.804  -1.118  1.00  0.00     0.135 A 
BRANCH   7  11
HETATM   11  C7  UNL     1       0.246  -0.759   0.012  1.00  0.00    -0.033 A 
HETATM   12  C8  UNL     1       1.435  -0.294   0.188  1.00  0.00    -0.019 A 
HETATM   13  C13 UNL     1       2.336  -1.447   0.529  1.00  0.00    -0.016 A 
HETATM   14  C14 UNL     1       3.707  -1.475   0.812  1.00  0.00     0.052 A 
HETATM   15  C18 UNL     1       1.597  -2.583   0.537  1.00  0.00    -0.040 A 
HETATM   16  C15 UNL     1       4.358  -2.668   1.111  1.00  0.00     0.105 A 
HETATM   17  C16 UNL     1       3.613  -3.829   1.121  1.00  0.00     0.105 A 
HETATM   18  O4  UNL     1       5.667  -3.014   1.425  1.00  0.00    -0.323 OA
HETATM   19  C17 UNL     1       2.268  -3.781   0.840  1.00  0.00     0.048 A 
HETATM   20  O3  UNL     1       4.502  -4.862   1.445  1.00  0.00    -0.323 OA
HETATM   21  C20 UNL     1       5.830  -4.427   1.223  1.00  0.00     0.352 C 
HETATM   22  C19 UNL     1       0.225  -2.279   0.212  1.00  0.00     0.080 A 
BRANCH  12  23
HETATM   23  C9  UNL     1       2.011   1.037   0.118  1.00  0.00     0.017 C 
BRANCH  23  24
HETATM   24  C10 UNL     1       1.250   2.192  -0.375  1.00  0.00     0.141 C 
BRANCH  24  25
HETATM   25  O2  UNL     1       0.787   2.050  -1.704  1.00  0.00    -0.392 OA
ATOM     26  H2  UNL     1       0.295   2.797  -2.023  1.00  0.00     0.210 HD
ENDBRANCH  24  25
BRANCH  24  27
HETATM   27  C11 UNL     1       2.264   3.395  -0.568  1.00  0.00     0.031 C 
HETATM   28  C12 UNL     1       2.911   3.728   0.731  1.00  0.00     0.008 C 
ENDBRANCH  24  27
ENDBRANCH  23  24
ENDBRANCH  12  23
ENDBRANCH   7  11
BRANCH   9  29
HETATM   29  O5  UNL     1      -3.472  -0.602  -3.056  1.00  0.00    -0.353 OA
HETATM   30  C23 UNL     1      -2.806  -1.562  -3.833  1.00  0.00     0.210 C 
ENDBRANCH   9  29
BRANCH  10  31
HETATM   31  O6  UNL     1      -4.778   1.265  -1.556  1.00  0.00    -0.351 OA
HETATM   32  C25 UNL     1      -5.999   0.643  -1.181  1.00  0.00     0.210 C 
ENDBRANCH  10  31
ENDBRANCH   4   5
ENDBRANCH   3   4
TORSDOF 9
