REMARK  9 active torsions:
REMARK  status: ('A' for Active; 'I' for Inactive)
REMARK    1  A    between atoms: C2_2  and  C3_3 
REMARK    2  A    between atoms: C3_3  and  O1_4 
REMARK    3  A    between atoms: O1_4  and  C4_5 
REMARK    4  A    between atoms: C4_5  and  C5_6 
REMARK    5  A    between atoms: C5_6  and  N1_7 
REMARK    6  A    between atoms: C5_6  and  C7_10 
REMARK    7  A    between atoms: N1_7  and  O2_8 
REMARK    8  A    between atoms: C7_10  and  O4_12 
REMARK    9  A    between atoms: O4_12  and  C8_13 
ROOT
HETATM    1  C8  UNL     1       0.017   0.257  -0.033  1.00  0.00     0.141 C 
HETATM    2  C9  UNL     1      -0.875  -0.908  -0.606  1.00  0.00     0.043 C 
HETATM    3  C10 UNL     1      -2.306  -0.493  -0.273  1.00  0.00    -0.034 C 
HETATM    4  C11 UNL     1      -3.009  -1.848   0.020  1.00  0.00     0.016 C 
HETATM    5  C12 UNL     1      -2.976  -0.030  -1.502  1.00  0.00    -0.010 C 
HETATM    6  C13 UNL     1      -2.491   1.186  -2.189  1.00  0.00     0.011 C 
HETATM    7  C14 UNL     1      -4.500  -0.046  -1.418  1.00  0.00     0.008 C 
HETATM    8  C15 UNL     1      -5.138   1.141  -0.814  1.00  0.00     0.041 C 
HETATM    9  C16 UNL     1      -5.509   0.856   0.599  1.00  0.00     0.082 A 
HETATM   10  C17 UNL     1      -4.478   1.131   1.627  1.00  0.00     0.041 C 
HETATM   11  C18 UNL     1      -3.123   1.503   1.119  1.00  0.00     0.009 C 
HETATM   12  C19 UNL     1      -2.222   0.322   0.909  1.00  0.00     0.004 C 
HETATM   13  C20 UNL     1      -0.752   0.630   1.158  1.00  0.00    -0.017 C 
HETATM   14  C21 UNL     1      -0.233  -0.293   2.283  1.00  0.00     0.018 C 
HETATM   15  C22 UNL     1      -0.461   2.012   1.586  1.00  0.00     0.018 C 
HETATM   16  C23 UNL     1      -6.928   0.967   1.078  1.00  0.00     0.207 A 
HETATM   17  O5  UNL     1      -6.319  -0.249   0.775  1.00  0.00    -0.375 OA
ENDROOT
BRANCH   1  18
HETATM   18  O4  UNL     1       1.268  -0.257   0.321  1.00  0.00    -0.314 OA
BRANCH  18  19
HETATM   19  C7  UNL     1       2.412  -0.423  -0.304  1.00  0.00     0.283 C 
HETATM   20  O3  UNL     1       2.481  -0.128  -1.547  1.00  0.00    -0.263 OA
BRANCH  19  21
HETATM   21  C5  UNL     1       3.708  -0.970   0.309  1.00  0.00     0.229 C 
BRANCH  21  22
HETATM   22  C4  UNL     1       4.669  -1.172  -0.807  1.00  0.00     0.201 C 
BRANCH  22  23
HETATM   23  O1  UNL     1       5.286  -0.220  -1.456  1.00  0.00    -0.389 OA
BRANCH  23  24
HETATM   24  C3  UNL     1       6.307   0.506  -1.061  1.00  0.00     0.167 C 
BRANCH  24  25
HETATM   25  C2  UNL     1       6.130   1.394   0.116  1.00  0.00     0.022 C 
HETATM   26  C1  UNL     1       7.481   2.108   0.385  1.00  0.00     0.007 C 
ENDBRANCH  24  25
ENDBRANCH  23  24
ENDBRANCH  22  23
ENDBRANCH  21  22
BRANCH  21  27
HETATM   27  N1  UNL     1       3.348  -2.335   0.800  1.00  0.00    -0.084 NA
BRANCH  27  28
HETATM   28  O2  UNL     1       2.818  -3.109  -0.123  1.00  0.00    -0.291 OA
HETATM   29  C6  UNL     1       3.615  -4.284  -0.171  1.00  0.00     0.231 C 
ENDBRANCH  27  28
ENDBRANCH  21  27
ENDBRANCH  19  21
ENDBRANCH  18  19
ENDBRANCH   1  18
TORSDOF 9
