REMARK  8 active torsions:
REMARK  status: ('A' for Active; 'I' for Inactive)
REMARK    1  A    between atoms: C2_2  and  C3_3 
REMARK    2  A    between atoms: C3_3  and  N1_4 
REMARK       I    between atoms: N1_4  and  C4_6 
REMARK    3  A    between atoms: C4_6  and  C5_8 
REMARK    4  A    between atoms: C5_8  and  C6_9 
REMARK    5  A    between atoms: C6_9  and  C7_10 
REMARK    6  A    between atoms: N2_14  and  C11_15 
REMARK    7  A    between atoms: C19_26  and  C20_27 
REMARK    8  A    between atoms: C20_27  and  C21_28 
ROOT
HETATM    1  C7  UNL     1       0.075  -0.346  -0.466  1.00  0.00    -0.030 A 
HETATM    2  C8  UNL     1      -0.321   0.730   0.363  1.00  0.00     0.024 A 
HETATM    3  C9  UNL     1       0.363   1.786   0.933  1.00  0.00     0.046 A 
HETATM    4  C10 UNL     1       1.756   2.166   0.863  1.00  0.00     0.071 C 
HETATM    5  N2  UNL     1      -0.627   2.483   1.597  1.00  0.00    -0.237 N 
HETATM    6  N3  UNL     1      -1.787   1.906   1.439  1.00  0.00    -0.291 N 
ATOM      7  H3  UNL     1      -2.666   2.238   1.836  1.00  0.00     0.187 HD
HETATM    8  C15 UNL     1      -1.649   0.809   0.675  1.00  0.00     0.068 A 
HETATM    9  C16 UNL     1      -2.641  -0.057   0.257  1.00  0.00    -0.020 A 
HETATM   10  C17 UNL     1      -4.005   0.031   0.740  1.00  0.00     0.052 C 
HETATM   11  C18 UNL     1      -2.280  -1.090  -0.552  1.00  0.00     0.009 A 
HETATM   12  C19 UNL     1      -3.232  -1.957  -0.991  1.00  0.00     0.037 A 
HETATM   13  N4  UNL     1      -2.746  -2.973  -1.799  1.00  0.00    -0.304 N 
ATOM     14  H4  UNL     1      -3.411  -3.660  -2.155  1.00  0.00     0.186 HD
HETATM   15  N5  UNL     1      -1.516  -3.104  -2.127  1.00  0.00    -0.304 N 
ATOM     16  H5  UNL     1      -1.268  -3.890  -2.728  1.00  0.00     0.186 HD
HETATM   17  C23 UNL     1      -0.506  -2.265  -1.729  1.00  0.00     0.033 A 
HETATM   18  C24 UNL     1       0.827  -2.421  -2.232  1.00  0.00     0.070 C 
HETATM   19  C25 UNL     1      -0.883  -1.232  -0.918  1.00  0.00     0.008 A 
ENDROOT
BRANCH   1  20
HETATM   20  C6  UNL     1       1.482  -0.573  -0.667  1.00  0.00     0.049 C 
BRANCH  20  21
HETATM   21  C5  UNL     1       2.234  -1.248   0.462  1.00  0.00     0.107 C 
BRANCH  21  22
HETATM   22  C4  UNL     1       3.664  -1.347   0.059  1.00  0.00     0.218 C 
HETATM   23  N1  UNL     1       4.648  -1.921   0.894  1.00  0.00    -0.358 N 
ATOM     24  H1  UNL     1       4.390  -2.285   1.811  1.00  0.00     0.162 HD
HETATM   25  O1  UNL     1       4.036  -0.906  -1.072  1.00  0.00    -0.274 OA
BRANCH  23  26
HETATM   26  C3  UNL     1       6.014  -1.991   0.449  1.00  0.00     0.149 C 
BRANCH  26  27
HETATM   27  C2  UNL     1       6.613  -0.670   0.156  1.00  0.00    -0.018 C 
HETATM   28  C1  UNL     1       7.089  -0.305  -1.015  1.00  0.00     0.008 C 
ENDBRANCH  26  27
ENDBRANCH  23  26
ENDBRANCH  21  22
ENDBRANCH  20  21
ENDBRANCH   1  20
BRANCH   5  29
HETATM   29  C11 UNL     1      -0.411   3.662   2.345  1.00  0.00     0.168 A 
HETATM   30  C12 UNL     1       0.281   3.833   3.526  1.00  0.00     0.060 A 
HETATM   31  C13 UNL     1       0.208   5.158   3.855  1.00  0.00     0.029 A 
HETATM   32  C14 UNL     1      -0.521   5.766   2.876  1.00  0.00     0.144 A 
HETATM   33  O2  UNL     1      -0.867   4.871   2.014  1.00  0.00    -0.304 OA
ENDBRANCH   5  29
BRANCH  12  34
HETATM   34  C20 UNL     1      -4.677  -1.827  -0.849  1.00  0.00     0.059 C 
BRANCH  34  35
HETATM   35  C21 UNL     1      -5.377  -1.079  -1.959  1.00  0.00     0.002 C 
HETATM   36  C22 UNL     1      -6.867  -1.008  -1.731  1.00  0.00     0.005 C 
ENDBRANCH  34  35
ENDBRANCH  12  34
TORSDOF 8
