REMARK  11 active torsions:
REMARK  status: ('A' for Active; 'I' for Inactive)
REMARK    1  A    between atoms: C2_2  and  C3_3 
REMARK    2  A    between atoms: C3_3  and  C4_4 
REMARK    3  A    between atoms: C8_10  and  C9_11 
REMARK    4  A    between atoms: C13_16  and  O4_17 
REMARK    5  A    between atoms: O4_17  and  C14_18 
REMARK    6  A    between atoms: C14_18  and  C15_20 
REMARK    7  A    between atoms: C15_20  and  C16_21 
REMARK    8  A    between atoms: C16_21  and  C17_22 
REMARK    9  A    between atoms: C17_22  and  C18_23 
REMARK   10  A    between atoms: C19_24  and  C20_25 
REMARK   11  A    between atoms: C25_30  and  O6_31 
ROOT
HETATM    1  C4  UNL     1      -3.702   1.095  -0.485  1.00  0.00     0.120 A 
HETATM    2  O1  UNL     1      -3.437   0.386  -1.631  1.00  0.00    -0.361 OA
HETATM    3  C5  UNL     1      -4.649   0.097  -1.020  1.00  0.00     0.196 A 
HETATM    4  C6  UNL     1      -4.748  -1.033  -0.092  1.00  0.00     0.012 A 
HETATM    5  C7  UNL     1      -3.774  -1.825   0.485  1.00  0.00     0.066 A 
HETATM    6  O2  UNL     1      -4.358  -2.724   1.263  1.00  0.00    -0.311 OA
HETATM    7  C8  UNL     1      -5.656  -2.588   1.245  1.00  0.00     0.119 A 
HETATM    8  C10 UNL     1      -5.938  -1.521   0.392  1.00  0.00    -0.014 A 
HETATM    9  C11 UNL     1      -7.289  -1.013   0.074  1.00  0.00     0.052 C 
HETATM   10  C12 UNL     1      -2.319  -1.718   0.293  1.00  0.00     0.101 C 
HETATM   11  C13 UNL     1      -1.840  -0.308   0.414  1.00  0.00     0.169 C 
HETATM   12  C25 UNL     1      -2.965   0.623   0.751  1.00  0.00     0.185 C 
ENDROOT
BRANCH  11  13
HETATM   13  O4  UNL     1      -0.789  -0.234   1.387  1.00  0.00    -0.313 OA
BRANCH  13  14
HETATM   14  C14 UNL     1       0.484   0.179   1.035  1.00  0.00     0.259 C 
HETATM   15  O5  UNL     1       0.655   0.481  -0.166  1.00  0.00    -0.265 OA
BRANCH  14  16
HETATM   16  C15 UNL     1       1.598   0.271   1.996  1.00  0.00     0.111 C 
BRANCH  16  17
HETATM   17  C16 UNL     1       2.918   0.645   1.436  1.00  0.00     0.013 C 
BRANCH  17  18
HETATM   18  C17 UNL     1       3.479  -0.320   0.422  1.00  0.00     0.027 C 
BRANCH  18  19
HETATM   19  C18 UNL     1       4.824   0.158  -0.071  1.00  0.00    -0.030 C 
HETATM   20  C19 UNL     1       5.908  -0.592   0.093  1.00  0.00    -0.026 C 
BRANCH  20  21
HETATM   21  C20 UNL     1       7.220  -0.143  -0.380  1.00  0.00     0.013 C 
HETATM   22  C21 UNL     1       8.403  -0.737   0.425  1.00  0.00     0.014 C 
HETATM   23  C22 UNL     1       9.110  -0.318  -0.865  1.00  0.00    -0.009 A 
HETATM   24  C23 UNL     1       9.041  -0.932  -2.140  1.00  0.00     0.010 A 
HETATM   25  C24 UNL     1       7.834  -1.092  -1.415  1.00  0.00    -0.002 A 
ENDBRANCH  20  21
ENDBRANCH  18  19
ENDBRANCH  17  18
ENDBRANCH  16  17
ENDBRANCH  14  16
ENDBRANCH  13  14
ENDBRANCH  11  13
BRANCH  12  26
HETATM   26  O6  UNL     1      -2.404   1.762   1.348  1.00  0.00    -0.390 OA
ATOM     27  H6  UNL     1      -1.942   1.466   2.123  1.00  0.00     0.210 HD
ENDBRANCH  12  26
BRANCH   1  28
HETATM   28  C3  UNL     1      -4.120   2.528  -0.546  1.00  0.00     0.043 C 
BRANCH  28  29
HETATM   29  C2  UNL     1      -3.067   3.403  -1.214  1.00  0.00    -0.001 C 
HETATM   30  C1  UNL     1      -2.810   2.950  -2.627  1.00  0.00     0.005 C 
ENDBRANCH  28  29
ENDBRANCH   1  28
BRANCH   7  31
HETATM   31  C9  UNL     1      -6.629  -3.405   1.983  1.00  0.00     0.296 C 
HETATM   32  O3  UNL     1      -6.304  -4.340   2.724  1.00  0.00    -0.299 OA
ENDBRANCH   7  31
TORSDOF 11
