REMARK  13 active torsions:
REMARK  status: ('A' for Active; 'I' for Inactive)
REMARK    1  A    between atoms: C2_2  and  C4_4 
REMARK    2  A    between atoms: C4_4  and  O2_6 
REMARK    3  A    between atoms: O2_6  and  C5_7 
REMARK    4  A    between atoms: C7_9  and  C19_23 
REMARK    5  A    between atoms: C9_11  and  C10_12 
REMARK    6  A    between atoms: C10_12  and  O3_13 
REMARK    7  A    between atoms: C16_20  and  C17_21 
REMARK    8  A    between atoms: C21_25  and  C22_26 
REMARK    9  A    between atoms: C25_29  and  O4_30 
REMARK   10  A    between atoms: C26_32  and  O5_33 
REMARK   11  A    between atoms: C27_35  and  N1_36 
REMARK   12  A    between atoms: N1_36  and  C28_39 
REMARK   13  A    between atoms: C28_39  and  C29_40 
ROOT
HETATM    1  C5  UNL     1      -2.607  -0.800  -0.512  1.00  0.00     0.140 C 
HETATM    2  C6  UNL     1      -3.245   0.607  -0.627  1.00  0.00     0.043 C 
HETATM    3  C7  UNL     1      -1.900   0.998  -1.240  1.00  0.00    -0.025 C 
HETATM    4  C8  UNL     1      -1.952   0.681  -2.672  1.00  0.00     0.016 C 
HETATM    5  C9  UNL     1      -1.352  -0.009  -0.281  1.00  0.00     0.059 C 
ENDROOT
BRANCH   1   6
HETATM    6  O2  UNL     1      -3.119  -1.479   0.619  1.00  0.00    -0.312 OA
BRANCH   6   7
HETATM    7  C4  UNL     1      -3.640  -2.754   0.493  1.00  0.00     0.288 C 
HETATM    8  O1  UNL     1      -3.622  -3.250  -0.688  1.00  0.00    -0.260 OA
BRANCH   7   9
HETATM    9  C2  UNL     1      -4.180  -3.507   1.611  1.00  0.00     0.004 C 
HETATM   10  C1  UNL     1      -4.183  -2.969   2.805  1.00  0.00     0.024 C 
HETATM   11  C3  UNL     1      -4.716  -4.857   1.397  1.00  0.00     0.054 C 
ENDBRANCH   7   9
ENDBRANCH   6   7
ENDBRANCH   1   6
BRANCH   5  12
HETATM   12  C10 UNL     1      -0.026  -0.550  -0.542  1.00  0.00     0.076 C 
HETATM   13  C11 UNL     1       0.040  -1.950   0.095  1.00  0.00     0.044 C 
HETATM   14  C12 UNL     1       1.500  -2.331   0.385  1.00  0.00    -0.002 C 
HETATM   15  C13 UNL     1       1.436  -3.376   1.493  1.00  0.00     0.011 C 
HETATM   16  C14 UNL     1       2.157  -1.137   0.924  1.00  0.00     0.029 A 
HETATM   17  C15 UNL     1       1.159  -0.139   1.535  1.00  0.00     0.031 C 
HETATM   18  C26 UNL     1       2.345  -0.174  -0.299  1.00  0.00     0.108 A 
HETATM   19  C27 UNL     1       3.440  -0.572   0.597  1.00  0.00     0.233 A 
HETATM   20  C16 UNL     1       1.007   0.349   0.123  1.00  0.00     0.032 C 
BRANCH  12  21
HETATM   21  O3  UNL     1       0.164  -0.761  -1.876  1.00  0.00    -0.388 OA
ATOM     22  H3  UNL     1       1.029  -1.114  -2.046  1.00  0.00     0.210 HD
ENDBRANCH  12  21
BRANCH  20  23
HETATM   23  C17 UNL     1       0.813   1.789   0.017  1.00  0.00     0.030 C 
HETATM   24  C18 UNL     1       0.146   2.274  -1.275  1.00  0.00     0.018 C 
HETATM   25  C19 UNL     1      -1.354   2.343  -0.954  1.00  0.00    -0.029 C 
HETATM   26  C20 UNL     1      -1.925   3.344  -1.919  1.00  0.00     0.016 C 
HETATM   27  C21 UNL     1      -1.362   2.781   0.455  1.00  0.00     0.027 C 
HETATM   28  C25 UNL     1       0.066   2.576   0.998  1.00  0.00     0.128 C 
BRANCH  27  29
HETATM   29  C22 UNL     1      -1.875   4.153   0.747  1.00  0.00    -0.015 C 
HETATM   30  C23 UNL     1      -1.207   5.312   0.156  1.00  0.00     0.010 C 
HETATM   31  C24 UNL     1      -1.958   4.389   2.269  1.00  0.00     0.010 C 
ENDBRANCH  27  29
BRANCH  28  32
HETATM   32  O4  UNL     1       0.069   2.237   2.312  1.00  0.00    -0.395 OA
ATOM     33  H4  UNL     1      -0.416   2.748   2.949  1.00  0.00     0.210 HD
ENDBRANCH  28  32
ENDBRANCH  20  23
BRANCH  18  34
HETATM   34  O5  UNL     1       2.480  -0.805  -1.559  1.00  0.00    -0.386 OA
ATOM     35  H5  UNL     1       2.594  -0.222  -2.300  1.00  0.00     0.210 HD
ENDBRANCH  18  34
BRANCH  19  36
HETATM   36  N1  UNL     1       4.452  -1.521   0.209  1.00  0.00    -0.067 N 
ATOM     37  H12 UNL     1       4.564  -2.239   0.925  1.00  0.00     0.277 HD
ATOM     38  H11 UNL     1       4.124  -2.099  -0.564  1.00  0.00     0.277 HD
BRANCH  36  39
HETATM   39  C28 UNL     1       5.709  -0.929  -0.107  1.00  0.00     0.232 C 
BRANCH  39  40
HETATM   40  C29 UNL     1       6.673  -2.036  -0.495  1.00  0.00     0.023 C 
HETATM   41  C30 UNL     1       6.174  -2.806  -1.694  1.00  0.00     0.007 C 
ENDBRANCH  39  40
ENDBRANCH  36  39
ENDBRANCH  19  36
ENDBRANCH   5  12
TORSDOF 13
