REMARK  8 active torsions:
REMARK  status: ('A' for Active; 'I' for Inactive)
REMARK    1  A    between atoms: C2_2  and  C3_3 
REMARK    2  A    between atoms: C2_2  and  C10_13 
REMARK    3  A    between atoms: C3_3  and  C4_4 
REMARK    4  A    between atoms: C4_4  and  O2_6 
REMARK    5  A    between atoms: O2_6  and  C5_7 
REMARK    6  A    between atoms: C22_25  and  C23_26 
REMARK    7  A    between atoms: C22_25  and  C24_29 
REMARK    8  A    between atoms: C27_34  and  O8_35 
ROOT
HETATM    1  C10 UNL     1       0.873  -1.046   0.081  1.00  0.00    -0.001 C 
HETATM    2  C11 UNL     1      -0.312  -0.986   1.103  1.00  0.00     0.011 C 
HETATM    3  C12 UNL     1      -1.065  -1.138  -0.157  1.00  0.00     0.002 C 
HETATM    4  C13 UNL     1      -2.439  -1.079  -0.442  1.00  0.00     0.030 C 
HETATM    5  C14 UNL     1      -2.707  -0.658  -1.883  1.00  0.00    -0.006 C 
HETATM    6  C15 UNL     1      -1.585   0.035  -2.570  1.00  0.00     0.006 C 
HETATM    7  C16 UNL     1      -0.212  -0.428  -2.199  1.00  0.00     0.010 C 
HETATM    8  C17 UNL     1      -0.011  -0.207  -0.714  1.00  0.00    -0.036 C 
HETATM    9  C18 UNL     1       0.057   1.200  -0.418  1.00  0.00     0.016 C 
HETATM   10  C19 UNL     1      -4.018   0.096  -1.889  1.00  0.00     0.019 C 
HETATM   11  C20 UNL     1      -4.386   0.409  -0.549  1.00  0.00     0.016 C 
HETATM   12  C21 UNL     1      -3.969   1.838  -0.215  1.00  0.00     0.020 C 
HETATM   13  C22 UNL     1      -5.672   0.255   0.100  1.00  0.00     0.146 C 
HETATM   14  C25 UNL     1      -5.238   0.252   1.567  1.00  0.00     0.036 C 
HETATM   15  C26 UNL     1      -3.699   0.047   1.569  1.00  0.00     0.041 C 
HETATM   16  C27 UNL     1      -3.562  -0.600   0.283  1.00  0.00     0.071 C 
ENDROOT
BRANCH   1  17
HETATM   17  C2  UNL     1       2.186  -0.814   0.635  1.00  0.00    -0.005 C 
HETATM   18  C1  UNL     1       2.522  -1.869   1.738  1.00  0.00     0.011 C 
BRANCH  17  19
HETATM   19  C3  UNL     1       2.586   0.544   1.128  1.00  0.00     0.115 C 
BRANCH  19  20
HETATM   20  C4  UNL     1       4.081   0.535   1.458  1.00  0.00     0.259 C 
HETATM   21  O1  UNL     1       4.465   0.445   2.652  1.00  0.00    -0.265 OA
BRANCH  20  22
HETATM   22  O2  UNL     1       5.019   0.623   0.464  1.00  0.00    -0.316 OA
BRANCH  22  23
HETATM   23  C5  UNL     1       6.417   0.623   0.656  1.00  0.00     0.136 C 
HETATM   24  C6  UNL     1       7.090   1.800   0.037  1.00  0.00     0.059 C 
HETATM   25  C7  UNL     1       8.180   1.312  -0.898  1.00  0.00     0.170 C 
HETATM   26  O3  UNL     1       9.008   0.484  -0.133  1.00  0.00    -0.391 OA
HETATM   27  C8  UNL     1       8.390  -0.763  -0.088  1.00  0.00     0.170 C 
HETATM   28  C9  UNL     1       6.910  -0.699   0.087  1.00  0.00     0.059 C 
ENDBRANCH  22  23
ENDBRANCH  20  22
ENDBRANCH  19  20
ENDBRANCH  17  19
ENDBRANCH   1  17
BRANCH  16  29
HETATM   29  O8  UNL     1      -4.464  -1.701   0.543  1.00  0.00    -0.389 OA
ATOM     30  H8  UNL     1      -5.215  -1.381   1.028  1.00  0.00     0.210 HD
ENDBRANCH  16  29
BRANCH  13  31
HETATM   31  C23 UNL     1      -6.605  -0.800  -0.273  1.00  0.00     0.193 C 
HETATM   32  O4  UNL     1      -6.481  -1.462  -1.289  1.00  0.00    -0.647 OA
HETATM   33  O5  UNL     1      -7.679  -1.049   0.573  1.00  0.00    -0.647 OA
ENDBRANCH  13  31
BRANCH  13  34
HETATM   34  C24 UNL     1      -6.561   1.477  -0.065  1.00  0.00     0.193 C 
HETATM   35  O6  UNL     1      -6.327   2.305  -0.957  1.00  0.00    -0.647 OA
HETATM   36  O7  UNL     1      -7.649   1.648   0.803  1.00  0.00    -0.647 OA
ENDBRANCH  13  34
TORSDOF 8
