REMARK  7 active torsions:
REMARK  status: ('A' for Active; 'I' for Inactive)
REMARK    1  A    between atoms: N1_1  and  S1_4 
REMARK    2  A    between atoms: S1_4  and  C1_7 
REMARK    3  A    between atoms: C4_10  and  N2_11 
REMARK    4  A    between atoms: C5_13  and  C6_14 
REMARK    5  A    between atoms: C6_14  and  C7_15 
REMARK    6  A    between atoms: C6_14  and  C14_26 
REMARK    7  A    between atoms: C19_33  and  S2_34 
ROOT
HETATM    1  C6  UNL     1      -0.921   1.218   1.408  1.00  0.00     0.092 C 
ENDROOT
BRANCH   1   2
HETATM    2  C5  UNL     1       0.102   0.444   0.629  1.00  0.00     0.075 C 
HETATM    3  N2  UNL     1       1.320   0.360   1.000  1.00  0.00    -0.369 N 
ATOM      4  H2  UNL     1       1.576   0.847   1.859  1.00  0.00     0.165 HD
BRANCH   3   5
HETATM    5  C4  UNL     1       2.336  -0.335   0.341  1.00  0.00     0.031 A 
HETATM    6  C3  UNL     1       2.147  -1.656   0.007  1.00  0.00     0.031 A 
HETATM    7  C2  UNL     1       3.135  -2.389  -0.652  1.00  0.00     0.027 A 
HETATM    8  C1  UNL     1       4.338  -1.808  -0.991  1.00  0.00     0.079 A 
HETATM    9  C23 UNL     1       4.520  -0.479  -0.651  1.00  0.00     0.027 A 
HETATM   10  C22 UNL     1       3.542   0.244   0.000  1.00  0.00     0.031 A 
BRANCH   8  11
HETATM   11  S1  UNL     1       5.566  -2.730  -1.813  1.00  0.00     0.256 S 
HETATM   12  O1  UNL     1       6.445  -1.848  -2.671  1.00  0.00    -0.201 OA
HETATM   13  O2  UNL     1       4.998  -3.795  -2.703  1.00  0.00    -0.201 OA
BRANCH  11  14
HETATM   14  N1  UNL     1       6.623  -3.514  -0.678  1.00  0.00    -0.324 N 
ATOM     15  H12 UNL     1       7.634  -3.393  -0.615  1.00  0.00     0.169 HD
ATOM     16  H11 UNL     1       6.030  -4.109  -0.099  1.00  0.00     0.169 HD
ENDBRANCH  11  14
ENDBRANCH   8  11
ENDBRANCH   3   5
ENDBRANCH   1   2
BRANCH   1  17
HETATM   17  C7  UNL     1      -0.906   2.575   0.727  1.00  0.00    -0.042 A 
HETATM   18  C8  UNL     1      -1.084   3.741   1.429  1.00  0.00     0.010 A 
HETATM   19  C9  UNL     1      -1.063   4.956   0.765  1.00  0.00     0.032 A 
HETATM   20  C10 UNL     1      -0.865   5.039  -0.601  1.00  0.00     0.060 A 
HETATM   21  N3  UNL     1      -0.798   6.049  -1.487  1.00  0.00    -0.351 N 
HETATM   22  C12 UNL     1      -0.689   3.882  -1.298  1.00  0.00     0.060 A 
HETATM   23  C11 UNL     1      -0.582   5.558  -2.731  1.00  0.00     0.181 A 
ATOM     24  H3  UNL     1      -0.895   7.038  -1.256  1.00  0.00     0.166 HD
HETATM   25  N4  UNL     1      -0.519   4.227  -2.590  1.00  0.00    -0.350 N 
ATOM     26  H4  UNL     1      -0.364   3.568  -3.353  1.00  0.00     0.166 HD
HETATM   27  C13 UNL     1      -0.710   2.671  -0.636  1.00  0.00     0.040 A 
ENDBRANCH   1  17
BRANCH   1  28
HETATM   28  C14 UNL     1      -2.296   0.695   1.246  1.00  0.00    -0.017 A 
HETATM   29  C15 UNL     1      -3.431   1.503   1.204  1.00  0.00     0.097 A 
HETATM   30  N5  UNL     1      -4.470   0.684   1.030  1.00  0.00    -0.365 N 
HETATM   31  C16 UNL     1      -4.059  -0.593   0.960  1.00  0.00     0.043 A 
ATOM     32  H5  UNL     1      -5.442   0.986   0.960  1.00  0.00     0.165 HD
HETATM   33  C17 UNL     1      -4.739  -1.796   0.793  1.00  0.00     0.032 A 
HETATM   34  C21 UNL     1      -2.668  -0.621   1.095  1.00  0.00     0.001 A 
HETATM   35  C18 UNL     1      -4.075  -2.999   0.760  1.00  0.00     0.028 A 
HETATM   36  C19 UNL     1      -2.690  -3.006   0.897  1.00  0.00     0.081 A 
HETATM   37  C20 UNL     1      -1.994  -1.833   1.063  1.00  0.00     0.040 A 
BRANCH  36  38
HETATM   38  S2  UNL     1      -1.889  -4.558   0.849  1.00  0.00     0.137 S 
HETATM   39  O3  UNL     1      -2.810  -5.578   1.440  1.00  0.00    -0.591 OA
HETATM   40  O4  UNL     1      -0.595  -4.484   1.632  1.00  0.00    -0.591 OA
HETATM   41  O5  UNL     1      -1.477  -4.937  -0.741  1.00  0.00    -0.591 OA
ENDBRANCH  36  38
ENDBRANCH   1  28
TORSDOF 7
