REMARK  9 active torsions:
REMARK  status: ('A' for Active; 'I' for Inactive)
REMARK    1  A    between atoms: C2_2  and  C4_4 
REMARK    2  A    between atoms: C4_4  and  C5_6 
REMARK    3  A    between atoms: C5_6  and  O2_7 
REMARK    4  A    between atoms: C5_6  and  C6_9 
REMARK    5  A    between atoms: C6_9  and  O3_10 
REMARK    6  A    between atoms: C6_9  and  C7_12 
REMARK    7  A    between atoms: C15_20  and  C16_21 
REMARK    8  A    between atoms: C25_30  and  O4_31 
REMARK    9  A    between atoms: C29_36  and  O5_37 
ROOT
HETATM    1  C7  UNL     1       2.824  -1.403  -0.433  1.00  0.00     0.157 C 
HETATM    2  C8  UNL     1       1.608  -0.609  -0.076  1.00  0.00     0.045 C 
HETATM    3  C9  UNL     1       0.337  -1.321  -0.611  1.00  0.00    -0.025 C 
HETATM    4  C10 UNL     1       0.741  -1.520  -2.064  1.00  0.00     0.016 C 
HETATM    5  C11 UNL     1      -0.920  -0.605  -0.408  1.00  0.00     0.009 C 
HETATM    6  C12 UNL     1      -1.936  -1.237   0.498  1.00  0.00     0.020 C 
HETATM    7  C13 UNL     1      -3.375  -0.895   0.272  1.00  0.00     0.013 C 
HETATM    8  C14 UNL     1      -3.721   0.459  -0.166  1.00  0.00    -0.005 C 
HETATM    9  C15 UNL     1      -3.985   1.452   0.920  1.00  0.00    -0.007 C 
HETATM   10  C19 UNL     1      -3.407   2.771   0.385  1.00  0.00     0.006 C 
HETATM   11  C20 UNL     1      -2.099   2.205  -0.221  1.00  0.00     0.006 C 
HETATM   12  C21 UNL     1      -2.642   1.061  -0.951  1.00  0.00    -0.002 C 
HETATM   13  C22 UNL     1      -1.637   0.056  -1.537  1.00  0.00    -0.039 C 
HETATM   14  C23 UNL     1      -2.466  -0.826  -2.425  1.00  0.00     0.015 C 
HETATM   15  C24 UNL     1      -0.808   0.936  -2.439  1.00  0.00     0.015 C 
HETATM   16  C25 UNL     1      -1.924  -2.740   0.558  1.00  0.00     0.123 C 
HETATM   17  C26 UNL     1      -0.737  -3.417   0.010  1.00  0.00     0.046 C 
HETATM   18  C27 UNL     1       0.478  -2.607   0.210  1.00  0.00     0.016 C 
HETATM   19  C28 UNL     1       0.769  -2.400   1.651  1.00  0.00     0.021 C 
HETATM   20  C29 UNL     1       1.688  -3.431  -0.260  1.00  0.00     0.266 C 
HETATM   21  O6  UNL     1       2.842  -2.722  -0.165  1.00  0.00    -0.353 OA
ENDROOT
BRANCH   1  22
HETATM   22  C6  UNL     1       3.994  -0.776   0.348  1.00  0.00     0.183 C 
BRANCH  22  23
HETATM   23  C5  UNL     1       3.994   0.715   0.249  1.00  0.00     0.219 C 
BRANCH  23  24
HETATM   24  C4  UNL     1       5.140   1.213   1.056  1.00  0.00     0.161 C 
HETATM   25  O1  UNL     1       5.175   0.986   2.246  1.00  0.00    -0.295 OA
BRANCH  24  26
HETATM   26  C2  UNL     1       6.248   1.984   0.435  1.00  0.00     0.050 C 
HETATM   27  C1  UNL     1       5.717   3.252  -0.198  1.00  0.00     0.017 C 
HETATM   28  C3  UNL     1       7.310   2.359   1.414  1.00  0.00     0.017 C 
ENDBRANCH  24  26
ENDBRANCH  23  24
BRANCH  23  29
HETATM   29  O2  UNL     1       4.194   1.096  -1.066  1.00  0.00    -0.385 OA
ATOM     30  H2  UNL     1       3.462   0.778  -1.581  1.00  0.00     0.210 HD
ENDBRANCH  23  29
ENDBRANCH  22  23
BRANCH  22  31
HETATM   31  O3  UNL     1       5.186  -1.348  -0.073  1.00  0.00    -0.390 OA
ATOM     32  H3  UNL     1       5.186  -2.296  -0.010  1.00  0.00     0.210 HD
ENDBRANCH  22  31
ENDBRANCH   1  22
BRANCH  20  33
HETATM   33  O5  UNL     1       1.806  -4.443   0.745  1.00  0.00    -0.370 OA
ATOM     34  H5  UNL     1       2.554  -4.952   0.455  1.00  0.00     0.212 HD
ENDBRANCH  20  33
BRANCH  16  35
HETATM   35  O4  UNL     1      -2.120  -3.193   1.887  1.00  0.00    -0.395 OA
ATOM     36  H4  UNL     1      -2.112  -4.142   1.925  1.00  0.00     0.210 HD
ENDBRANCH  16  35
BRANCH   9  37
HETATM   37  C16 UNL     1      -5.412   1.620   1.288  1.00  0.00    -0.018 C 
HETATM   38  C17 UNL     1      -6.317   2.078   0.195  1.00  0.00     0.010 C 
HETATM   39  C18 UNL     1      -5.565   2.597   2.445  1.00  0.00     0.010 C 
ENDBRANCH   9  37
TORSDOF 9
