REMARK  10 active torsions:
REMARK  status: ('A' for Active; 'I' for Inactive)
REMARK    1  A    between atoms: C4_4  and  C5_5 
REMARK    2  A    between atoms: C5_5  and  C6_6 
REMARK    3  A    between atoms: C6_6  and  C7_7 
REMARK    4  A    between atoms: C9_9  and  O1_10 
REMARK    5  A    between atoms: C11_13  and  O2_14 
REMARK    6  A    between atoms: C17_22  and  N1_23 
REMARK    7  A    between atoms: C20_26  and  C21_27 
REMARK    8  A    between atoms: C21_27  and  O4_28 
REMARK    9  A    between atoms: C23_31  and  C24_32 
REMARK   10  A    between atoms: C24_32  and  O5_33 
ROOT
HETATM    1  C7  UNL     1      -2.375   0.422   0.336  1.00  0.00    -0.013 C 
HETATM    2  C8  UNL     1      -2.873   1.164   1.527  1.00  0.00     0.018 C 
HETATM    3  C9  UNL     1      -1.194  -0.454   0.527  1.00  0.00     0.129 C 
HETATM    4  C10 UNL     1      -0.017   0.287   1.158  1.00  0.00     0.074 C 
HETATM    5  C11 UNL     1       0.973   0.623   0.130  1.00  0.00     0.105 C 
HETATM    6  C12 UNL     1       1.355   2.065   0.239  1.00  0.00     0.058 C 
HETATM    7  C13 UNL     1       2.454   1.973   1.315  1.00  0.00     0.178 C 
HETATM    8  O3  UNL     1       3.022   0.728   1.239  1.00  0.00    -0.368 OA
HETATM    9  C14 UNL     1       2.357  -0.022   0.323  1.00  0.00     0.128 C 
HETATM   10  C15 UNL     1       3.143   0.132  -0.951  1.00  0.00     0.016 C 
HETATM   11  C16 UNL     1       4.262  -0.564  -1.053  1.00  0.00     0.012 C 
HETATM   12  C17 UNL     1       4.685  -1.459   0.092  1.00  0.00     0.275 C 
HETATM   13  C20 UNL     1       3.421  -2.173   0.475  1.00  0.00    -0.021 C 
HETATM   14  C22 UNL     1       2.314  -1.456   0.579  1.00  0.00     0.025 C 
HETATM   15  C23 UNL     1       0.373   3.065   0.645  1.00  0.00    -0.006 A 
HETATM   16  C25 UNL     1       0.290   4.219  -0.411  1.00  0.00     0.019 A 
HETATM   17  C26 UNL     1      -0.886   3.298   0.028  1.00  0.00     0.006 A 
HETATM   18  C27 UNL     1      -1.528   2.503  -0.986  1.00  0.00    -0.035 A 
HETATM   19  C28 UNL     1      -1.177   2.981  -2.427  1.00  0.00     0.016 C 
HETATM   20  C29 UNL     1      -3.082   2.418  -0.927  1.00  0.00     0.016 A 
HETATM   21  C30 UNL     1      -2.162   1.275  -0.883  1.00  0.00     0.005 A 
ENDROOT
BRANCH   5  22
HETATM   22  O2  UNL     1       0.684   0.181  -1.165  1.00  0.00    -0.385 OA
ATOM     23  H2  UNL     1       1.325   0.399  -1.831  1.00  0.00     0.210 HD
ENDBRANCH   5  22
BRANCH  13  24
HETATM   24  C21 UNL     1       3.470  -3.638   0.710  1.00  0.00     0.200 C 
BRANCH  24  25
HETATM   25  O4  UNL     1       3.910  -4.315  -0.447  1.00  0.00    -0.397 OA
ATOM     26  H4  UNL     1       3.941  -5.252  -0.297  1.00  0.00     0.209 HD
ENDBRANCH  24  25
ENDBRANCH  13  24
BRANCH   3  27
HETATM   27  O1  UNL     1      -1.374  -1.557   1.344  1.00  0.00    -0.395 OA
ATOM     28  H1  UNL     1      -0.617  -2.118   1.466  1.00  0.00     0.210 HD
ENDBRANCH   3  27
BRANCH  15  29
HETATM   29  C24 UNL     1       0.585   3.731   2.028  1.00  0.00     0.174 C 
BRANCH  29  30
HETATM   30  O5  UNL     1       1.795   4.404   2.094  1.00  0.00    -0.400 OA
ATOM     31  H5  UNL     1       1.925   4.812   2.942  1.00  0.00     0.209 HD
ENDBRANCH  29  30
ENDBRANCH  15  29
BRANCH  12  32
HETATM   32  N1  UNL     1       5.733  -2.349  -0.274  1.00  0.00     0.092 N 
HETATM   33  C18 UNL     1       6.386  -2.823   0.942  1.00  0.00     0.310 C 
HETATM   34  C19 UNL     1       6.701  -1.682  -1.133  1.00  0.00     0.310 C 
ENDBRANCH  12  32
BRANCH   1  35
HETATM   35  C6  UNL     1      -3.571  -0.449  -0.074  1.00  0.00     0.016 C 
BRANCH  35  36
HETATM   36  C5  UNL     1      -4.144  -1.375   0.861  1.00  0.00     0.028 C 
BRANCH  36  37
HETATM   37  C4  UNL     1      -5.299  -2.219   0.471  1.00  0.00    -0.025 C 
HETATM   38  C2  UNL     1      -5.934  -2.435  -0.623  1.00  0.00    -0.091 C 
HETATM   39  C1  UNL     1      -7.116  -3.412  -0.612  1.00  0.00     0.042 C 
HETATM   40  C3  UNL     1      -5.634  -1.855  -1.929  1.00  0.00     0.042 C 
ENDBRANCH  36  37
ENDBRANCH  35  36
ENDBRANCH   1  35
TORSDOF 10
