REMARK  10 active torsions:
REMARK  status: ('A' for Active; 'I' for Inactive)
REMARK    1  A    between atoms: C2_2  and  C3_3 
REMARK    2  A    between atoms: C3_3  and  C4_4 
REMARK    3  A    between atoms: C4_4  and  C5_5 
REMARK    4  A    between atoms: C4_4  and  C6_8 
REMARK    5  A    between atoms: C5_5  and  O1_6 
REMARK    6  A    between atoms: C6_8  and  C7_9 
REMARK    7  A    between atoms: C7_9  and  C9_11 
REMARK    8  A    between atoms: C22_25  and  O3_26 
REMARK    9  A    between atoms: C22_25  and  O4_28 
REMARK   10  A    between atoms: C27_34  and  O5_35 
ROOT
HETATM    1  C9  UNL     1       1.685  -0.252  -0.385  1.00  0.00     0.127 C 
HETATM    2  C10 UNL     1       1.468  -1.227   0.714  1.00  0.00     0.050 C 
HETATM    3  C11 UNL     1       0.237  -2.083   0.480  1.00  0.00     0.032 C 
HETATM    4  C12 UNL     1       0.107  -2.889   1.751  1.00  0.00     0.024 C 
HETATM    5  C13 UNL     1       0.548  -3.127  -0.602  1.00  0.00     0.137 C 
HETATM    6  O2  UNL     1       1.224  -4.072  -0.316  1.00  0.00    -0.297 OA
HETATM    7  C14 UNL     1       0.054  -3.048  -2.030  1.00  0.00     0.090 C 
HETATM    8  C15 UNL     1      -0.663  -1.848  -2.436  1.00  0.00     0.044 C 
HETATM    9  C16 UNL     1      -2.114  -1.770  -2.636  1.00  0.00    -0.023 C 
HETATM   10  C17 UNL     1      -2.936  -0.740  -2.012  1.00  0.00    -0.022 C 
HETATM   11  C18 UNL     1      -2.678   0.027  -0.822  1.00  0.00     0.048 C 
HETATM   12  C19 UNL     1      -4.026   0.508  -0.232  1.00  0.00     0.010 C 
HETATM   13  C20 UNL     1      -4.687   1.265  -1.402  1.00  0.00     0.011 C 
HETATM   14  C21 UNL     1      -5.361   2.421  -0.650  1.00  0.00     0.069 C 
HETATM   15  C22 UNL     1      -4.160   2.854   0.206  1.00  0.00     0.167 C 
HETATM   16  C23 UNL     1      -3.821   1.491   0.840  1.00  0.00     0.017 C 
HETATM   17  C24 UNL     1      -4.951   1.298   1.870  1.00  0.00     0.021 C 
HETATM   18  C25 UNL     1      -2.558   1.559   1.554  1.00  0.00     0.018 C 
HETATM   19  C26 UNL     1      -1.392   0.774   1.048  1.00  0.00     0.040 C 
HETATM   20  C27 UNL     1      -1.904  -0.486   0.364  1.00  0.00     0.076 C 
HETATM   21  C28 UNL     1      -0.946  -1.483  -0.090  1.00  0.00     0.029 C 
HETATM   22  C29 UNL     1      -1.826  -2.682   0.030  1.00  0.00     0.022 C 
HETATM   23  C30 UNL     1      -0.372  -0.888  -1.293  1.00  0.00     0.142 C 
HETATM   24  O6  UNL     1       1.026  -0.762  -1.427  1.00  0.00    -0.379 OA
ENDROOT
BRANCH   1  25
HETATM   25  C7  UNL     1       3.165  -0.072  -0.774  1.00  0.00     0.011 C 
HETATM   26  C8  UNL     1       3.722  -1.155  -1.608  1.00  0.00     0.012 C 
BRANCH  25  27
HETATM   27  C6  UNL     1       3.961   0.401   0.385  1.00  0.00     0.014 C 
BRANCH  27  28
HETATM   28  C4  UNL     1       5.309   0.987   0.144  1.00  0.00     0.013 C 
BRANCH  28  29
HETATM   29  C3  UNL     1       5.925   1.427   1.509  1.00  0.00     0.033 C 
BRANCH  29  30
HETATM   30  C2  UNL     1       5.077   2.392   2.189  1.00  0.00    -0.036 C 
HETATM   31  C1  UNL     1       5.567   3.610   2.424  1.00  0.00     0.007 C 
ENDBRANCH  29  30
ENDBRANCH  28  29
BRANCH  28  32
HETATM   32  C5  UNL     1       6.363   0.011  -0.353  1.00  0.00     0.168 C 
BRANCH  32  33
HETATM   33  O1  UNL     1       7.609   0.690  -0.456  1.00  0.00    -0.400 OA
ATOM     34  H1  UNL     1       8.268   0.080  -0.767  1.00  0.00     0.209 HD
ENDBRANCH  32  33
ENDBRANCH  28  32
ENDBRANCH  27  28
ENDBRANCH  25  27
ENDBRANCH   1  25
BRANCH  20  35
HETATM   35  O5  UNL     1      -2.759  -0.908   1.419  1.00  0.00    -0.388 OA
ATOM     36  H5  UNL     1      -2.271  -1.232   2.167  1.00  0.00     0.210 HD
ENDBRANCH  20  35
BRANCH  15  37
HETATM   37  O3  UNL     1      -3.189   3.312  -0.640  1.00  0.00    -0.365 OA
ATOM     38  H3  UNL     1      -2.447   3.580  -0.111  1.00  0.00     0.213 HD
ENDBRANCH  15  37
BRANCH  15  39
HETATM   39  O4  UNL     1      -4.553   3.768   1.175  1.00  0.00    -0.365 OA
ATOM     40  H4  UNL     1      -3.811   4.036   1.704  1.00  0.00     0.213 HD
ENDBRANCH  15  39
TORSDOF 10
