REMARK  10 active torsions:
REMARK  status: ('A' for Active; 'I' for Inactive)
REMARK    1  A    between atoms: C2_2  and  C3_3 
REMARK    2  A    between atoms: C3_3  and  O1_4 
REMARK    3  A    between atoms: C6_8  and  O2_9 
REMARK    4  A    between atoms: O2_9  and  C7_10 
REMARK    5  A    between atoms: C7_10  and  C8_15 
REMARK    6  A    between atoms: N1_11  and  O3_13 
REMARK    7  A    between atoms: N2_18  and  C11_19 
REMARK    8  A    between atoms: C11_19  and  C12_20 
REMARK    9  A    between atoms: C12_20  and  C13_21 
REMARK   10  A    between atoms: C13_21  and  N3_22 
ROOT
HETATM    1  C8  UNL     1       0.298  -1.529   0.157  1.00  0.00     0.065 C 
HETATM    2  C9  UNL     1      -0.622  -1.882   1.289  1.00  0.00     0.043 C 
HETATM    3  C10 UNL     1      -1.855  -2.544   0.679  1.00  0.00     0.273 C 
HETATM    4  N2  UNL     1      -2.617  -1.583  -0.057  1.00  0.00     0.088 N 
HETATM    5  C17 UNL     1      -1.889  -0.381  -0.358  1.00  0.00     0.273 C 
HETATM    6  C18 UNL     1      -0.477  -0.656  -0.811  1.00  0.00     0.043 C 
ENDROOT
BRANCH   1   7
HETATM    7  C7  UNL     1       1.543  -0.901   0.604  1.00  0.00     0.142 C 
HETATM    8  N1  UNL     1       1.790  -0.634   1.811  1.00  0.00    -0.251 N 
ATOM      9  H1  UNL     1       2.702  -0.198   1.949  1.00  0.00     0.196 HD
BRANCH   7  10
HETATM   10  O2  UNL     1       2.558  -0.550  -0.302  1.00  0.00    -0.332 OA
BRANCH  10  11
HETATM   11  C6  UNL     1       3.917  -0.688  -0.120  1.00  0.00     0.130 C 
HETATM   12  C5  UNL     1       4.560   0.037   1.002  1.00  0.00     0.035 C 
HETATM   13  C4  UNL     1       6.055  -0.332   0.990  1.00  0.00     0.040 C 
HETATM   14  C3  UNL     1       6.731   0.089  -0.283  1.00  0.00     0.058 C 
HETATM   15  C20 UNL     1       6.016  -0.581  -1.422  1.00  0.00     0.040 C 
HETATM   16  C19 UNL     1       4.576  -0.160  -1.411  1.00  0.00     0.035 C 
BRANCH  14  17
HETATM   17  C2  UNL     1       6.836   1.578  -0.424  1.00  0.00     0.033 C 
HETATM   18  C1  UNL     1       7.561   1.989  -1.677  1.00  0.00     0.008 C 
ENDBRANCH  14  17
BRANCH  14  19
HETATM   19  O1  UNL     1       8.025  -0.424  -0.243  1.00  0.00    -0.390 OA
ATOM     20  H1  UNL     1       7.958  -1.367  -0.154  1.00  0.00     0.210 HD
ENDBRANCH  14  19
ENDBRANCH  10  11
ENDBRANCH   7  10
BRANCH   8  21
HETATM   21  O3  UNL     1       1.111  -0.801   2.943  1.00  0.00    -0.288 OA
ATOM     22  H3  UNL     1       1.297  -0.600   3.853  1.00  0.00     0.244 HD
ENDBRANCH   8  21
ENDBRANCH   1   7
BRANCH   4  23
HETATM   23  C11 UNL     1      -3.827  -1.275   0.654  1.00  0.00     0.274 C 
BRANCH  23  24
HETATM   24  C12 UNL     1      -4.603  -0.248  -0.169  1.00  0.00     0.050 C 
BRANCH  24  25
HETATM   25  C13 UNL     1      -5.879   0.046   0.623  1.00  0.00     0.134 C 
BRANCH  25  26
HETATM   26  N3  UNL     1      -6.690   1.014  -0.075  1.00  0.00    -0.280 N 
HETATM   27  C14 UNL     1      -6.536   2.402   0.150  1.00  0.00     0.330 C 
HETATM   28  O4  UNL     1      -5.488   2.832   0.695  1.00  0.00    -0.247 OA
HETATM   29  N4  UNL     1      -7.606   3.256  -0.264  1.00  0.00    -0.261 N 
HETATM   30  C15 UNL     1      -8.768   2.708  -0.876  1.00  0.00     0.327 C 
ATOM     31  H4  UNL     1      -7.536   4.263  -0.120  1.00  0.00     0.175 HD
HETATM   32  O5  UNL     1      -9.714   3.454  -1.244  1.00  0.00    -0.247 OA
HETATM   33  N5  UNL     1      -8.858   1.316  -1.072  1.00  0.00    -0.289 N 
HETATM   34  C16 UNL     1      -7.669   0.509  -1.018  1.00  0.00     0.276 C 
ATOM     35  H5  UNL     1      -9.763   0.882  -1.252  1.00  0.00     0.169 HD
HETATM   36 CL1  UNL     1      -8.111  -1.183  -0.662  1.00  0.00    -0.054 Cl
HETATM   37 CL2  UNL     1      -6.906   0.611  -2.640  1.00  0.00    -0.054 Cl
ENDBRANCH  25  26
ENDBRANCH  24  25
ENDBRANCH  23  24
ENDBRANCH   4  23
TORSDOF 10
