REMARK  6 active torsions:
REMARK  status: ('A' for Active; 'I' for Inactive)
REMARK    1  A    between atoms: C2_2  and  C3_3 
REMARK       I    between atoms: N1_4  and  C4_5 
REMARK       I    between atoms: C4_5  and  N2_7 
REMARK    2  A    between atoms: N2_7  and  C5_9 
REMARK    3  A    between atoms: C17_24  and  N3_25 
REMARK    4  A    between atoms: N3_25  and  C18_27 
REMARK    5  A    between atoms: C18_27  and  C19_28 
REMARK    6  A    between atoms: C19_28  and  N4_29 
ROOT
HETATM    1  C3  UNL     1      -0.447  -2.103  -0.071  1.00  0.00     0.119 C 
HETATM    2  N1  UNL     1       0.664  -1.329   0.411  1.00  0.00    -0.322 N 
HETATM    3  C4  UNL     1       1.903  -1.108  -0.212  1.00  0.00     0.323 C 
HETATM    4  O1  UNL     1       2.232  -1.644  -1.303  1.00  0.00    -0.247 OA
HETATM    5  N2  UNL     1       2.853  -0.250   0.375  1.00  0.00    -0.309 N 
ATOM      6  H2  UNL     1       2.595   0.187   1.260  1.00  0.00     0.170 HD
HETATM    7  C14 UNL     1       0.399  -0.783   1.754  1.00  0.00     0.092 C 
HETATM    8  C15 UNL     1      -0.426   0.449   1.542  1.00  0.00     0.028 C 
HETATM    9  C16 UNL     1      -1.439   0.141   0.428  1.00  0.00     0.038 C 
HETATM   10  C17 UNL     1      -1.704  -1.335   0.378  1.00  0.00     0.081 C 
HETATM   11  C24 UNL     1      -1.912  -1.724   1.832  1.00  0.00     0.202 C 
HETATM   12  F2  UNL     1      -2.554  -2.964   1.909  1.00  0.00    -0.247 F 
HETATM   13  C25 UNL     1      -0.531  -1.803   2.456  1.00  0.00     0.065 C 
ENDROOT
BRANCH   1  14
HETATM   14  C2  UNL     1      -0.470  -2.509  -1.478  1.00  0.00     0.023 C 
HETATM   15  C1  UNL     1      -0.487  -1.548  -2.577  1.00  0.00     0.007 C 
ENDBRANCH   1  14
BRANCH  10  16
HETATM   16  N3  UNL     1      -2.821  -1.730  -0.365  1.00  0.00    -0.387 N 
ATOM     17  H3  UNL     1      -2.817  -2.664  -0.774  1.00  0.00     0.159 HD
BRANCH  16  18
HETATM   18  C18 UNL     1      -3.936  -0.928  -0.581  1.00  0.00     0.075 C 
BRANCH  18  19
HETATM   19  C19 UNL     1      -4.853  -0.626   0.554  1.00  0.00     0.161 C 
BRANCH  19  20
HETATM   20  N4  UNL     1      -5.959   0.215   0.170  1.00  0.00    -0.405 N 
HETATM   21  C20 UNL     1      -5.598   1.544  -0.185  1.00  0.00     0.144 C 
HETATM   22  C21 UNL     1      -6.729   2.512  -0.250  1.00  0.00     0.251 C 
HETATM   23  N5  UNL     1      -7.951   1.845  -0.658  1.00  0.00    -0.072 N 
HETATM   24  C22 UNL     1      -7.631   0.686  -1.473  1.00  0.00     0.251 C 
ATOM     25  H52 UNL     1      -8.540   1.603   0.139  1.00  0.00     0.277 HD
ATOM     26  H51 UNL     1      -8.595   2.480  -1.130  1.00  0.00     0.277 HD
HETATM   27  C23 UNL     1      -6.961  -0.395  -0.625  1.00  0.00     0.144 C 
ENDBRANCH  19  20
ENDBRANCH  18  19
ENDBRANCH  16  18
ENDBRANCH  10  16
BRANCH   5  28
HETATM   28  C5  UNL     1       4.129   0.064  -0.143  1.00  0.00     0.039 A 
HETATM   29  C6  UNL     1       4.560  -0.041  -1.430  1.00  0.00     0.032 A 
HETATM   30  C7  UNL     1       5.883   0.292  -1.774  1.00  0.00     0.042 A 
HETATM   31  C8  UNL     1       6.803   0.734  -0.854  1.00  0.00     0.102 A 
HETATM   32  C9  UNL     1       6.367   0.841   0.447  1.00  0.00     0.108 A 
HETATM   33  O3  UNL     1       8.110   1.063  -1.195  1.00  0.00    -0.343 OA
HETATM   34  C10 UNL     1       5.075   0.517   0.790  1.00  0.00     0.069 A 
HETATM   35  O2  UNL     1       7.301   1.288   1.376  1.00  0.00    -0.305 OA
HETATM   36  C11 UNL     1       8.548   1.833   0.998  1.00  0.00     0.228 C 
HETATM   37  C12 UNL     1       8.424   3.298   0.604  1.00  0.00     0.087 C 
HETATM   38  F1  UNL     1       9.388   1.686   2.091  1.00  0.00    -0.209 F 
HETATM   39  C13 UNL     1       9.111   1.090  -0.195  1.00  0.00     0.249 C 
ENDBRANCH   5  28
TORSDOF 6
