REMARK  11 active torsions:
REMARK  status: ('A' for Active; 'I' for Inactive)
REMARK    1  A    between atoms: O1_2  and  C2_3 
REMARK    2  A    between atoms: C5_6  and  C6_7 
REMARK    3  A    between atoms: C6_7  and  N1_8 
REMARK    4  A    between atoms: N1_8  and  C7_10 
REMARK    5  A    between atoms: C8_13  and  O2_14 
REMARK    6  A    between atoms: O2_14  and  C9_15 
REMARK    7  A    between atoms: C9_15  and  C10_16 
REMARK    8  A    between atoms: N4_18  and  C11_20 
REMARK    9  A    between atoms: C17_30  and  N6_31 
REMARK   10  A    between atoms: N6_31  and  C18_33 
REMARK   11  A    between atoms: C23_40  and  O3_41 
ROOT
HETATM    1  C7  UNL     1       1.117   1.051  -0.289  1.00  0.00     0.696 A 
HETATM    2  N2  UNL     1      -0.111   0.500  -0.412  1.00  0.00    -0.154 N 
ATOM      3  H2  UNL     1      -0.186  -0.500  -0.597  1.00  0.00     0.188 HD
HETATM    4  C8  UNL     1      -1.237   1.227  -0.298  1.00  0.00     0.252 A 
HETATM    5  N5  UNL     1      -1.114   2.539  -0.054  1.00  0.00    -0.154 N 
ATOM      6  H5  UNL     1      -1.954   3.110   0.037  1.00  0.00     0.188 HD
HETATM    7  C17 UNL     1       0.111   3.129   0.076  1.00  0.00     0.696 A 
HETATM    8  N7  UNL     1       1.211   2.392  -0.041  1.00  0.00    -0.022 N 
ATOM      9  H7  UNL     1       2.128   2.828   0.055  1.00  0.00     0.203 HD
ENDROOT
BRANCH   4  10
HETATM   10  O2  UNL     1      -2.439   0.598  -0.435  1.00  0.00    -0.314 OA
BRANCH  10  11
HETATM   11  C9  UNL     1      -2.601  -0.782  -0.694  1.00  0.00     0.251 C 
BRANCH  11  12
HETATM   12  C10 UNL     1      -4.050  -1.029  -0.764  1.00  0.00     0.114 C 
HETATM   13  N3  UNL     1      -4.818  -0.339  -1.709  1.00  0.00    -0.086 NA
HETATM   14  N4  UNL     1      -4.581  -1.862   0.028  1.00  0.00    -0.371 N 
ATOM     15  H4  UNL     1      -3.940  -2.315   0.679  1.00  0.00     0.161 HD
BRANCH  14  16
HETATM   16  C11 UNL     1      -5.944  -2.257   0.140  1.00  0.00     0.033 C 
HETATM   17  C12 UNL     1      -6.726  -1.193   0.910  1.00  0.00     0.038 C 
HETATM   18  C13 UNL     1      -6.582  -2.534  -1.175  1.00  0.00     0.036 C 
HETATM   19  C14 UNL     1      -7.580  -3.620  -0.896  1.00  0.00     0.081 C 
HETATM   20  C15 UNL     1      -7.097  -4.360   0.323  1.00  0.00     0.246 C 
HETATM   21  F1  UNL     1      -8.094  -4.596   1.236  1.00  0.00    -0.206 F 
HETATM   22  F2  UNL     1      -6.536  -5.546  -0.110  1.00  0.00    -0.206 F 
HETATM   23  C16 UNL     1      -6.026  -3.529   0.946  1.00  0.00     0.109 C 
ENDBRANCH  14  16
ENDBRANCH  11  12
ENDBRANCH  10  11
ENDBRANCH   4  10
BRANCH   1  24
HETATM   24  N1  UNL     1       2.142   0.286  -0.412  1.00  0.00    -0.221 N 
ATOM     25  H1  UNL     1       2.028  -0.710  -0.598  1.00  0.00     0.178 HD
BRANCH  24  26
HETATM   26  C6  UNL     1       3.460   0.866  -0.282  1.00  0.00     0.176 C 
BRANCH  26  27
HETATM   27  C5  UNL     1       4.526  -0.172  -0.355  1.00  0.00    -0.037 A 
HETATM   28  C4  UNL     1       5.718   0.018  -1.027  1.00  0.00     0.012 A 
HETATM   29  C3  UNL     1       6.687  -0.973  -1.070  1.00  0.00     0.040 A 
HETATM   30  C2  UNL     1       6.482  -2.183  -0.438  1.00  0.00     0.101 A 
HETATM   31  C23 UNL     1       5.302  -2.396   0.238  1.00  0.00     0.102 A 
HETATM   32  C22 UNL     1       4.360  -1.394   0.263  1.00  0.00     0.048 A 
BRANCH  30  33
HETATM   33  O1  UNL     1       7.480  -3.155  -0.505  1.00  0.00    -0.353 OA
HETATM   34  C1  UNL     1       8.688  -2.923  -1.203  1.00  0.00     0.210 C 
ENDBRANCH  30  33
BRANCH  31  35
HETATM   35  O3  UNL     1       5.096  -3.602   0.869  1.00  0.00    -0.353 OA
HETATM   36  C24 UNL     1       3.954  -3.956   1.589  1.00  0.00     0.210 C 
ENDBRANCH  31  35
ENDBRANCH  26  27
ENDBRANCH  24  26
ENDBRANCH   1  24
BRANCH   7  37
HETATM   37  N6  UNL     1       0.144   4.366   0.303  1.00  0.00    -0.217 N 
ATOM     38  H6  UNL     1      -0.774   4.807   0.368  1.00  0.00     0.178 HD
BRANCH  37  39
HETATM   39  C18 UNL     1       1.238   5.257   0.485  1.00  0.00     0.036 C 
HETATM   40  C19 UNL     1       2.133   4.881   1.633  1.00  0.00     0.038 C 
HETATM   41  C20 UNL     1       0.761   6.687   0.724  1.00  0.00     0.038 C 
HETATM   42  C21 UNL     1       2.057   5.266  -0.784  1.00  0.00     0.038 C 
ENDBRANCH  37  39
ENDBRANCH   7  37
TORSDOF 11
