REMARK  7 active torsions:
REMARK  status: ('A' for Active; 'I' for Inactive)
REMARK    1  A    between atoms: S1_2  and  C2_3 
REMARK    2  A    between atoms: C4_10  and  N3_11 
REMARK    3  A    between atoms: N3_11  and  N4_13 
REMARK    4  A    between atoms: C5_18  and  O4_20 
REMARK    5  A    between atoms: C7_22  and  O5_23 
REMARK    6  A    between atoms: C7_22  and  N6_25 
REMARK       I    between atoms: N6_25  and  C8_27 
REMARK    7  A    between atoms: C8_27  and  C9_29 
ROOT
HETATM    1  C2  UNL     1      -1.218   1.690   0.043  1.00  0.00     0.128 C 
HETATM    2  N1  UNL     1      -0.253   2.471   0.435  1.00  0.00    -0.256 N 
ATOM      3  H1  UNL     1      -0.225   3.478   0.275  1.00  0.00     0.195 HD
HETATM    4  O1  UNL     1       0.737   1.750   1.102  1.00  0.00    -0.235 OA
HETATM    5  C3  UNL     1       0.624   0.439   0.581  1.00  0.00     0.270 C 
HETATM    6  N2  UNL     1       1.356   0.307  -0.621  1.00  0.00    -0.319 N 
ATOM      7  H2  UNL     1       1.006   0.518  -1.555  1.00  0.00     0.166 HD
HETATM    8  C4  UNL     1       2.564  -0.133  -0.337  1.00  0.00     0.200 C 
HETATM    9  N5  UNL     1       2.680  -0.310   1.078  1.00  0.00    -0.325 N 
ATOM     10  H5  UNL     1       3.516  -0.265   1.660  1.00  0.00     0.165 HD
HETATM   11  C5  UNL     1       1.282  -0.574   1.484  1.00  0.00     0.189 C 
HETATM   12  C6  UNL     1       0.991  -1.975   0.992  1.00  0.00     0.076 C 
HETATM   13  C7  UNL     1      -0.857   0.319   0.461  1.00  0.00     0.245 C 
ENDROOT
BRANCH  11  14
HETATM   14  O4  UNL     1       1.078  -0.368   2.814  1.00  0.00    -0.366 OA
ATOM     15  H4  UNL     1       1.492  -1.006   3.383  1.00  0.00     0.212 HD
ENDBRANCH  11  14
BRANCH  13  16
HETATM   16  O5  UNL     1      -1.338   0.182   1.780  1.00  0.00    -0.361 OA
ATOM     17  H5  UNL     1      -1.106  -0.699   2.049  1.00  0.00     0.213 HD
ENDBRANCH  13  16
BRANCH  13  18
HETATM   18  N6  UNL     1      -1.366  -0.659  -0.409  1.00  0.00    -0.319 N 
HETATM   19  C8  UNL     1      -2.723  -0.980  -0.576  1.00  0.00     0.230 C 
HETATM   20  O6  UNL     1      -3.611  -0.401   0.067  1.00  0.00    -0.273 OA
ATOM     21  H6  UNL     1      -0.692  -1.181  -0.968  1.00  0.00     0.166 HD
BRANCH  19  22
HETATM   22  C9  UNL     1      -3.148  -2.049  -1.552  1.00  0.00     0.188 C 
HETATM   23  S2  UNL     1      -2.768  -3.687  -0.915  1.00  0.00    -0.088 SA
ENDBRANCH  19  22
ENDBRANCH  13  18
BRANCH   8  24
HETATM   24  N3  UNL     1       3.613  -0.395  -1.266  1.00  0.00    -0.211 N 
ATOM     25  H3  UNL     1       3.488  -1.121  -1.971  1.00  0.00     0.196 HD
BRANCH  24  26
HETATM   26  N4  UNL     1       4.791   0.314  -1.229  1.00  0.00    -0.036 N 
HETATM   27  O2  UNL     1       5.051   1.144  -2.107  1.00  0.00    -0.516 OA
HETATM   28  O3  UNL     1       5.664   0.076  -0.193  1.00  0.00    -0.516 OA
ENDBRANCH  24  26
ENDBRANCH   8  24
BRANCH   1  29
HETATM   29  S1  UNL     1      -2.624   2.337  -0.837  1.00  0.00    -0.114 SA
HETATM   30  C1  UNL     1      -2.539   4.170  -0.909  1.00  0.00     0.097 C 
ENDBRANCH   1  29
TORSDOF 7
