REMARK  7 active torsions:
REMARK  status: ('A' for Active; 'I' for Inactive)
REMARK    1  A    between atoms: C2_2  and  O1_3 
REMARK    2  A    between atoms: O1_3  and  C3_4 
REMARK       I    between atoms: C3_4  and  N1_6 
REMARK    3  A    between atoms: N1_6  and  C4_8 
REMARK    4  A    between atoms: C4_8  and  C5_9 
REMARK    5  A    between atoms: C6_14  and  C7_15 
REMARK       I    between atoms: C7_15  and  N4_17 
REMARK    6  A    between atoms: N5_20  and  N6_21 
REMARK    7  A    between atoms: N9_29  and  O4_30 
ROOT
HETATM    1  C4  UNL     1      -0.558  -1.530  -0.612  1.00  0.00     0.207 C 
HETATM    2  C9  UNL     1      -0.173  -2.695  -1.552  1.00  0.00     0.155 C 
HETATM    3  S1  UNL     1      -1.673  -3.736  -1.616  1.00  0.00    -0.035 SA
HETATM    4  N7  UNL     1      -2.552  -3.675  -0.102  1.00  0.00    -0.053 NA
HETATM    5  N8  UNL     1      -2.274  -2.554   0.640  1.00  0.00    -0.229 N 
ATOM      6  H8  UNL     1      -2.993  -2.061   1.169  1.00  0.00     0.201 HD
HETATM    7  N9  UNL     1      -0.958  -2.137   0.624  1.00  0.00    -0.056 NA
ENDROOT
BRANCH   1   8
HETATM    8  N1  UNL     1      -1.614  -0.808  -1.280  1.00  0.00    -0.304 N 
HETATM    9  C3  UNL     1      -2.269   0.314  -0.717  1.00  0.00     0.362 C 
HETATM   10  O2  UNL     1      -1.912   0.697   0.422  1.00  0.00    -0.238 OA
ATOM     11  H1  UNL     1      -1.904  -1.122  -2.206  1.00  0.00     0.167 HD
BRANCH   9  12
HETATM   12  O1  UNL     1      -3.279   1.033  -1.318  1.00  0.00    -0.304 OA
BRANCH  12  13
HETATM   13  C2  UNL     1      -3.894   2.146  -0.686  1.00  0.00     0.176 C 
HETATM   14  C1  UNL     1      -2.950   3.252  -0.347  1.00  0.00     0.034 C 
ENDBRANCH  12  13
ENDBRANCH   9  12
ENDBRANCH   1   8
BRANCH   1  15
HETATM   15  C5  UNL     1       0.655  -0.675  -0.524  1.00  0.00     0.168 A 
HETATM   16  N2  UNL     1       1.245  -0.214  -1.653  1.00  0.00    -0.282 N 
HETATM   17  N3  UNL     1       2.278   0.506  -1.313  1.00  0.00    -0.278 N 
ATOM     18  H2  UNL     1       0.934  -0.399  -2.607  1.00  0.00     0.188 HD
HETATM   19  C6  UNL     1       2.353   0.512   0.028  1.00  0.00     0.212 A 
ATOM     20  H3  UNL     1       2.916   0.980  -1.952  1.00  0.00     0.189 HD
HETATM   21  N5  UNL     1       1.346  -0.222   0.525  1.00  0.00    -0.222 N 
BRANCH  19  22
HETATM   22  C7  UNL     1       3.364   1.199   0.842  1.00  0.00     0.288 C 
HETATM   23  O3  UNL     1       3.296   1.120   2.082  1.00  0.00    -0.264 OA
HETATM   24  N4  UNL     1       4.383   1.926   0.207  1.00  0.00    -0.359 N 
HETATM   25  C8  UNL     1       5.407   2.621   0.956  1.00  0.00     0.149 C 
ATOM     26  H4  UNL     1       4.402   1.965  -0.812  1.00  0.00     0.162 HD
ENDBRANCH  19  22
BRANCH  21  27
HETATM   27  N6  UNL     1       1.045  -0.490   1.869  1.00  0.00    -0.335 N 
ATOM     28  H62 UNL     1       0.279  -1.048   2.247  1.00  0.00     0.177 HD
ATOM     29  H61 UNL     1       1.573  -0.144   2.670  1.00  0.00     0.177 HD
ENDBRANCH  21  27
ENDBRANCH   1  15
BRANCH   7  30
HETATM   30  O4  UNL     1      -0.155  -3.138   1.008  1.00  0.00    -0.290 OA
ATOM     31  H4  UNL     1      -0.420  -3.540   1.827  1.00  0.00     0.239 HD
ENDBRANCH   7  30
TORSDOF 7
