REMARK  7 active torsions:
REMARK  status: ('A' for Active; 'I' for Inactive)
REMARK    1  A    between atoms: O1_2  and  C2_3 
REMARK    2  A    between atoms: C2_3  and  C3_5 
REMARK    3  A    between atoms: C4_6  and  C5_7 
REMARK       I    between atoms: C5_7  and  N1_9 
REMARK    4  A    between atoms: N1_9  and  N2_11 
REMARK    5  A    between atoms: N3_14  and  C6_15 
REMARK    6  A    between atoms: N7_25  and  N8_26 
REMARK    7  A    between atoms: N9_32  and  N10_34 
ROOT
HETATM    1  C3  UNL     1       1.207  -0.897   0.281  1.00  0.00     0.122 A 
HETATM    2  C4  UNL     1       0.927   0.192  -0.515  1.00  0.00     0.150 A 
HETATM    3  N3  UNL     1      -0.362   0.108  -0.996  1.00  0.00    -0.205 N 
HETATM    4  N7  UNL     1      -0.876  -0.977  -0.526  1.00  0.00    -0.168 N 
HETATM    5  C11 UNL     1       0.037  -1.654   0.276  1.00  0.00     0.179 A 
HETATM    6  N9  UNL     1      -0.234  -2.731   0.846  1.00  0.00    -0.288 N 
ATOM      7  H9  UNL     1      -1.194  -2.976   0.604  1.00  0.00     0.188 HD
ENDROOT
BRANCH   3   8
HETATM    8  C6  UNL     1      -0.973   1.085  -1.865  1.00  0.00     0.197 A 
HETATM    9  N4  UNL     1      -1.206   0.901  -3.178  1.00  0.00    -0.220 N 
HETATM   10  O4  UNL     1      -1.772   1.995  -3.648  1.00  0.00    -0.153 OA
ATOM     11  H4  UNL     1      -0.984   0.063  -3.715  1.00  0.00     0.198 HD
HETATM   12  N5  UNL     1      -1.910   2.861  -2.706  1.00  0.00    -0.222 N 
HETATM   13  C7  UNL     1      -1.424   2.341  -1.560  1.00  0.00     0.169 A 
ATOM     14  H5  UNL     1      -2.320   3.789  -2.809  1.00  0.00     0.198 HD
HETATM   15  N6  UNL     1      -1.366   2.869  -0.387  1.00  0.00    -0.381 N 
ATOM     16  H62 UNL     1      -0.999   2.476   0.479  1.00  0.00     0.157 HD
ATOM     17  H61 UNL     1      -1.702   3.805  -0.160  1.00  0.00     0.157 HD
ENDBRANCH   3   8
BRANCH   2  18
HETATM   18  C5  UNL     1       1.738   1.366  -0.771  1.00  0.00     0.289 C 
HETATM   19  O3  UNL     1       1.789   1.781  -1.985  1.00  0.00    -0.264 OA
HETATM   20  N1  UNL     1       2.436   2.039   0.246  1.00  0.00    -0.271 N 
ATOM     21  H1  UNL     1       2.376   1.705   1.208  1.00  0.00     0.189 HD
BRANCH  20  22
HETATM   22  N2  UNL     1       3.224   3.181  -0.055  1.00  0.00    -0.342 N 
ATOM     23  H22 UNL     1       3.273   3.502  -1.022  1.00  0.00     0.176 HD
ATOM     24  H21 UNL     1       3.731   3.670   0.683  1.00  0.00     0.176 HD
ENDBRANCH  20  22
ENDBRANCH   2  18
BRANCH   4  25
HETATM   25  N8  UNL     1      -2.170  -1.437  -0.770  1.00  0.00    -0.286 N 
HETATM   26  C8  UNL     1      -3.164  -1.235  -0.011  1.00  0.00    -0.002 C 
HETATM   27  C9  UNL     1      -3.040  -0.463   1.251  1.00  0.00     0.064 C 
HETATM   28  C10 UNL     1      -4.504  -1.768  -0.360  1.00  0.00     0.064 C 
ATOM     29  H8  UNL     1      -2.327  -1.975  -1.622  1.00  0.00     0.188 HD
ENDBRANCH   4  25
BRANCH   1  30
HETATM   30  C2  UNL     1       2.478  -1.266   0.893  1.00  0.00     0.299 C 
HETATM   31  O2  UNL     1       2.607  -2.252   1.650  1.00  0.00    -0.259 OA
BRANCH  30  32
HETATM   32  O1  UNL     1       3.660  -0.557   0.680  1.00  0.00    -0.322 OA
HETATM   33  C1  UNL     1       4.888  -0.922   1.269  1.00  0.00     0.213 C 
ENDBRANCH  30  32
ENDBRANCH   1  30
BRANCH   6  34
HETATM   34  N10 UNL     1       0.230  -3.674   1.635  1.00  0.00    -0.344 N 
ATOM     35 2H10 UNL     1       1.187  -3.403   1.859  1.00  0.00     0.176 HD
ATOM     36 1H10 UNL     1       0.009  -4.554   2.101  1.00  0.00     0.176 HD
ENDBRANCH   6  34
TORSDOF 7
