REMARK  6 active torsions:
REMARK  status: ('A' for Active; 'I' for Inactive)
REMARK       I    between atoms: N1_2  and  C3_4 
REMARK       I    between atoms: C3_4  and  N7_14 
REMARK    1  A    between atoms: N2_5  and  C4_7 
REMARK    2  A    between atoms: N7_14  and  N8_16 
REMARK    3  A    between atoms: C5_18  and  C6_19 
REMARK    4  A    between atoms: N11_24  and  C7_25 
REMARK    5  A    between atoms: C8_31  and  N14_32 
REMARK    6  A    between atoms: C9_35  and  O2_36 
ROOT
HETATM    1  C6  UNL     1       1.708   0.149  -0.238  1.00  0.00     0.119 A 
HETATM    2  N9  UNL     1       2.427   0.043  -1.367  1.00  0.00    -0.280 N 
ATOM      3  H9  UNL     1       2.059   0.035  -2.318  1.00  0.00     0.188 HD
HETATM    4  N10 UNL     1       3.680  -0.047  -1.024  1.00  0.00    -0.232 N 
ATOM      5  H10 UNL     1       4.454  -0.139  -1.682  1.00  0.00     0.209 HD
HETATM    6  N11 UNL     1       3.817  -0.004   0.289  1.00  0.00    -0.195 N 
HETATM    7  C9  UNL     1       2.599   0.118   0.807  1.00  0.00     0.195 A 
ENDROOT
BRANCH   1   8
HETATM    8  C5  UNL     1       0.263   0.274  -0.103  1.00  0.00     0.143 C 
HETATM    9  N8  UNL     1      -0.249   0.364   1.059  1.00  0.00    -0.295 N 
ATOM     10  H8  UNL     1       0.384   0.345   1.859  1.00  0.00     0.186 HD
BRANCH   9  11
HETATM   11  N7  UNL     1      -1.611   0.487   1.314  1.00  0.00    -0.132 N 
HETATM   12  C3  UNL     1      -2.573   0.267   0.272  1.00  0.00     0.708 C 
HETATM   13  N1  UNL     1      -3.141  -1.019   0.160  1.00  0.00    -0.225 N 
HETATM   14  N2  UNL     1      -2.841   1.264  -0.480  1.00  0.00    -0.019 N 
HETATM   15  C1  UNL     1      -4.344  -1.340   0.877  1.00  0.00     0.168 C 
HETATM   16  C2  UNL     1      -2.521  -2.016  -0.671  1.00  0.00     0.168 C 
ATOM     17  H2  UNL     1      -2.363   2.147  -0.299  1.00  0.00     0.203 HD
ATOM     18  H7  UNL     1      -1.929   0.736   2.251  1.00  0.00     0.205 HD
BRANCH  14  19
HETATM   19  C4  UNL     1      -3.769   1.211  -1.556  1.00  0.00     0.722 A 
HETATM   20  N3  UNL     1      -4.068   2.245  -2.361  1.00  0.00    -0.116 N 
HETATM   21  N4  UNL     1      -4.966   1.879  -3.265  1.00  0.00     0.006 NA
ATOM     22  H3  UNL     1      -3.662   3.178  -2.287  1.00  0.00     0.202 HD
HETATM   23  N5  UNL     1      -5.229   0.591  -3.015  1.00  0.00     0.006 NA
HETATM   24  N6  UNL     1      -4.512   0.176  -1.984  1.00  0.00    -0.116 N 
ATOM     25  H6  UNL     1      -4.521  -0.763  -1.585  1.00  0.00     0.202 HD
ENDBRANCH  14  19
ENDBRANCH   9  11
ENDBRANCH   1   8
BRANCH   7  26
HETATM   26  O2  UNL     1       2.300   0.199   2.179  1.00  0.00    -0.343 OA
ATOM     27  H2  UNL     1       2.916   0.178   2.902  1.00  0.00     0.219 HD
ENDBRANCH   7  26
BRANCH   6  28
HETATM   28  C7  UNL     1       5.028  -0.075   1.015  1.00  0.00     0.198 A 
HETATM   29  N12 UNL     1       5.392  -0.903   2.007  1.00  0.00    -0.220 N 
HETATM   30  O1  UNL     1       6.612  -0.615   2.394  1.00  0.00    -0.153 OA
ATOM     31  H12 UNL     1       4.809  -1.643   2.400  1.00  0.00     0.198 HD
HETATM   32  N13 UNL     1       7.084   0.371   1.705  1.00  0.00    -0.222 N 
HETATM   33  C8  UNL     1       6.136   0.755   0.821  1.00  0.00     0.169 A 
ATOM     34  H13 UNL     1       8.010   0.787   1.810  1.00  0.00     0.198 HD
BRANCH  33  35
HETATM   35  N14 UNL     1       6.261   1.716  -0.032  1.00  0.00    -0.381 N 
ATOM     36 2H14 UNL     1       5.546   2.006  -0.699  1.00  0.00     0.157 HD
ATOM     37 1H14 UNL     1       7.069   2.322  -0.174  1.00  0.00     0.157 HD
ENDBRANCH  33  35
ENDBRANCH   6  28
TORSDOF 6
