REMARK  11 active torsions:
REMARK  status: ('A' for Active; 'I' for Inactive)
REMARK    1  A    between atoms: N1_2  and  C2_4 
REMARK    2  A    between atoms: C2_4  and  N2_6 
REMARK    3  A    between atoms: N2_6  and  C3_8 
REMARK    4  A    between atoms: C3_8  and  C4_9 
REMARK    5  A    between atoms: C3_8  and  C5_14 
REMARK    6  A    between atoms: C4_9  and  O1_10 
REMARK    7  A    between atoms: C4_9  and  O2_12 
REMARK    8  A    between atoms: C6_20  and  C7_21 
REMARK    9  A    between atoms: C7_21  and  O4_26 
REMARK   10  A    between atoms: N6_22  and  O3_24 
REMARK   11  A    between atoms: O4_26  and  C9_27 
ROOT
HETATM    1  C9  UNL     1      -3.929   1.453  -1.564  1.00  0.00     0.371 C 
HETATM    2  O5  UNL     1      -4.315   1.954  -0.477  1.00  0.00    -0.247 OA
HETATM    3  C10 UNL     1      -4.581   1.880  -2.766  1.00  0.00     0.170 C 
HETATM    4  N7  UNL     1      -5.108   2.212  -3.754  1.00  0.00    -0.186 NA
ENDROOT
BRANCH   1   5
HETATM    5  O4  UNL     1      -2.900   0.523  -1.535  1.00  0.00    -0.250 OA
BRANCH   5   6
HETATM    6  C7  UNL     1      -2.316   0.159  -0.321  1.00  0.00     0.171 C 
HETATM    7  N6  UNL     1      -2.766   0.713   0.731  1.00  0.00    -0.247 N 
ATOM      8  H6  UNL     1      -3.523   1.387   0.618  1.00  0.00     0.196 HD
BRANCH   6   9
HETATM    9  C6  UNL     1      -1.219  -0.845  -0.383  1.00  0.00     0.204 C 
HETATM   10  C5  UNL     1      -0.139  -0.297  -1.270  1.00  0.00     0.157 C 
HETATM   11  N3  UNL     1      -0.296  -1.020  -2.488  1.00  0.00    -0.316 N 
HETATM   12  N4  UNL     1      -1.161  -1.926  -2.402  1.00  0.00    -0.250 N 
ATOM     13  H3  UNL     1       0.236  -0.823  -3.336  1.00  0.00     0.181 HD
HETATM   14  N5  UNL     1      -1.724  -1.965  -1.125  1.00  0.00    -0.110 NA
ATOM     15  H4  UNL     1      -1.419  -2.552  -3.165  1.00  0.00     0.203 HD
BRANCH  10  16
HETATM   16  C3  UNL     1       1.247  -0.376  -0.664  1.00  0.00     0.165 C 
BRANCH  16  17
HETATM   17  N2  UNL     1       1.335   0.367   0.556  1.00  0.00    -0.356 N 
ATOM     18  H2  UNL     1       0.463   0.513   1.064  1.00  0.00     0.162 HD
BRANCH  17  19
HETATM   19  C2  UNL     1       2.488   0.914   1.125  1.00  0.00     0.167 C 
HETATM   20  S1  UNL     1       2.429   1.726   2.562  1.00  0.00    -0.041 SA
BRANCH  19  21
HETATM   21  N1  UNL     1       3.748   0.810   0.522  1.00  0.00    -0.372 N 
HETATM   22  C1  UNL     1       4.968   1.360   1.095  1.00  0.00     0.148 C 
ATOM     23  H1  UNL     1       3.815   0.320  -0.370  1.00  0.00     0.161 HD
ENDBRANCH  19  21
ENDBRANCH  17  19
ENDBRANCH  16  17
BRANCH  16  24
HETATM   24  C4  UNL     1       1.792  -1.752  -0.542  1.00  0.00     0.278 C 
BRANCH  24  25
HETATM   25  O1  UNL     1       1.704  -2.442  -1.764  1.00  0.00    -0.369 OA
ATOM     26  H1  UNL     1       2.053  -3.322  -1.686  1.00  0.00     0.212 HD
ENDBRANCH  24  25
BRANCH  24  27
HETATM   27  O2  UNL     1       1.177  -2.493   0.471  1.00  0.00    -0.369 OA
ATOM     28  H2  UNL     1       1.526  -3.373   0.549  1.00  0.00     0.212 HD
ENDBRANCH  24  27
ENDBRANCH  16  24
ENDBRANCH  10  16
ENDBRANCH   6   9
BRANCH   7  29
HETATM   29  O3  UNL     1      -2.317   0.479   2.005  1.00  0.00    -0.283 OA
HETATM   30  C8  UNL     1      -3.158   0.484   3.139  1.00  0.00     0.237 C 
ENDBRANCH   7  29
ENDBRANCH   5   6
ENDBRANCH   1   5
TORSDOF 11
