REMARK  9 active torsions:
REMARK  status: ('A' for Active; 'I' for Inactive)
REMARK    1  A    between atoms: C2_2  and  C3_3 
REMARK    2  A    between atoms: C3_3  and  C4_4 
REMARK    3  A    between atoms: C4_4  and  C5_5 
REMARK    4  A    between atoms: C4_4  and  N3_12 
REMARK    5  A    between atoms: N3_12  and  C8_13 
REMARK       I    between atoms: N3_12  and  C20_28 
REMARK    6  A    between atoms: C8_13  and  C9_14 
REMARK    7  A    between atoms: C20_28  and  C21_30 
REMARK    8  A    between atoms: C21_30  and  C22_31 
REMARK    9  A    between atoms: C22_31  and  N5_32 
ROOT
HETATM    1  N3  UNL     1      -0.958  -1.489   0.311  1.00  0.00    -0.337 N 
HETATM    2  C20 UNL     1      -1.700  -0.721  -0.657  1.00  0.00     0.222 C 
HETATM    3  O2  UNL     1      -1.990  -1.294  -1.732  1.00  0.00    -0.273 OA
ENDROOT
BRANCH   1   4
HETATM    4  C4  UNL     1      -0.627  -2.844  -0.038  1.00  0.00     0.139 C 
BRANCH   4   5
HETATM    5  C3  UNL     1      -1.887  -3.702   0.065  1.00  0.00     0.031 C 
BRANCH   5   6
HETATM    6  C2  UNL     1      -1.617  -5.169   0.040  1.00  0.00    -0.002 C 
HETATM    7  C1  UNL     1      -2.984  -5.865   0.160  1.00  0.00     0.005 C 
ENDBRANCH   5   6
ENDBRANCH   4   5
BRANCH   4   8
HETATM    8  C5  UNL     1       0.109  -3.057  -1.280  1.00  0.00     0.050 A 
HETATM    9  C6  UNL     1       1.361  -2.641  -1.674  1.00  0.00     0.047 A 
HETATM   10  C7  UNL     1       1.621  -3.064  -2.955  1.00  0.00     0.109 A 
HETATM   11  N1  UNL     1       0.525  -3.732  -3.324  1.00  0.00    -0.312 N 
HETATM   12  N2  UNL     1      -0.375  -3.747  -2.372  1.00  0.00    -0.303 N 
ATOM     13  H1  UNL     1       0.404  -4.176  -4.234  1.00  0.00     0.186 HD
ATOM     14  H2  UNL     1      -1.288  -4.197  -2.429  1.00  0.00     0.186 HD
ENDBRANCH   4   8
ENDBRANCH   1   4
BRANCH   1  15
HETATM   15  C8  UNL     1      -0.682  -0.940   1.586  1.00  0.00     0.171 C 
BRANCH  15  16
HETATM   16  C9  UNL     1       0.507  -0.134   1.805  1.00  0.00     0.029 A 
HETATM   17  C10 UNL     1       1.443   0.266   0.895  1.00  0.00     0.028 A 
HETATM   18  C11 UNL     1       2.502   1.064   1.304  1.00  0.00    -0.008 A 
HETATM   19  C12 UNL     1       3.456   1.466   0.364  1.00  0.00     0.021 A 
HETATM   20  C18 UNL     1       2.663   1.483   2.607  1.00  0.00     0.045 A 
HETATM   21  C13 UNL     1       4.522   2.257   0.724  1.00  0.00    -0.055 A 
HETATM   22  C14 UNL     1       5.526   2.679  -0.273  1.00  0.00     0.049 C 
HETATM   23  C15 UNL     1       4.645   2.655   2.042  1.00  0.00    -0.054 A 
HETATM   24  C16 UNL     1       5.811   3.506   2.388  1.00  0.00     0.049 C 
HETATM   25  C17 UNL     1       3.737   2.287   3.006  1.00  0.00     0.037 A 
HETATM   26  N4  UNL     1       1.736   1.081   3.481  1.00  0.00    -0.322 N 
HETATM   27  C19 UNL     1       0.703   0.313   3.122  1.00  0.00     0.253 A 
ATOM     28  H4  UNL     1       1.820   1.370   4.456  1.00  0.00     0.169 HD
HETATM   29  O1  UNL     1      -0.119  -0.014   4.018  1.00  0.00    -0.268 OA
ENDBRANCH  15  16
ENDBRANCH   1  15
BRANCH   2  30
HETATM   30  C21 UNL     1      -2.113   0.689  -0.412  1.00  0.00     0.131 C 
BRANCH  30  31
HETATM   31  C22 UNL     1      -2.860   1.181  -1.619  1.00  0.00     0.245 C 
BRANCH  31  32
HETATM   32  N5  UNL     1      -3.300   2.557  -1.460  1.00  0.00    -0.078 N 
HETATM   33  C23 UNL     1      -4.075   2.915  -2.616  1.00  0.00     0.271 C 
HETATM   34  C24 UNL     1      -4.067   2.704  -0.231  1.00  0.00     0.271 C 
HETATM   35  C25 UNL     1      -2.101   3.378  -1.414  1.00  0.00     0.271 C 
ENDBRANCH  31  32
ENDBRANCH  30  31
ENDBRANCH   2  30
TORSDOF 9
