REMARK  12 active torsions:
REMARK  status: ('A' for Active; 'I' for Inactive)
REMARK    1  A    between atoms: C2_2  and  O1_3 
REMARK    2  A    between atoms: O1_3  and  C3_4 
REMARK    3  A    between atoms: C3_4  and  C4_5 
REMARK    4  A    between atoms: C4_5  and  N1_6 
REMARK    5  A    between atoms: N1_6  and  C5_7 
REMARK    6  A    between atoms: C11_15  and  C12_16 
REMARK    7  A    between atoms: C13_17  and  C14_18 
REMARK    8  A    between atoms: C17_21  and  C18_22 
REMARK    9  A    between atoms: C18_22  and  C19_23 
REMARK   10  A    between atoms: C18_22  and  N3_26 
REMARK   11  A    between atoms: C19_23  and  C20_24 
REMARK       I    between atoms: N3_26  and  C22_27 
REMARK   12  A    between atoms: C22_27  and  C23_29 
ROOT
HETATM    1  C5  UNL     1       5.556  -0.900   1.189  1.00  0.00     0.114 A 
HETATM    2  C6  UNL     1       6.847  -1.160   1.730  1.00  0.00     0.062 A 
HETATM    3  C7  UNL     1       7.075  -2.220   2.549  1.00  0.00     0.091 A 
HETATM    4  N2  UNL     1       6.106  -3.074   2.891  1.00  0.00    -0.365 N 
ATOM      5  H2  UNL     1       6.301  -3.863   3.507  1.00  0.00     0.165 HD
HETATM    6  C8  UNL     1       4.883  -2.873   2.411  1.00  0.00     0.045 A 
HETATM    7  C9  UNL     1       3.886  -3.755   2.769  1.00  0.00     0.032 A 
HETATM    8  C10 UNL     1       2.606  -3.578   2.292  1.00  0.00     0.023 A 
HETATM    9  C11 UNL     1       2.267  -2.540   1.459  1.00  0.00     0.019 A 
HETATM   10  C27 UNL     1       3.291  -1.662   1.110  1.00  0.00     0.037 A 
HETATM   11  C28 UNL     1       4.577  -1.824   1.578  1.00  0.00     0.032 A 
ENDROOT
BRANCH   9  12
HETATM   12  C12 UNL     1       0.966  -2.269   0.938  1.00  0.00    -0.061 C 
HETATM   13  C13 UNL     1      -0.123  -1.992   0.506  1.00  0.00    -0.061 C 
BRANCH  13  14
HETATM   14  C14 UNL     1      -1.424  -1.584  -0.005  1.00  0.00     0.018 A 
HETATM   15  C15 UNL     1      -2.556  -1.595   0.761  1.00  0.00     0.021 A 
HETATM   16  C16 UNL     1      -3.776  -1.101   0.249  1.00  0.00     0.012 A 
HETATM   17  C17 UNL     1      -3.834  -0.610  -1.022  1.00  0.00    -0.023 A 
HETATM   18  C25 UNL     1      -2.696  -0.598  -1.811  1.00  0.00     0.012 A 
HETATM   19  C26 UNL     1      -1.515  -1.078  -1.306  1.00  0.00     0.021 A 
BRANCH  17  20
HETATM   20  C18 UNL     1      -5.067   0.000  -1.542  1.00  0.00     0.200 C 
BRANCH  20  21
HETATM   21  C19 UNL     1      -6.304  -0.203  -0.755  1.00  0.00     0.044 C 
BRANCH  21  22
HETATM   22  C20 UNL     1      -6.775  -1.623  -0.641  1.00  0.00    -0.001 C 
HETATM   23  C21 UNL     1      -7.995  -1.748   0.246  1.00  0.00     0.005 C 
ENDBRANCH  21  22
ENDBRANCH  20  21
BRANCH  20  24
HETATM   24  N3  UNL     1      -4.876   1.415  -1.814  1.00  0.00    -0.405 NA
HETATM   25  C22 UNL     1      -4.708   2.659  -2.052  1.00  0.00     0.286 C 
HETATM   26  O2  UNL     1      -4.374   3.260  -3.135  1.00  0.00    -0.258 OA
BRANCH  25  27
HETATM   27  C23 UNL     1      -4.889   3.747  -0.945  1.00  0.00     0.114 C 
HETATM   28  C24 UNL     1      -4.699   5.098  -1.514  1.00  0.00     0.016 C 
ENDBRANCH  25  27
ENDBRANCH  20  24
ENDBRANCH  17  20
ENDBRANCH  13  14
ENDBRANCH   9  12
BRANCH   1  29
HETATM   29  N1  UNL     1       5.391   0.040   0.481  1.00  0.00    -0.445 NA
BRANCH  29  30
HETATM   30  C4  UNL     1       4.918   1.002  -0.329  1.00  0.00     0.245 C 
BRANCH  30  31
HETATM   31  C3  UNL     1       5.052   2.439   0.251  1.00  0.00     0.207 C 
BRANCH  31  32
HETATM   32  O1  UNL     1       6.415   2.695   0.484  1.00  0.00    -0.361 OA
BRANCH  32  33
HETATM   33  C2  UNL     1       7.379   2.673  -0.525  1.00  0.00     0.124 C 
HETATM   34  C1  UNL     1       8.641   2.785  -0.292  1.00  0.00     0.037 C 
ENDBRANCH  32  33
ENDBRANCH  31  32
ENDBRANCH  30  31
ENDBRANCH  29  30
ENDBRANCH   1  29
TORSDOF 12
