REMARK  8 active torsions:
REMARK  status: ('A' for Active; 'I' for Inactive)
REMARK    1  A    between atoms: C2_2  and  C3_3 
REMARK    2  A    between atoms: C3_3  and  C4_4 
REMARK    3  A    between atoms: C4_4  and  N1_5 
REMARK    4  A    between atoms: C4_4  and  C22_25 
REMARK       I    between atoms: N1_5  and  C5_6 
REMARK    5  A    between atoms: C5_6  and  C6_8 
REMARK    6  A    between atoms: C7_10  and  C8_11 
REMARK    7  A    between atoms: C22_25  and  C23_26 
REMARK    8  A    between atoms: C22_25  and  C24_29 
ROOT
HETATM    1  C6  UNL     1       0.573   0.931   0.332  1.00  0.00     0.203 C 
HETATM    2  N2  UNL     1       1.923   0.673   0.637  1.00  0.00    -0.354 N 
HETATM    3  C7  UNL     1       2.605  -0.098  -0.208  1.00  0.00     0.103 C 
HETATM    4  C17 UNL     1       2.339   1.513   1.663  1.00  0.00     0.065 C 
HETATM    5  C18 UNL     1       1.777   2.828   1.198  1.00  0.00     0.056 C 
HETATM    6  C19 UNL     1       0.316   2.327   0.852  1.00  0.00    -0.013 C 
HETATM    7  C20 UNL     1      -0.163   3.252  -0.223  1.00  0.00     0.018 C 
HETATM    8  C21 UNL     1      -0.432   2.308   2.099  1.00  0.00     0.018 C 
ENDROOT
BRANCH   1   9
HETATM    9  C5  UNL     1      -0.484  -0.134   0.749  1.00  0.00     0.311 C 
HETATM   10  N1  UNL     1      -1.728   0.076   0.368  1.00  0.00    -0.407 NA
HETATM   11  O1  UNL     1      -0.167  -1.141   1.321  1.00  0.00    -0.255 OA
BRANCH  10  12
HETATM   12  C4  UNL     1      -3.042   0.165   0.040  1.00  0.00     0.179 C 
BRANCH  12  13
HETATM   13  C3  UNL     1      -2.954   0.197  -1.583  1.00  0.00     0.040 C 
BRANCH  13  14
HETATM   14  C2  UNL     1      -2.407  -1.167  -1.940  1.00  0.00    -0.002 C 
HETATM   15  C1  UNL     1      -2.584  -1.438  -3.437  1.00  0.00     0.005 C 
ENDBRANCH  13  14
ENDBRANCH  12  13
BRANCH  12  16
HETATM   16  C22 UNL     1      -4.142  -0.729   0.298  1.00  0.00     0.114 C 
BRANCH  16  17
HETATM   17  C23 UNL     1      -4.218  -0.954   1.852  1.00  0.00     0.238 C 
HETATM   18  N3  UNL     1      -4.866  -2.149   2.224  1.00  0.00    -0.062 NA
HETATM   19  O2  UNL     1      -3.770  -0.161   2.601  1.00  0.00    -0.276 OA
ENDBRANCH  16  17
BRANCH  16  20
HETATM   20  C24 UNL     1      -5.462  -0.134  -0.112  1.00  0.00    -0.007 C 
HETATM   21  C25 UNL     1      -6.067   0.920   0.712  1.00  0.00     0.010 C 
HETATM   22  C26 UNL     1      -6.455  -1.133  -0.663  1.00  0.00     0.010 C 
ENDBRANCH  16  20
ENDBRANCH  12  16
ENDBRANCH  10  12
ENDBRANCH   1   9
BRANCH   3  23
HETATM   23  C8  UNL     1       4.031  -0.387  -0.146  1.00  0.00    -0.009 A 
HETATM   24  C9  UNL     1       4.247  -1.888  -0.244  1.00  0.00    -0.049 A 
HETATM   25  C10 UNL     1       3.063  -2.691  -0.201  1.00  0.00     0.049 C 
HETATM   26  C11 UNL     1       5.511  -2.276  -0.268  1.00  0.00     0.014 A 
HETATM   27  C12 UNL     1       6.625  -1.494  -0.266  1.00  0.00    -0.061 A 
HETATM   28  C13 UNL     1       8.008  -2.103  -0.442  1.00  0.00     0.048 C 
HETATM   29  C14 UNL     1       6.416  -0.176  -0.262  1.00  0.00     0.014 A 
HETATM   30  C15 UNL     1       5.132   0.336  -0.190  1.00  0.00    -0.049 A 
HETATM   31  C16 UNL     1       5.073   1.849  -0.438  1.00  0.00     0.049 C 
ENDBRANCH   3  23
TORSDOF 8
