REMARK  10 active torsions:
REMARK  status: ('A' for Active; 'I' for Inactive)
REMARK    1  A    between atoms: C4_4  and  C5_5 
REMARK    2  A    between atoms: C5_5  and  N1_6 
REMARK    3  A    between atoms: N1_6  and  C6_9 
REMARK    4  A    between atoms: C12_15  and  O1_16 
REMARK    5  A    between atoms: O1_16  and  C13_17 
REMARK    6  A    between atoms: C13_17  and  C14_18 
REMARK    7  A    between atoms: C14_18  and  N2_19 
REMARK    8  A    between atoms: N2_19  and  C16_21 
REMARK    9  A    between atoms: C16_21  and  C17_22 
REMARK   10  A    between atoms: C17_22  and  C18_23 
ROOT
HETATM    1  C1  UNL     1       3.235   3.465  -0.044  1.00  0.00     0.048 C 
HETATM    2  C2  UNL     1       3.063   1.992  -0.125  1.00  0.00    -0.060 A 
HETATM    3  C3  UNL     1       4.083   1.175   0.293  1.00  0.00     0.018 A 
HETATM    4  C4  UNL     1       4.025  -0.235   0.254  1.00  0.00    -0.004 A 
HETATM    5  C9  UNL     1       2.851  -0.784  -0.239  1.00  0.00     0.055 A 
HETATM    6  C10 UNL     1       1.810   0.060  -0.665  1.00  0.00     0.025 A 
HETATM    7  C11 UNL     1       1.928   1.435  -0.603  1.00  0.00     0.023 A 
HETATM    8  C12 UNL     1       0.629  -0.449  -1.172  1.00  0.00     0.082 A 
HETATM    9  C26 UNL     1       0.502  -1.796  -1.245  1.00  0.00     0.055 A 
HETATM   10  C27 UNL     1       1.524  -2.591  -0.825  1.00  0.00     0.093 A 
HETATM   11  N4  UNL     1       2.720  -2.119  -0.313  1.00  0.00    -0.360 N 
HETATM   12  C28 UNL     1       3.722  -3.022   0.109  1.00  0.00     0.155 C 
ENDROOT
BRANCH   8  13
HETATM   13  O1  UNL     1      -0.382   0.430  -1.588  1.00  0.00    -0.348 OA
BRANCH  13  14
HETATM   14  C13 UNL     1      -1.561  -0.166  -2.107  1.00  0.00     0.206 C 
BRANCH  14  15
HETATM   15  C14 UNL     1      -2.588   0.804  -2.545  1.00  0.00     0.298 C 
BRANCH  15  16
HETATM   16  N2  UNL     1      -3.099   1.695  -1.525  1.00  0.00     0.086 N 
HETATM   17  C15 UNL     1      -3.998   2.684  -2.159  1.00  0.00     0.310 C 
BRANCH  16  18
HETATM   18  C16 UNL     1      -3.926   0.844  -0.656  1.00  0.00     0.276 C 
BRANCH  18  19
HETATM   19  C17 UNL     1      -4.604   1.640   0.440  1.00  0.00     0.071 C 
BRANCH  19  20
HETATM   20  C18 UNL     1      -5.423   0.711   1.248  1.00  0.00    -0.029 A 
HETATM   21  C19 UNL     1      -5.146   0.183   2.491  1.00  0.00     0.096 A 
HETATM   22  N3  UNL     1      -6.171  -0.619   2.850  1.00  0.00    -0.365 N 
HETATM   23  C20 UNL     1      -7.098  -0.627   1.882  1.00  0.00     0.042 A 
ATOM     24  H3  UNL     1      -6.231  -1.140   3.725  1.00  0.00     0.165 HD
HETATM   25  C21 UNL     1      -8.304  -1.273   1.770  1.00  0.00     0.030 A 
HETATM   26  C25 UNL     1      -6.659   0.199   0.860  1.00  0.00    -0.002 A 
HETATM   27  C22 UNL     1      -9.098  -1.116   0.649  1.00  0.00     0.002 A 
HETATM   28  C23 UNL     1      -8.650  -0.300  -0.348  1.00  0.00     0.001 A 
HETATM   29  C24 UNL     1      -7.437   0.371  -0.273  1.00  0.00     0.014 A 
ENDBRANCH  19  20
ENDBRANCH  18  19
ENDBRANCH  16  18
ENDBRANCH  15  16
ENDBRANCH  14  15
ENDBRANCH  13  14
ENDBRANCH   8  13
BRANCH   4  30
HETATM   30  C5  UNL     1       5.127  -1.055   0.696  1.00  0.00     0.273 C 
BRANCH  30  31
HETATM   31  N1  UNL     1       6.182  -0.042   1.106  1.00  0.00    -0.068 N 
ATOM     32  H12 UNL     1       6.422   0.611   0.360  1.00  0.00     0.277 HD
ATOM     33  H11 UNL     1       5.838   0.646   1.775  1.00  0.00     0.277 HD
BRANCH  31  34
HETATM   34  C6  UNL     1       7.334  -0.799   1.601  1.00  0.00     0.178 C 
HETATM   35  C7  UNL     1       7.936  -1.671   0.524  1.00  0.00     0.039 C 
HETATM   36  C8  UNL     1       8.364   0.208   2.050  1.00  0.00     0.039 C 
ENDBRANCH  31  34
ENDBRANCH  30  31
ENDBRANCH   4  30
TORSDOF 10
