REMARK  8 active torsions:
REMARK  status: ('A' for Active; 'I' for Inactive)
REMARK    1  A    between atoms: C2_2  and  N1_3 
REMARK    2  A    between atoms: N1_3  and  C3_5 
REMARK    3  A    between atoms: C3_5  and  C4_6 
REMARK    4  A    between atoms: C4_6  and  N2_7 
REMARK    5  A    between atoms: N2_7  and  N3_9 
REMARK    6  A    between atoms: N3_9  and  C5_11 
REMARK    7  A    between atoms: C5_11  and  C6_12 
REMARK    8  A    between atoms: C6_12  and  C7_13 
ROOT
HETATM    1  N2  UNL     1      -0.492  -1.501  -0.127  1.00  0.00    -0.336 N 
ATOM      2  H2  UNL     1      -0.429  -2.473  -0.431  1.00  0.00     0.180 HD
ENDROOT
BRANCH   1   3
HETATM    3  C4  UNL     1       0.692  -0.710   0.134  1.00  0.00     0.183 C 
BRANCH   3   4
HETATM    4  C3  UNL     1       1.953  -1.489  -0.090  1.00  0.00     0.081 C 
BRANCH   4   5
HETATM    5  N1  UNL     1       3.149  -0.805   0.152  1.00  0.00    -0.381 N 
ATOM      6  H1  UNL     1       3.713  -1.065   0.961  1.00  0.00     0.164 HD
BRANCH   5   7
HETATM    7  C2  UNL     1       3.597   0.229  -0.686  1.00  0.00     0.056 C 
HETATM    8  C1  UNL     1       2.853   1.514  -0.701  1.00  0.00     0.054 C 
ENDBRANCH   5   7
ENDBRANCH   4   5
ENDBRANCH   3   4
ENDBRANCH   1   3
BRANCH   1   9
HETATM    9  N3  UNL     1      -1.662  -0.904   0.047  1.00  0.00    -0.340 N 
ATOM     10  H3  UNL     1      -2.455  -1.215  -0.514  1.00  0.00     0.179 HD
BRANCH   9  11
HETATM   11  C5  UNL     1      -1.860   0.136   0.968  1.00  0.00     0.149 C 
BRANCH  11  12
HETATM   12  C6  UNL     1      -3.322   0.584   0.912  1.00  0.00     0.134 C 
BRANCH  12  13
HETATM   13  C7  UNL     1      -3.700   1.091  -0.428  1.00  0.00     0.174 C 
HETATM   14  O1  UNL     1      -2.858   1.157  -1.359  1.00  0.00    -0.648 OA
HETATM   15  O2  UNL     1      -4.990   1.494  -0.652  1.00  0.00    -0.648 OA
ENDBRANCH  12  13
ENDBRANCH  11  12
ENDBRANCH   9  11
ENDBRANCH   1   9
TORSDOF 8
