REMARK  10 active torsions:
REMARK  status: ('A' for Active; 'I' for Inactive)
REMARK    1  A    between atoms: C2_2  and  N1_3 
REMARK    2  A    between atoms: N1_3  and  C3_5 
REMARK    3  A    between atoms: C3_5  and  C4_6 
REMARK    4  A    between atoms: C4_6  and  N2_7 
REMARK    5  A    between atoms: N2_7  and  C5_8 
REMARK    6  A    between atoms: N2_7  and  C7_12 
REMARK    7  A    between atoms: C5_8  and  C6_9 
REMARK    8  A    between atoms: C6_9  and  O1_10 
REMARK    9  A    between atoms: C7_12  and  C8_13 
REMARK   10  A    between atoms: C8_13  and  O2_14 
ROOT
HETATM    1  N2  UNL     1       0.999  -0.045  -0.355  1.00  0.00    -0.388 N 
ENDROOT
BRANCH   1   2
HETATM    2  C4  UNL     1       0.072   0.944  -0.538  1.00  0.00     0.077 C 
BRANCH   2   3
HETATM    3  C3  UNL     1      -1.344   0.689  -0.864  1.00  0.00     0.158 C 
BRANCH   3   4
HETATM    4  N1  UNL     1      -2.123  -0.018   0.096  1.00  0.00    -0.417 N 
ATOM      5  H1  UNL     1      -1.728  -0.322   0.986  1.00  0.00     0.153 HD
BRANCH   4   6
HETATM    6  C2  UNL     1      -3.472  -0.278  -0.245  1.00  0.00     0.109 C 
HETATM    7  C1  UNL     1      -4.108  -1.007   0.938  1.00  0.00     0.026 C 
ENDBRANCH   4   6
ENDBRANCH   3   4
ENDBRANCH   2   3
ENDBRANCH   1   2
BRANCH   1   8
HETATM    8  C5  UNL     1       1.062  -0.960   0.684  1.00  0.00     0.148 C 
BRANCH   8   9
HETATM    9  C6  UNL     1       1.381  -0.205   1.989  1.00  0.00     0.183 C 
BRANCH   9  10
HETATM   10  O1  UNL     1       1.445  -1.118   3.042  1.00  0.00    -0.399 OA
ATOM     11  H1  UNL     1       1.642  -0.653   3.846  1.00  0.00     0.209 HD
ENDBRANCH   9  10
ENDBRANCH   8   9
ENDBRANCH   1   8
BRANCH   1  12
HETATM   12  C7  UNL     1       2.101  -0.101  -1.294  1.00  0.00     0.148 C 
BRANCH  12  13
HETATM   13  C8  UNL     1       3.034   1.104  -1.135  1.00  0.00     0.183 C 
BRANCH  13  14
HETATM   14  O2  UNL     1       4.072   0.977  -2.075  1.00  0.00    -0.399 OA
ATOM     15  H2  UNL     1       4.650   1.724  -1.976  1.00  0.00     0.209 HD
ENDBRANCH  13  14
ENDBRANCH  12  13
ENDBRANCH   1  12
TORSDOF 10
