REMARK  11 active torsions:
REMARK  status: ('A' for Active; 'I' for Inactive)
REMARK    1  A    between atoms: C2_2  and  C3_3 
REMARK    2  A    between atoms: C3_3  and  C4_4 
REMARK    3  A    between atoms: C3_3  and  N1_7 
REMARK    4  A    between atoms: C4_4  and  O1_5 
REMARK    5  A    between atoms: N1_7  and  C5_9 
REMARK    6  A    between atoms: C5_9  and  O2_10 
REMARK    7  A    between atoms: C5_9  and  N2_12 
REMARK    8  A    between atoms: N2_12  and  C6_14 
REMARK    9  A    between atoms: C6_14  and  C7_15 
REMARK   10  A    between atoms: C7_15  and  N3_16 
REMARK   11  A    between atoms: N3_16  and  O3_18 
ROOT
HETATM    1  C5  UNL     1       0.644   0.520  -0.456  1.00  0.00     0.322 C 
ENDROOT
BRANCH   1   2
HETATM    2  N1  UNL     1      -0.759   0.367  -0.479  1.00  0.00    -0.374 N 
ATOM      3  H1  UNL     1      -1.285   0.595  -1.323  1.00  0.00     0.158 HD
BRANCH   2   4
HETATM    4  C3  UNL     1      -1.431  -0.102   0.669  1.00  0.00     0.103 C 
BRANCH   4   5
HETATM    5  C2  UNL     1      -2.315  -1.269   0.230  1.00  0.00     0.022 C 
HETATM    6  C1  UNL     1      -3.244  -0.839  -0.889  1.00  0.00     0.007 C 
ENDBRANCH   4   5
BRANCH   4   7
HETATM    7  C4  UNL     1      -2.272   1.020   1.215  1.00  0.00     0.189 C 
BRANCH   7   8
HETATM    8  O1  UNL     1      -1.409   2.115   1.498  1.00  0.00    -0.399 OA
ATOM      9  H1  UNL     1      -1.940   2.823   1.843  1.00  0.00     0.209 HD
ENDBRANCH   7   8
ENDBRANCH   4   7
ENDBRANCH   2   4
ENDBRANCH   1   2
BRANCH   1  10
HETATM   10  O2  UNL     1       1.171   1.079  -1.605  1.00  0.00    -0.360 OA
ATOM     11  H2  UNL     1       2.115   1.182  -1.590  1.00  0.00     0.214 HD
ENDBRANCH   1  10
BRANCH   1  12
HETATM   12  N2  UNL     1       1.329  -0.663  -0.122  1.00  0.00    -0.359 N 
ATOM     13  H2  UNL     1       0.877  -1.394   0.427  1.00  0.00     0.163 HD
BRANCH  12  14
HETATM   14  C6  UNL     1       2.652  -0.807  -0.566  1.00  0.00     0.081 C 
BRANCH  14  15
HETATM   15  C7  UNL     1       3.720   0.070  -0.027  1.00  0.00     0.190 C 
BRANCH  15  16
HETATM   16  N3  UNL     1       3.862  -0.075   1.373  1.00  0.00    -0.300 N 
ATOM     17  H3  UNL     1       3.037   0.081   1.952  1.00  0.00     0.187 HD
BRANCH  16  18
HETATM   18  O3  UNL     1       4.873  -0.365   1.922  1.00  0.00    -0.294 OA
ATOM     19  H3  UNL     1       4.968  -0.462   2.862  1.00  0.00     0.244 HD
ENDBRANCH  16  18
ENDBRANCH  15  16
ENDBRANCH  14  15
ENDBRANCH  12  14
ENDBRANCH   1  12
TORSDOF 11
