REMARK  4 active torsions:
REMARK  status: ('A' for Active; 'I' for Inactive)
REMARK    1  A    between atoms: O1_2  and  C2_3 
REMARK    2  A    between atoms: C5_6  and  C6_7 
REMARK    3  A    between atoms: C6_7  and  S1_8 
REMARK    4  A    between atoms: C15_17  and  N1_18 
REMARK       I    between atoms: N1_18  and  C16_20 
ROOT
HETATM    1  C2  UNL     1       2.428   1.190  -0.103  1.00  0.00     0.095 A 
HETATM    2  C3  UNL     1       1.381   2.053  -0.278  1.00  0.00     0.040 A 
HETATM    3  C4  UNL     1       0.099   1.582  -0.111  1.00  0.00     0.012 A 
HETATM    4  C5  UNL     1      -0.154   0.273   0.226  1.00  0.00    -0.035 A 
HETATM    5  C14 UNL     1       0.901  -0.599   0.404  1.00  0.00     0.041 A 
HETATM    6  C15 UNL     1       2.190  -0.158   0.244  1.00  0.00     0.069 A 
ENDROOT
BRANCH   4   7
HETATM    7  C6  UNL     1      -1.577  -0.114   0.380  1.00  0.00     0.050 A 
HETATM    8  C8  UNL     1      -2.203  -1.162  -0.433  1.00  0.00    -0.017 A 
HETATM    9  C9  UNL     1      -1.455  -1.999  -1.432  1.00  0.00     0.018 C 
HETATM   10  C10 UNL     1      -3.419  -1.869   0.139  1.00  0.00     0.018 C 
HETATM   11  C11 UNL     1      -2.464   0.301  -0.719  1.00  0.00    -0.017 A 
HETATM   12  C12 UNL     1      -1.904   0.728  -2.058  1.00  0.00     0.018 C 
HETATM   13  C13 UNL     1      -3.832   0.880  -0.441  1.00  0.00     0.018 C 
BRANCH   7  14
HETATM   14  S1  UNL     1      -2.132  -0.040   2.103  1.00  0.00    -0.157 SA
HETATM   15  C7  UNL     1      -2.157   1.614   2.781  1.00  0.00     0.091 C 
ENDBRANCH   7  14
ENDBRANCH   4   7
BRANCH   6  16
HETATM   16  N1  UNL     1       3.314  -0.992   0.409  1.00  0.00    -0.325 N 
HETATM   17  C16 UNL     1       3.270  -2.336   0.768  1.00  0.00     0.218 C 
HETATM   18  C17 UNL     1       4.607  -3.059   0.895  1.00  0.00     0.117 C 
HETATM   19  O2  UNL     1       2.253  -2.983   0.989  1.00  0.00    -0.274 OA
ATOM     20  H1  UNL     1       4.233  -0.578   0.253  1.00  0.00     0.169 HD
ENDBRANCH   6  16
BRANCH   1  21
HETATM   21  O1  UNL     1       3.754   1.619  -0.262  1.00  0.00    -0.354 OA
HETATM   22  C1  UNL     1       3.998   2.966  -0.608  1.00  0.00     0.210 C 
ENDBRANCH   1  21
TORSDOF 4
