REMARK  4 active torsions:
REMARK  status: ('A' for Active; 'I' for Inactive)
REMARK    1  A    between atoms: C2_2  and  C5_5 
REMARK    2  A    between atoms: C7_7  and  C8_8 
REMARK    3  A    between atoms: C8_8  and  C9_10 
REMARK    4  A    between atoms: C13_14  and  C15_16 
ROOT
HETATM    1  C8  UNL     1      -0.767   0.207  -0.283  1.00  0.00     0.166 C 
HETATM    2  O1  UNL     1      -0.802   1.311  -0.873  1.00  0.00    -0.292 OA
ENDROOT
BRANCH   1   3
HETATM    3  C7  UNL     1       0.540  -0.336   0.233  1.00  0.00     0.018 A 
HETATM    4  C6  UNL     1       1.713   0.327   0.068  1.00  0.00     0.031 A 
HETATM    5  C5  UNL     1       2.837  -0.254   0.584  1.00  0.00    -0.009 A 
HETATM    6  S1  UNL     1       2.258  -1.689   1.281  1.00  0.00    -0.105 SA
HETATM    7  C16 UNL     1       0.605  -1.527   0.906  1.00  0.00     0.065 A 
BRANCH   5   8
HETATM    8  C2  UNL     1       4.252   0.289   0.526  1.00  0.00    -0.018 C 
HETATM    9  C1  UNL     1       4.328   1.627   1.182  1.00  0.00     0.020 C 
HETATM   10  C3  UNL     1       4.654   0.331  -0.935  1.00  0.00     0.020 C 
HETATM   11  C4  UNL     1       5.149  -0.757   1.186  1.00  0.00     0.020 C 
ENDBRANCH   5   8
ENDBRANCH   1   3
BRANCH   1  12
HETATM   12  C9  UNL     1      -2.011  -0.550  -0.101  1.00  0.00     0.089 A 
HETATM   13  C10 UNL     1      -3.282   0.009   0.393  1.00  0.00    -0.018 A 
HETATM   14  C11 UNL     1      -3.383   1.460   0.765  1.00  0.00     0.017 C 
HETATM   15  C12 UNL     1      -4.131  -0.875   1.335  1.00  0.00     0.017 C 
HETATM   16  C13 UNL     1      -3.158  -0.442  -1.012  1.00  0.00     0.064 A 
HETATM   17  C14 UNL     1      -3.811  -1.791  -1.379  1.00  0.00     0.028 C 
BRANCH  16  18
HETATM   18  C15 UNL     1      -3.302   0.535  -2.088  1.00  0.00     0.183 C 
HETATM   19  O2  UNL     1      -3.438   0.145  -3.302  1.00  0.00    -0.647 OA
HETATM   20  O3  UNL     1      -3.312   1.924  -1.939  1.00  0.00    -0.647 OA
ENDBRANCH  16  18
ENDBRANCH   1  12
TORSDOF 4
