REMARK  9 active torsions:
REMARK  status: ('A' for Active; 'I' for Inactive)
REMARK    1  A    between atoms: C2_2  and  C3_3 
REMARK    2  A    between atoms: C18_19  and  O2_20 
REMARK    3  A    between atoms: C19_22  and  O3_23 
REMARK    4  A    between atoms: C19_22  and  C20_25 
REMARK    5  A    between atoms: C20_25  and  C21_26 
REMARK    6  A    between atoms: C21_26  and  C22_27 
REMARK    7  A    between atoms: C23_28  and  C25_30 
REMARK    8  A    between atoms: C28_33  and  O4_34 
REMARK    9  A    between atoms: O4_34  and  C29_35 
ROOT
HETATM    1  C3  UNL     1      -3.070   2.694   0.535  1.00  0.00     0.025 C 
HETATM    2  C4  UNL     1      -2.932   3.853  -0.469  1.00  0.00     0.027 C 
HETATM    3  C5  UNL     1      -3.786   1.582  -0.062  1.00  0.00     0.054 C 
HETATM    4  C6  UNL     1      -3.138   0.278  -0.170  1.00  0.00    -0.069 C 
HETATM    5  C7  UNL     1      -3.982  -0.554  -0.809  1.00  0.00     0.054 C 
HETATM    6  C8  UNL     1      -3.609  -1.920  -1.062  1.00  0.00     0.158 C 
HETATM    7  O1  UNL     1      -4.500  -2.743  -1.368  1.00  0.00    -0.292 OA
HETATM    8  C9  UNL     1      -2.199  -2.396  -0.976  1.00  0.00     0.028 C 
HETATM    9  C10 UNL     1      -1.710  -2.362  -2.361  1.00  0.00     0.024 C 
HETATM   10  C11 UNL     1      -2.365  -3.882  -0.598  1.00  0.00     0.024 C 
HETATM   11  C12 UNL     1      -1.570  -1.648   0.093  1.00  0.00     0.008 C 
HETATM   12  C13 UNL     1      -2.280  -2.329   1.316  1.00  0.00     0.020 C 
HETATM   13  C14 UNL     1      -1.864  -0.198   0.266  1.00  0.00     0.041 C 
HETATM   14  C15 UNL     1      -0.669   0.617  -0.239  1.00  0.00     0.018 C 
HETATM   15  C16 UNL     1      -0.959   0.935  -1.699  1.00  0.00     0.023 C 
HETATM   16  C17 UNL     1      -0.620   1.905   0.488  1.00  0.00     0.019 C 
HETATM   17  C18 UNL     1      -1.757   2.486   1.185  1.00  0.00     0.052 C 
HETATM   18  C19 UNL     1       0.495  -0.309  -0.030  1.00  0.00     0.097 C 
HETATM   19  C28 UNL     1      -0.128  -1.645   0.363  1.00  0.00     0.177 C 
ENDROOT
BRANCH  18  20
HETATM   20  O3  UNL     1       1.226   0.202   1.088  1.00  0.00    -0.386 OA
ATOM     21  H3  UNL     1       1.962  -0.384   1.220  1.00  0.00     0.210 HD
ENDBRANCH  18  20
BRANCH  18  22
HETATM   22  C20 UNL     1       1.544  -0.392  -1.036  1.00  0.00     0.045 C 
BRANCH  22  23
HETATM   23  C21 UNL     1       2.312   0.845  -1.333  1.00  0.00     0.030 C 
BRANCH  23  24
HETATM   24  C22 UNL     1       3.104   1.459  -0.281  1.00  0.00    -0.024 C 
HETATM   25  C23 UNL     1       4.353   1.525  -0.035  1.00  0.00    -0.084 C 
HETATM   26  C24 UNL     1       4.736   2.328   1.252  1.00  0.00     0.043 C 
BRANCH  25  27
HETATM   27  C25 UNL     1       5.514   0.966  -0.669  1.00  0.00     0.005 C 
HETATM   28  C26 UNL     1       6.414   0.229   0.360  1.00  0.00     0.014 C 
HETATM   29  C27 UNL     1       5.329   0.081  -1.843  1.00  0.00     0.014 C 
ENDBRANCH  25  27
ENDBRANCH  23  24
ENDBRANCH  22  23
ENDBRANCH  18  22
BRANCH  19  30
HETATM   30  O4  UNL     1       0.624  -2.756   0.313  1.00  0.00    -0.312 OA
BRANCH  30  31
HETATM   31  C29 UNL     1       1.253  -3.544   1.164  1.00  0.00     0.255 C 
HETATM   32  C30 UNL     1       2.014  -4.722   0.771  1.00  0.00     0.126 C 
HETATM   33  O5  UNL     1       1.151  -3.208   2.343  1.00  0.00    -0.266 OA
ENDBRANCH  30  31
ENDBRANCH  19  30
BRANCH  17  34
HETATM   34  O2  UNL     1      -1.907   2.103   2.550  1.00  0.00    -0.364 OA
ATOM     35  H2  UNL     1      -1.064   1.969   2.967  1.00  0.00     0.217 HD
ENDBRANCH  17  34
BRANCH   1  36
HETATM   36  C2  UNL     1      -3.928   3.265   1.622  1.00  0.00    -0.021 C 
HETATM   37  C1  UNL     1      -4.551   2.463   2.480  1.00  0.00     0.008 C 
ENDBRANCH   1  36
TORSDOF 9
