REMARK  7 active torsions:
REMARK  status: ('A' for Active; 'I' for Inactive)
REMARK    1  A    between atoms: C2_2  and  C3_3 
REMARK    2  A    between atoms: C3_3  and  C5_5 
REMARK    3  A    between atoms: C3_3  and  C6_7 
REMARK    4  A    between atoms: C15_16  and  O2_17 
REMARK    5  A    between atoms: O2_17  and  C16_18 
REMARK    6  A    between atoms: C19_21  and  N1_22 
REMARK    7  A    between atoms: C27_34  and  O4_35 
ROOT
HETATM    1  C6  UNL     1      -4.981   0.384   0.407  1.00  0.00     0.009 C 
HETATM    2  C7  UNL     1      -4.241   0.710   1.675  1.00  0.00     0.007 C 
HETATM    3  C8  UNL     1      -2.890   1.262   1.199  1.00  0.00     0.006 C 
HETATM    4  C9  UNL     1      -2.918   1.059  -0.267  1.00  0.00    -0.001 C 
HETATM    5  C10 UNL     1      -1.631   0.887  -0.958  1.00  0.00    -0.003 C 
HETATM    6  C11 UNL     1      -0.688   1.969  -0.427  1.00  0.00     0.006 C 
HETATM    7  C12 UNL     1       0.541   1.930  -1.257  1.00  0.00     0.006 C 
HETATM    8  C13 UNL     1       1.027   0.569  -1.616  1.00  0.00    -0.004 C 
HETATM    9  C14 UNL     1       2.525   0.496  -1.694  1.00  0.00     0.037 C 
HETATM   10  C15 UNL     1       3.155  -0.022  -0.433  1.00  0.00     0.125 C 
HETATM   11  C22 UNL     1       2.301   0.210   0.769  1.00  0.00     0.033 C 
HETATM   12  C23 UNL     1       0.942  -0.505   0.657  1.00  0.00     0.012 C 
HETATM   13  C24 UNL     1       0.445  -0.533  -0.715  1.00  0.00    -0.034 C 
HETATM   14  C25 UNL     1       0.947  -1.844  -1.350  1.00  0.00     0.016 C 
HETATM   15  C26 UNL     1      -1.045  -0.483  -0.952  1.00  0.00     0.027 C 
HETATM   16  C27 UNL     1      -1.802  -1.542  -0.229  1.00  0.00     0.124 C 
HETATM   17  C28 UNL     1      -3.252  -1.392  -0.128  1.00  0.00     0.042 C 
HETATM   18  C29 UNL     1      -3.896  -0.110  -0.480  1.00  0.00    -0.033 C 
HETATM   19  C30 UNL     1      -4.251  -0.018  -1.964  1.00  0.00     0.016 C 
ENDROOT
BRANCH  10  20
HETATM   20  O2  UNL     1       4.345   0.667  -0.243  1.00  0.00    -0.356 OA
BRANCH  20  21
HETATM   21  C16 UNL     1       5.434  -0.190  -0.171  1.00  0.00     0.260 C 
HETATM   22  C17 UNL     1       6.103  -0.116   1.168  1.00  0.00     0.063 C 
HETATM   23  C18 UNL     1       7.243   0.842   1.238  1.00  0.00     0.040 C 
HETATM   24  C19 UNL     1       8.053   0.921  -0.014  1.00  0.00     0.212 C 
HETATM   25  C20 UNL     1       7.593  -0.123  -1.004  1.00  0.00     0.151 C 
HETATM   26  C21 UNL     1       7.976  -1.516  -0.622  1.00  0.00     0.042 C 
HETATM   27  O3  UNL     1       6.255   0.064  -1.237  1.00  0.00    -0.354 OA
BRANCH  24  28
HETATM   28  N1  UNL     1       9.476   0.861   0.233  1.00  0.00    -0.073 N 
ATOM     29  H13 UNL     1       9.762   1.579   0.898  1.00  0.00     0.274 HD
ATOM     30  H12 UNL     1       9.718   0.030   0.772  1.00  0.00     0.274 HD
ATOM     31  H11 UNL     1      10.029   0.915  -0.622  1.00  0.00     0.274 HD
ENDBRANCH  24  28
ENDBRANCH  20  21
ENDBRANCH  10  20
BRANCH  16  32
HETATM   32  O4  UNL     1      -1.254  -1.855   1.043  1.00  0.00    -0.395 OA
ATOM     33  H4  UNL     1      -1.737  -2.531   1.504  1.00  0.00     0.210 HD
ENDBRANCH  16  32
BRANCH   1  34
HETATM   34  C3  UNL     1      -6.229  -0.344   0.518  1.00  0.00     0.013 C 
HETATM   35  C4  UNL     1      -6.248  -1.748   0.960  1.00  0.00     0.023 C 
BRANCH  34  36
HETATM   36  C2  UNL     1      -7.253   0.435   1.360  1.00  0.00     0.012 C 
HETATM   37  C1  UNL     1      -7.034   0.426   2.810  1.00  0.00     0.006 C 
ENDBRANCH  34  36
BRANCH  34  38
HETATM   38  C5  UNL     1      -6.890  -0.349  -0.831  1.00  0.00     0.240 C 
HETATM   39  O1  UNL     1      -7.399  -1.366  -1.244  1.00  0.00    -0.306 OA
ENDBRANCH  34  38
ENDBRANCH   1  34
TORSDOF 7
