REMARK  9 active torsions:
REMARK  status: ('A' for Active; 'I' for Inactive)
REMARK    1  A    between atoms: C3_3  and  O1_5 
REMARK    2  A    between atoms: O1_5  and  C5_6 
REMARK    3  A    between atoms: C5_6  and  O3_8 
REMARK    4  A    between atoms: O3_8  and  C6_9 
REMARK    5  A    between atoms: C13_16  and  C14_17 
REMARK    6  A    between atoms: C15_18  and  C16_19 
REMARK    7  A    between atoms: C16_19  and  C17_20 
REMARK    8  A    between atoms: C17_20  and  C20_23 
REMARK    9  A    between atoms: C26_31  and  O6_33 
ROOT
HETATM    1  C6  UNL     1       1.340  -0.400   1.028  1.00  0.00     0.151 C 
HETATM    2  C7  UNL     1       1.585  -1.691   1.766  1.00  0.00     0.040 C 
HETATM    3  C8  UNL     1       0.346  -2.439   2.162  1.00  0.00     0.005 C 
HETATM    4  C9  UNL     1      -0.611  -1.492   2.848  1.00  0.00    -0.037 C 
HETATM    5  C10 UNL     1      -1.742  -2.128   3.645  1.00  0.00     0.015 C 
HETATM    6  C11 UNL     1      -0.012  -0.419   3.684  1.00  0.00     0.015 C 
HETATM    7  C12 UNL     1      -1.013  -1.170   1.412  1.00  0.00     0.021 C 
HETATM    8  C13 UNL     1      -0.140  -0.171   0.749  1.00  0.00     0.027 C 
HETATM    9  C21 UNL     1      -0.279  -0.290  -0.731  1.00  0.00    -0.004 C 
HETATM   10  C22 UNL     1      -0.215  -1.483  -1.247  1.00  0.00    -0.044 C 
HETATM   11  C23 UNL     1      -0.012  -2.666  -0.378  1.00  0.00     0.026 C 
HETATM   12  C24 UNL     1      -0.625  -3.722  -1.315  1.00  0.00     0.013 C 
HETATM   13  C25 UNL     1       0.089  -3.335  -2.620  1.00  0.00     0.043 C 
HETATM   14  C26 UNL     1      -0.320  -1.884  -2.694  1.00  0.00     0.078 C 
HETATM   15  C27 UNL     1      -1.752  -1.820  -3.123  1.00  0.00     0.051 C 
HETATM   16  C28 UNL     1      -0.611  -2.583   0.964  1.00  0.00    -0.026 C 
HETATM   17  C29 UNL     1      -1.662  -3.641   1.145  1.00  0.00     0.016 C 
ENDROOT
BRANCH   8  18
HETATM   18  C14 UNL     1      -0.555   1.240   1.036  1.00  0.00    -0.014 C 
HETATM   19  C15 UNL     1      -1.590   1.721   0.363  1.00  0.00    -0.025 C 
BRANCH  19  20
HETATM   20  C16 UNL     1      -2.136   3.094   0.517  1.00  0.00     0.072 C 
BRANCH  20  21
HETATM   21  C17 UNL     1      -3.554   3.044   0.928  1.00  0.00     0.018 C 
HETATM   22  C18 UNL     1      -4.507   3.586   0.171  1.00  0.00    -0.017 C 
HETATM   23  C19 UNL     1      -4.132   4.245  -1.099  1.00  0.00     0.036 C 
BRANCH  21  24
HETATM   24  C20 UNL     1      -3.958   2.410   2.165  1.00  0.00     0.205 C 
HETATM   25  O4  UNL     1      -5.174   2.365   2.523  1.00  0.00    -0.644 OA
HETATM   26  O5  UNL     1      -3.018   1.832   2.996  1.00  0.00    -0.644 OA
ENDBRANCH  21  24
ENDBRANCH  20  21
ENDBRANCH  19  20
ENDBRANCH   8  18
BRANCH   1  27
HETATM   27  O3  UNL     1       2.112  -0.336  -0.174  1.00  0.00    -0.291 OA
BRANCH  27  28
HETATM   28  C5  UNL     1       3.007   0.653  -0.464  1.00  0.00     0.411 C 
HETATM   29  O2  UNL     1       3.137   1.563   0.421  1.00  0.00    -0.229 OA
BRANCH  28  30
HETATM   30  O1  UNL     1       3.752   0.710  -1.630  1.00  0.00    -0.261 OA
BRANCH  30  31
HETATM   31  C3  UNL     1       4.655   1.718  -1.910  1.00  0.00     0.051 C 
HETATM   32  C2  UNL     1       5.313   1.669  -3.057  1.00  0.00     0.001 C 
HETATM   33  C1  UNL     1       6.304   2.703  -3.452  1.00  0.00     0.038 C 
HETATM   34  C4  UNL     1       4.925   2.846  -0.998  1.00  0.00     0.076 C 
ENDBRANCH  30  31
ENDBRANCH  28  30
ENDBRANCH  27  28
ENDBRANCH   1  27
BRANCH  14  35
HETATM   35  O6  UNL     1       0.544  -1.162  -3.491  1.00  0.00    -0.386 OA
ATOM     36  H6  UNL     1       0.478  -1.415  -4.404  1.00  0.00     0.211 HD
ENDBRANCH  14  35
TORSDOF 9
