REMARK  8 active torsions:
REMARK  status: ('A' for Active; 'I' for Inactive)
REMARK    1  A    between atoms: C2_2  and  C3_3 
REMARK    2  A    between atoms: C3_3  and  C4_4 
REMARK    3  A    between atoms: C4_4  and  C5_5 
REMARK    4  A    between atoms: C5_5  and  C6_6 
REMARK    5  A    between atoms: C16_17  and  O2_18 
REMARK    6  A    between atoms: C19_21  and  O3_22 
REMARK    7  A    between atoms: C21_25  and  C23_27 
REMARK    8  A    between atoms: C27_33  and  O6_35 
ROOT
HETATM    1  C6  UNL     1       3.096  -0.099  -0.027  1.00  0.00     0.084 C 
HETATM    2  C7  UNL     1       3.990   0.748  -0.946  1.00  0.00     0.049 C 
HETATM    3  O1  UNL     1       2.533  -1.065  -0.768  1.00  0.00    -0.367 OA
HETATM    4  C8  UNL     1       1.225  -1.001  -1.097  1.00  0.00     0.062 C 
HETATM    5  C9  UNL     1       0.871  -2.455  -1.501  1.00  0.00     0.046 C 
HETATM    6  C10 UNL     1       0.886  -0.169  -2.284  1.00  0.00     0.038 C 
HETATM    7  C11 UNL     1       0.066   1.030  -2.079  1.00  0.00     0.011 C 
HETATM    8  C12 UNL     1      -1.036   0.971  -1.100  1.00  0.00     0.025 C 
HETATM    9  C13 UNL     1      -1.004  -0.429  -0.493  1.00  0.00     0.007 C 
HETATM   10  C14 UNL     1       0.294  -0.749   0.103  1.00  0.00     0.027 C 
HETATM   11  C15 UNL     1       0.854   0.232   1.069  1.00  0.00     0.043 C 
HETATM   12  C16 UNL     1       2.209   0.780   0.761  1.00  0.00     0.155 C 
HETATM   13  C18 UNL     1      -2.244  -0.509   0.245  1.00  0.00     0.030 C 
HETATM   14  C19 UNL     1      -2.445   0.216   1.505  1.00  0.00     0.124 C 
HETATM   15  C20 UNL     1      -3.806  -0.291   2.027  1.00  0.00     0.052 C 
HETATM   16  C21 UNL     1      -4.897   0.239   1.120  1.00  0.00     0.048 C 
HETATM   17  C22 UNL     1      -5.418   1.486   1.819  1.00  0.00     0.027 C 
HETATM   18  C24 UNL     1      -4.460   0.603  -0.249  1.00  0.00     0.033 C 
HETATM   19  C25 UNL     1      -3.248  -0.003  -0.808  1.00  0.00    -0.005 C 
HETATM   20  C26 UNL     1      -3.640  -1.245  -1.616  1.00  0.00     0.019 C 
HETATM   21  C27 UNL     1      -2.433   0.899  -1.717  1.00  0.00     0.066 C 
HETATM   22  C28 UNL     1      -3.022   2.242  -1.954  1.00  0.00     0.047 C 
ENDROOT
BRANCH   1  23
HETATM   23  C5  UNL     1       4.083  -0.795   0.936  1.00  0.00     0.041 C 
BRANCH  23  24
HETATM   24  C4  UNL     1       5.030  -1.637   0.142  1.00  0.00     0.007 C 
BRANCH  24  25
HETATM   25  C3  UNL     1       6.012  -2.319   1.038  1.00  0.00     0.026 C 
BRANCH  25  26
HETATM   26  C2  UNL     1       6.938  -1.436   1.752  1.00  0.00    -0.037 C 
HETATM   27  C1  UNL     1       7.150  -0.161   1.599  1.00  0.00     0.007 C 
ENDBRANCH  25  26
ENDBRANCH  24  25
ENDBRANCH  23  24
ENDBRANCH   1  23
BRANCH  12  28
HETATM   28  O2  UNL     1       2.865   1.121   1.944  1.00  0.00    -0.388 OA
HETATM   29  C17 UNL     1       3.163   2.473   2.027  1.00  0.00     0.202 C 
ENDBRANCH  12  28
BRANCH  21  30
HETATM   30  O6  UNL     1      -2.227   0.320  -2.991  1.00  0.00    -0.389 OA
ATOM     31  H6  UNL     1      -3.095   0.275  -3.374  1.00  0.00     0.210 HD
ENDBRANCH  21  30
BRANCH  14  32
HETATM   32  O3  UNL     1      -2.654   1.595   1.387  1.00  0.00    -0.395 OA
ATOM     33  H3  UNL     1      -2.784   2.064   2.203  1.00  0.00     0.210 HD
ENDBRANCH  14  32
BRANCH  16  34
HETATM   34  C23 UNL     1      -5.988  -0.746   1.177  1.00  0.00     0.181 C 
HETATM   35  O4  UNL     1      -7.127  -0.376   1.556  1.00  0.00    -0.647 OA
HETATM   36  O5  UNL     1      -5.867  -2.078   0.842  1.00  0.00    -0.647 OA
ENDBRANCH  16  34
TORSDOF 8
