REMARK  15 active torsions:
REMARK  status: ('A' for Active; 'I' for Inactive)
REMARK    1  A    between atoms: C2_2  and  C3_3 
REMARK    2  A    between atoms: C3_3  and  C4_4 
REMARK    3  A    between atoms: C4_4  and  C5_5 
REMARK    4  A    between atoms: C4_4  and  N1_8 
REMARK    5  A    between atoms: C5_5  and  O1_6 
REMARK    6  A    between atoms: N1_8  and  C6_10 
REMARK    7  A    between atoms: C6_10  and  C8_12 
REMARK    8  A    between atoms: C8_12  and  N2_13 
REMARK    9  A    between atoms: N2_13  and  C9_15 
REMARK   10  A    between atoms: C10_18  and  N4_19 
REMARK   11  A    between atoms: C13_22  and  C14_23 
REMARK   12  A    between atoms: C14_23  and  C15_24 
REMARK   13  A    between atoms: C15_24  and  N5_25 
REMARK   14  A    between atoms: C18_33  and  N7_34 
REMARK   15  A    between atoms: N7_34  and  C19_36 
ROOT
HETATM    1  C9  UNL     1      -0.100  -0.574  -0.041  1.00  0.00     0.707 A 
HETATM    2  N3  UNL     1       0.690   0.511  -0.099  1.00  0.00    -0.021 N 
ATOM      3  H3  UNL     1       0.281   1.444  -0.142  1.00  0.00     0.203 HD
HETATM    4  C10 UNL     1       2.027   0.355  -0.100  1.00  0.00     0.709 A 
HETATM    5  N6  UNL     1       2.559  -0.863  -0.044  1.00  0.00    -0.021 N 
ATOM      6  H6  UNL     1       3.575  -0.951  -0.047  1.00  0.00     0.203 HD
HETATM    7  C18 UNL     1       1.803  -2.005   0.017  1.00  0.00     0.707 A 
HETATM    8  N8  UNL     1       0.481  -1.816   0.016  1.00  0.00    -0.022 N 
ATOM      9  H8  UNL     1      -0.126  -2.634   0.060  1.00  0.00     0.203 HD
ENDROOT
BRANCH   1  10
HETATM   10  N2  UNL     1      -1.365  -0.437  -0.015  1.00  0.00    -0.223 N 
ATOM     11  H2  UNL     1      -1.933  -1.283   0.028  1.00  0.00     0.177 HD
BRANCH  10  12
HETATM   12  C8  UNL     1      -2.044   0.814  -0.042  1.00  0.00     0.162 C 
BRANCH  12  13
HETATM   13  C6  UNL     1      -3.565   0.496  -0.071  1.00  0.00     0.091 C 
HETATM   14  C7  UNL     1      -3.818  -0.391   1.111  1.00  0.00     0.033 C 
BRANCH  13  15
HETATM   15  N1  UNL     1      -4.318   1.658  -0.083  1.00  0.00    -0.410 N 
ATOM     16  H1  UNL     1      -3.812   2.539   0.000  1.00  0.00     0.154 HD
BRANCH  15  17
HETATM   17  C4  UNL     1      -5.709   1.733  -0.199  1.00  0.00     0.100 C 
BRANCH  17  18
HETATM   18  C3  UNL     1      -6.516   1.111   0.904  1.00  0.00     0.026 C 
BRANCH  18  19
HETATM   19  C2  UNL     1      -8.008   1.316   0.689  1.00  0.00    -0.002 C 
HETATM   20  C1  UNL     1      -8.501   0.712  -0.603  1.00  0.00     0.005 C 
ENDBRANCH  18  19
ENDBRANCH  17  18
BRANCH  17  21
HETATM   21  C5  UNL     1      -6.046   3.249  -0.267  1.00  0.00     0.188 C 
BRANCH  21  22
HETATM   22  O1  UNL     1      -5.603   3.868   0.896  1.00  0.00    -0.399 OA
ATOM     23  H1  UNL     1      -5.809   4.794   0.854  1.00  0.00     0.209 HD
ENDBRANCH  21  22
ENDBRANCH  17  21
ENDBRANCH  15  17
ENDBRANCH  13  15
ENDBRANCH  12  13
ENDBRANCH  10  12
ENDBRANCH   1  10
BRANCH   4  24
HETATM   24  N4  UNL     1       2.813   1.546  -0.170  1.00  0.00    -0.217 N 
HETATM   25  C11 UNL     1       3.415   2.043  -1.378  1.00  0.00     0.141 C 
HETATM   26  C12 UNL     1       4.909   2.104  -1.162  1.00  0.00     0.025 C 
HETATM   27  C13 UNL     1       5.328   2.673   0.137  1.00  0.00    -0.010 C 
HETATM   28  C16 UNL     1       4.210   3.218   0.976  1.00  0.00     0.025 C 
HETATM   29  C17 UNL     1       3.014   2.321   1.042  1.00  0.00     0.141 C 
BRANCH  27  30
HETATM   30  C14 UNL     1       6.334   3.788  -0.039  1.00  0.00     0.032 C 
BRANCH  30  31
HETATM   31  C15 UNL     1       7.592   3.360  -0.727  1.00  0.00     0.230 C 
BRANCH  31  32
HETATM   32  N5  UNL     1       8.445   4.541  -0.810  1.00  0.00    -0.079 N 
ATOM     33  H53 UNL     1       7.990   5.336  -1.259  1.00  0.00     0.274 HD
ATOM     34  H52 UNL     1       8.610   4.983   0.094  1.00  0.00     0.274 HD
ATOM     35  H51 UNL     1       9.303   4.249  -1.279  1.00  0.00     0.274 HD
ENDBRANCH  31  32
ENDBRANCH  30  31
ENDBRANCH  27  30
ENDBRANCH   4  24
BRANCH   7  36
HETATM   36  N7  UNL     1       2.350  -3.128   0.075  1.00  0.00    -0.220 N 
ATOM     37  H7  UNL     1       3.366  -3.037   0.069  1.00  0.00     0.178 HD
BRANCH  36  38
HETATM   38  C19 UNL     1       1.976  -4.457   0.145  1.00  0.00     0.099 C 
HETATM   39  C20 UNL     1       0.892  -4.859   1.102  1.00  0.00     0.026 C 
HETATM   40  C21 UNL     1       1.127  -6.355   1.395  1.00  0.00     0.002 C 
HETATM   41  C22 UNL     1       1.341  -7.085   0.079  1.00  0.00     0.000 C 
HETATM   42  C23 UNL     1       0.864  -6.299  -1.110  1.00  0.00     0.002 C 
HETATM   43  C24 UNL     1       1.614  -4.980  -1.257  1.00  0.00     0.026 C 
ENDBRANCH  36  38
ENDBRANCH   7  36
TORSDOF 15
