REMARK  15 active torsions:
REMARK  status: ('A' for Active; 'I' for Inactive)
REMARK    1  A    between atoms: C3_3  and  C5_5 
REMARK    2  A    between atoms: C6_6  and  N1_7 
REMARK    3  A    between atoms: C8_9  and  C9_10 
REMARK    4  A    between atoms: C12_13  and  O1_14 
REMARK    5  A    between atoms: C13_16  and  O2_17 
REMARK    6  A    between atoms: C14_19  and  O3_20 
REMARK    7  A    between atoms: C15_22  and  N2_23 
REMARK    8  A    between atoms: N4_29  and  C17_30 
REMARK    9  A    between atoms: C17_30  and  C18_31 
REMARK   10  A    between atoms: C18_31  and  C19_32 
REMARK   11  A    between atoms: C19_32  and  C20_33 
REMARK   12  A    between atoms: C20_33  and  N5_34 
REMARK   13  A    between atoms: N5_34  and  C21_35 
REMARK   14  A    between atoms: N5_34  and  C23_37 
REMARK   15  A    between atoms: C23_37  and  C24_38 
ROOT
HETATM    1  C1  UNL     1      -1.563  -4.145  -1.324  1.00  0.00     0.012 C 
HETATM    2  C2  UNL     1      -0.638  -3.397  -1.094  1.00  0.00    -0.111 C 
HETATM    3  C3  UNL     1       0.517  -2.502  -0.803  1.00  0.00     0.095 C 
HETATM    4  C4  UNL     1       1.139  -2.237  -2.155  1.00  0.00     0.026 C 
ENDROOT
BRANCH   3   5
HETATM    5  C5  UNL     1       0.026  -1.307  -0.094  1.00  0.00     0.264 C 
HETATM    6  C6  UNL     1       0.924  -0.233   0.348  1.00  0.00     0.170 C 
HETATM    7  C16 UNL     1       0.640   0.483  -0.939  1.00  0.00     0.302 C 
HETATM    8  N4  UNL     1      -0.563  -0.339  -1.039  1.00  0.00     0.098 N 
BRANCH   6   9
HETATM    9  N1  UNL     1       2.281  -0.460   0.678  1.00  0.00    -0.292 N 
HETATM   10  C7  UNL     1       3.258   0.411   0.374  1.00  0.00     0.122 A 
HETATM   11  C8  UNL     1       4.441  -0.075   0.832  1.00  0.00     0.011 A 
HETATM   12  C15 UNL     1       4.141  -1.279   1.427  1.00  0.00     0.121 A 
HETATM   13  N3  UNL     1       2.810  -1.477   1.312  1.00  0.00    -0.283 N 
ATOM     14  H3  UNL     1       2.299  -2.287   1.662  1.00  0.00     0.189 HD
BRANCH  11  15
HETATM   15  C9  UNL     1       5.804   0.540   0.731  1.00  0.00     0.055 C 
HETATM   16  C10 UNL     1       5.610   1.969   0.245  1.00  0.00     0.015 C 
HETATM   17  C11 UNL     1       6.908   2.729   0.413  1.00  0.00     0.035 C 
HETATM   18  C12 UNL     1       8.093   1.852   0.067  1.00  0.00     0.149 C 
HETATM   19  C13 UNL     1       7.697   0.738  -0.874  1.00  0.00     0.176 C 
HETATM   20  C14 UNL     1       6.623  -0.161  -0.317  1.00  0.00     0.158 C 
BRANCH  18  21
HETATM   21  O1  UNL     1       8.736   1.396   1.216  1.00  0.00    -0.393 OA
ATOM     22  H1  UNL     1       9.479   0.846   0.999  1.00  0.00     0.210 HD
ENDBRANCH  18  21
BRANCH  19  23
HETATM   23  O2  UNL     1       7.313   1.336  -2.076  1.00  0.00    -0.390 OA
ATOM     24  H2  UNL     1       7.064   0.636  -2.668  1.00  0.00     0.210 HD
ENDBRANCH  19  23
BRANCH  20  25
HETATM   25  O3  UNL     1       7.253  -1.301   0.166  1.00  0.00    -0.392 OA
ATOM     26  H3  UNL     1       7.770  -1.744  -0.496  1.00  0.00     0.210 HD
ENDBRANCH  20  25
ENDBRANCH  11  15
BRANCH  12  27
HETATM   27  N2  UNL     1       5.007  -2.067   1.998  1.00  0.00    -0.384 N 
ATOM     28  H22 UNL     1       6.012  -1.917   2.085  1.00  0.00     0.157 HD
ATOM     29  H21 UNL     1       4.785  -2.959   2.439  1.00  0.00     0.157 HD
ENDBRANCH  12  27
ENDBRANCH   6   9
BRANCH   8  30
HETATM   30  C17 UNL     1      -1.744   0.338  -0.559  1.00  0.00     0.273 C 
BRANCH  30  31
HETATM   31  C18 UNL     1      -2.880  -0.623  -0.456  1.00  0.00     0.032 C 
BRANCH  31  32
HETATM   32  C19 UNL     1      -4.144   0.072   0.058  1.00  0.00     0.032 C 
BRANCH  32  33
HETATM   33  C20 UNL     1      -5.224  -0.961   0.122  1.00  0.00     0.272 C 
BRANCH  33  34
HETATM   34  N5  UNL     1      -6.508  -0.457   0.620  1.00  0.00     0.088 N 
BRANCH  34  35
HETATM   35  C21 UNL     1      -6.331  -0.148   1.992  1.00  0.00     0.268 C 
HETATM   36  C22 UNL     1      -7.546   0.186   2.778  1.00  0.00     0.037 C 
ENDBRANCH  34  35
BRANCH  34  37
HETATM   37  C23 UNL     1      -7.050   0.519  -0.250  1.00  0.00     0.272 C 
BRANCH  37  38
HETATM   38  C24 UNL     1      -8.364   1.121   0.062  1.00  0.00     0.026 C 
HETATM   39  C25 UNL     1      -8.668   2.098  -1.105  1.00  0.00     0.007 C 
ENDBRANCH  37  38
ENDBRANCH  34  37
ENDBRANCH  33  34
ENDBRANCH  32  33
ENDBRANCH  31  32
ENDBRANCH  30  31
ENDBRANCH   8  30
ENDBRANCH   3   5
TORSDOF 15
