REMARK  17 active torsions:
REMARK  status: ('A' for Active; 'I' for Inactive)
REMARK    1  A    between atoms: C2_2  and  C3_3 
REMARK    2  A    between atoms: C3_3  and  C4_4 
REMARK    3  A    between atoms: C4_4  and  C5_5 
REMARK    4  A    between atoms: C6_6  and  C7_7 
REMARK    5  A    between atoms: C7_7  and  C8_8 
REMARK    6  A    between atoms: C9_9  and  C10_10 
REMARK    7  A    between atoms: C10_10  and  C11_11 
REMARK    8  A    between atoms: C11_11  and  C12_12 
REMARK    9  A    between atoms: C13_13  and  C14_14 
REMARK   10  A    between atoms: C15_15  and  C16_16 
REMARK   11  A    between atoms: C16_16  and  C18_18 
REMARK   12  A    between atoms: C20_20  and  O1_21 
REMARK   13  A    between atoms: C21_23  and  O2_24 
REMARK   14  A    between atoms: C23_29  and  C24_30 
REMARK   15  A    between atoms: C24_30  and  O4_31 
REMARK   16  A    between atoms: C25_33  and  O5_34 
REMARK   17  A    between atoms: C26_36  and  O6_37 
ROOT
HETATM    1  C18 UNL     1      -4.175  -0.971  -0.122  1.00  0.00     0.027 C 
HETATM    2  C19 UNL     1      -5.357  -1.336  -0.983  1.00  0.00     0.042 C 
HETATM    3  C20 UNL     1      -5.716  -0.284  -2.003  1.00  0.00     0.150 C 
HETATM    4  C21 UNL     1      -6.212   0.999  -1.538  1.00  0.00     0.180 C 
HETATM    5  C22 UNL     1      -6.300   1.273  -0.094  1.00  0.00     0.217 C 
HETATM    6  O3  UNL     1      -7.207   0.498   0.594  1.00  0.00    -0.275 OA
HETATM    7  N1  UNL     1      -6.740   0.194   1.803  1.00  0.00    -0.090 NA
HETATM    8  C23 UNL     1      -5.536   0.966   2.046  1.00  0.00     0.169 C 
HETATM    9  C25 UNL     1      -5.038   1.248   0.703  1.00  0.00     0.136 C 
HETATM   10  C26 UNL     1      -3.929   0.434   0.128  1.00  0.00     0.161 C 
ENDROOT
BRANCH   1  11
HETATM   11  C16 UNL     1      -2.951  -1.652  -0.704  1.00  0.00     0.011 C 
HETATM   12  C17 UNL     1      -3.194  -3.175  -0.735  1.00  0.00     0.015 C 
BRANCH  11  13
HETATM   13  C15 UNL     1      -1.684  -1.410  -0.063  1.00  0.00    -0.022 C 
HETATM   14  C14 UNL     1      -0.637  -0.906  -0.680  1.00  0.00    -0.003 C 
BRANCH  14  15
HETATM   15  C13 UNL     1      -0.598  -0.523  -2.067  1.00  0.00     0.008 C 
HETATM   16  C12 UNL     1       0.429  -0.036  -2.718  1.00  0.00     0.055 C 
BRANCH  16  17
HETATM   17  C11 UNL     1       1.698   0.212  -2.228  1.00  0.00    -0.128 C 
BRANCH  17  18
HETATM   18  C10 UNL     1       2.853   0.438  -1.781  1.00  0.00     0.055 C 
BRANCH  18  19
HETATM   19  C9  UNL     1       3.267   0.156  -0.381  1.00  0.00     0.004 C 
HETATM   20  C8  UNL     1       4.457   0.393   0.076  1.00  0.00    -0.022 C 
BRANCH  20  21
HETATM   21  C7  UNL     1       5.612   0.968  -0.639  1.00  0.00     0.054 C 
BRANCH  21  22
HETATM   22  C6  UNL     1       6.722  -0.010  -0.680  1.00  0.00    -0.027 C 
HETATM   23  C5  UNL     1       7.912   0.148  -0.217  1.00  0.00    -0.030 C 
BRANCH  23  24
HETATM   24  C4  UNL     1       8.432   1.332   0.457  1.00  0.00     0.027 C 
BRANCH  24  25
HETATM   25  C3  UNL     1       8.961   1.028   1.862  1.00  0.00     0.003 C 
BRANCH  25  26
HETATM   26  C2  UNL     1      10.104   0.009   1.736  1.00  0.00    -0.004 C 
HETATM   27  C1  UNL     1      10.627  -0.238   3.143  1.00  0.00     0.005 C 
ENDBRANCH  25  26
ENDBRANCH  24  25
ENDBRANCH  23  24
ENDBRANCH  21  22
ENDBRANCH  20  21
ENDBRANCH  18  19
ENDBRANCH  17  18
ENDBRANCH  16  17
ENDBRANCH  14  15
ENDBRANCH  11  13
ENDBRANCH   1  11
BRANCH  10  28
HETATM   28  O6  UNL     1      -3.503   1.119  -1.027  1.00  0.00    -0.392 OA
ATOM     29  H6  UNL     1      -3.342   2.041  -0.863  1.00  0.00     0.210 HD
ENDBRANCH  10  28
BRANCH   3  30
HETATM   30  O1  UNL     1      -6.667  -0.903  -2.843  1.00  0.00    -0.393 OA
ATOM     31  H1  UNL     1      -6.893  -0.241  -3.485  1.00  0.00     0.210 HD
ENDBRANCH   3  30
BRANCH   9  32
HETATM   32  O5  UNL     1      -4.516   2.576   0.717  1.00  0.00    -0.382 OA
ATOM     33  H5  UNL     1      -3.713   2.560   1.224  1.00  0.00     0.210 HD
ENDBRANCH   9  32
BRANCH   4  34
HETATM   34  O2  UNL     1      -7.497   1.259  -2.093  1.00  0.00    -0.390 OA
ATOM     35  H2  UNL     1      -7.822   2.098  -1.789  1.00  0.00     0.210 HD
ENDBRANCH   4  34
BRANCH   8  36
HETATM   36  C24 UNL     1      -4.706   0.388   3.088  1.00  0.00     0.191 C 
BRANCH  36  37
HETATM   37  O4  UNL     1      -5.486   0.337   4.279  1.00  0.00    -0.399 OA
ATOM     38  H4  UNL     1      -4.943  -0.041   4.961  1.00  0.00     0.209 HD
ENDBRANCH  36  37
ENDBRANCH   8  36
TORSDOF 17
