REMARK  7 active torsions:
REMARK  status: ('A' for Active; 'I' for Inactive)
REMARK    1  A    between atoms: C2_2  and  C3_3 
REMARK    2  A    between atoms: C3_3  and  N1_4 
REMARK    3  A    between atoms: N1_4  and  C4_6 
REMARK    4  A    between atoms: C6_10  and  C7_11 
REMARK    5  A    between atoms: C9_15  and  C10_16 
REMARK    6  A    between atoms: C13_19  and  S1_20 
REMARK    7  A    between atoms: N5_25  and  C16_27 
ROOT
HETATM    1  C7  UNL     1       1.221  -0.887   0.270  1.00  0.00     0.087 A 
HETATM    2  N3  UNL     1       0.488  -1.881   0.088  1.00  0.00    -0.358 N 
ATOM      3  H3  UNL     1       0.913  -2.795  -0.067  1.00  0.00     0.166 HD
HETATM    4  C8  UNL     1      -0.882  -1.766   0.093  1.00  0.00     0.108 A 
HETATM    5  C9  UNL     1      -1.409  -0.588   0.292  1.00  0.00     0.036 A 
HETATM    6  S2  UNL     1       0.075   0.467   0.492  1.00  0.00    -0.069 SA
ENDROOT
BRANCH   1   7
HETATM    7  C6  UNL     1       2.675  -0.743   0.311  1.00  0.00     0.030 A 
HETATM    8  C5  UNL     1       3.259   0.483   0.528  1.00  0.00     0.121 A 
HETATM    9  N2  UNL     1       4.593   0.659   0.574  1.00  0.00    -0.201 N 
HETATM   10  C4  UNL     1       5.396  -0.406   0.402  1.00  0.00     0.677 A 
ATOM     11  H2  UNL     1       4.988   1.585   0.737  1.00  0.00     0.183 HD
HETATM   12  N6  UNL     1       4.859  -1.643   0.183  1.00  0.00    -0.201 N 
HETATM   13  C18 UNL     1       3.517  -1.820   0.137  1.00  0.00     0.121 A 
ATOM     14  H6  UNL     1       5.477  -2.444   0.052  1.00  0.00     0.183 HD
BRANCH  10  15
HETATM   15  N1  UNL     1       6.663  -0.224   0.446  1.00  0.00    -0.226 N 
ATOM     16  H1  UNL     1       7.291  -1.017   0.317  1.00  0.00     0.177 HD
BRANCH  15  17
HETATM   17  C3  UNL     1       7.211   1.088   0.675  1.00  0.00     0.137 C 
BRANCH  17  18
HETATM   18  C2  UNL     1       7.897   1.500  -0.623  1.00  0.00     0.016 C 
HETATM   19  C1  UNL     1       6.874   1.522  -1.739  1.00  0.00     0.006 C 
ENDBRANCH  17  18
ENDBRANCH  15  17
ENDBRANCH  10  15
ENDBRANCH   1   7
BRANCH   5  20
HETATM   20  C10 UNL     1      -2.763  -0.072   0.367  1.00  0.00     0.026 A 
HETATM   21  C11 UNL     1      -2.973   1.296   0.606  1.00  0.00     0.019 A 
HETATM   22  C12 UNL     1      -4.247   1.818   0.683  1.00  0.00     0.038 A 
HETATM   23  C13 UNL     1      -5.362   1.024   0.529  1.00  0.00     0.070 A 
HETATM   24  N4  UNL     1      -5.143  -0.275   0.302  1.00  0.00    -0.337 N 
HETATM   25  C15 UNL     1      -3.887  -0.827   0.220  1.00  0.00     0.113 A 
ATOM     26  H4  UNL     1      -5.950  -0.888   0.184  1.00  0.00     0.168 HD
HETATM   27  N5  UNL     1      -3.817  -2.074  -0.001  1.00  0.00    -0.376 N 
ATOM     28  H5  UNL     1      -2.876  -2.462  -0.059  1.00  0.00     0.161 HD
BRANCH  23  29
HETATM   29  S1  UNL     1      -7.019   1.681   0.625  1.00  0.00    -0.117 SA
HETATM   30  C14 UNL     1      -6.938   3.470   0.944  1.00  0.00     0.097 C 
ENDBRANCH  23  29
BRANCH  27  31
HETATM   31  C16 UNL     1      -4.883  -3.003  -0.179  1.00  0.00     0.116 C 
HETATM   32  C17 UNL     1      -5.582  -2.896  -1.493  1.00  0.00     0.026 C 
ENDBRANCH  27  31
ENDBRANCH   5  20
TORSDOF 7
