REMARK  8 active torsions:
REMARK  status: ('A' for Active; 'I' for Inactive)
REMARK    1  A    between atoms: O1_2  and  C2_3 
REMARK    2  A    between atoms: C4_5  and  N1_6 
REMARK    3  A    between atoms: N1_6  and  C5_8 
REMARK    4  A    between atoms: C5_8  and  C6_9 
REMARK    5  A    between atoms: C6_9  and  C7_10 
REMARK    6  A    between atoms: C7_10  and  N2_11 
REMARK    7  A    between atoms: C12_21  and  N6_22 
REMARK    8  A    between atoms: N6_22  and  C13_24 
ROOT
HETATM    1  N2  UNL     1       5.623   0.399   0.273  1.00  0.00    -0.333 N 
HETATM    2  C8  UNL     1       6.922   0.052   0.292  1.00  0.00     0.183 A 
HETATM    3  N3  UNL     1       7.518   0.452  -0.862  1.00  0.00    -0.359 N 
ATOM      4  H3  UNL     1       8.499   0.316  -1.107  1.00  0.00     0.166 HD
HETATM    5  C9  UNL     1       6.587   1.060  -1.627  1.00  0.00     0.130 A 
HETATM    6  C10 UNL     1       5.419   1.014  -0.898  1.00  0.00     0.132 A 
HETATM    7  C11 UNL     1       4.150   1.538  -1.304  1.00  0.00     0.119 C 
HETATM    8  N4  UNL     1       3.125   1.958  -1.634  1.00  0.00    -0.190 NA
ENDROOT
BRANCH   1   9
HETATM    9  C7  UNL     1       4.686   0.127   1.351  1.00  0.00     0.132 C 
BRANCH   9  10
HETATM   10  C6  UNL     1       4.077  -1.241   1.035  1.00  0.00     0.040 C 
BRANCH  10  11
HETATM   11  C5  UNL     1       3.077  -1.591   2.143  1.00  0.00     0.123 C 
BRANCH  11  12
HETATM   12  N1  UNL     1       2.026  -0.635   2.247  1.00  0.00    -0.376 N 
ATOM     13  H1  UNL     1       2.111   0.098   2.951  1.00  0.00     0.161 HD
BRANCH  12  14
HETATM   14  C4  UNL     1       0.979  -0.643   1.506  1.00  0.00     0.120 A 
HETATM   15  C3  UNL     1       0.769  -1.591   0.522  1.00  0.00     0.105 A 
HETATM   16  C2  UNL     1      -0.369  -1.561  -0.247  1.00  0.00     0.160 A 
HETATM   17  N7  UNL     1      -1.287  -0.603  -0.043  1.00  0.00    -0.170 N 
HETATM   18  C12 UNL     1      -1.104   0.330   0.907  1.00  0.00     0.686 A 
ATOM     19  H7  UNL     1      -2.132  -0.583  -0.615  1.00  0.00     0.186 HD
HETATM   20  N5  UNL     1       0.005   0.304   1.659  1.00  0.00    -0.177 N 
ATOM     21  H5  UNL     1       0.127   1.020   2.375  1.00  0.00     0.186 HD
BRANCH  16  22
HETATM   22  O1  UNL     1      -0.560  -2.514  -1.218  1.00  0.00    -0.340 OA
HETATM   23  C1  UNL     1       0.404  -3.513  -1.424  1.00  0.00     0.211 C 
ENDBRANCH  16  22
BRANCH  18  24
HETATM   24  N6  UNL     1      -2.007   1.229   1.073  1.00  0.00    -0.191 N 
ATOM     25  H6  UNL     1      -1.848   1.924   1.802  1.00  0.00     0.184 HD
BRANCH  24  26
HETATM   26  C13 UNL     1      -3.193   1.332   0.333  1.00  0.00     0.061 A 
HETATM   27  C14 UNL     1      -4.303   0.598   0.647  1.00  0.00    -0.034 A 
HETATM   28  C15 UNL     1      -4.227  -0.326   1.803  1.00  0.00     0.050 C 
HETATM   29  C16 UNL     1      -5.488   0.703  -0.094  1.00  0.00     0.015 A 
HETATM   30  C17 UNL     1      -5.551   1.557  -1.159  1.00  0.00    -0.061 A 
HETATM   31  C18 UNL     1      -6.800   1.678  -1.951  1.00  0.00     0.048 C 
HETATM   32  C19 UNL     1      -4.440   2.304  -1.487  1.00  0.00     0.015 A 
HETATM   33  C20 UNL     1      -3.259   2.192  -0.741  1.00  0.00    -0.034 A 
HETATM   34  C21 UNL     1      -2.059   2.999  -1.095  1.00  0.00     0.050 C 
ENDBRANCH  24  26
ENDBRANCH  18  24
ENDBRANCH  12  14
ENDBRANCH  11  12
ENDBRANCH  10  11
ENDBRANCH   9  10
ENDBRANCH   1   9
TORSDOF 8
