REMARK  7 active torsions:
REMARK  status: ('A' for Active; 'I' for Inactive)
REMARK    1  A    between atoms: C2_2  and  C3_3 
REMARK    2  A    between atoms: C6_8  and  C7_9 
REMARK    3  A    between atoms: C7_9  and  S1_10 
REMARK    4  A    between atoms: S1_10  and  C8_11 
REMARK    5  A    between atoms: C9_12  and  C10_13 
REMARK    6  A    between atoms: C12_19  and  C13_20 
REMARK    7  A    between atoms: C13_20  and  O4_22 
ROOT
HETATM    1  C8  UNL     1      -0.928  -0.286  -1.032  1.00  0.00     0.022 C 
HETATM    2  C9  UNL     1      -1.807  -0.425  -2.048  1.00  0.00     0.128 C 
HETATM    3  N2  UNL     1      -3.122  -0.403  -1.483  1.00  0.00    -0.304 N 
HETATM    4  C11 UNL     1      -4.477  -0.556  -1.130  1.00  0.00     0.233 C 
HETATM    5  O3  UNL     1      -5.464  -0.922  -1.778  1.00  0.00    -0.272 OA
HETATM    6  C12 UNL     1      -4.244  -0.105   0.280  1.00  0.00     0.131 C 
HETATM    7  C15 UNL     1      -2.981   0.470  -0.308  1.00  0.00     0.121 C 
HETATM    8  C16 UNL     1      -1.659  -0.051   0.219  1.00  0.00     0.010 C 
HETATM    9  C17 UNL     1      -1.809  -1.169   1.167  1.00  0.00     0.023 C 
HETATM   10  C18 UNL     1      -1.045   1.153   0.950  1.00  0.00     0.023 C 
ENDROOT
BRANCH   1  11
HETATM   11  S1  UNL     1       0.814  -0.358  -1.366  1.00  0.00    -0.126 SA
BRANCH  11  12
HETATM   12  C7  UNL     1       1.747  -0.150   0.168  1.00  0.00     0.127 C 
BRANCH  12  13
HETATM   13  C6  UNL     1       3.216  -0.247   0.014  1.00  0.00     0.016 A 
HETATM   14  C4  UNL     1       4.003  -1.276  -0.447  1.00  0.00     0.019 A 
HETATM   15  N1  UNL     1       5.279  -1.147  -0.286  1.00  0.00    -0.357 N 
HETATM   16  C5  UNL     1       3.401  -2.461  -1.155  1.00  0.00     0.069 C 
HETATM   17  C3  UNL     1       5.793  -0.081   0.285  1.00  0.00     0.051 A 
ATOM     18  H1  UNL     1       5.900  -1.889  -0.609  1.00  0.00     0.166 HD
HETATM   19  S2  UNL     1       4.375   0.839   0.633  1.00  0.00    -0.079 SA
BRANCH  17  20
HETATM   20  C2  UNL     1       7.224   0.296   0.607  1.00  0.00     0.060 C 
HETATM   21  C1  UNL     1       7.178   1.611   1.314  1.00  0.00     0.012 C 
ENDBRANCH  17  20
ENDBRANCH  12  13
ENDBRANCH  11  12
ENDBRANCH   1  11
BRANCH   2  22
HETATM   22  C10 UNL     1      -1.552  -0.624  -3.460  1.00  0.00     0.228 C 
HETATM   23  O1  UNL     1      -0.299  -0.744  -3.785  1.00  0.00    -0.643 OA
HETATM   24  O2  UNL     1      -2.448  -0.684  -4.473  1.00  0.00    -0.643 OA
ENDBRANCH   2  22
BRANCH   6  25
HETATM   25  C13 UNL     1      -5.221   0.908   0.790  1.00  0.00     0.129 C 
HETATM   26  C14 UNL     1      -4.907   1.268   2.210  1.00  0.00     0.040 C 
BRANCH  25  27
HETATM   27  O4  UNL     1      -6.542   0.439   0.742  1.00  0.00    -0.395 OA
ATOM     28  H4  UNL     1      -7.162   1.082   1.066  1.00  0.00     0.210 HD
ENDBRANCH  25  27
ENDBRANCH   6  25
TORSDOF 7
