REMARK  6 active torsions:
REMARK  status: ('A' for Active; 'I' for Inactive)
REMARK    1  A    between atoms: C2_2  and  C3_3 
REMARK    2  A    between atoms: C5_7  and  C6_8 
REMARK    3  A    between atoms: C8_10  and  C9_11 
REMARK    4  A    between atoms: C11_19  and  S1_20 
REMARK    5  A    between atoms: S1_20  and  C12_21 
REMARK    6  A    between atoms: C12_21  and  C13_22 
ROOT
HETATM    1  C6  UNL     1       0.694  -0.068   0.409  1.00  0.00     0.015 A 
HETATM    2  C7  UNL     1       0.113   1.085  -0.071  1.00  0.00     0.032 A 
HETATM    3  C8  UNL     1      -1.235   1.369   0.051  1.00  0.00     0.027 A 
HETATM    4  C11 UNL     1      -2.070   0.452   0.689  1.00  0.00     0.015 A 
HETATM    5  C16 UNL     1      -1.478  -0.691   1.159  1.00  0.00     0.027 A 
HETATM    6  C17 UNL     1      -0.118  -0.988   1.041  1.00  0.00    -0.047 A 
HETATM    7  C18 UNL     1       0.391  -2.270   1.586  1.00  0.00     0.049 C 
ENDROOT
BRANCH   1   8
HETATM    8  C5  UNL     1       2.133  -0.274   0.312  1.00  0.00     0.118 A 
HETATM    9  N1  UNL     1       2.941   0.674  -0.192  1.00  0.00    -0.351 N 
HETATM   10  C4  UNL     1       4.301   0.502  -0.268  1.00  0.00     0.102 A 
ATOM     11  H1  UNL     1       2.532   1.546  -0.528  1.00  0.00     0.166 HD
HETATM   12  C3  UNL     1       4.900  -0.645   0.170  1.00  0.00     0.025 A 
HETATM   13  C19 UNL     1       4.056  -1.615   0.687  1.00  0.00     0.254 A 
HETATM   14  N6  UNL     1       2.758  -1.380   0.726  1.00  0.00    -0.308 N 
HETATM   15  O2  UNL     1       4.622  -2.672   1.083  1.00  0.00    -0.268 OA
ATOM     16  H6  UNL     1       2.171  -2.119   1.112  1.00  0.00     0.170 HD
BRANCH  12  17
HETATM   17  C2  UNL     1       6.370  -0.862   0.108  1.00  0.00     0.041 C 
HETATM   18  C1  UNL     1       7.008  -0.131  -1.036  1.00  0.00     0.010 C 
ENDBRANCH  12  17
ENDBRANCH   1   8
BRANCH   3  19
HETATM   19  C9  UNL     1      -1.799   2.628  -0.462  1.00  0.00     0.132 A 
HETATM   20  N2  UNL     1      -1.176   3.638  -1.080  1.00  0.00    -0.336 N 
HETATM   21  C10 UNL     1      -2.077   4.588  -1.372  1.00  0.00     0.199 A 
ATOM     22  H2  UNL     1      -0.180   3.679  -1.294  1.00  0.00     0.168 HD
HETATM   23  N3  UNL     1      -3.286   4.151  -0.921  1.00  0.00    -0.295 N 
HETATM   24  N4  UNL     1      -3.088   2.971  -0.380  1.00  0.00    -0.284 N 
ATOM     25  H3  UNL     1      -4.175   4.646  -0.990  1.00  0.00     0.187 HD
ATOM     26  H4  UNL     1      -3.816   2.396   0.044  1.00  0.00     0.188 HD
ENDBRANCH   3  19
BRANCH   4  27
HETATM   27  S1  UNL     1      -3.770   0.902   0.872  1.00  0.00    -0.123 SA
BRANCH  27  28
HETATM   28  C12 UNL     1      -4.906   0.354  -0.344  1.00  0.00     0.132 C 
BRANCH  28  29
HETATM   29  C13 UNL     1      -5.207  -1.119  -0.213  1.00  0.00     0.008 A 
HETATM   30  N5  UNL     1      -4.700  -2.058   0.414  1.00  0.00    -0.333 N 
HETATM   31  C14 UNL     1      -5.583  -2.998  -0.031  1.00  0.00     0.227 A 
ATOM     32  H5  UNL     1      -3.900  -2.111   1.044  1.00  0.00     0.168 HD
HETATM   33  O1  UNL     1      -5.803  -4.258   0.142  1.00  0.00    -0.273 OA
HETATM   34  C15 UNL     1      -6.223  -1.959  -0.824  1.00  0.00     0.156 A 
ENDBRANCH  28  29
ENDBRANCH  27  28
ENDBRANCH   4  27
TORSDOF 6
