REMARK  2 active torsions:
REMARK  status: ('A' for Active; 'I' for Inactive)
REMARK    1  A    between atoms: N1_1  and  C1_4 
REMARK    2  A    between atoms: C2_7  and  N3_8 
REMARK       I    between atoms: N4_11  and  C3_12 
ROOT
HETATM    1  C1  UNL     1      -2.156  -0.279  -0.269  1.00  0.00     0.694 A 
HETATM    2  N2  UNL     1      -1.333   0.441  -1.019  1.00  0.00    -0.022 N 
ATOM      3  H2  UNL     1      -1.712   0.938  -1.825  1.00  0.00     0.203 HD
HETATM    4  C2  UNL     1       0.024   0.545  -0.750  1.00  0.00     0.705 A 
HETATM    5  N4  UNL     1       0.549  -0.094   0.299  1.00  0.00    -0.045 N 
HETATM    6  C3  UNL     1       1.899  -0.085   0.698  1.00  0.00     0.357 C 
HETATM    7  N5  UNL     1       2.916   0.619   0.029  1.00  0.00    -0.039 NA
HETATM    8  O1  UNL     1       2.289  -0.740   1.729  1.00  0.00    -0.249 OA
HETATM    9  C4  UNL     1      -0.326  -0.829   1.056  1.00  0.00     0.363 A 
HETATM   10  O2  UNL     1       0.177  -1.439   2.058  1.00  0.00    -0.245 OA
HETATM   11  N6  UNL     1      -1.636  -0.923   0.786  1.00  0.00    -0.140 N 
ATOM     12  H6  UNL     1      -2.239  -1.486   1.385  1.00  0.00     0.189 HD
ENDROOT
BRANCH   1  13
HETATM   13  N1  UNL     1      -3.437  -0.362  -0.545  1.00  0.00    -0.234 N 
ATOM     14  H12 UNL     1      -3.833   0.128  -1.347  1.00  0.00     0.174 HD
ATOM     15  H11 UNL     1      -4.070  -0.916   0.032  1.00  0.00     0.174 HD
ENDBRANCH   1  13
BRANCH   4  16
HETATM   16  N3  UNL     1       0.712   1.250  -1.522  1.00  0.00    -0.233 N 
ATOM     17  H32 UNL     1       0.311   1.738  -2.323  1.00  0.00     0.174 HD
ATOM     18  H31 UNL     1       1.710   1.326  -1.324  1.00  0.00     0.174 HD
ENDBRANCH   4  16
TORSDOF 2
