REMARK  3 active torsions:
REMARK  status: ('A' for Active; 'I' for Inactive)
REMARK    1  A    between atoms: N1_2  and  C2_4 
REMARK    2  A    between atoms: C4_13  and  N6_14 
REMARK    3  A    between atoms: N6_14  and  N7_16 
ROOT
HETATM    1  N7  UNL     1      -1.744   2.164   0.622  1.00  0.00    -0.235 N 
ATOM      2  H7  UNL     1      -2.245   1.772   1.420  1.00  0.00     0.199 HD
HETATM    3  C5  UNL     1      -2.493   2.765  -0.411  1.00  0.00     0.197 C 
HETATM    4  N8  UNL     1      -3.111   3.265  -1.263  1.00  0.00    -0.170 NA
ENDROOT
BRANCH   1   5
HETATM    5  N6  UNL     1      -0.371   2.081   0.606  1.00  0.00    -0.273 N 
ATOM      6  H6  UNL     1       0.151   2.934   0.806  1.00  0.00     0.189 HD
BRANCH   5   7
HETATM    7  C4  UNL     1       0.305   1.023   0.361  1.00  0.00     0.169 A 
HETATM    8  C2  UNL     1      -0.294  -0.177   0.080  1.00  0.00     0.162 A 
HETATM    9  N2  UNL     1       0.473  -1.273  -0.174  1.00  0.00    -0.280 N 
HETATM   10  N3  UNL     1       1.796  -1.219  -0.158  1.00  0.00    -0.272 N 
ATOM     11  H2  UNL     1       0.016  -2.161  -0.382  1.00  0.00     0.188 HD
HETATM   12  C3  UNL     1       2.387  -0.034   0.119  1.00  0.00     0.208 A 
ATOM     13  H3  UNL     1       2.355  -2.050  -0.350  1.00  0.00     0.189 HD
HETATM   14  N4  UNL     1       3.825  -0.023   0.125  1.00  0.00    -0.062 NA
HETATM   15  N5  UNL     1       1.670   1.065   0.373  1.00  0.00    -0.311 N 
ATOM     16  H5  UNL     1       2.147   1.943   0.578  1.00  0.00     0.170 HD
BRANCH   8  17
HETATM   17  N1  UNL     1      -1.572  -0.255   0.059  1.00  0.00    -0.377 N 
HETATM   18  C1  UNL     1      -2.280  -1.477  -0.227  1.00  0.00     0.148 C 
ATOM     19  H1  UNL     1      -2.114   0.587   0.254  1.00  0.00     0.160 HD
ENDBRANCH   8  17
ENDBRANCH   5   7
ENDBRANCH   1   5
TORSDOF 3
