MODEL 1
REMARK VINA RESULT: -5.171839374      0.000      0.000
REMARK  1 active torsions:
REMARK  status: ('A' for Active; 'I' for Inactive)
REMARK    1  A    between atoms: N1_1  and  C1_5 
ROOT
HETATM    1  C1  UNL     1      27.244   6.793   4.198  1.00  0.00     0.128 C 
HETATM    2  C2  UNL     1      27.508   5.355   3.840  1.00  0.00     0.039 C 
HETATM    3  C3  UNL     1      26.265   4.575   4.160  1.00  0.00     0.007 C 
HETATM    4  C4  UNL     1      25.420   5.488   5.034  1.00  0.00    -0.007 A 
HETATM    5  C5  UNL     1      26.038   5.628   6.414  1.00  0.00     0.010 A 
HETATM    6  C6  UNL     1      26.374   7.056   6.098  1.00  0.00    -0.005 A 
HETATM    7  C7  UNL     1      27.765   7.214   5.567  1.00  0.00     0.044 C 
HETATM    8  C8  UNL     1      25.860   6.882   4.735  1.00  0.00     0.029 A 
ENDROOT
BRANCH   1   9
HETATM    9  N1  UNL     1      27.559   7.730   3.180  1.00  0.00    -0.070 N 
ATOM     10  H13 UNL     1      27.170   7.425   2.287  1.00  0.00     0.275 HD
ATOM     11  H12 UNL     1      27.031   8.592   3.318  1.00  0.00     0.275 HD
ATOM     12  H11 UNL     1      28.552   7.938   3.080  1.00  0.00     0.275 HD
ENDBRANCH   1   9
TORSDOF 1
ENDMDL
MODEL 2
REMARK VINA RESULT: -5.105278952      1.266      2.399
REMARK  1 active torsions:
REMARK  status: ('A' for Active; 'I' for Inactive)
REMARK    1  A    between atoms: N1_1  and  C1_5 
ROOT
HETATM    1  C1  UNL     1      26.581   5.747   4.184  1.00  0.00     0.128 C 
HETATM    2  C2  UNL     1      27.002   7.187   4.299  1.00  0.00     0.039 C 
HETATM    3  C3  UNL     1      27.564   7.384   5.678  1.00  0.00     0.007 C 
HETATM    4  C4  UNL     1      27.137   6.162   6.474  1.00  0.00    -0.007 A 
HETATM    5  C5  UNL     1      25.646   6.205   6.760  1.00  0.00     0.010 A 
HETATM    6  C6  UNL     1      25.451   5.051   5.820  1.00  0.00    -0.005 A 
HETATM    7  C7  UNL     1      25.098   5.495   4.434  1.00  0.00     0.044 C 
HETATM    8  C8  UNL     1      26.878   5.081   5.480  1.00  0.00     0.029 A 
ENDROOT
BRANCH   1   9
HETATM    9  N1  UNL     1      27.064   5.073   3.032  1.00  0.00    -0.070 N 
ATOM     10  H13 UNL     1      28.076   4.955   3.091  1.00  0.00     0.275 HD
ATOM     11  H12 UNL     1      26.771   4.096   3.046  1.00  0.00     0.275 HD
ATOM     12  H11 UNL     1      26.810   5.504   2.143  1.00  0.00     0.275 HD
ENDBRANCH   1   9
TORSDOF 1
ENDMDL
MODEL 3
REMARK VINA RESULT: -4.977299596      1.537      2.792
REMARK  1 active torsions:
REMARK  status: ('A' for Active; 'I' for Inactive)
REMARK    1  A    between atoms: N1_1  and  C1_5 
ROOT
HETATM    1  C1  UNL     1      25.871   5.685   4.807  1.00  0.00     0.128 C 
HETATM    2  C2  UNL     1      26.347   5.374   6.200  1.00  0.00     0.039 C 
HETATM    3  C3  UNL     1      26.790   6.666   6.825  1.00  0.00     0.007 C 
HETATM    4  C4  UNL     1      26.911   7.656   5.678  1.00  0.00    -0.007 A 
HETATM    5  C5  UNL     1      28.113   7.326   4.810  1.00  0.00     0.010 A 
HETATM    6  C6  UNL     1      27.181   6.915   3.708  1.00  0.00    -0.005 A 
HETATM    7  C7  UNL     1      26.903   5.443   3.712  1.00  0.00     0.044 C 
HETATM    8  C8  UNL     1      26.030   7.147   4.587  1.00  0.00     0.029 A 
ENDROOT
BRANCH   1   9
HETATM    9  N1  UNL     1      24.593   5.159   4.481  1.00  0.00    -0.070 N 
ATOM     10  H13 UNL     1      23.877   5.878   4.592  1.00  0.00     0.275 HD
ATOM     11  H12 UNL     1      24.525   4.996   3.476  1.00  0.00     0.275 HD
ATOM     12  H11 UNL     1      24.331   4.317   4.993  1.00  0.00     0.275 HD
ENDBRANCH   1   9
TORSDOF 1
ENDMDL
MODEL 4
REMARK VINA RESULT: -4.831778720      1.383      2.192
REMARK  1 active torsions:
REMARK  status: ('A' for Active; 'I' for Inactive)
REMARK    1  A    between atoms: N1_1  and  C1_5 
ROOT
HETATM    1  C1  UNL     1      26.686   6.809   5.663  1.00  0.00     0.128 C 
HETATM    2  C2  UNL     1      27.878   6.973   4.759  1.00  0.00     0.039 C 
HETATM    3  C3  UNL     1      27.480   6.488   3.394  1.00  0.00     0.007 C 
HETATM    4  C4  UNL     1      26.188   5.713   3.595  1.00  0.00    -0.007 A 
HETATM    5  C5  UNL     1      26.459   4.397   4.304  1.00  0.00     0.010 A 
HETATM    6  C6  UNL     1      25.753   4.926   5.518  1.00  0.00    -0.005 A 
HETATM    7  C7  UNL     1      26.696   5.539   6.507  1.00  0.00     0.044 C 
HETATM    8  C8  UNL     1      25.581   6.225   4.858  1.00  0.00     0.029 A 
ENDROOT
BRANCH   1   9
HETATM    9  N1  UNL     1      26.342   7.963   6.415  1.00  0.00    -0.070 N 
ATOM     10  H13 UNL     1      26.807   7.944   7.323  1.00  0.00     0.275 HD
ATOM     11  H12 UNL     1      26.779   8.791   6.009  1.00  0.00     0.275 HD
ATOM     12  H11 UNL     1      25.341   8.116   6.534  1.00  0.00     0.275 HD
ENDBRANCH   1   9
TORSDOF 1
ENDMDL
MODEL 5
REMARK VINA RESULT: -4.798956439      1.852      3.106
REMARK  1 active torsions:
REMARK  status: ('A' for Active; 'I' for Inactive)
REMARK    1  A    between atoms: N1_1  and  C1_5 
ROOT
HETATM    1  C1  UNL     1      26.121   5.421   5.738  1.00  0.00     0.128 C 
HETATM    2  C2  UNL     1      27.179   6.207   6.464  1.00  0.00     0.039 C 
HETATM    3  C3  UNL     1      27.404   7.479   5.696  1.00  0.00     0.007 C 
HETATM    4  C4  UNL     1      26.747   7.262   4.343  1.00  0.00    -0.007 A 
HETATM    5  C5  UNL     1      27.548   6.275   3.512  1.00  0.00     0.010 A 
HETATM    6  C6  UNL     1      26.437   5.276   3.661  1.00  0.00    -0.005 A 
HETATM    7  C7  UNL     1      26.659   4.340   4.808  1.00  0.00     0.044 C 
HETATM    8  C8  UNL     1      25.715   6.202   4.540  1.00  0.00     0.029 A 
ENDROOT
BRANCH   1   9
HETATM    9  N1  UNL     1      25.053   4.962   6.552  1.00  0.00    -0.070 N 
ATOM     10  H13 UNL     1      24.896   3.965   6.399  1.00  0.00     0.275 HD
ATOM     11  H12 UNL     1      25.337   4.948   7.532  1.00  0.00     0.275 HD
ATOM     12  H11 UNL     1      24.179   5.477   6.446  1.00  0.00     0.275 HD
ENDBRANCH   1   9
TORSDOF 1
ENDMDL
