MODEL 1
REMARK VINA RESULT: -4.920426888      0.000      0.000
REMARK  0 active torsions:
REMARK  status: ('A' for Active; 'I' for Inactive)
ROOT
HETATM    1  C1  UNL     1      27.385   7.266   5.813  1.00  0.00     0.005 C 
HETATM    2  C2  UNL     1      27.021   6.005   6.610  1.00  0.00     0.006 C 
HETATM    3  C3  UNL     1      25.809   5.429   5.953  1.00  0.00    -0.006 C 
HETATM    4  C4  UNL     1      26.135   4.758   4.620  1.00  0.00    -0.009 C 
HETATM    5  C5  UNL     1      27.180   5.649   4.014  1.00  0.00     0.010 C 
HETATM    6  C6  UNL     1      26.656   7.004   4.524  1.00  0.00    -0.010 C 
HETATM    7  C7  UNL     1      25.313   6.556   5.034  1.00  0.00    -0.006 C 
HETATM    8  C8  UNL     1      24.853   5.433   4.115  1.00  0.00     0.010 C 
ENDROOT
TORSDOF 0
ENDMDL
MODEL 2
REMARK VINA RESULT: -4.804032764      0.808      2.156
REMARK  0 active torsions:
REMARK  status: ('A' for Active; 'I' for Inactive)
ROOT
HETATM    1  C1  UNL     1      27.599   6.466   3.499  1.00  0.00     0.005 C 
HETATM    2  C2  UNL     1      26.995   5.080   3.233  1.00  0.00     0.006 C 
HETATM    3  C3  UNL     1      26.412   4.620   4.530  1.00  0.00    -0.006 C 
HETATM    4  C4  UNL     1      25.121   5.357   4.879  1.00  0.00    -0.009 C 
HETATM    5  C5  UNL     1      25.375   6.765   4.427  1.00  0.00     0.010 C 
HETATM    6  C6  UNL     1      26.876   6.850   4.761  1.00  0.00    -0.010 C 
HETATM    7  C7  UNL     1      27.005   5.586   5.567  1.00  0.00    -0.006 C 
HETATM    8  C8  UNL     1      25.686   5.404   6.304  1.00  0.00     0.010 C 
ENDROOT
TORSDOF 0
ENDMDL
MODEL 3
REMARK VINA RESULT: -4.793858368      0.844      2.136
REMARK  0 active torsions:
REMARK  status: ('A' for Active; 'I' for Inactive)
ROOT
HETATM    1  C1  UNL     1      26.035   5.629   6.701  1.00  0.00     0.005 C 
HETATM    2  C2  UNL     1      26.581   6.973   6.198  1.00  0.00     0.006 C 
HETATM    3  C3  UNL     1      27.112   6.723   4.824  1.00  0.00    -0.006 C 
HETATM    4  C4  UNL     1      25.998   6.543   3.795  1.00  0.00    -0.009 C 
HETATM    5  C5  UNL     1      24.946   5.768   4.535  1.00  0.00     0.010 C 
HETATM    6  C6  UNL     1      25.868   4.890   5.401  1.00  0.00    -0.010 C 
HETATM    7  C7  UNL     1      27.177   5.192   4.724  1.00  0.00    -0.006 C 
HETATM    8  C8  UNL     1      26.865   5.401   3.249  1.00  0.00     0.010 C 
ENDROOT
TORSDOF 0
ENDMDL
MODEL 4
REMARK VINA RESULT: -4.640726421      0.742      2.611
REMARK  0 active torsions:
REMARK  status: ('A' for Active; 'I' for Inactive)
ROOT
HETATM    1  C1  UNL     1      25.848   4.909   4.199  1.00  0.00     0.005 C 
HETATM    2  C2  UNL     1      27.214   5.559   3.938  1.00  0.00     0.006 C 
HETATM    3  C3  UNL     1      27.240   6.820   4.740  1.00  0.00    -0.006 C 
HETATM    4  C4  UNL     1      27.409   6.553   6.234  1.00  0.00    -0.009 C 
HETATM    5  C5  UNL     1      26.587   5.320   6.476  1.00  0.00     0.010 C 
HETATM    6  C6  UNL     1      25.450   5.597   5.476  1.00  0.00    -0.010 C 
HETATM    7  C7  UNL     1      25.774   7.030   5.148  1.00  0.00    -0.006 C 
HETATM    8  C8  UNL     1      26.348   7.646   6.417  1.00  0.00     0.010 C 
ENDROOT
TORSDOF 0
ENDMDL
MODEL 5
REMARK VINA RESULT: -4.489159021      0.808      2.260
REMARK  0 active torsions:
REMARK  status: ('A' for Active; 'I' for Inactive)
ROOT
HETATM    1  C1  UNL     1      26.872   5.359   3.204  1.00  0.00     0.005 C 
HETATM    2  C2  UNL     1      27.436   6.596   3.918  1.00  0.00     0.006 C 
HETATM    3  C3  UNL     1      26.594   6.801   5.134  1.00  0.00    -0.006 C 
HETATM    4  C4  UNL     1      26.886   5.770   6.223  1.00  0.00    -0.009 C 
HETATM    5  C5  UNL     1      27.117   4.497   5.462  1.00  0.00     0.010 C 
HETATM    6  C6  UNL     1      26.102   4.716   4.326  1.00  0.00    -0.010 C 
HETATM    7  C7  UNL     1      25.371   5.902   4.894  1.00  0.00    -0.006 C 
HETATM    8  C8  UNL     1      25.364   5.724   6.406  1.00  0.00     0.010 C 
ENDROOT
TORSDOF 0
ENDMDL
