MODEL 1
REMARK VINA RESULT: -6.262788943      0.000      0.000
REMARK  1 active torsions:
REMARK  status: ('A' for Active; 'I' for Inactive)
REMARK    1  A    between atoms: C2_2  and  N1_3 
ROOT
HETATM    1  C1  UNL     1      16.249 -16.505  22.004  1.00  0.00     0.047 C 
HETATM    2  C2  UNL     1      16.613 -15.043  22.102  1.00  0.00     0.129 C 
HETATM    3  C3  UNL     1      17.549 -14.662  21.004  1.00  0.00     0.031 A 
HETATM    4  C4  UNL     1      17.422 -14.199  19.694  1.00  0.00    -0.003 A 
HETATM    5  C5  UNL     1      16.585 -14.245  18.507  1.00  0.00     0.006 C 
HETATM    6  C6  UNL     1      15.136 -14.499  18.333  1.00  0.00     0.007 C 
HETATM    7  C7  UNL     1      14.133 -13.536  18.997  1.00  0.00     0.013 C 
HETATM    8  C8  UNL     1      15.003 -12.964  19.950  1.00  0.00     0.028 C 
HETATM    9  C9  UNL     1      14.969 -12.121  21.114  1.00  0.00     0.195 C 
HETATM   10  N2  UNL     1      13.830 -12.357  21.931  1.00  0.00    -0.069 N 
ATOM     11  H21 UNL     1      13.471 -11.513  22.377  1.00  0.00     0.277 HD
ATOM     12  H22 UNL     1      14.046 -12.871  22.786  1.00  0.00     0.277 HD
HETATM   13  C10 UNL     1      12.839 -13.034  21.079  1.00  0.00     0.254 C 
HETATM   14  C11 UNL     1      13.428 -14.103  20.248  1.00  0.00     0.050 C 
HETATM   15 BR1  UNL     1      12.397 -15.656  19.925  1.00  0.00    -0.083 Br
HETATM   16  C12 UNL     1      14.896 -14.254  20.580  1.00  0.00     0.020 C 
HETATM   17  C13 UNL     1      15.432 -14.128  21.943  1.00  0.00     0.034 C 
HETATM   18  C14 UNL     1      16.245 -12.851  21.643  1.00  0.00     0.028 C 
HETATM   19  C15 UNL     1      17.279 -13.157  20.694  1.00  0.00     0.003 A 
ENDROOT
BRANCH   2  20
HETATM   20  N1  UNL     1      17.128 -14.822  23.442  1.00  0.00    -0.070 N 
ATOM     21  H13 UNL     1      17.682 -15.604  23.792  1.00  0.00     0.275 HD
ATOM     22  H12 UNL     1      17.862 -14.116  23.477  1.00  0.00     0.275 HD
ATOM     23  H11 UNL     1      16.329 -14.600  24.035  1.00  0.00     0.275 HD
ENDBRANCH   2  20
TORSDOF 1
ENDMDL
MODEL 2
REMARK VINA RESULT: -6.244962364      2.570      4.275
REMARK  1 active torsions:
REMARK  status: ('A' for Active; 'I' for Inactive)
REMARK    1  A    between atoms: C2_2  and  N1_3 
ROOT
HETATM    1  C1  UNL     1      16.947 -13.576  16.666  1.00  0.00     0.047 C 
HETATM    2  C2  UNL     1      15.818 -13.250  17.614  1.00  0.00     0.129 C 
HETATM    3  C3  UNL     1      15.018 -14.473  17.916  1.00  0.00     0.031 A 
HETATM    4  C4  UNL     1      15.072 -15.499  18.861  1.00  0.00    -0.003 A 
HETATM    5  C5  UNL     1      15.968 -16.292  19.684  1.00  0.00     0.006 C 
HETATM    6  C6  UNL     1      17.317 -16.009  20.227  1.00  0.00     0.007 C 
HETATM    7  C7  UNL     1      17.489 -14.820  21.192  1.00  0.00     0.013 C 
HETATM    8  C8  UNL     1      16.310 -14.119  20.862  1.00  0.00     0.028 C 
HETATM    9  C9  UNL     1      15.681 -12.845  21.083  1.00  0.00     0.195 C 
HETATM   10  N2  UNL     1      16.610 -11.769  21.102  1.00  0.00    -0.069 N 
ATOM     11  H21 UNL     1      16.360 -11.031  21.760  1.00  0.00     0.277 HD
ATOM     12  H22 UNL     1      16.585 -11.199  20.257  1.00  0.00     0.277 HD
HETATM   13  C10 UNL     1      17.930 -12.364  21.366  1.00  0.00     0.254 C 
HETATM   14  C11 UNL     1      18.181 -13.585  20.575  1.00  0.00     0.050 C 
HETATM   15 BR1  UNL     1      19.939 -13.905  19.954  1.00  0.00    -0.083 Br
HETATM   16  C12 UNL     1      17.017 -13.833  19.642  1.00  0.00     0.020 C 
HETATM   17  C13 UNL     1      16.293 -12.756  18.950  1.00  0.00     0.034 C 
HETATM   18  C14 UNL     1      14.966 -12.992  19.702  1.00  0.00     0.028 C 
HETATM   19  C15 UNL     1      14.447 -14.285  19.355  1.00  0.00     0.003 A 
ENDROOT
BRANCH   2  20
HETATM   20  N1  UNL     1      15.062 -12.163  17.018  1.00  0.00    -0.070 N 
ATOM     21  H13 UNL     1      15.484 -11.805  16.161  1.00  0.00     0.275 HD
ATOM     22  H12 UNL     1      14.178 -12.466  16.611  1.00  0.00     0.275 HD
ATOM     23  H11 UNL     1      14.949 -11.449  17.737  1.00  0.00     0.275 HD
ENDBRANCH   2  20
TORSDOF 1
ENDMDL
MODEL 3
REMARK VINA RESULT: -6.149838752      1.929      3.902
REMARK  1 active torsions:
REMARK  status: ('A' for Active; 'I' for Inactive)
REMARK    1  A    between atoms: C2_2  and  N1_3 
ROOT
HETATM    1  C1  UNL     1      14.349 -11.056  21.562  1.00  0.00     0.047 C 
HETATM    2  C2  UNL     1      13.772 -12.450  21.613  1.00  0.00     0.129 C 
HETATM    3  C3  UNL     1      13.256 -12.852  20.272  1.00  0.00     0.031 A 
HETATM    4  C4  UNL     1      13.785 -13.472  19.138  1.00  0.00    -0.003 A 
HETATM    5  C5  UNL     1      14.994 -13.651  18.353  1.00  0.00     0.006 C 
HETATM    6  C6  UNL     1      16.427 -13.575  18.720  1.00  0.00     0.007 C 
HETATM    7  C7  UNL     1      16.972 -14.557  19.775  1.00  0.00     0.013 C 
HETATM    8  C8  UNL     1      15.744 -14.920  20.367  1.00  0.00     0.028 C 
HETATM    9  C9  UNL     1      15.232 -15.624  21.511  1.00  0.00     0.195 C 
HETATM   10  N2  UNL     1      16.016 -15.418  22.679  1.00  0.00    -0.069 N 
ATOM     11  H21 UNL     1      16.065 -16.239  23.283  1.00  0.00     0.277 HD
ATOM     12  H22 UNL     1      15.579 -14.791  23.354  1.00  0.00     0.277 HD
HETATM   13  C10 UNL     1      17.335 -14.953  22.219  1.00  0.00     0.254 C 
HETATM   14  C11 UNL     1      17.246 -13.929  21.159  1.00  0.00     0.050 C 
HETATM   15 BR1  UNL     1      18.532 -12.541  21.145  1.00  0.00    -0.083 Br
HETATM   16  C12 UNL     1      15.796 -13.586  20.904  1.00  0.00     0.020 C 
HETATM   17  C13 UNL     1      14.787 -13.497  21.970  1.00  0.00     0.034 C 
HETATM   18  C14 UNL     1      13.967 -14.707  21.472  1.00  0.00     0.028 C 
HETATM   19  C15 UNL     1      13.405 -14.403  20.187  1.00  0.00     0.003 A 
ENDROOT
BRANCH   2  20
HETATM   20  N1  UNL     1      12.779 -12.460  22.672  1.00  0.00    -0.070 N 
ATOM     21  H13 UNL     1      12.844 -11.652  23.290  1.00  0.00     0.275 HD
ATOM     22  H12 UNL     1      11.832 -12.289  22.334  1.00  0.00     0.275 HD
ATOM     23  H11 UNL     1      12.875 -13.349  23.162  1.00  0.00     0.275 HD
ENDBRANCH   2  20
TORSDOF 1
ENDMDL
MODEL 4
REMARK VINA RESULT: -6.065545012      1.159      1.436
REMARK  1 active torsions:
REMARK  status: ('A' for Active; 'I' for Inactive)
REMARK    1  A    between atoms: C2_2  and  N1_3 
ROOT
HETATM    1  C1  UNL     1      17.601 -15.469  21.537  1.00  0.00     0.047 C 
HETATM    2  C2  UNL     1      17.357 -14.040  21.115  1.00  0.00     0.129 C 
HETATM    3  C3  UNL     1      17.424 -13.914  19.630  1.00  0.00     0.031 A 
HETATM    4  C4  UNL     1      16.522 -14.029  18.572  1.00  0.00    -0.003 A 
HETATM    5  C5  UNL     1      15.320 -14.710  18.121  1.00  0.00     0.006 C 
HETATM    6  C6  UNL     1      14.197 -15.322  18.868  1.00  0.00     0.007 C 
HETATM    7  C7  UNL     1      13.340 -14.424  19.781  1.00  0.00     0.013 C 
HETATM    8  C8  UNL     1      14.250 -13.355  19.923  1.00  0.00     0.028 C 
HETATM    9  C9  UNL     1      14.441 -12.159  20.699  1.00  0.00     0.195 C 
HETATM   10  N2  UNL     1      14.024 -12.308  22.050  1.00  0.00    -0.069 N 
ATOM     11  H21 UNL     1      13.618 -11.459  22.443  1.00  0.00     0.277 HD
ATOM     12  H22 UNL     1      14.800 -12.393  22.705  1.00  0.00     0.277 HD
HETATM   13  C10 UNL     1      13.107 -13.459  22.078  1.00  0.00     0.254 C 
HETATM   14  C11 UNL     1      13.601 -14.608  21.292  1.00  0.00     0.050 C 
HETATM   15 BR1  UNL     1      13.250 -16.351  21.937  1.00  0.00    -0.083 Br
HETATM   16  C12 UNL     1      14.973 -14.293  20.740  1.00  0.00     0.020 C 
HETATM   17  C13 UNL     1      15.991 -13.540  21.488  1.00  0.00     0.034 C 
HETATM   18  C14 UNL     1      15.985 -12.330  20.529  1.00  0.00     0.028 C 
HETATM   19  C15 UNL     1      16.470 -12.742  19.242  1.00  0.00     0.003 A 
ENDROOT
BRANCH   2  20
HETATM   20  N1  UNL     1      18.309 -13.215  21.838  1.00  0.00    -0.070 N 
ATOM     21  H13 UNL     1      19.279 -13.473  21.659  1.00  0.00     0.275 HD
ATOM     22  H12 UNL     1      18.360 -12.260  21.484  1.00  0.00     0.275 HD
ATOM     23  H11 UNL     1      18.057 -13.264  22.825  1.00  0.00     0.275 HD
ENDBRANCH   2  20
TORSDOF 1
ENDMDL
MODEL 5
REMARK VINA RESULT: -6.036920201      1.617      2.195
REMARK  1 active torsions:
REMARK  status: ('A' for Active; 'I' for Inactive)
REMARK    1  A    between atoms: C2_2  and  N1_3 
ROOT
HETATM    1  C1  UNL     1      17.342 -16.803  20.912  1.00  0.00     0.047 C 
HETATM    2  C2  UNL     1      17.115 -15.546  21.717  1.00  0.00     0.129 C 
HETATM    3  C3  UNL     1      18.372 -14.747  21.805  1.00  0.00     0.031 A 
HETATM    4  C4  UNL     1      18.983 -13.750  21.043  1.00  0.00    -0.003 A 
HETATM    5  C5  UNL     1      19.155 -13.243  19.692  1.00  0.00     0.006 C 
HETATM    6  C6  UNL     1      18.305 -13.352  18.484  1.00  0.00     0.007 C 
HETATM    7  C7  UNL     1      16.886 -12.751  18.524  1.00  0.00     0.013 C 
HETATM    8  C8  UNL     1      16.734 -12.685  19.925  1.00  0.00     0.028 C 
HETATM    9  C9  UNL     1      15.724 -12.441  20.919  1.00  0.00     0.195 C 
HETATM   10  N2  UNL     1      14.458 -12.980  20.559  1.00  0.00    -0.069 N 
ATOM     11  H21 UNL     1      13.672 -12.410  20.872  1.00  0.00     0.277 HD
ATOM     12  H22 UNL     1      14.217 -13.824  21.079  1.00  0.00     0.277 HD
HETATM   13  C10 UNL     1      14.490 -13.181  19.102  1.00  0.00     0.254 C 
HETATM   14  C11 UNL     1      15.750 -13.791  18.632  1.00  0.00     0.050 C 
HETATM   15 BR1  UNL     1      15.670 -15.011  17.188  1.00  0.00    -0.083 Br
HETATM   16  C12 UNL     1      16.630 -14.116  19.818  1.00  0.00     0.020 C 
HETATM   17  C13 UNL     1      16.108 -14.621  21.096  1.00  0.00     0.034 C 
HETATM   18  C14 UNL     1      16.509 -13.367  21.902  1.00  0.00     0.028 C 
HETATM   19  C15 UNL     1      17.940 -13.253  21.923  1.00  0.00     0.003 A 
ENDROOT
BRANCH   2  20
HETATM   20  N1  UNL     1      16.565 -15.955  22.997  1.00  0.00    -0.070 N 
ATOM     21  H13 UNL     1      16.469 -16.966  23.087  1.00  0.00     0.275 HD
ATOM     22  H12 UNL     1      17.212 -15.816  23.773  1.00  0.00     0.275 HD
ATOM     23  H11 UNL     1      15.684 -15.456  23.116  1.00  0.00     0.275 HD
ENDBRANCH   2  20
TORSDOF 1
ENDMDL
