MODEL 1
REMARK VINA RESULT: -8.249239894      0.000      0.000
REMARK  20 active torsions:
REMARK  status: ('A' for Active; 'I' for Inactive)
REMARK    1  A    between atoms: C2_2  and  C3_3 
REMARK    2  A    between atoms: C3_3  and  N1_4 
REMARK    3  A    between atoms: N1_4  and  C4_5 
REMARK       I    between atoms: N1_4  and  C8_9 
REMARK    4  A    between atoms: C4_5  and  C5_6 
REMARK    5  A    between atoms: C8_9  and  O2_11 
REMARK    6  A    between atoms: O2_11  and  C9_12 
REMARK    7  A    between atoms: C9_12  and  C10_13 
REMARK    8  A    between atoms: C9_12  and  C18_24 
REMARK    9  A    between atoms: C9_12  and  C29_35 
REMARK   10  A    between atoms: C10_13  and  N2_14 
REMARK   11  A    between atoms: N2_14  and  C11_15 
REMARK       I    between atoms: N2_14  and  C14_18 
REMARK   12  A    between atoms: C11_15  and  C12_16 
REMARK       I    between atoms: C14_18  and  N3_20 
REMARK   13  A    between atoms: N3_20  and  C15_21 
REMARK   14  A    between atoms: C15_21  and  C16_22 
REMARK   15  A    between atoms: C18_24  and  C19_25 
REMARK   16  A    between atoms: C29_35  and  O4_36 
REMARK   17  A    between atoms: C29_35  and  C30_38 
REMARK   18  A    between atoms: C30_38  and  N4_39 
REMARK       I    between atoms: N4_39  and  C31_41 
REMARK   19  A    between atoms: C31_41  and  O6_43 
REMARK   20  A    between atoms: O6_43  and  C32_44 
ROOT
HETATM    1  C9  UNL     1     -10.042  16.304  27.772  1.00  0.00     0.132 C 
ENDROOT
BRANCH   1   2
HETATM    2  O2  UNL     1      -8.785  16.138  28.527  1.00  0.00    -0.284 OA
BRANCH   2   3
HETATM    3  C8  UNL     1      -7.546  16.003  28.184  1.00  0.00     0.364 C 
HETATM    4  N1  UNL     1      -6.509  16.973  28.174  1.00  0.00    -0.324 N 
HETATM    5  O1  UNL     1      -7.237  14.818  27.794  1.00  0.00    -0.238 OA
BRANCH   4   6
HETATM    6  C3  UNL     1      -6.659  18.285  28.690  1.00  0.00     0.154 C 
BRANCH   6   7
HETATM    7  C2  UNL     1      -7.420  19.157  27.720  1.00  0.00    -0.017 C 
HETATM    8  C1  UNL     1      -6.792  20.032  26.981  1.00  0.00     0.008 C 
ENDBRANCH   6   7
ENDBRANCH   4   6
BRANCH   4   9
HETATM    9  C4  UNL     1      -5.217  16.630  27.561  1.00  0.00     0.132 C 
BRANCH   9  10
HETATM   10  C5  UNL     1      -4.352  17.811  27.320  1.00  0.00    -0.005 C 
HETATM   11  C6  UNL     1      -3.342  18.059  28.426  1.00  0.00     0.011 C 
HETATM   12  C7  UNL     1      -3.667  17.919  26.014  1.00  0.00     0.011 C 
ENDBRANCH   9  10
ENDBRANCH   4   9
ENDBRANCH   2   3
ENDBRANCH   1   2
BRANCH   1  13
HETATM   13  C10 UNL     1      -9.643  16.805  26.486  1.00  0.00     0.111 C 
BRANCH  13  14
HETATM   14  N2  UNL     1      -9.197  16.351  25.274  1.00  0.00    -0.299 N 
HETATM   15  C14 UNL     1     -10.223  16.019  24.267  1.00  0.00     0.399 C 
HETATM   16  O3  UNL     1     -11.394  16.167  24.666  1.00  0.00    -0.230 OA
HETATM   17  N3  UNL     1      -9.908  15.583  23.004  1.00  0.00    -0.369 NA
BRANCH  14  18
HETATM   18  C11 UNL     1      -7.884  16.137  24.737  1.00  0.00     0.133 C 
BRANCH  18  19
HETATM   19  C12 UNL     1      -7.065  17.369  24.485  1.00  0.00     0.016 C 
HETATM   20  C13 UNL     1      -7.016  17.884  23.096  1.00  0.00     0.006 C 
ENDBRANCH  18  19
ENDBRANCH  14  18
BRANCH  17  21
HETATM   21  C15 UNL     1      -9.617  15.149  21.745  1.00  0.00     0.160 C 
BRANCH  21  22
HETATM   22  C16 UNL     1      -9.308  16.210  20.701  1.00  0.00     0.055 C 
HETATM   23  C17 UNL     1      -8.016  16.031  19.998  1.00  0.00     0.011 C 
ENDBRANCH  21  22
ENDBRANCH  17  21
ENDBRANCH  13  14
ENDBRANCH   1  13
BRANCH   1  24
HETATM   24  C18 UNL     1     -10.640  14.961  27.952  1.00  0.00     0.056 C 
BRANCH  24  25
HETATM   25  C19 UNL     1     -11.950  14.471  28.287  1.00  0.00    -0.036 C 
HETATM   26  C20 UNL     1     -11.879  13.061  27.561  1.00  0.00     0.014 C 
HETATM   27  C21 UNL     1     -13.073  12.260  27.684  1.00  0.00    -0.013 C 
HETATM   28  C22 UNL     1     -13.147  11.743  29.129  1.00  0.00     0.009 C 
HETATM   29  C26 UNL     1     -14.377  12.919  27.384  1.00  0.00     0.009 C 
HETATM   30  C23 UNL     1     -13.178  12.995  29.943  1.00  0.00    -0.013 C 
HETATM   31  C24 UNL     1     -14.428  13.839  29.686  1.00  0.00     0.009 C 
HETATM   32  C28 UNL     1     -12.018  13.913  29.727  1.00  0.00     0.014 C 
HETATM   33  C25 UNL     1     -14.424  14.176  28.236  1.00  0.00    -0.013 C 
HETATM   34  C27 UNL     1     -13.217  14.995  27.822  1.00  0.00     0.014 C 
ENDBRANCH  24  25
ENDBRANCH   1  24
BRANCH   1  35
HETATM   35  C29 UNL     1     -10.641  17.307  28.736  1.00  0.00     0.176 C 
BRANCH  35  36
HETATM   36  O4  UNL     1     -11.210  18.415  28.303  1.00  0.00    -0.391 OA
ATOM     37  H4  UNL     1     -12.128  18.596  28.471  1.00  0.00     0.210 HD
ENDBRANCH  35  36
BRANCH  35  38
HETATM   38  C30 UNL     1      -9.999  17.482  30.076  1.00  0.00     0.160 C 
BRANCH  38  39
HETATM   39  N4  UNL     1     -10.527  16.499  31.014  1.00  0.00    -0.334 N 
HETATM   40  C31 UNL     1      -9.527  15.890  31.897  1.00  0.00     0.361 C 
HETATM   41  O5  UNL     1      -8.349  16.235  31.845  1.00  0.00    -0.238 OA
ATOM     42  H4  UNL     1     -11.517  16.255  31.053  1.00  0.00     0.164 HD
BRANCH  40  43
HETATM   43  O6  UNL     1      -9.953  14.922  32.773  1.00  0.00    -0.294 OA
BRANCH  43  44
HETATM   44  C32 UNL     1     -10.747  15.128  33.888  1.00  0.00     0.061 C 
HETATM   45  C33 UNL     1     -10.279  16.383  34.605  1.00  0.00     0.046 C 
HETATM   46  C34 UNL     1     -10.562  13.997  34.903  1.00  0.00     0.046 C 
HETATM   47  C35 UNL     1     -12.238  15.212  33.559  1.00  0.00     0.046 C 
ENDBRANCH  43  44
ENDBRANCH  40  43
ENDBRANCH  38  39
ENDBRANCH  35  38
ENDBRANCH   1  35
TORSDOF 20
ENDMDL
MODEL 2
REMARK VINA RESULT: -8.078730013      1.460      6.414
REMARK  20 active torsions:
REMARK  status: ('A' for Active; 'I' for Inactive)
REMARK    1  A    between atoms: C2_2  and  C3_3 
REMARK    2  A    between atoms: C3_3  and  N1_4 
REMARK    3  A    between atoms: N1_4  and  C4_5 
REMARK       I    between atoms: N1_4  and  C8_9 
REMARK    4  A    between atoms: C4_5  and  C5_6 
REMARK    5  A    between atoms: C8_9  and  O2_11 
REMARK    6  A    between atoms: O2_11  and  C9_12 
REMARK    7  A    between atoms: C9_12  and  C10_13 
REMARK    8  A    between atoms: C9_12  and  C18_24 
REMARK    9  A    between atoms: C9_12  and  C29_35 
REMARK   10  A    between atoms: C10_13  and  N2_14 
REMARK   11  A    between atoms: N2_14  and  C11_15 
REMARK       I    between atoms: N2_14  and  C14_18 
REMARK   12  A    between atoms: C11_15  and  C12_16 
REMARK       I    between atoms: C14_18  and  N3_20 
REMARK   13  A    between atoms: N3_20  and  C15_21 
REMARK   14  A    between atoms: C15_21  and  C16_22 
REMARK   15  A    between atoms: C18_24  and  C19_25 
REMARK   16  A    between atoms: C29_35  and  O4_36 
REMARK   17  A    between atoms: C29_35  and  C30_38 
REMARK   18  A    between atoms: C30_38  and  N4_39 
REMARK       I    between atoms: N4_39  and  C31_41 
REMARK   19  A    between atoms: C31_41  and  O6_43 
REMARK   20  A    between atoms: O6_43  and  C32_44 
ROOT
HETATM    1  C9  UNL     1      -9.524  16.229  28.318  1.00  0.00     0.132 C 
ENDROOT
BRANCH   1   2
HETATM    2  O2  UNL     1     -10.004  16.753  29.612  1.00  0.00    -0.284 OA
BRANCH   2   3
HETATM    3  C8  UNL     1      -9.447  16.941  30.763  1.00  0.00     0.364 C 
HETATM    4  N1  UNL     1      -9.700  16.288  31.998  1.00  0.00    -0.324 N 
HETATM    5  O1  UNL     1      -8.547  17.859  30.765  1.00  0.00    -0.238 OA
BRANCH   4   6
HETATM    6  C3  UNL     1     -10.569  15.175  32.131  1.00  0.00     0.154 C 
BRANCH   6   7
HETATM    7  C2  UNL     1     -11.859  15.582  32.803  1.00  0.00    -0.017 C 
HETATM    8  C1  UNL     1     -12.524  14.727  33.534  1.00  0.00     0.008 C 
ENDBRANCH   6   7
ENDBRANCH   4   6
BRANCH   4   9
HETATM    9  C4  UNL     1      -9.070  16.805  33.222  1.00  0.00     0.132 C 
BRANCH   9  10
HETATM   10  C5  UNL     1      -8.430  15.748  34.042  1.00  0.00    -0.005 C 
HETATM   11  C6  UNL     1      -9.063  15.576  35.411  1.00  0.00     0.011 C 
HETATM   12  C7  UNL     1      -8.236  14.415  33.435  1.00  0.00     0.011 C 
ENDBRANCH   9  10
ENDBRANCH   4   9
ENDBRANCH   2   3
ENDBRANCH   1   2
BRANCH   1  13
HETATM   13  C10 UNL     1      -8.092  16.303  28.393  1.00  0.00     0.111 C 
BRANCH  13  14
HETATM   14  N2  UNL     1      -7.041  16.952  27.801  1.00  0.00    -0.299 N 
HETATM   15  C14 UNL     1      -6.706  16.558  26.420  1.00  0.00     0.399 C 
HETATM   16  O3  UNL     1      -7.417  15.641  25.965  1.00  0.00    -0.230 OA
HETATM   17  N3  UNL     1      -5.696  17.152  25.703  1.00  0.00    -0.369 NA
BRANCH  14  18
HETATM   18  C11 UNL     1      -6.167  17.999  28.247  1.00  0.00     0.133 C 
BRANCH  18  19
HETATM   19  C12 UNL     1      -4.952  17.563  29.013  1.00  0.00     0.016 C 
HETATM   20  C13 UNL     1      -3.631  17.998  28.504  1.00  0.00     0.006 C 
ENDBRANCH  18  19
ENDBRANCH  14  18
BRANCH  17  21
HETATM   21  C15 UNL     1      -4.699  17.728  24.976  1.00  0.00     0.160 C 
BRANCH  21  22
HETATM   22  C16 UNL     1      -4.902  19.172  24.543  1.00  0.00     0.055 C 
HETATM   23  C17 UNL     1      -4.712  20.174  25.617  1.00  0.00     0.011 C 
ENDBRANCH  21  22
ENDBRANCH  17  21
ENDBRANCH  13  14
ENDBRANCH   1  13
BRANCH   1  24
HETATM   24  C18 UNL     1     -10.252  14.940  28.267  1.00  0.00     0.056 C 
BRANCH  24  25
HETATM   25  C19 UNL     1     -11.570  14.505  28.643  1.00  0.00    -0.036 C 
HETATM   26  C20 UNL     1     -11.843  13.488  27.454  1.00  0.00     0.014 C 
HETATM   27  C21 UNL     1     -13.131  12.837  27.501  1.00  0.00    -0.013 C 
HETATM   28  C22 UNL     1     -13.098  11.811  28.646  1.00  0.00     0.009 C 
HETATM   29  C26 UNL     1     -14.328  13.700  27.716  1.00  0.00     0.009 C 
HETATM   30  C23 UNL     1     -12.802  12.645  29.849  1.00  0.00    -0.013 C 
HETATM   31  C24 UNL     1     -13.910  13.654  30.159  1.00  0.00     0.009 C 
HETATM   32  C28 UNL     1     -11.540  13.442  29.766  1.00  0.00     0.014 C 
HETATM   33  C25 UNL     1     -14.042  14.525  28.960  1.00  0.00    -0.013 C 
HETATM   34  C27 UNL     1     -12.778  15.303  28.650  1.00  0.00     0.014 C 
ENDBRANCH  24  25
ENDBRANCH   1  24
BRANCH   1  35
HETATM   35  C29 UNL     1     -10.217  17.287  27.484  1.00  0.00     0.176 C 
BRANCH  35  36
HETATM   36  O4  UNL     1     -10.982  18.203  28.042  1.00  0.00    -0.391 OA
ATOM     37  H4  UNL     1     -11.878  18.338  27.755  1.00  0.00     0.210 HD
ENDBRANCH  35  36
BRANCH  35  38
HETATM   38  C30 UNL     1     -10.675  16.923  26.107  1.00  0.00     0.160 C 
BRANCH  38  39
HETATM   39  N4  UNL     1      -9.681  17.338  25.125  1.00  0.00    -0.334 N 
HETATM   40  C31 UNL     1      -9.640  16.523  23.907  1.00  0.00     0.361 C 
HETATM   41  O5  UNL     1     -10.426  15.591  23.746  1.00  0.00    -0.238 OA
ATOM     42  H4  UNL     1      -9.061  18.135  25.275  1.00  0.00     0.164 HD
BRANCH  40  43
HETATM   43  O6  UNL     1      -8.693  16.833  22.961  1.00  0.00    -0.294 OA
BRANCH  43  44
HETATM   44  C32 UNL     1      -8.456  16.135  21.790  1.00  0.00     0.061 C 
HETATM   45  C33 UNL     1      -7.276  16.762  21.068  1.00  0.00     0.046 C 
HETATM   46  C34 UNL     1      -9.635  16.278  20.824  1.00  0.00     0.046 C 
HETATM   47  C35 UNL     1      -8.225  14.639  22.016  1.00  0.00     0.046 C 
ENDBRANCH  43  44
ENDBRANCH  40  43
ENDBRANCH  38  39
ENDBRANCH  35  38
ENDBRANCH   1  35
TORSDOF 20
ENDMDL
MODEL 3
REMARK VINA RESULT: -7.934316966      1.561      9.123
REMARK  20 active torsions:
REMARK  status: ('A' for Active; 'I' for Inactive)
REMARK    1  A    between atoms: C2_2  and  C3_3 
REMARK    2  A    between atoms: C3_3  and  N1_4 
REMARK    3  A    between atoms: N1_4  and  C4_5 
REMARK       I    between atoms: N1_4  and  C8_9 
REMARK    4  A    between atoms: C4_5  and  C5_6 
REMARK    5  A    between atoms: C8_9  and  O2_11 
REMARK    6  A    between atoms: O2_11  and  C9_12 
REMARK    7  A    between atoms: C9_12  and  C10_13 
REMARK    8  A    between atoms: C9_12  and  C18_24 
REMARK    9  A    between atoms: C9_12  and  C29_35 
REMARK   10  A    between atoms: C10_13  and  N2_14 
REMARK   11  A    between atoms: N2_14  and  C11_15 
REMARK       I    between atoms: N2_14  and  C14_18 
REMARK   12  A    between atoms: C11_15  and  C12_16 
REMARK       I    between atoms: C14_18  and  N3_20 
REMARK   13  A    between atoms: N3_20  and  C15_21 
REMARK   14  A    between atoms: C15_21  and  C16_22 
REMARK   15  A    between atoms: C18_24  and  C19_25 
REMARK   16  A    between atoms: C29_35  and  O4_36 
REMARK   17  A    between atoms: C29_35  and  C30_38 
REMARK   18  A    between atoms: C30_38  and  N4_39 
REMARK       I    between atoms: N4_39  and  C31_41 
REMARK   19  A    between atoms: C31_41  and  O6_43 
REMARK   20  A    between atoms: O6_43  and  C32_44 
ROOT
HETATM    1  C9  UNL     1      -9.157  16.916  27.909  1.00  0.00     0.132 C 
ENDROOT
BRANCH   1   2
HETATM    2  O2  UNL     1      -9.738  15.761  27.198  1.00  0.00    -0.284 OA
BRANCH   2   3
HETATM    3  C8  UNL     1     -10.184  14.608  27.578  1.00  0.00     0.364 C 
HETATM    4  N1  UNL     1     -11.526  14.164  27.701  1.00  0.00    -0.324 N 
HETATM    5  O1  UNL     1      -9.262  13.767  27.887  1.00  0.00    -0.238 OA
BRANCH   4   6
HETATM    6  C3  UNL     1     -12.645  14.927  27.281  1.00  0.00     0.154 C 
BRANCH   6   7
HETATM    7  C2  UNL     1     -13.347  15.543  28.467  1.00  0.00    -0.017 C 
HETATM    8  C1  UNL     1     -14.585  15.230  28.742  1.00  0.00     0.008 C 
ENDBRANCH   6   7
ENDBRANCH   4   6
BRANCH   4   9
HETATM    9  C4  UNL     1     -11.792  12.864  28.336  1.00  0.00     0.132 C 
BRANCH   9  10
HETATM   10  C5  UNL     1     -13.215  12.451  28.250  1.00  0.00    -0.005 C 
HETATM   11  C6  UNL     1     -13.593  11.854  26.907  1.00  0.00     0.011 C 
HETATM   12  C7  UNL     1     -13.759  11.595  29.325  1.00  0.00     0.011 C 
ENDBRANCH   9  10
ENDBRANCH   4   9
ENDBRANCH   2   3
ENDBRANCH   1   2
BRANCH   1  13
HETATM   13  C10 UNL     1      -9.760  16.896  29.212  1.00  0.00     0.111 C 
BRANCH  13  14
HETATM   14  N2  UNL     1      -9.598  16.304  30.436  1.00  0.00    -0.299 N 
HETATM   15  C14 UNL     1      -8.661  16.952  31.372  1.00  0.00     0.399 C 
HETATM   16  O3  UNL     1      -8.097  17.963  30.910  1.00  0.00    -0.230 OA
HETATM   17  N3  UNL     1      -8.431  16.477  32.640  1.00  0.00    -0.369 NA
BRANCH  14  18
HETATM   18  C11 UNL     1     -10.186  15.144  31.043  1.00  0.00     0.133 C 
BRANCH  18  19
HETATM   19  C12 UNL     1     -11.532  15.341  31.677  1.00  0.00     0.016 C 
HETATM   20  C13 UNL     1     -12.408  14.153  31.804  1.00  0.00     0.006 C 
ENDBRANCH  18  19
ENDBRANCH  14  18
BRANCH  17  21
HETATM   21  C15 UNL     1      -8.190  16.022  33.901  1.00  0.00     0.160 C 
BRANCH  21  22
HETATM   22  C16 UNL     1      -9.342  16.080  34.892  1.00  0.00     0.055 C 
HETATM   23  C17 UNL     1     -10.107  14.819  35.027  1.00  0.00     0.011 C 
ENDBRANCH  21  22
ENDBRANCH  17  21
ENDBRANCH  13  14
ENDBRANCH   1  13
BRANCH   1  24
HETATM   24  C18 UNL     1      -7.713  16.660  27.697  1.00  0.00     0.056 C 
BRANCH  24  25
HETATM   25  C19 UNL     1      -6.592  17.461  27.285  1.00  0.00    -0.036 C 
HETATM   26  C20 UNL     1      -5.466  16.787  28.178  1.00  0.00     0.014 C 
HETATM   27  C21 UNL     1      -4.151  17.362  28.026  1.00  0.00    -0.013 C 
HETATM   28  C22 UNL     1      -3.606  16.936  26.654  1.00  0.00     0.009 C 
HETATM   29  C26 UNL     1      -4.038  18.847  28.103  1.00  0.00     0.009 C 
HETATM   30  C23 UNL     1      -4.615  17.481  25.697  1.00  0.00    -0.013 C 
HETATM   31  C24 UNL     1      -4.685  19.009  25.715  1.00  0.00     0.009 C 
HETATM   32  C28 UNL     1      -6.015  17.009  25.923  1.00  0.00     0.014 C 
HETATM   33  C25 UNL     1      -5.041  19.403  27.105  1.00  0.00    -0.013 C 
HETATM   34  C27 UNL     1      -6.391  18.871  27.545  1.00  0.00     0.014 C 
ENDBRANCH  24  25
ENDBRANCH   1  24
BRANCH   1  35
HETATM   35  C29 UNL     1      -9.683  17.948  26.933  1.00  0.00     0.176 C 
BRANCH  35  36
HETATM   36  O4  UNL     1     -10.241  19.065  27.354  1.00  0.00    -0.391 OA
ATOM     37  H4  UNL     1     -10.190  19.864  26.842  1.00  0.00     0.210 HD
ENDBRANCH  35  36
BRANCH  35  38
HETATM   38  C30 UNL     1     -10.262  17.474  25.637  1.00  0.00     0.160 C 
BRANCH  38  39
HETATM   39  N4  UNL     1      -9.198  17.258  24.665  1.00  0.00    -0.334 N 
HETATM   40  C31 UNL     1      -9.336  16.038  23.862  1.00  0.00     0.361 C 
HETATM   41  O5  UNL     1     -10.308  15.299  24.001  1.00  0.00    -0.238 OA
ATOM     42  H4  UNL     1      -8.418  17.905  24.551  1.00  0.00     0.164 HD
BRANCH  40  43
HETATM   43  O6  UNL     1      -8.342  15.751  22.959  1.00  0.00    -0.294 OA
BRANCH  43  44
HETATM   44  C32 UNL     1      -8.133  16.392  21.750  1.00  0.00     0.061 C 
HETATM   45  C33 UNL     1      -9.477  16.704  21.115  1.00  0.00     0.046 C 
HETATM   46  C34 UNL     1      -7.429  15.463  20.757  1.00  0.00     0.046 C 
HETATM   47  C35 UNL     1      -7.283  17.658  21.877  1.00  0.00     0.046 C 
ENDBRANCH  43  44
ENDBRANCH  40  43
ENDBRANCH  38  39
ENDBRANCH  35  38
ENDBRANCH   1  35
TORSDOF 20
ENDMDL
MODEL 4
REMARK VINA RESULT: -7.873401977      1.456      6.859
REMARK  20 active torsions:
REMARK  status: ('A' for Active; 'I' for Inactive)
REMARK    1  A    between atoms: C2_2  and  C3_3 
REMARK    2  A    between atoms: C3_3  and  N1_4 
REMARK    3  A    between atoms: N1_4  and  C4_5 
REMARK       I    between atoms: N1_4  and  C8_9 
REMARK    4  A    between atoms: C4_5  and  C5_6 
REMARK    5  A    between atoms: C8_9  and  O2_11 
REMARK    6  A    between atoms: O2_11  and  C9_12 
REMARK    7  A    between atoms: C9_12  and  C10_13 
REMARK    8  A    between atoms: C9_12  and  C18_24 
REMARK    9  A    between atoms: C9_12  and  C29_35 
REMARK   10  A    between atoms: C10_13  and  N2_14 
REMARK   11  A    between atoms: N2_14  and  C11_15 
REMARK       I    between atoms: N2_14  and  C14_18 
REMARK   12  A    between atoms: C11_15  and  C12_16 
REMARK       I    between atoms: C14_18  and  N3_20 
REMARK   13  A    between atoms: N3_20  and  C15_21 
REMARK   14  A    between atoms: C15_21  and  C16_22 
REMARK   15  A    between atoms: C18_24  and  C19_25 
REMARK   16  A    between atoms: C29_35  and  O4_36 
REMARK   17  A    between atoms: C29_35  and  C30_38 
REMARK   18  A    between atoms: C30_38  and  N4_39 
REMARK       I    between atoms: N4_39  and  C31_41 
REMARK   19  A    between atoms: C31_41  and  O6_43 
REMARK   20  A    between atoms: O6_43  and  C32_44 
ROOT
HETATM    1  C9  UNL     1      -9.153  16.356  27.591  1.00  0.00     0.132 C 
ENDROOT
BRANCH   1   2
HETATM    2  O2  UNL     1      -9.309  17.044  26.295  1.00  0.00    -0.284 OA
BRANCH   2   3
HETATM    3  C8  UNL     1      -9.756  16.681  25.137  1.00  0.00     0.364 C 
HETATM    4  N1  UNL     1      -9.059  16.556  23.907  1.00  0.00    -0.324 N 
HETATM    5  O1  UNL     1     -11.012  16.408  25.124  1.00  0.00    -0.238 OA
BRANCH   4   6
HETATM    6  C3  UNL     1      -7.654  16.700  23.786  1.00  0.00     0.154 C 
BRANCH   6   7
HETATM    7  C2  UNL     1      -7.309  17.959  23.027  1.00  0.00    -0.017 C 
HETATM    8  C1  UNL     1      -6.283  17.986  22.218  1.00  0.00     0.008 C 
ENDBRANCH   6   7
ENDBRANCH   4   6
BRANCH   4   9
HETATM    9  C4  UNL     1      -9.823  16.307  22.676  1.00  0.00     0.132 C 
BRANCH   9  10
HETATM   10  C5  UNL     1      -9.092  15.471  21.692  1.00  0.00    -0.005 C 
HETATM   11  C6  UNL     1      -9.272  13.979  21.911  1.00  0.00     0.011 C 
HETATM   12  C7  UNL     1      -9.268  15.768  20.255  1.00  0.00     0.011 C 
ENDBRANCH   9  10
ENDBRANCH   4   9
ENDBRANCH   2   3
ENDBRANCH   1   2
BRANCH   1  13
HETATM   13  C10 UNL     1      -9.833  15.101  27.433  1.00  0.00     0.111 C 
BRANCH  13  14
HETATM   14  N2  UNL     1     -10.912  14.421  27.931  1.00  0.00    -0.299 N 
HETATM   15  C14 UNL     1     -10.838  13.994  29.341  1.00  0.00     0.399 C 
HETATM   16  O3  UNL     1      -9.766  14.284  29.906  1.00  0.00    -0.230 OA
HETATM   17  N3  UNL     1     -11.864  13.331  29.970  1.00  0.00    -0.369 NA
BRANCH  14  18
HETATM   18  C11 UNL     1     -12.169  14.033  27.358  1.00  0.00     0.133 C 
BRANCH  18  19
HETATM   19  C12 UNL     1     -13.299  15.005  27.526  1.00  0.00     0.016 C 
HETATM   20  C13 UNL     1     -14.638  14.449  27.833  1.00  0.00     0.006 C 
ENDBRANCH  18  19
ENDBRANCH  14  18
BRANCH  17  21
HETATM   21  C15 UNL     1     -12.870  12.674  30.612  1.00  0.00     0.160 C 
BRANCH  21  22
HETATM   22  C16 UNL     1     -13.502  11.497  29.887  1.00  0.00     0.055 C 
HETATM   23  C17 UNL     1     -14.635  10.864  30.603  1.00  0.00     0.011 C 
ENDBRANCH  21  22
ENDBRANCH  17  21
ENDBRANCH  13  14
ENDBRANCH   1  13
BRANCH   1  24
HETATM   24  C18 UNL     1      -7.685  16.450  27.767  1.00  0.00     0.056 C 
BRANCH  24  25
HETATM   25  C19 UNL     1      -6.662  17.340  27.290  1.00  0.00    -0.036 C 
HETATM   26  C20 UNL     1      -5.541  17.028  28.370  1.00  0.00     0.014 C 
HETATM   27  C21 UNL     1      -4.319  17.778  28.204  1.00  0.00    -0.013 C 
HETATM   28  C22 UNL     1      -3.584  17.214  26.977  1.00  0.00     0.009 C 
HETATM   29  C26 UNL     1      -4.438  19.252  28.007  1.00  0.00     0.009 C 
HETATM   30  C23 UNL     1      -4.564  17.409  25.867  1.00  0.00    -0.013 C 
HETATM   31  C24 UNL     1      -4.864  18.884  25.592  1.00  0.00     0.009 C 
HETATM   32  C28 UNL     1      -5.893  16.758  26.081  1.00  0.00     0.014 C 
HETATM   33  C25 UNL     1      -5.410  19.451  26.855  1.00  0.00    -0.013 C 
HETATM   34  C27 UNL     1      -6.701  18.787  27.293  1.00  0.00     0.014 C 
ENDBRANCH  24  25
ENDBRANCH   1  24
BRANCH   1  35
HETATM   35  C29 UNL     1      -9.872  17.423  28.391  1.00  0.00     0.176 C 
BRANCH  35  36
HETATM   36  O4  UNL     1     -10.445  18.451  27.799  1.00  0.00    -0.391 OA
ATOM     37  H4  UNL     1     -10.525  19.290  28.239  1.00  0.00     0.210 HD
ENDBRANCH  35  36
BRANCH  35  38
HETATM   38  C30 UNL     1      -9.354  17.764  29.753  1.00  0.00     0.160 C 
BRANCH  38  39
HETATM   39  N4  UNL     1     -10.117  17.051  30.770  1.00  0.00    -0.334 N 
HETATM   40  C31 UNL     1      -9.411  16.848  32.040  1.00  0.00     0.361 C 
HETATM   41  O5  UNL     1      -8.278  17.293  32.209  1.00  0.00    -0.238 OA
ATOM     42  H4  UNL     1     -11.068  16.719  30.611  1.00  0.00     0.164 HD
BRANCH  40  43
HETATM   43  O6  UNL     1     -10.058  16.142  33.025  1.00  0.00    -0.294 OA
BRANCH  43  44
HETATM   44  C32 UNL     1      -9.469  15.251  33.904  1.00  0.00     0.061 C 
HETATM   45  C33 UNL     1     -10.548  14.385  34.532  1.00  0.00     0.046 C 
HETATM   46  C34 UNL     1      -8.822  15.992  35.077  1.00  0.00     0.046 C 
HETATM   47  C35 UNL     1      -8.387  14.386  33.254  1.00  0.00     0.046 C 
ENDBRANCH  43  44
ENDBRANCH  40  43
ENDBRANCH  38  39
ENDBRANCH  35  38
ENDBRANCH   1  35
TORSDOF 20
ENDMDL
MODEL 5
REMARK VINA RESULT: -7.809637557      1.449      5.079
REMARK  20 active torsions:
REMARK  status: ('A' for Active; 'I' for Inactive)
REMARK    1  A    between atoms: C2_2  and  C3_3 
REMARK    2  A    between atoms: C3_3  and  N1_4 
REMARK    3  A    between atoms: N1_4  and  C4_5 
REMARK       I    between atoms: N1_4  and  C8_9 
REMARK    4  A    between atoms: C4_5  and  C5_6 
REMARK    5  A    between atoms: C8_9  and  O2_11 
REMARK    6  A    between atoms: O2_11  and  C9_12 
REMARK    7  A    between atoms: C9_12  and  C10_13 
REMARK    8  A    between atoms: C9_12  and  C18_24 
REMARK    9  A    between atoms: C9_12  and  C29_35 
REMARK   10  A    between atoms: C10_13  and  N2_14 
REMARK   11  A    between atoms: N2_14  and  C11_15 
REMARK       I    between atoms: N2_14  and  C14_18 
REMARK   12  A    between atoms: C11_15  and  C12_16 
REMARK       I    between atoms: C14_18  and  N3_20 
REMARK   13  A    between atoms: N3_20  and  C15_21 
REMARK   14  A    between atoms: C15_21  and  C16_22 
REMARK   15  A    between atoms: C18_24  and  C19_25 
REMARK   16  A    between atoms: C29_35  and  O4_36 
REMARK   17  A    between atoms: C29_35  and  C30_38 
REMARK   18  A    between atoms: C30_38  and  N4_39 
REMARK       I    between atoms: N4_39  and  C31_41 
REMARK   19  A    between atoms: C31_41  and  O6_43 
REMARK   20  A    between atoms: O6_43  and  C32_44 
ROOT
HETATM    1  C9  UNL     1      -9.915  16.151  27.121  1.00  0.00     0.132 C 
ENDROOT
BRANCH   1   2
HETATM    2  O2  UNL     1      -8.922  15.827  28.163  1.00  0.00    -0.284 OA
BRANCH   2   3
HETATM    3  C8  UNL     1      -8.975  15.171  29.277  1.00  0.00     0.364 C 
HETATM    4  N1  UNL     1      -9.110  15.665  30.600  1.00  0.00    -0.324 N 
HETATM    5  O1  UNL     1      -8.883  13.897  29.138  1.00  0.00    -0.238 OA
BRANCH   4   6
HETATM    6  C3  UNL     1      -9.346  17.029  30.907  1.00  0.00     0.154 C 
BRANCH   6   7
HETATM    7  C2  UNL     1      -8.118  17.660  31.517  1.00  0.00    -0.017 C 
HETATM    8  C1  UNL     1      -6.961  17.579  30.914  1.00  0.00     0.008 C 
ENDBRANCH   6   7
ENDBRANCH   4   6
BRANCH   4   9
HETATM    9  C4  UNL     1      -8.956  14.734  31.729  1.00  0.00     0.132 C 
BRANCH   9  10
HETATM   10  C5  UNL     1      -9.734  15.134  32.928  1.00  0.00    -0.005 C 
HETATM   11  C6  UNL     1     -11.212  14.806  32.829  1.00  0.00     0.011 C 
HETATM   12  C7  UNL     1      -9.237  14.711  34.254  1.00  0.00     0.011 C 
ENDBRANCH   9  10
ENDBRANCH   4   9
ENDBRANCH   2   3
ENDBRANCH   1   2
BRANCH   1  13
HETATM   13  C10 UNL     1      -9.470  15.451  25.948  1.00  0.00     0.111 C 
BRANCH  13  14
HETATM   14  N2  UNL     1      -9.091  15.700  24.657  1.00  0.00    -0.299 N 
HETATM   15  C14 UNL     1     -10.145  15.626  23.626  1.00  0.00     0.399 C 
HETATM   16  O3  UNL     1     -11.266  15.307  24.067  1.00  0.00    -0.230 OA
HETATM   17  N3  UNL     1      -9.904  15.884  22.299  1.00  0.00    -0.369 NA
BRANCH  14  18
HETATM   18  C11 UNL     1      -7.835  16.056  24.061  1.00  0.00     0.133 C 
BRANCH  18  19
HETATM   19  C12 UNL     1      -7.698  17.481  23.613  1.00  0.00     0.016 C 
HETATM   20  C13 UNL     1      -6.416  17.879  22.984  1.00  0.00     0.006 C 
ENDBRANCH  18  19
ENDBRANCH  14  18
BRANCH  17  21
HETATM   21  C15 UNL     1      -9.686  16.136  20.978  1.00  0.00     0.160 C 
BRANCH  21  22
HETATM   22  C16 UNL     1      -8.481  15.468  20.335  1.00  0.00     0.055 C 
HETATM   23  C17 UNL     1      -7.369  16.388  19.996  1.00  0.00     0.011 C 
ENDBRANCH  21  22
ENDBRANCH  17  21
ENDBRANCH  13  14
ENDBRANCH   1  13
BRANCH   1  24
HETATM   24  C18 UNL     1     -11.168  15.802  27.829  1.00  0.00     0.056 C 
BRANCH  24  25
HETATM   25  C19 UNL     1     -12.032  14.653  27.852  1.00  0.00    -0.036 C 
HETATM   26  C20 UNL     1     -12.268  14.553  29.419  1.00  0.00     0.014 C 
HETATM   27  C21 UNL     1     -13.120  13.462  29.831  1.00  0.00    -0.013 C 
HETATM   28  C22 UNL     1     -14.561  13.813  29.429  1.00  0.00     0.009 C 
HETATM   29  C26 UNL     1     -12.823  12.111  29.275  1.00  0.00     0.009 C 
HETATM   30  C23 UNL     1     -14.476  13.981  27.948  1.00  0.00    -0.013 C 
HETATM   31  C24 UNL     1     -14.093  12.688  27.225  1.00  0.00     0.009 C 
HETATM   32  C28 UNL     1     -13.492  15.009  27.488  1.00  0.00     0.014 C 
HETATM   33  C25 UNL     1     -12.769  12.273  27.765  1.00  0.00    -0.013 C 
HETATM   34  C27 UNL     1     -11.677  13.293  27.504  1.00  0.00     0.014 C 
ENDBRANCH  24  25
ENDBRANCH   1  24
BRANCH   1  35
HETATM   35  C29 UNL     1      -9.659  17.644  27.159  1.00  0.00     0.176 C 
BRANCH  35  36
HETATM   36  O4  UNL     1     -10.080  18.434  26.191  1.00  0.00    -0.391 OA
ATOM     37  H4  UNL     1     -10.945  18.826  26.216  1.00  0.00     0.210 HD
ENDBRANCH  35  36
BRANCH  35  38
HETATM   38  C30 UNL     1      -8.393  18.136  27.787  1.00  0.00     0.160 C 
BRANCH  38  39
HETATM   39  N4  UNL     1      -7.358  18.285  26.771  1.00  0.00    -0.334 N 
HETATM   40  C31 UNL     1      -6.209  17.387  26.926  1.00  0.00     0.361 C 
HETATM   41  O5  UNL     1      -6.175  16.559  27.834  1.00  0.00    -0.238 OA
ATOM     42  H4  UNL     1      -7.429  18.963  26.012  1.00  0.00     0.164 HD
BRANCH  40  43
HETATM   43  O6  UNL     1      -5.177  17.510  26.029  1.00  0.00    -0.294 OA
BRANCH  43  44
HETATM   44  C32 UNL     1      -4.060  18.312  26.181  1.00  0.00     0.061 C 
HETATM   45  C33 UNL     1      -4.404  19.729  25.753  1.00  0.00     0.046 C 
HETATM   46  C34 UNL     1      -2.941  17.872  25.233  1.00  0.00     0.046 C 
HETATM   47  C35 UNL     1      -3.492  18.295  27.601  1.00  0.00     0.046 C 
ENDBRANCH  43  44
ENDBRANCH  40  43
ENDBRANCH  38  39
ENDBRANCH  35  38
ENDBRANCH   1  35
TORSDOF 20
ENDMDL
