MODEL 1
REMARK VINA RESULT: -7.318348823      0.000      0.000
REMARK  4 active torsions:
REMARK  status: ('A' for Active; 'I' for Inactive)
REMARK    1  A    between atoms: N1_2  and  C2_3 
REMARK    2  A    between atoms: N1_2  and  S2_27 
REMARK    3  A    between atoms: C7_9  and  C8_10 
REMARK       I    between atoms: C8_10  and  N2_12 
REMARK    4  A    between atoms: C10_16  and  C11_17 
ROOT
HETATM    1  C8  UNL     1      12.420  48.496  61.282  1.00  0.00     0.260 C 
HETATM    2  O1  UNL     1      11.527  49.299  61.564  1.00  0.00    -0.267 OA
HETATM    3  N2  UNL     1      12.086  47.255  60.701  1.00  0.00    -0.297 N 
ATOM      4  H2  UNL     1      12.673  46.447  60.907  1.00  0.00     0.171 HD
HETATM    5  C9  UNL     1      11.051  47.094  59.905  1.00  0.00     0.194 A 
HETATM    6  O2  UNL     1      10.182  47.934  59.503  1.00  0.00    -0.291 OA
HETATM    7  C10 UNL     1       9.232  47.615  58.729  1.00  0.00     0.072 A 
HETATM    8  C19 UNL     1       9.167  46.299  58.325  1.00  0.00     0.087 A 
HETATM    9  S1  UNL     1      10.529  45.643  59.134  1.00  0.00    -0.056 SA
ENDROOT
BRANCH   1  10
HETATM   10  C7  UNL     1      13.810  48.800  61.538  1.00  0.00     0.061 A 
HETATM   11  C2  UNL     1      14.374  48.531  62.751  1.00  0.00     0.077 A 
HETATM   12  C3  UNL     1      15.714  48.877  62.957  1.00  0.00     0.039 A 
HETATM   13 BR1  UNL     1      16.484  48.519  64.657  1.00  0.00    -0.049 Br
HETATM   14  C4  UNL     1      16.449  49.480  61.944  1.00  0.00     0.021 A 
HETATM   15  C5  UNL     1      15.869  49.745  60.724  1.00  0.00     0.002 A 
HETATM   16  C6  UNL     1      14.556  49.414  60.504  1.00  0.00     0.019 A 
BRANCH  11  17
HETATM   17  N1  UNL     1      13.674  47.904  63.789  1.00  0.00    -0.278 N 
HETATM   18  C1  UNL     1      12.918  48.687  64.792  1.00  0.00     0.169 C 
BRANCH  17  19
HETATM   19  S2  UNL     1      13.587  46.202  64.060  1.00  0.00     0.228 S 
HETATM   20  C20 UNL     1      13.025  45.934  65.728  1.00  0.00     0.186 C 
HETATM   21  O3  UNL     1      14.858  45.484  63.787  1.00  0.00    -0.206 OA
HETATM   22  O4  UNL     1      12.527  45.643  63.130  1.00  0.00    -0.206 OA
ENDBRANCH  17  19
ENDBRANCH  11  17
ENDBRANCH   1  10
BRANCH   7  23
HETATM   23  C11 UNL     1       8.221  48.585  58.256  1.00  0.00     0.025 A 
HETATM   24  C12 UNL     1       8.203  49.236  56.953  1.00  0.00     0.008 A 
HETATM   25  C13 UNL     1       7.018  50.221  56.867  1.00  0.00     0.012 C 
HETATM   26  C15 UNL     1       7.220  48.212  57.280  1.00  0.00     0.012 A 
HETATM   27  C14 UNL     1       6.334  49.258  57.838  1.00  0.00     0.001 C 
HETATM   28  C16 UNL     1       7.077  49.038  59.151  1.00  0.00    -0.029 C 
HETATM   29  C17 UNL     1       6.469  47.910  59.912  1.00  0.00     0.016 C 
HETATM   30  C18 UNL     1       7.375  50.294  59.925  1.00  0.00     0.016 C 
ENDBRANCH   7  23
TORSDOF 4
ENDMDL
MODEL 2
REMARK VINA RESULT: -7.193642917      3.299      7.751
REMARK  4 active torsions:
REMARK  status: ('A' for Active; 'I' for Inactive)
REMARK    1  A    between atoms: N1_2  and  C2_3 
REMARK    2  A    between atoms: N1_2  and  S2_27 
REMARK    3  A    between atoms: C7_9  and  C8_10 
REMARK       I    between atoms: C8_10  and  N2_12 
REMARK    4  A    between atoms: C10_16  and  C11_17 
ROOT
HETATM    1  C8  UNL     1      10.246  46.368  62.574  1.00  0.00     0.260 C 
HETATM    2  O1  UNL     1      11.375  45.880  62.658  1.00  0.00    -0.267 OA
HETATM    3  N2  UNL     1      10.027  47.699  62.988  1.00  0.00    -0.297 N 
ATOM      4  H2  UNL     1       9.117  47.944  63.377  1.00  0.00     0.171 HD
HETATM    5  C9  UNL     1      10.944  48.636  62.893  1.00  0.00     0.194 A 
HETATM    6  O2  UNL     1      12.137  48.581  62.449  1.00  0.00    -0.291 OA
HETATM    7  C10 UNL     1      12.904  49.588  62.429  1.00  0.00     0.072 A 
HETATM    8  C19 UNL     1      12.396  50.774  62.913  1.00  0.00     0.087 A 
HETATM    9  S1  UNL     1      10.813  50.291  63.361  1.00  0.00    -0.056 SA
ENDROOT
BRANCH   1  10
HETATM   10  C7  UNL     1       9.133  45.601  62.059  1.00  0.00     0.061 A 
HETATM   11  C2  UNL     1       8.788  45.666  60.740  1.00  0.00     0.077 A 
HETATM   12  C3  UNL     1       7.681  44.931  60.302  1.00  0.00     0.039 A 
HETATM   13 BR1  UNL     1       7.194  45.047  58.468  1.00  0.00    -0.049 Br
HETATM   14  C4  UNL     1       6.955  44.151  61.194  1.00  0.00     0.021 A 
HETATM   15  C5  UNL     1       7.315  44.093  62.521  1.00  0.00     0.002 A 
HETATM   16  C6  UNL     1       8.396  44.808  62.970  1.00  0.00     0.019 A 
BRANCH  11  17
HETATM   17  N1  UNL     1       9.507  46.421  59.806  1.00  0.00    -0.278 N 
HETATM   18  C1  UNL     1      10.577  45.814  58.983  1.00  0.00     0.169 C 
BRANCH  17  19
HETATM   19  S2  UNL     1       9.280  48.101  59.479  1.00  0.00     0.228 S 
HETATM   20  C20 UNL     1       8.517  48.258  57.879  1.00  0.00     0.186 C 
HETATM   21  O3  UNL     1      10.525  48.904  59.575  1.00  0.00    -0.206 OA
HETATM   22  O4  UNL     1       8.299  48.638  60.504  1.00  0.00    -0.206 OA
ENDBRANCH  17  19
ENDBRANCH  11  17
ENDBRANCH   1  10
BRANCH   7  23
HETATM   23  C11 UNL     1      14.289  49.532  61.913  1.00  0.00     0.025 A 
HETATM   24  C12 UNL     1      14.686  49.621  60.514  1.00  0.00     0.008 A 
HETATM   25  C13 UNL     1      16.216  49.463  60.385  1.00  0.00     0.012 C 
HETATM   26  C15 UNL     1      14.961  50.719  61.431  1.00  0.00     0.012 A 
HETATM   27  C14 UNL     1      16.254  50.089  61.779  1.00  0.00     0.001 C 
HETATM   28  C16 UNL     1      15.475  49.326  62.844  1.00  0.00    -0.029 C 
HETATM   29  C17 UNL     1      15.366  50.135  64.092  1.00  0.00     0.016 C 
HETATM   30  C18 UNL     1      15.874  47.884  63.007  1.00  0.00     0.016 C 
ENDBRANCH   7  23
TORSDOF 4
ENDMDL
MODEL 3
REMARK VINA RESULT: -6.984134659      3.253      7.393
REMARK  4 active torsions:
REMARK  status: ('A' for Active; 'I' for Inactive)
REMARK    1  A    between atoms: N1_2  and  C2_3 
REMARK    2  A    between atoms: N1_2  and  S2_27 
REMARK    3  A    between atoms: C7_9  and  C8_10 
REMARK       I    between atoms: C8_10  and  N2_12 
REMARK    4  A    between atoms: C10_16  and  C11_17 
ROOT
HETATM    1  C8  UNL     1       9.419  48.228  60.533  1.00  0.00     0.260 C 
HETATM    2  O1  UNL     1      10.166  48.696  59.670  1.00  0.00    -0.267 OA
HETATM    3  N2  UNL     1       9.925  47.302  61.469  1.00  0.00    -0.297 N 
ATOM      4  H2  UNL     1       9.300  46.581  61.829  1.00  0.00     0.171 HD
HETATM    5  C9  UNL     1      11.168  47.328  61.898  1.00  0.00     0.194 A 
HETATM    6  O2  UNL     1      12.126  48.115  61.604  1.00  0.00    -0.291 OA
HETATM    7  C10 UNL     1      13.280  48.003  62.110  1.00  0.00     0.072 A 
HETATM    8  C19 UNL     1      13.474  46.978  63.011  1.00  0.00     0.087 A 
HETATM    9  S1  UNL     1      11.916  46.262  63.029  1.00  0.00    -0.056 SA
ENDROOT
BRANCH   1  10
HETATM   10  C7  UNL     1       8.025  48.608  60.605  1.00  0.00     0.061 A 
HETATM   11  C2  UNL     1       7.519  49.202  61.724  1.00  0.00     0.077 A 
HETATM   12  C3  UNL     1       6.156  49.517  61.755  1.00  0.00     0.039 A 
HETATM   13 BR1  UNL     1       5.455  50.325  63.326  1.00  0.00    -0.049 Br
HETATM   14  C4  UNL     1       5.341  49.230  60.666  1.00  0.00     0.021 A 
HETATM   15  C5  UNL     1       5.865  48.632  59.543  1.00  0.00     0.002 A 
HETATM   16  C6  UNL     1       7.199  48.314  59.495  1.00  0.00     0.019 A 
BRANCH  11  17
HETATM   17  N1  UNL     1       8.309  49.528  62.832  1.00  0.00    -0.278 N 
HETATM   18  C1  UNL     1       8.461  48.597  63.973  1.00  0.00     0.169 C 
BRANCH  17  19
HETATM   19  S2  UNL     1       9.189  50.998  63.045  1.00  0.00     0.228 S 
HETATM   20  C20 UNL     1       9.371  51.289  64.791  1.00  0.00     0.186 C 
HETATM   21  O3  UNL     1       8.584  52.165  62.354  1.00  0.00    -0.206 OA
HETATM   22  O4  UNL     1      10.578  50.787  62.473  1.00  0.00    -0.206 OA
ENDBRANCH  17  19
ENDBRANCH  11  17
ENDBRANCH   1  10
BRANCH   7  23
HETATM   23  C11 UNL     1      14.396  48.914  61.776  1.00  0.00     0.025 A 
HETATM   24  C12 UNL     1      14.984  49.101  60.456  1.00  0.00     0.008 A 
HETATM   25  C13 UNL     1      16.162  50.094  60.535  1.00  0.00     0.012 C 
HETATM   26  C15 UNL     1      14.170  50.149  61.058  1.00  0.00     0.012 A 
HETATM   27  C14 UNL     1      15.382  50.706  61.698  1.00  0.00     0.001 C 
HETATM   28  C16 UNL     1      15.087  49.747  62.846  1.00  0.00    -0.029 C 
HETATM   29  C17 UNL     1      14.122  50.358  63.804  1.00  0.00     0.016 C 
HETATM   30  C18 UNL     1      16.301  49.083  63.441  1.00  0.00     0.016 C 
ENDBRANCH   7  23
TORSDOF 4
ENDMDL
MODEL 4
REMARK VINA RESULT: -6.975496659      1.290      1.549
REMARK  4 active torsions:
REMARK  status: ('A' for Active; 'I' for Inactive)
REMARK    1  A    between atoms: N1_2  and  C2_3 
REMARK    2  A    between atoms: N1_2  and  S2_27 
REMARK    3  A    between atoms: C7_9  and  C8_10 
REMARK       I    between atoms: C8_10  and  N2_12 
REMARK    4  A    between atoms: C10_16  and  C11_17 
ROOT
HETATM    1  C8  UNL     1      12.442  48.524  61.284  1.00  0.00     0.260 C 
HETATM    2  O1  UNL     1      11.555  49.336  61.558  1.00  0.00    -0.267 OA
HETATM    3  N2  UNL     1      12.098  47.273  60.729  1.00  0.00    -0.297 N 
ATOM      4  H2  UNL     1      12.683  46.466  60.946  1.00  0.00     0.171 HD
HETATM    5  C9  UNL     1      11.056  47.102  59.945  1.00  0.00     0.194 A 
HETATM    6  O2  UNL     1      10.187  47.939  59.534  1.00  0.00    -0.291 OA
HETATM    7  C10 UNL     1       9.231  47.609  58.774  1.00  0.00     0.072 A 
HETATM    8  C19 UNL     1       9.156  46.286  58.395  1.00  0.00     0.087 A 
HETATM    9  S1  UNL     1      10.521  45.639  59.206  1.00  0.00    -0.056 SA
ENDROOT
BRANCH   1  10
HETATM   10  C7  UNL     1      13.836  48.826  61.524  1.00  0.00     0.061 A 
HETATM   11  C2  UNL     1      14.400  48.606  62.746  1.00  0.00     0.077 A 
HETATM   12  C3  UNL     1      15.743  48.949  62.934  1.00  0.00     0.039 A 
HETATM   13 BR1  UNL     1      16.514  48.660  64.647  1.00  0.00    -0.049 Br
HETATM   14  C4  UNL     1      16.482  49.499  61.893  1.00  0.00     0.021 A 
HETATM   15  C5  UNL     1      15.901  49.714  60.664  1.00  0.00     0.002 A 
HETATM   16  C6  UNL     1      14.585  49.385  60.462  1.00  0.00     0.019 A 
BRANCH  11  17
HETATM   17  N1  UNL     1      13.697  48.033  63.813  1.00  0.00    -0.278 N 
HETATM   18  C1  UNL     1      13.664  46.567  64.017  1.00  0.00     0.169 C 
BRANCH  17  19
HETATM   19  S2  UNL     1      12.792  48.897  65.003  1.00  0.00     0.228 S 
HETATM   20  C20 UNL     1      12.955  50.637  64.669  1.00  0.00     0.186 C 
HETATM   21  O3  UNL     1      13.173  48.568  66.400  1.00  0.00    -0.206 OA
HETATM   22  O4  UNL     1      11.332  48.534  64.820  1.00  0.00    -0.206 OA
ENDBRANCH  17  19
ENDBRANCH  11  17
ENDBRANCH   1  10
BRANCH   7  23
HETATM   23  C11 UNL     1       8.220  48.574  58.290  1.00  0.00     0.025 A 
HETATM   24  C12 UNL     1       8.203  49.214  56.981  1.00  0.00     0.008 A 
HETATM   25  C13 UNL     1       7.019  50.197  56.884  1.00  0.00     0.012 C 
HETATM   26  C15 UNL     1       7.220  48.193  57.317  1.00  0.00     0.012 A 
HETATM   27  C14 UNL     1       6.333  49.244  57.863  1.00  0.00     0.001 C 
HETATM   28  C16 UNL     1       7.075  49.036  59.179  1.00  0.00    -0.029 C 
HETATM   29  C17 UNL     1       6.465  47.915  59.951  1.00  0.00     0.016 C 
HETATM   30  C18 UNL     1       7.372  50.299  59.942  1.00  0.00     0.016 C 
ENDBRANCH   7  23
TORSDOF 4
ENDMDL
MODEL 5
REMARK VINA RESULT: -6.832340970      1.390      1.399
REMARK  4 active torsions:
REMARK  status: ('A' for Active; 'I' for Inactive)
REMARK    1  A    between atoms: N1_2  and  C2_3 
REMARK    2  A    between atoms: N1_2  and  S2_27 
REMARK    3  A    between atoms: C7_9  and  C8_10 
REMARK       I    between atoms: C8_10  and  N2_12 
REMARK    4  A    between atoms: C10_16  and  C11_17 
ROOT
HETATM    1  C8  UNL     1      12.672  49.269  61.739  1.00  0.00     0.260 C 
HETATM    2  O1  UNL     1      11.864  50.201  61.717  1.00  0.00    -0.267 OA
HETATM    3  N2  UNL     1      12.205  47.938  61.757  1.00  0.00    -0.297 N 
ATOM      4  H2  UNL     1      12.759  47.234  62.243  1.00  0.00     0.171 HD
HETATM    5  C9  UNL     1      11.087  47.566  61.174  1.00  0.00     0.194 A 
HETATM    6  O2  UNL     1      10.234  48.247  60.515  1.00  0.00    -0.291 OA
HETATM    7  C10 UNL     1       9.192  47.732  60.013  1.00  0.00     0.072 A 
HETATM    8  C19 UNL     1       9.005  46.380  60.205  1.00  0.00     0.087 A 
HETATM    9  S1  UNL     1      10.400  45.985  61.121  1.00  0.00    -0.056 SA
ENDROOT
BRANCH   1  10
HETATM   10  C7  UNL     1      14.098  49.513  61.750  1.00  0.00     0.061 A 
HETATM   11  C2  UNL     1      14.779  49.629  62.926  1.00  0.00     0.077 A 
HETATM   12  C3  UNL     1      16.151  49.899  62.879  1.00  0.00     0.039 A 
HETATM   13 BR1  UNL     1      17.088  50.083  64.523  1.00  0.00    -0.049 Br
HETATM   14  C4  UNL     1      16.800  50.043  61.659  1.00  0.00     0.021 A 
HETATM   15  C5  UNL     1      16.101  49.922  60.480  1.00  0.00     0.002 A 
HETATM   16  C6  UNL     1      14.755  49.658  60.505  1.00  0.00     0.019 A 
BRANCH  11  17
HETATM   17  N1  UNL     1      14.168  49.469  64.175  1.00  0.00    -0.278 N 
HETATM   18  C1  UNL     1      13.586  50.619  64.902  1.00  0.00     0.169 C 
BRANCH  17  19
HETATM   19  S2  UNL     1      14.005  47.980  65.033  1.00  0.00     0.228 S 
HETATM   20  C20 UNL     1      14.128  48.326  66.774  1.00  0.00     0.186 C 
HETATM   21  O3  UNL     1      14.972  46.935  64.611  1.00  0.00    -0.206 OA
HETATM   22  O4  UNL     1      12.607  47.452  64.773  1.00  0.00    -0.206 OA
ENDBRANCH  17  19
ENDBRANCH  11  17
ENDBRANCH   1  10
BRANCH   7  23
HETATM   23  C11 UNL     1       8.200  48.514  59.245  1.00  0.00     0.025 A 
HETATM   24  C12 UNL     1       8.282  48.848  57.830  1.00  0.00     0.008 A 
HETATM   25  C13 UNL     1       7.080  49.725  57.419  1.00  0.00     0.012 C 
HETATM   26  C15 UNL     1       7.305  47.877  58.303  1.00  0.00     0.012 A 
HETATM   27  C14 UNL     1       6.340  48.976  58.527  1.00  0.00     0.001 C 
HETATM   28  C16 UNL     1       6.964  49.100  59.912  1.00  0.00    -0.029 C 
HETATM   29  C17 UNL     1       6.323  48.146  60.862  1.00  0.00     0.016 C 
HETATM   30  C18 UNL     1       7.150  50.514  60.396  1.00  0.00     0.016 C 
ENDBRANCH   7  23
TORSDOF 4
ENDMDL
