MODEL 1
REMARK VINA RESULT: -6.890479800      0.000      0.000
REMARK  6 active torsions:
REMARK  status: ('A' for Active; 'I' for Inactive)
REMARK       I    between atoms: C3_5  and  N2_6 
REMARK       I    between atoms: C3_5  and  N3_11 
REMARK    1  A    between atoms: N2_6  and  C4_8 
REMARK    2  A    between atoms: C4_8  and  C5_9 
REMARK    3  A    between atoms: N3_11  and  C7_13 
REMARK    4  A    between atoms: C7_13  and  C8_14 
REMARK       I    between atoms: C8_14  and  N4_16 
REMARK    5  A    between atoms: N4_16  and  C9_18 
REMARK    6  A    between atoms: C18_28  and  O2_30 
ROOT
HETATM    1  C1  UNL     1      44.084  -1.160  26.493  1.00  0.00     0.037 C 
HETATM    2  C2  UNL     1      43.926  -1.154  27.687  1.00  0.00     0.015 C 
HETATM    3  N1  UNL     1      43.749  -1.130  29.066  1.00  0.00    -0.150 N 
ATOM      4  H1  UNL     1      43.797  -0.224  29.531  1.00  0.00     0.195 HD
HETATM    5  C3  UNL     1      43.528  -2.161  29.798  1.00  0.00     0.681 C 
HETATM    6  N2  UNL     1      43.455  -3.432  29.178  1.00  0.00    -0.226 N 
ATOM      7  H2  UNL     1      43.372  -3.511  28.165  1.00  0.00     0.177 HD
HETATM    8  N3  UNL     1      43.377  -1.981  31.195  1.00  0.00    -0.217 N 
ATOM      9  H3  UNL     1      43.679  -2.755  31.786  1.00  0.00     0.178 HD
ENDROOT
BRANCH   6  10
HETATM   10  C4  UNL     1      43.498  -4.606  30.000  1.00  0.00     0.137 C 
BRANCH  10  11
HETATM   11  C5  UNL     1      42.451  -5.611  29.660  1.00  0.00     0.016 C 
HETATM   12  C6  UNL     1      42.793  -6.898  30.416  1.00  0.00     0.006 C 
ENDBRANCH  10  11
ENDBRANCH   6  10
BRANCH   8  13
HETATM   13  C7  UNL     1      42.853  -0.845  31.864  1.00  0.00     0.241 C 
BRANCH  13  14
HETATM   14  C8  UNL     1      43.804  -0.072  32.679  1.00  0.00     0.240 C 
HETATM   15  O1  UNL     1      44.975   0.062  32.236  1.00  0.00    -0.271 OA
HETATM   16  N4  UNL     1      43.507   0.527  33.917  1.00  0.00    -0.330 N 
ATOM     17  H4  UNL     1      42.559   0.421  34.277  1.00  0.00     0.168 HD
BRANCH  16  18
HETATM   18  C9  UNL     1      44.450   1.282  34.717  1.00  0.00     0.011 C 
HETATM   19  C10 UNL     1      45.354   0.452  35.532  1.00  0.00     0.063 C 
HETATM   20  C11 UNL     1      45.130   0.266  36.967  1.00  0.00     0.018 C 
HETATM   21  C12 UNL     1      43.821  -0.234  37.434  1.00  0.00     0.015 C 
HETATM   22  C16 UNL     1      45.588   1.522  37.715  1.00  0.00     0.242 C 
HETATM   23  C13 UNL     1      43.063   0.802  38.163  1.00  0.00     0.046 C 
HETATM   24  C14 UNL     1      43.944   1.315  39.319  1.00  0.00     0.244 C 
HETATM   25  C17 UNL     1      43.257   2.225  37.734  1.00  0.00     0.233 C 
HETATM   26  N5  UNL     1      44.521   2.227  38.303  1.00  0.00    -0.062 N 
HETATM   27  C15 UNL     1      44.935   3.501  38.835  1.00  0.00     0.273 C 
HETATM   28  C18 UNL     1      42.981   2.609  36.381  1.00  0.00     0.103 C 
HETATM   29  C19 UNL     1      41.590   2.048  36.025  1.00  0.00     0.052 C 
HETATM   30  C20 UNL     1      43.922   2.537  35.290  1.00  0.00     0.037 C 
BRANCH  28  31
HETATM   31  O2  UNL     1      42.687   4.021  36.429  1.00  0.00    -0.384 OA
ATOM     32  H2  UNL     1      41.759   4.084  36.621  1.00  0.00     0.211 HD
ENDBRANCH  28  31
ENDBRANCH  16  18
ENDBRANCH  13  14
ENDBRANCH   8  13
TORSDOF 6
ENDMDL
MODEL 2
REMARK VINA RESULT: -6.793341784      0.667      2.321
REMARK  6 active torsions:
REMARK  status: ('A' for Active; 'I' for Inactive)
REMARK       I    between atoms: C3_5  and  N2_6 
REMARK       I    between atoms: C3_5  and  N3_11 
REMARK    1  A    between atoms: N2_6  and  C4_8 
REMARK    2  A    between atoms: C4_8  and  C5_9 
REMARK    3  A    between atoms: N3_11  and  C7_13 
REMARK    4  A    between atoms: C7_13  and  C8_14 
REMARK       I    between atoms: C8_14  and  N4_16 
REMARK    5  A    between atoms: N4_16  and  C9_18 
REMARK    6  A    between atoms: C18_28  and  O2_30 
ROOT
HETATM    1  C1  UNL     1      42.210  -5.525  29.274  1.00  0.00     0.037 C 
HETATM    2  C2  UNL     1      42.208  -4.425  29.765  1.00  0.00     0.015 C 
HETATM    3  N1  UNL     1      42.193  -3.159  30.341  1.00  0.00    -0.150 N 
ATOM      4  H1  UNL     1      41.588  -3.018  31.149  1.00  0.00     0.195 HD
HETATM    5  C3  UNL     1      42.881  -2.156  29.932  1.00  0.00     0.681 C 
HETATM    6  N2  UNL     1      43.730  -2.325  28.812  1.00  0.00    -0.226 N 
ATOM      7  H2  UNL     1      43.950  -3.258  28.463  1.00  0.00     0.177 HD
HETATM    8  N3  UNL     1      42.754  -0.922  30.617  1.00  0.00    -0.217 N 
ATOM      9  H3  UNL     1      42.885  -0.079  30.059  1.00  0.00     0.178 HD
ENDROOT
BRANCH   6  10
HETATM   10  C4  UNL     1      44.275  -1.161  28.176  1.00  0.00     0.137 C 
BRANCH  10  11
HETATM   11  C5  UNL     1      44.156  -1.183  26.690  1.00  0.00     0.016 C 
HETATM   12  C6  UNL     1      44.188  -2.651  26.253  1.00  0.00     0.006 C 
ENDBRANCH  10  11
ENDBRANCH   6  10
BRANCH   8  13
HETATM   13  C7  UNL     1      42.463  -0.728  31.992  1.00  0.00     0.241 C 
BRANCH  13  14
HETATM   14  C8  UNL     1      43.490  -0.031  32.783  1.00  0.00     0.240 C 
HETATM   15  O1  UNL     1      44.658   0.007  32.315  1.00  0.00    -0.271 OA
HETATM   16  N4  UNL     1      43.268   0.596  34.023  1.00  0.00    -0.330 N 
ATOM     17  H4  UNL     1      42.322   0.569  34.403  1.00  0.00     0.168 HD
BRANCH  16  18
HETATM   18  C9  UNL     1      44.285   1.277  34.798  1.00  0.00     0.011 C 
HETATM   19  C10 UNL     1      45.157   0.380  35.576  1.00  0.00     0.063 C 
HETATM   20  C11 UNL     1      44.968   0.192  37.015  1.00  0.00     0.018 C 
HETATM   21  C12 UNL     1      43.644  -0.224  37.520  1.00  0.00     0.015 C 
HETATM   22  C16 UNL     1      45.533   1.406  37.759  1.00  0.00     0.242 C 
HETATM   23  C13 UNL     1      42.981   0.851  38.283  1.00  0.00     0.046 C 
HETATM   24  C14 UNL     1      43.931   1.291  39.415  1.00  0.00     0.244 C 
HETATM   25  C17 UNL     1      43.257   2.263  37.862  1.00  0.00     0.233 C 
HETATM   26  N5  UNL     1      44.535   2.174  38.389  1.00  0.00    -0.062 N 
HETATM   27  C15 UNL     1      45.051   3.411  38.918  1.00  0.00     0.273 C 
HETATM   28  C18 UNL     1      42.964   2.681  36.522  1.00  0.00     0.103 C 
HETATM   29  C19 UNL     1      41.527   2.218  36.207  1.00  0.00     0.052 C 
HETATM   30  C20 UNL     1      43.862   2.558  35.400  1.00  0.00     0.037 C 
BRANCH  28  31
HETATM   31  O2  UNL     1      42.767   4.109  36.593  1.00  0.00    -0.384 OA
ATOM     32  H2  UNL     1      42.685   4.401  35.693  1.00  0.00     0.211 HD
ENDBRANCH  28  31
ENDBRANCH  16  18
ENDBRANCH  13  14
ENDBRANCH   8  13
TORSDOF 6
ENDMDL
MODEL 3
REMARK VINA RESULT: -6.720464762      2.593      8.423
REMARK  6 active torsions:
REMARK  status: ('A' for Active; 'I' for Inactive)
REMARK       I    between atoms: C3_5  and  N2_6 
REMARK       I    between atoms: C3_5  and  N3_11 
REMARK    1  A    between atoms: N2_6  and  C4_8 
REMARK    2  A    between atoms: C4_8  and  C5_9 
REMARK    3  A    between atoms: N3_11  and  C7_13 
REMARK    4  A    between atoms: C7_13  and  C8_14 
REMARK       I    between atoms: C8_14  and  N4_16 
REMARK    5  A    between atoms: N4_16  and  C9_18 
REMARK    6  A    between atoms: C18_28  and  O2_30 
ROOT
HETATM    1  C1  UNL     1      44.841   3.379  38.669  1.00  0.00     0.037 C 
HETATM    2  C2  UNL     1      44.975   2.762  37.644  1.00  0.00     0.015 C 
HETATM    3  N1  UNL     1      45.114   2.053  36.456  1.00  0.00    -0.150 N 
ATOM      4  H1  UNL     1      44.387   2.169  35.751  1.00  0.00     0.195 HD
HETATM    5  C3  UNL     1      46.087   1.262  36.180  1.00  0.00     0.681 C 
HETATM    6  N2  UNL     1      47.111   1.082  37.141  1.00  0.00    -0.226 N 
ATOM      7  H2  UNL     1      47.188   1.710  37.941  1.00  0.00     0.177 HD
HETATM    8  N3  UNL     1      46.088   0.600  34.928  1.00  0.00    -0.217 N 
ATOM      9  H3  UNL     1      46.532  -0.318  34.902  1.00  0.00     0.178 HD
ENDROOT
BRANCH   6  10
HETATM   10  C4  UNL     1      48.036   0.001  36.971  1.00  0.00     0.137 C 
BRANCH  10  11
HETATM   11  C5  UNL     1      49.114  -0.030  38.002  1.00  0.00     0.016 C 
HETATM   12  C6  UNL     1      50.124  -1.097  37.571  1.00  0.00     0.006 C 
ENDBRANCH  10  11
ENDBRANCH   6  10
BRANCH   8  13
HETATM   13  C7  UNL     1      45.540   1.070  33.706  1.00  0.00     0.241 C 
BRANCH  13  14
HETATM   14  C8  UNL     1      44.129   0.737  33.455  1.00  0.00     0.240 C 
HETATM   15  O1  UNL     1      43.255   1.417  34.054  1.00  0.00    -0.271 OA
HETATM   16  N4  UNL     1      43.679  -0.284  32.597  1.00  0.00    -0.330 N 
ATOM     17  H4  UNL     1      44.385  -0.835  32.108  1.00  0.00     0.168 HD
BRANCH  16  18
HETATM   18  C9  UNL     1      42.287  -0.609  32.358  1.00  0.00     0.011 C 
HETATM   19  C10 UNL     1      41.717  -1.573  33.315  1.00  0.00     0.063 C 
HETATM   20  C11 UNL     1      41.535  -2.981  32.961  1.00  0.00     0.018 C 
HETATM   21  C12 UNL     1      42.691  -3.755  32.465  1.00  0.00     0.015 C 
HETATM   22  C16 UNL     1      40.300  -3.119  32.066  1.00  0.00     0.242 C 
HETATM   23  C13 UNL     1      42.551  -4.104  31.037  1.00  0.00     0.046 C 
HETATM   24  C14 UNL     1      41.217  -4.857  30.857  1.00  0.00     0.244 C 
HETATM   25  C17 UNL     1      41.817  -3.134  30.162  1.00  0.00     0.233 C 
HETATM   26  N5  UNL     1      40.619  -3.506  30.749  1.00  0.00    -0.062 N 
HETATM   27  C15 UNL     1      39.478  -3.444  29.871  1.00  0.00     0.273 C 
HETATM   28  C18 UNL     1      42.276  -1.780  30.051  1.00  0.00     0.103 C 
HETATM   29  C19 UNL     1      43.790  -1.836  29.767  1.00  0.00     0.052 C 
HETATM   30  C20 UNL     1      41.901  -0.703  30.935  1.00  0.00     0.037 C 
BRANCH  28  31
HETATM   31  O2  UNL     1      41.790  -1.306  28.778  1.00  0.00    -0.384 OA
ATOM     32  H2  UNL     1      41.224  -0.570  28.978  1.00  0.00     0.211 HD
ENDBRANCH  28  31
ENDBRANCH  16  18
ENDBRANCH  13  14
ENDBRANCH   8  13
TORSDOF 6
ENDMDL
MODEL 4
REMARK VINA RESULT: -6.682700804      1.493      2.491
REMARK  6 active torsions:
REMARK  status: ('A' for Active; 'I' for Inactive)
REMARK       I    between atoms: C3_5  and  N2_6 
REMARK       I    between atoms: C3_5  and  N3_11 
REMARK    1  A    between atoms: N2_6  and  C4_8 
REMARK    2  A    between atoms: C4_8  and  C5_9 
REMARK    3  A    between atoms: N3_11  and  C7_13 
REMARK    4  A    between atoms: C7_13  and  C8_14 
REMARK       I    between atoms: C8_14  and  N4_16 
REMARK    5  A    between atoms: N4_16  and  C9_18 
REMARK    6  A    between atoms: C18_28  and  O2_30 
ROOT
HETATM    1  C1  UNL     1      44.105  -1.169  26.237  1.00  0.00     0.037 C 
HETATM    2  C2  UNL     1      43.877  -1.116  27.418  1.00  0.00     0.015 C 
HETATM    3  N1  UNL     1      43.618  -1.040  28.782  1.00  0.00    -0.150 N 
ATOM      4  H1  UNL     1      43.558  -0.111  29.198  1.00  0.00     0.195 HD
HETATM    5  C3  UNL     1      43.449  -2.049  29.557  1.00  0.00     0.681 C 
HETATM    6  N2  UNL     1      43.526  -3.351  29.005  1.00  0.00    -0.226 N 
ATOM      7  H2  UNL     1      43.510  -3.488  27.995  1.00  0.00     0.177 HD
HETATM    8  N3  UNL     1      43.200  -1.814  30.932  1.00  0.00    -0.217 N 
ATOM      9  H3  UNL     1      43.535  -2.526  31.580  1.00  0.00     0.178 HD
ENDROOT
BRANCH   6  10
HETATM   10  C4  UNL     1      43.626  -4.473  29.892  1.00  0.00     0.137 C 
BRANCH  10  11
HETATM   11  C5  UNL     1      42.569  -5.502  29.674  1.00  0.00     0.016 C 
HETATM   12  C6  UNL     1      42.998  -6.761  30.433  1.00  0.00     0.006 C 
ENDBRANCH  10  11
ENDBRANCH   6  10
BRANCH   8  13
HETATM   13  C7  UNL     1      42.538  -0.699  31.507  1.00  0.00     0.241 C 
BRANCH  13  14
HETATM   14  C8  UNL     1      42.357  -0.731  32.967  1.00  0.00     0.240 C 
HETATM   15  O1  UNL     1      41.879  -1.781  33.471  1.00  0.00    -0.271 OA
HETATM   16  N4  UNL     1      42.676   0.322  33.844  1.00  0.00    -0.330 N 
ATOM     17  H4  UNL     1      43.066   1.173  33.439  1.00  0.00     0.168 HD
BRANCH  16  18
HETATM   18  C9  UNL     1      42.491   0.285  35.282  1.00  0.00     0.011 C 
HETATM   19  C10 UNL     1      41.757   1.440  35.828  1.00  0.00     0.063 C 
HETATM   20  C11 UNL     1      42.454   2.538  36.499  1.00  0.00     0.018 C 
HETATM   21  C12 UNL     1      43.551   3.232  35.796  1.00  0.00     0.015 C 
HETATM   22  C16 UNL     1      42.839   2.097  37.914  1.00  0.00     0.242 C 
HETATM   23  C13 UNL     1      44.864   2.953  36.411  1.00  0.00     0.046 C 
HETATM   24  C14 UNL     1      44.785   3.335  37.903  1.00  0.00     0.244 C 
HETATM   25  C17 UNL     1      45.057   1.606  37.038  1.00  0.00     0.233 C 
HETATM   26  N5  UNL     1      44.231   1.974  38.089  1.00  0.00    -0.062 N 
HETATM   27  C15 UNL     1      44.573   1.376  39.354  1.00  0.00     0.273 C 
HETATM   28  C18 UNL     1      44.884   0.419  36.253  1.00  0.00     0.103 C 
HETATM   29  C19 UNL     1      45.695   0.611  34.956  1.00  0.00     0.052 C 
HETATM   30  C20 UNL     1      43.630  -0.263  36.046  1.00  0.00     0.037 C 
BRANCH  28  31
HETATM   31  O2  UNL     1      45.673  -0.598  36.904  1.00  0.00    -0.384 OA
ATOM     32  H2  UNL     1      45.058  -1.114  37.412  1.00  0.00     0.211 HD
ENDBRANCH  28  31
ENDBRANCH  16  18
ENDBRANCH  13  14
ENDBRANCH   8  13
TORSDOF 6
ENDMDL
MODEL 5
REMARK VINA RESULT: -6.587758547      2.633      8.409
REMARK  6 active torsions:
REMARK  status: ('A' for Active; 'I' for Inactive)
REMARK       I    between atoms: C3_5  and  N2_6 
REMARK       I    between atoms: C3_5  and  N3_11 
REMARK    1  A    between atoms: N2_6  and  C4_8 
REMARK    2  A    between atoms: C4_8  and  C5_9 
REMARK    3  A    between atoms: N3_11  and  C7_13 
REMARK    4  A    between atoms: C7_13  and  C8_14 
REMARK       I    between atoms: C8_14  and  N4_16 
REMARK    5  A    between atoms: N4_16  and  C9_18 
REMARK    6  A    between atoms: C18_28  and  O2_30 
ROOT
HETATM    1  C1  UNL     1      49.887  -0.787  36.517  1.00  0.00     0.037 C 
HETATM    2  C2  UNL     1      48.912  -0.271  36.037  1.00  0.00     0.015 C 
HETATM    3  N1  UNL     1      47.793   0.329  35.468  1.00  0.00    -0.150 N 
ATOM      4  H1  UNL     1      47.842   0.573  34.479  1.00  0.00     0.195 HD
HETATM    5  C3  UNL     1      46.705   0.600  36.093  1.00  0.00     0.681 C 
HETATM    6  N2  UNL     1      46.610   0.272  37.467  1.00  0.00    -0.226 N 
ATOM      7  H2  UNL     1      47.297  -0.344  37.902  1.00  0.00     0.177 HD
HETATM    8  N3  UNL     1      45.651   1.223  35.381  1.00  0.00    -0.217 N 
ATOM      9  H3  UNL     1      45.044   1.840  35.919  1.00  0.00     0.178 HD
ENDROOT
BRANCH   6  10
HETATM   10  C4  UNL     1      45.532   0.820  38.236  1.00  0.00     0.137 C 
BRANCH  10  11
HETATM   11  C5  UNL     1      45.962   1.879  39.195  1.00  0.00     0.016 C 
HETATM   12  C6  UNL     1      45.205   3.159  38.828  1.00  0.00     0.006 C 
ENDBRANCH  10  11
ENDBRANCH   6  10
BRANCH   8  13
HETATM   13  C7  UNL     1      45.346   1.085  34.002  1.00  0.00     0.241 C 
BRANCH  13  14
HETATM   14  C8  UNL     1      43.951   0.750  33.673  1.00  0.00     0.240 C 
HETATM   15  O1  UNL     1      43.044   1.385  34.273  1.00  0.00    -0.271 OA
HETATM   16  N4  UNL     1      43.552  -0.227  32.743  1.00  0.00    -0.330 N 
ATOM     17  H4  UNL     1      44.285  -0.742  32.254  1.00  0.00     0.168 HD
BRANCH  16  18
HETATM   18  C9  UNL     1      42.176  -0.555  32.428  1.00  0.00     0.011 C 
HETATM   19  C10 UNL     1      41.557  -1.521  33.352  1.00  0.00     0.063 C 
HETATM   20  C11 UNL     1      41.397  -2.930  32.988  1.00  0.00     0.018 C 
HETATM   21  C12 UNL     1      42.580  -3.701  32.555  1.00  0.00     0.015 C 
HETATM   22  C16 UNL     1      40.213  -3.070  32.027  1.00  0.00     0.242 C 
HETATM   23  C13 UNL     1      42.519  -4.049  31.122  1.00  0.00     0.046 C 
HETATM   24  C14 UNL     1      41.199  -4.804  30.869  1.00  0.00     0.244 C 
HETATM   25  C17 UNL     1      41.831  -3.079  30.208  1.00  0.00     0.233 C 
HETATM   26  N5  UNL     1      40.604  -3.454  30.730  1.00  0.00    -0.062 N 
HETATM   27  C15 UNL     1      39.513  -3.395  29.791  1.00  0.00     0.273 C 
HETATM   28  C18 UNL     1      42.293  -1.725  30.124  1.00  0.00     0.103 C 
HETATM   29  C19 UNL     1      43.820  -1.777  29.922  1.00  0.00     0.052 C 
HETATM   30  C20 UNL     1      41.868  -0.649  30.986  1.00  0.00     0.037 C 
BRANCH  28  31
HETATM   31  O2  UNL     1      41.875  -1.250  28.827  1.00  0.00    -0.384 OA
ATOM     32  H2  UNL     1      42.605  -0.743  28.492  1.00  0.00     0.211 HD
ENDBRANCH  28  31
ENDBRANCH  16  18
ENDBRANCH  13  14
ENDBRANCH   8  13
TORSDOF 6
ENDMDL
