MODEL 1
REMARK VINA RESULT: -6.631220348      0.000      0.000
REMARK  11 active torsions:
REMARK  status: ('A' for Active; 'I' for Inactive)
REMARK    1  A    between atoms: C2_2  and  C3_4 
REMARK    2  A    between atoms: N2_21  and  C17_22 
REMARK    3  A    between atoms: C17_22  and  C18_23 
REMARK    4  A    between atoms: C18_23  and  C19_24 
REMARK    5  A    between atoms: C19_24  and  C20_25 
REMARK    6  A    between atoms: C20_25  and  N3_26 
REMARK       I    between atoms: N3_26  and  C21_28 
REMARK    7  A    between atoms: C21_28  and  C22_30 
REMARK    8  A    between atoms: C22_30  and  N4_31 
REMARK    9  A    between atoms: N4_31  and  C25_34 
REMARK   10  A    between atoms: C25_34  and  C26_35 
REMARK   11  A    between atoms: C26_35  and  O4_36 
ROOT
HETATM    1  C3  UNL     1       0.929  -1.248  18.471  1.00  0.00     0.288 C 
HETATM    2  N1  UNL     1       2.334  -0.688  18.544  1.00  0.00    -0.317 N 
ATOM      3  H1  UNL     1       2.709   0.094  18.006  1.00  0.00     0.165 HD
HETATM    4  C4  UNL     1       3.006  -1.441  19.483  1.00  0.00     0.232 C 
HETATM    5  O2  UNL     1       4.277  -1.438  19.685  1.00  0.00    -0.273 OA
HETATM    6  C5  UNL     1       2.300  -2.411  20.441  1.00  0.00     0.082 C 
HETATM    7  C6  UNL     1       2.737  -3.593  19.853  1.00  0.00     0.056 C 
HETATM    8  C7  UNL     1       2.050  -3.576  18.469  1.00  0.00    -0.076 C 
HETATM    9  C8  UNL     1       2.286  -4.826  17.736  1.00  0.00     0.044 C 
HETATM   10  C9  UNL     1       1.311  -2.602  17.918  1.00  0.00    -0.018 C 
HETATM   11  C10 UNL     1       0.828  -2.904  16.560  1.00  0.00     0.049 C 
HETATM   12  C11 UNL     1       2.316  -1.519  21.500  1.00  0.00     0.055 C 
HETATM   13  C12 UNL     1       1.742  -1.784  22.832  1.00  0.00    -0.017 C 
HETATM   14  C13 UNL     1       0.674  -2.532  22.837  1.00  0.00    -0.085 C 
HETATM   15  C14 UNL     1      -0.009  -2.878  24.083  1.00  0.00     0.043 C 
HETATM   16  C15 UNL     1       0.209  -3.026  21.563  1.00  0.00     0.068 C 
HETATM   17  C16 UNL     1       0.791  -2.491  20.311  1.00  0.00     0.217 C 
HETATM   18  N2  UNL     1       0.538  -1.168  19.856  1.00  0.00    -0.023 N 
HETATM   19  C27 UNL     1       1.420  -0.445  20.767  1.00  0.00     0.252 C 
ENDROOT
BRANCH  18  20
HETATM   20  C17 UNL     1      -0.804  -0.711  20.117  1.00  0.00     0.242 C 
BRANCH  20  21
HETATM   21  C18 UNL     1      -1.067   0.537  20.840  1.00  0.00     0.030 C 
BRANCH  21  22
HETATM   22  C19 UNL     1      -1.587   0.656  22.190  1.00  0.00     0.021 C 
BRANCH  22  23
HETATM   23  C20 UNL     1      -1.007   1.615  23.153  1.00  0.00     0.122 C 
BRANCH  23  24
HETATM   24  N3  UNL     1      -1.566   2.932  22.913  1.00  0.00    -0.360 N 
HETATM   25  C21 UNL     1      -0.999   3.944  22.105  1.00  0.00     0.243 C 
HETATM   26  O3  UNL     1       0.111   3.794  21.487  1.00  0.00    -0.272 OA
ATOM     27  H3  UNL     1      -2.452   3.149  23.371  1.00  0.00     0.162 HD
BRANCH  25  28
HETATM   28  C22 UNL     1      -1.731   5.228  21.978  1.00  0.00     0.338 C 
BRANCH  28  29
HETATM   29  N4  UNL     1      -2.386   5.435  20.733  1.00  0.00    -0.065 N 
HETATM   30  C23 UNL     1      -3.021   4.239  20.208  1.00  0.00     0.272 C 
HETATM   31  C24 UNL     1      -3.500   6.355  21.039  1.00  0.00     0.272 C 
BRANCH  29  32
HETATM   32  C25 UNL     1      -1.597   6.103  19.731  1.00  0.00     0.263 C 
BRANCH  32  33
HETATM   33  C26 UNL     1      -1.996   7.584  19.733  1.00  0.00     0.192 C 
BRANCH  33  34
HETATM   34  O4  UNL     1      -1.743   8.137  18.461  1.00  0.00    -0.399 OA
ATOM     35  H4  UNL     1      -2.132   7.583  17.795  1.00  0.00     0.209 HD
ENDBRANCH  33  34
ENDBRANCH  32  33
ENDBRANCH  29  32
ENDBRANCH  28  29
ENDBRANCH  25  28
ENDBRANCH  23  24
ENDBRANCH  22  23
ENDBRANCH  21  22
ENDBRANCH  20  21
ENDBRANCH  18  20
BRANCH   1  36
HETATM   36  C2  UNL     1       0.199  -0.537  17.452  1.00  0.00     0.184 C 
HETATM   37  C1  UNL     1      -1.078  -0.801  16.761  1.00  0.00     0.096 C 
HETATM   38  O1  UNL     1       0.741   0.527  17.044  1.00  0.00    -0.293 OA
ENDBRANCH   1  36
TORSDOF 11
ENDMDL
MODEL 2
REMARK VINA RESULT: -6.522615033      2.116      3.280
REMARK  11 active torsions:
REMARK  status: ('A' for Active; 'I' for Inactive)
REMARK    1  A    between atoms: C2_2  and  C3_4 
REMARK    2  A    between atoms: N2_21  and  C17_22 
REMARK    3  A    between atoms: C17_22  and  C18_23 
REMARK    4  A    between atoms: C18_23  and  C19_24 
REMARK    5  A    between atoms: C19_24  and  C20_25 
REMARK    6  A    between atoms: C20_25  and  N3_26 
REMARK       I    between atoms: N3_26  and  C21_28 
REMARK    7  A    between atoms: C21_28  and  C22_30 
REMARK    8  A    between atoms: C22_30  and  N4_31 
REMARK    9  A    between atoms: N4_31  and  C25_34 
REMARK   10  A    between atoms: C25_34  and  C26_35 
REMARK   11  A    between atoms: C26_35  and  O4_36 
ROOT
HETATM    1  C3  UNL     1      -2.358  -1.993  17.335  1.00  0.00     0.288 C 
HETATM    2  N1  UNL     1      -2.056  -1.068  16.175  1.00  0.00    -0.317 N 
ATOM      3  H1  UNL     1      -2.735  -0.571  15.598  1.00  0.00     0.165 HD
HETATM    4  C4  UNL     1      -0.684  -1.031  16.051  1.00  0.00     0.232 C 
HETATM    5  O2  UNL     1      -0.027  -0.544  15.058  1.00  0.00    -0.273 OA
HETATM    6  C5  UNL     1       0.269  -1.584  17.121  1.00  0.00     0.082 C 
HETATM    7  C6  UNL     1       0.697  -2.705  16.418  1.00  0.00     0.056 C 
HETATM    8  C7  UNL     1      -0.583  -3.566  16.312  1.00  0.00    -0.076 C 
HETATM    9  C8  UNL     1      -0.301  -4.874  15.707  1.00  0.00     0.044 C 
HETATM   10  C9  UNL     1      -1.829  -3.256  16.694  1.00  0.00    -0.018 C 
HETATM   11  C10 UNL     1      -2.825  -4.304  16.416  1.00  0.00     0.049 C 
HETATM   12  C11 UNL     1       0.526  -0.337  17.664  1.00  0.00     0.055 C 
HETATM   13  C12 UNL     1       1.400  -0.089  18.827  1.00  0.00    -0.017 C 
HETATM   14  C13 UNL     1       1.397  -1.027  19.732  1.00  0.00    -0.085 C 
HETATM   15  C14 UNL     1       2.211  -0.921  20.943  1.00  0.00     0.043 C 
HETATM   16  C15 UNL     1       0.577  -2.188  19.477  1.00  0.00     0.068 C 
HETATM   17  C16 UNL     1      -0.389  -2.172  18.355  1.00  0.00     0.217 C 
HETATM   18  N2  UNL     1      -1.569  -1.381  18.375  1.00  0.00    -0.023 N 
HETATM   19  C27 UNL     1      -0.972  -0.079  18.093  1.00  0.00     0.252 C 
ENDROOT
BRANCH  18  20
HETATM   20  C17 UNL     1      -2.185  -1.289  19.675  1.00  0.00     0.242 C 
BRANCH  20  21
HETATM   21  C18 UNL     1      -2.124  -0.061  20.472  1.00  0.00     0.030 C 
BRANCH  21  22
HETATM   22  C19 UNL     1      -1.650   0.055  21.840  1.00  0.00     0.021 C 
BRANCH  22  23
HETATM   23  C20 UNL     1      -0.686   1.105  22.231  1.00  0.00     0.122 C 
BRANCH  23  24
HETATM   24  N3  UNL     1      -1.394   2.357  22.428  1.00  0.00    -0.360 N 
HETATM   25  C21 UNL     1      -0.924   3.644  22.079  1.00  0.00     0.243 C 
HETATM   26  O3  UNL     1       0.219   3.840  21.542  1.00  0.00    -0.272 OA
ATOM     27  H3  UNL     1      -2.318   2.303  22.858  1.00  0.00     0.162 HD
BRANCH  25  28
HETATM   28  C22 UNL     1      -1.805   4.805  22.355  1.00  0.00     0.338 C 
BRANCH  28  29
HETATM   29  N4  UNL     1      -2.508   5.317  21.230  1.00  0.00    -0.065 N 
HETATM   30  C23 UNL     1      -2.770   4.318  20.209  1.00  0.00     0.272 C 
HETATM   31  C24 UNL     1      -3.840   5.687  21.752  1.00  0.00     0.272 C 
BRANCH  29  32
HETATM   32  C25 UNL     1      -1.964   6.525  20.667  1.00  0.00     0.263 C 
BRANCH  32  33
HETATM   33  C26 UNL     1      -1.170   6.138  19.413  1.00  0.00     0.192 C 
BRANCH  33  34
HETATM   34  O4  UNL     1       0.209   6.151  19.711  1.00  0.00    -0.399 OA
ATOM     35  H4  UNL     1       0.705   6.136  18.901  1.00  0.00     0.209 HD
ENDBRANCH  33  34
ENDBRANCH  32  33
ENDBRANCH  29  32
ENDBRANCH  28  29
ENDBRANCH  25  28
ENDBRANCH  23  24
ENDBRANCH  22  23
ENDBRANCH  21  22
ENDBRANCH  20  21
ENDBRANCH  18  20
BRANCH   1  36
HETATM   36  C2  UNL     1      -3.787  -2.121  17.467  1.00  0.00     0.184 C 
HETATM   37  C1  UNL     1      -4.647  -2.917  18.364  1.00  0.00     0.096 C 
HETATM   38  O1  UNL     1      -4.467  -1.429  16.660  1.00  0.00    -0.293 OA
ENDBRANCH   1  36
TORSDOF 11
ENDMDL
MODEL 3
REMARK VINA RESULT: -6.510574358      6.044      9.644
REMARK  11 active torsions:
REMARK  status: ('A' for Active; 'I' for Inactive)
REMARK    1  A    between atoms: C2_2  and  C3_4 
REMARK    2  A    between atoms: N2_21  and  C17_22 
REMARK    3  A    between atoms: C17_22  and  C18_23 
REMARK    4  A    between atoms: C18_23  and  C19_24 
REMARK    5  A    between atoms: C19_24  and  C20_25 
REMARK    6  A    between atoms: C20_25  and  N3_26 
REMARK       I    between atoms: N3_26  and  C21_28 
REMARK    7  A    between atoms: C21_28  and  C22_30 
REMARK    8  A    between atoms: C22_30  and  N4_31 
REMARK    9  A    between atoms: N4_31  and  C25_34 
REMARK   10  A    between atoms: C25_34  and  C26_35 
REMARK   11  A    between atoms: C26_35  and  O4_36 
ROOT
HETATM    1  C3  UNL     1      -4.155   5.076  27.979  1.00  0.00     0.288 C 
HETATM    2  N1  UNL     1      -4.262   3.877  28.898  1.00  0.00    -0.317 N 
ATOM      3  H1  UNL     1      -5.059   3.626  29.484  1.00  0.00     0.165 HD
HETATM    4  C4  UNL     1      -3.070   3.194  28.788  1.00  0.00     0.232 C 
HETATM    5  O2  UNL     1      -2.667   2.248  29.562  1.00  0.00    -0.273 OA
HETATM    6  C5  UNL     1      -2.038   3.481  27.689  1.00  0.00     0.082 C 
HETATM    7  C6  UNL     1      -1.083   4.091  28.494  1.00  0.00     0.056 C 
HETATM    8  C7  UNL     1      -1.784   5.389  28.955  1.00  0.00    -0.076 C 
HETATM    9  C8  UNL     1      -0.873   6.248  29.721  1.00  0.00     0.044 C 
HETATM   10  C9  UNL     1      -3.048   5.776  28.733  1.00  0.00    -0.018 C 
HETATM   11  C10 UNL     1      -3.401   7.068  29.346  1.00  0.00     0.049 C 
HETATM   12  C11 UNL     1      -2.444   2.415  26.904  1.00  0.00     0.055 C 
HETATM   13  C12 UNL     1      -1.870   2.070  25.590  1.00  0.00    -0.017 C 
HETATM   14  C13 UNL     1      -1.479   3.086  24.872  1.00  0.00    -0.085 C 
HETATM   15  C14 UNL     1      -0.893   2.902  23.545  1.00  0.00     0.043 C 
HETATM   16  C15 UNL     1      -1.625   4.400  25.453  1.00  0.00     0.068 C 
HETATM   17  C16 UNL     1      -2.409   4.569  26.698  1.00  0.00     0.217 C 
HETATM   18  N2  UNL     1      -3.823   4.429  26.735  1.00  0.00    -0.023 N 
HETATM   19  C27 UNL     1      -3.906   2.971  26.688  1.00  0.00     0.252 C 
ENDROOT
BRANCH  18  20
HETATM   20  C17 UNL     1      -4.487   4.926  25.557  1.00  0.00     0.242 C 
BRANCH  20  21
HETATM   21  C18 UNL     1      -5.230   4.040  24.657  1.00  0.00     0.030 C 
BRANCH  21  22
HETATM   22  C19 UNL     1      -5.119   3.992  23.210  1.00  0.00     0.021 C 
BRANCH  22  23
HETATM   23  C20 UNL     1      -5.880   4.925  22.352  1.00  0.00     0.122 C 
BRANCH  23  24
HETATM   24  N3  UNL     1      -4.953   5.786  21.642  1.00  0.00    -0.360 N 
HETATM   25  C21 UNL     1      -4.389   5.534  20.370  1.00  0.00     0.243 C 
HETATM   26  O3  UNL     1      -4.644   4.476  19.698  1.00  0.00    -0.272 OA
ATOM     27  H3  UNL     1      -4.683   6.655  22.103  1.00  0.00     0.162 HD
BRANCH  25  28
HETATM   28  C22 UNL     1      -3.463   6.546  19.805  1.00  0.00     0.338 C 
BRANCH  28  29
HETATM   29  N4  UNL     1      -2.111   6.441  20.233  1.00  0.00    -0.065 N 
HETATM   30  C23 UNL     1      -1.968   5.870  21.561  1.00  0.00     0.272 C 
HETATM   31  C24 UNL     1      -1.502   5.447  19.325  1.00  0.00     0.272 C 
BRANCH  29  32
HETATM   32  C25 UNL     1      -1.326   7.637  20.080  1.00  0.00     0.263 C 
BRANCH  32  33
HETATM   33  C26 UNL     1      -2.216   8.697  19.418  1.00  0.00     0.192 C 
BRANCH  33  34
HETATM   34  O4  UNL     1      -1.731   9.982  19.742  1.00  0.00    -0.399 OA
ATOM     35  H4  UNL     1      -1.109  10.259  19.080  1.00  0.00     0.209 HD
ENDBRANCH  33  34
ENDBRANCH  32  33
ENDBRANCH  29  32
ENDBRANCH  28  29
ENDBRANCH  25  28
ENDBRANCH  23  24
ENDBRANCH  22  23
ENDBRANCH  21  22
ENDBRANCH  20  21
ENDBRANCH  18  20
BRANCH   1  36
HETATM   36  C2  UNL     1      -5.354   5.866  28.107  1.00  0.00     0.184 C 
HETATM   37  C1  UNL     1      -5.759   7.174  27.556  1.00  0.00     0.096 C 
HETATM   38  O1  UNL     1      -6.254   5.366  28.835  1.00  0.00    -0.293 OA
ENDBRANCH   1  36
TORSDOF 11
ENDMDL
MODEL 4
REMARK VINA RESULT: -6.415207591      2.213      3.333
REMARK  11 active torsions:
REMARK  status: ('A' for Active; 'I' for Inactive)
REMARK    1  A    between atoms: C2_2  and  C3_4 
REMARK    2  A    between atoms: N2_21  and  C17_22 
REMARK    3  A    between atoms: C17_22  and  C18_23 
REMARK    4  A    between atoms: C18_23  and  C19_24 
REMARK    5  A    between atoms: C19_24  and  C20_25 
REMARK    6  A    between atoms: C20_25  and  N3_26 
REMARK       I    between atoms: N3_26  and  C21_28 
REMARK    7  A    between atoms: C21_28  and  C22_30 
REMARK    8  A    between atoms: C22_30  and  N4_31 
REMARK    9  A    between atoms: N4_31  and  C25_34 
REMARK   10  A    between atoms: C25_34  and  C26_35 
REMARK   11  A    between atoms: C26_35  and  O4_36 
ROOT
HETATM    1  C3  UNL     1      -0.061  -1.686  17.807  1.00  0.00     0.288 C 
HETATM    2  N1  UNL     1       0.286  -0.512  16.916  1.00  0.00    -0.317 N 
ATOM      3  H1  UNL     1       0.145  -0.448  15.907  1.00  0.00     0.165 HD
HETATM    4  C4  UNL     1       0.830   0.454  17.736  1.00  0.00     0.232 C 
HETATM    5  O2  UNL     1       1.454   1.510  17.348  1.00  0.00    -0.273 OA
HETATM    6  C5  UNL     1       0.755   0.391  19.268  1.00  0.00     0.082 C 
HETATM    7  C6  UNL     1       2.093   0.094  19.501  1.00  0.00     0.056 C 
HETATM    8  C7  UNL     1       2.255  -1.317  18.892  1.00  0.00    -0.076 C 
HETATM    9  C8  UNL     1       3.590  -1.868  19.159  1.00  0.00     0.044 C 
HETATM   10  C9  UNL     1       1.358  -2.033  18.198  1.00  0.00    -0.018 C 
HETATM   11  C10 UNL     1       1.855  -3.338  17.734  1.00  0.00     0.049 C 
HETATM   12  C11 UNL     1      -0.310   1.272  19.342  1.00  0.00     0.055 C 
HETATM   13  C12 UNL     1      -0.974   1.687  20.591  1.00  0.00    -0.017 C 
HETATM   14  C13 UNL     1      -1.029   0.774  21.520  1.00  0.00    -0.085 C 
HETATM   15  C14 UNL     1      -1.660   1.037  22.813  1.00  0.00     0.043 C 
HETATM   16  C15 UNL     1      -0.416  -0.501  21.229  1.00  0.00     0.068 C 
HETATM   17  C16 UNL     1       0.024  -0.805  19.848  1.00  0.00     0.217 C 
HETATM   18  N2  UNL     1      -0.894  -1.039  18.788  1.00  0.00    -0.023 N 
HETATM   19  C27 UNL     1      -1.295   0.342  18.531  1.00  0.00     0.252 C 
ENDROOT
BRANCH  18  20
HETATM   20  C17 UNL     1      -2.080  -1.752  19.193  1.00  0.00     0.242 C 
BRANCH  20  21
HETATM   21  C18 UNL     1      -3.413  -1.151  19.097  1.00  0.00     0.030 C 
BRANCH  21  22
HETATM   22  C19 UNL     1      -4.212  -0.649  20.199  1.00  0.00     0.021 C 
BRANCH  22  23
HETATM   23  C20 UNL     1      -5.085   0.533  20.038  1.00  0.00     0.122 C 
BRANCH  23  24
HETATM   24  N3  UNL     1      -4.618   1.595  20.909  1.00  0.00    -0.360 N 
HETATM   25  C21 UNL     1      -4.979   2.960  20.825  1.00  0.00     0.243 C 
HETATM   26  O3  UNL     1      -5.777   3.411  19.933  1.00  0.00    -0.272 OA
ATOM     27  H3  UNL     1      -3.970   1.334  21.651  1.00  0.00     0.162 HD
BRANCH  25  28
HETATM   28  C22 UNL     1      -4.399   3.897  21.818  1.00  0.00     0.338 C 
BRANCH  28  29
HETATM   29  N4  UNL     1      -3.566   4.916  21.280  1.00  0.00    -0.065 N 
HETATM   30  C23 UNL     1      -4.247   6.187  21.106  1.00  0.00     0.272 C 
HETATM   31  C24 UNL     1      -2.551   5.167  22.324  1.00  0.00     0.272 C 
BRANCH  29  32
HETATM   32  C25 UNL     1      -2.826   4.543  20.103  1.00  0.00     0.263 C 
BRANCH  32  33
HETATM   33  C26 UNL     1      -1.720   5.586  19.897  1.00  0.00     0.192 C 
BRANCH  33  34
HETATM   34  O4  UNL     1      -0.872   5.166  18.851  1.00  0.00    -0.399 OA
ATOM     35  H4  UNL     1      -0.009   5.542  18.976  1.00  0.00     0.209 HD
ENDBRANCH  33  34
ENDBRANCH  32  33
ENDBRANCH  29  32
ENDBRANCH  28  29
ENDBRANCH  25  28
ENDBRANCH  23  24
ENDBRANCH  22  23
ENDBRANCH  21  22
ENDBRANCH  20  21
ENDBRANCH  18  20
BRANCH   1  36
HETATM   36  C2  UNL     1      -0.573  -2.755  16.988  1.00  0.00     0.184 C 
HETATM   37  C1  UNL     1      -0.990  -4.139  17.285  1.00  0.00     0.096 C 
HETATM   38  O1  UNL     1      -0.695  -2.483  15.762  1.00  0.00    -0.293 OA
ENDBRANCH   1  36
TORSDOF 11
ENDMDL
MODEL 5
REMARK VINA RESULT: -6.407526813      1.705      3.145
REMARK  11 active torsions:
REMARK  status: ('A' for Active; 'I' for Inactive)
REMARK    1  A    between atoms: C2_2  and  C3_4 
REMARK    2  A    between atoms: N2_21  and  C17_22 
REMARK    3  A    between atoms: C17_22  and  C18_23 
REMARK    4  A    between atoms: C18_23  and  C19_24 
REMARK    5  A    between atoms: C19_24  and  C20_25 
REMARK    6  A    between atoms: C20_25  and  N3_26 
REMARK       I    between atoms: N3_26  and  C21_28 
REMARK    7  A    between atoms: C21_28  and  C22_30 
REMARK    8  A    between atoms: C22_30  and  N4_31 
REMARK    9  A    between atoms: N4_31  and  C25_34 
REMARK   10  A    between atoms: C25_34  and  C26_35 
REMARK   11  A    between atoms: C26_35  and  O4_36 
ROOT
HETATM    1  C3  UNL     1      -1.256  -0.512  19.442  1.00  0.00     0.288 C 
HETATM    2  N1  UNL     1      -0.713   0.809  18.939  1.00  0.00    -0.317 N 
ATOM      3  H1  UNL     1      -1.076   1.739  19.149  1.00  0.00     0.165 HD
HETATM    4  C4  UNL     1       0.370   0.507  18.140  1.00  0.00     0.232 C 
HETATM    5  O2  UNL     1       0.974   1.321  17.347  1.00  0.00    -0.273 OA
HETATM    6  C5  UNL     1       1.016  -0.885  18.095  1.00  0.00     0.082 C 
HETATM    7  C6  UNL     1       0.566  -1.251  16.832  1.00  0.00     0.056 C 
HETATM    8  C7  UNL     1      -0.965  -1.352  17.017  1.00  0.00    -0.076 C 
HETATM    9  C8  UNL     1      -1.620  -1.864  15.806  1.00  0.00     0.044 C 
HETATM   10  C9  UNL     1      -1.696  -1.043  18.097  1.00  0.00    -0.018 C 
HETATM   11  C10 UNL     1      -3.146  -1.231  17.920  1.00  0.00     0.049 C 
HETATM   12  C11 UNL     1       2.049  -0.531  18.947  1.00  0.00     0.055 C 
HETATM   13  C12 UNL     1       3.114  -1.444  19.402  1.00  0.00    -0.017 C 
HETATM   14  C13 UNL     1       2.749  -2.685  19.564  1.00  0.00    -0.085 C 
HETATM   15  C14 UNL     1       3.694  -3.706  20.015  1.00  0.00     0.043 C 
HETATM   16  C15 UNL     1       1.378  -3.015  19.254  1.00  0.00     0.068 C 
HETATM   17  C16 UNL     1       0.400  -1.932  19.005  1.00  0.00     0.217 C 
HETATM   18  N2  UNL     1      -0.072  -1.077  20.038  1.00  0.00    -0.023 N 
HETATM   19  C27 UNL     1       1.099  -0.213  20.167  1.00  0.00     0.252 C 
ENDROOT
BRANCH  18  20
HETATM   20  C17 UNL     1      -0.247  -1.740  21.306  1.00  0.00     0.242 C 
BRANCH  20  21
HETATM   21  C18 UNL     1       0.186  -1.126  22.564  1.00  0.00     0.030 C 
BRANCH  21  22
HETATM   22  C19 UNL     1      -0.331   0.099  23.147  1.00  0.00     0.021 C 
BRANCH  22  23
HETATM   23  C20 UNL     1       0.559   1.242  23.444  1.00  0.00     0.122 C 
BRANCH  23  24
HETATM   24  N3  UNL     1      -0.201   2.475  23.357  1.00  0.00    -0.360 N 
HETATM   25  C21 UNL     1      -0.376   3.266  22.198  1.00  0.00     0.243 C 
HETATM   26  O3  UNL     1       0.144   2.964  21.070  1.00  0.00    -0.272 OA
ATOM     27  H3  UNL     1      -0.650   2.803  24.212  1.00  0.00     0.162 HD
BRANCH  25  28
HETATM   28  C22 UNL     1      -1.199   4.495  22.311  1.00  0.00     0.338 C 
BRANCH  28  29
HETATM   29  N4  UNL     1      -2.512   4.400  21.775  1.00  0.00    -0.065 N 
HETATM   30  C23 UNL     1      -3.327   3.385  22.419  1.00  0.00     0.272 C 
HETATM   31  C24 UNL     1      -3.157   5.683  22.122  1.00  0.00     0.272 C 
BRANCH  29  32
HETATM   32  C25 UNL     1      -2.581   4.308  20.340  1.00  0.00     0.263 C 
BRANCH  32  33
HETATM   33  C26 UNL     1      -1.874   5.537  19.758  1.00  0.00     0.192 C 
BRANCH  33  34
HETATM   34  O4  UNL     1      -0.852   5.117  18.881  1.00  0.00    -0.399 OA
ATOM     35  H4  UNL     1      -0.014   5.426  19.204  1.00  0.00     0.209 HD
ENDBRANCH  33  34
ENDBRANCH  32  33
ENDBRANCH  29  32
ENDBRANCH  28  29
ENDBRANCH  25  28
ENDBRANCH  23  24
ENDBRANCH  22  23
ENDBRANCH  21  22
ENDBRANCH  20  21
ENDBRANCH  18  20
BRANCH   1  36
HETATM   36  C2  UNL     1      -2.435  -0.258  20.231  1.00  0.00     0.184 C 
HETATM   37  C1  UNL     1      -3.365  -1.140  20.962  1.00  0.00     0.096 C 
HETATM   38  O1  UNL     1      -2.766   0.956  20.330  1.00  0.00    -0.293 OA
ENDBRANCH   1  36
TORSDOF 11
ENDMDL
