MODEL 1
REMARK VINA RESULT: -7.214827013      0.000      0.000
REMARK  4 active torsions:
REMARK  status: ('A' for Active; 'I' for Inactive)
REMARK    1  A    between atoms: O1_2  and  C2_3 
REMARK    2  A    between atoms: C2_3  and  C3_4 
REMARK       I    between atoms: C3_4  and  N1_6 
REMARK    3  A    between atoms: C17_23  and  C18_24 
REMARK    4  A    between atoms: C18_24  and  C19_25 
ROOT
HETATM    1  C2  UNL     1      16.460  49.540  64.978  1.00  0.00     0.143 C 
HETATM    2  C6  UNL     1      17.502  50.166  64.190  1.00  0.00     0.081 C 
HETATM    3  C7  UNL     1      17.123  50.037  62.804  1.00  0.00     0.060 A 
HETATM    4  C8  UNL     1      16.058  49.461  61.974  1.00  0.00     0.034 A 
HETATM    5  C9  UNL     1      15.800  49.294  62.214  1.00  0.00     0.027 A 
HETATM    6  C10 UNL     1      16.533  49.807  60.962  1.00  0.00     0.075 A 
HETATM    7  C11 UNL     1      17.717  50.504  60.918  1.00  0.00     0.234 A 
HETATM    8  O3  UNL     1      18.282  50.904  59.885  1.00  0.00    -0.272 OA
HETATM    9  N2  UNL     1      18.134  50.673  62.136  1.00  0.00    -0.344 N 
HETATM   10  C12 UNL     1      19.272  51.322  62.568  1.00  0.00     0.153 C 
HETATM   11  C13 UNL     1      15.721  49.419  59.842  1.00  0.00    -0.017 A 
HETATM   12  C14 UNL     1      15.107  48.998  60.877  1.00  0.00     0.023 A 
HETATM   13  C15 UNL     1      13.776  48.324  60.873  1.00  0.00     0.004 C 
HETATM   14  C16 UNL     1      12.927  48.551  61.887  1.00  0.00    -0.006 C 
HETATM   15 BR1  UNL     1      11.303  47.649  61.757  1.00  0.00    -0.055 Br
HETATM   16  C17 UNL     1      13.350  49.482  62.959  1.00  0.00     0.054 C 
HETATM   17  C24 UNL     1      14.805  49.282  63.297  1.00  0.00     0.015 C 
HETATM   18  C25 UNL     1      15.211  50.194  64.375  1.00  0.00     0.054 C 
ENDROOT
BRANCH  16  19
HETATM   19  C18 UNL     1      12.448  49.642  64.054  1.00  0.00    -0.004 C 
BRANCH  19  20
HETATM   20  C19 UNL     1      11.722  50.858  64.363  1.00  0.00    -0.024 A 
HETATM   21  C20 UNL     1      12.160  51.847  65.207  1.00  0.00     0.014 A 
HETATM   22  C21 UNL     1      11.465  53.046  65.434  1.00  0.00     0.018 A 
HETATM   23  C22 UNL     1      10.291  53.203  64.761  1.00  0.00     0.087 A 
HETATM   24  N3  UNL     1       9.855  52.223  63.921  1.00  0.00    -0.374 N 
HETATM   25  C23 UNL     1      10.499  51.079  63.692  1.00  0.00     0.098 A 
ATOM     26  H3  UNL     1       8.972  52.376  63.432  1.00  0.00     0.164 HD
ENDBRANCH  19  20
ENDBRANCH  16  19
BRANCH   1  27
HETATM   27  O1  UNL     1      16.502  48.162  64.624  1.00  0.00    -0.375 OA
HETATM   28  C1  UNL     1      17.516  47.449  65.145  1.00  0.00     0.203 C 
ENDBRANCH   1  27
BRANCH   1  29
HETATM   29  C3  UNL     1      16.520  49.634  66.433  1.00  0.00     0.254 C 
HETATM   30  O2  UNL     1      17.493  50.248  66.966  1.00  0.00    -0.270 OA
HETATM   31  N1  UNL     1      15.605  49.104  67.367  1.00  0.00    -0.358 N 
HETATM   32  C4  UNL     1      14.420  48.439  66.949  1.00  0.00     0.152 C 
HETATM   33  C5  UNL     1      15.853  49.199  68.789  1.00  0.00     0.152 C 
ENDBRANCH   1  29
TORSDOF 4
ENDMDL
MODEL 2
REMARK VINA RESULT: -7.105802511      5.876      9.052
REMARK  4 active torsions:
REMARK  status: ('A' for Active; 'I' for Inactive)
REMARK    1  A    between atoms: O1_2  and  C2_3 
REMARK    2  A    between atoms: C2_3  and  C3_4 
REMARK       I    between atoms: C3_4  and  N1_6 
REMARK    3  A    between atoms: C17_23  and  C18_24 
REMARK    4  A    between atoms: C18_24  and  C19_25 
ROOT
HETATM    1  C2  UNL     1       6.862  49.961  61.923  1.00  0.00     0.143 C 
HETATM    2  C6  UNL     1       7.848  50.664  62.717  1.00  0.00     0.081 C 
HETATM    3  C7  UNL     1       9.113  50.003  62.510  1.00  0.00     0.060 A 
HETATM    4  C8  UNL     1       9.683  48.857  61.791  1.00  0.00     0.034 A 
HETATM    5  C9  UNL     1       9.393  48.686  61.596  1.00  0.00     0.027 A 
HETATM    6  C10 UNL     1      10.773  49.039  62.177  1.00  0.00     0.075 A 
HETATM    7  C11 UNL     1      11.077  50.077  63.025  1.00  0.00     0.234 A 
HETATM    8  O3  UNL     1      12.206  50.334  63.476  1.00  0.00    -0.272 OA
HETATM    9  N2  UNL     1       9.986  50.740  63.264  1.00  0.00    -0.344 N 
HETATM   10  C12 UNL     1       9.820  51.859  64.053  1.00  0.00     0.153 C 
HETATM   11  C13 UNL     1      11.687  48.068  61.644  1.00  0.00    -0.017 A 
HETATM   12  C14 UNL     1      10.547  47.775  61.155  1.00  0.00     0.023 A 
HETATM   13  C15 UNL     1      10.288  46.688  60.165  1.00  0.00     0.004 C 
HETATM   14  C16 UNL     1       9.352  46.873  59.223  1.00  0.00    -0.006 C 
HETATM   15 BR1  UNL     1       9.132  45.441  58.053  1.00  0.00    -0.055 Br
HETATM   16  C17 UNL     1       8.628  48.167  59.199  1.00  0.00     0.054 C 
HETATM   17  C24 UNL     1       8.312  48.626  60.599  1.00  0.00     0.015 C 
HETATM   18  C25 UNL     1       7.577  49.898  60.567  1.00  0.00     0.054 C 
ENDROOT
BRANCH  16  19
HETATM   19  C18 UNL     1       7.592  48.298  58.226  1.00  0.00    -0.004 C 
BRANCH  19  20
HETATM   20  C19 UNL     1       7.730  48.968  56.949  1.00  0.00    -0.024 A 
HETATM   21  C20 UNL     1       8.287  48.415  55.823  1.00  0.00     0.014 A 
HETATM   22  C21 UNL     1       8.347  49.065  54.580  1.00  0.00     0.018 A 
HETATM   23  C22 UNL     1       7.812  50.316  54.524  1.00  0.00     0.087 A 
HETATM   24  N3  UNL     1       7.257  50.867  55.640  1.00  0.00    -0.374 N 
HETATM   25  C23 UNL     1       7.191  50.267  56.828  1.00  0.00     0.098 A 
ATOM     26  H3  UNL     1       6.863  51.805  55.560  1.00  0.00     0.164 HD
ENDBRANCH  19  20
ENDBRANCH  16  19
BRANCH   1  27
HETATM   27  O1  UNL     1       6.789  48.657  62.490  1.00  0.00    -0.375 OA
HETATM   28  C1  UNL     1       6.290  48.582  63.736  1.00  0.00     0.203 C 
ENDBRANCH   1  27
BRANCH   1  29
HETATM   29  C3  UNL     1       5.507  50.494  61.841  1.00  0.00     0.254 C 
HETATM   30  O2  UNL     1       5.245  51.589  62.425  1.00  0.00    -0.270 OA
HETATM   31  N1  UNL     1       4.398  49.928  61.177  1.00  0.00    -0.358 N 
HETATM   32  C4  UNL     1       4.521  48.733  60.417  1.00  0.00     0.152 C 
HETATM   33  C5  UNL     1       3.087  50.532  61.267  1.00  0.00     0.152 C 
ENDBRANCH   1  29
TORSDOF 4
ENDMDL
MODEL 3
REMARK VINA RESULT: -6.938881905      8.415     10.701
REMARK  4 active torsions:
REMARK  status: ('A' for Active; 'I' for Inactive)
REMARK    1  A    between atoms: O1_2  and  C2_3 
REMARK    2  A    between atoms: C2_3  and  C3_4 
REMARK       I    between atoms: C3_4  and  N1_6 
REMARK    3  A    between atoms: C17_23  and  C18_24 
REMARK    4  A    between atoms: C18_24  and  C19_25 
ROOT
HETATM    1  C2  UNL     1       7.677  46.844  58.070  1.00  0.00     0.143 C 
HETATM    2  C6  UNL     1       7.547  45.402  58.068  1.00  0.00     0.081 C 
HETATM    3  C7  UNL     1       7.545  44.973  59.446  1.00  0.00     0.060 A 
HETATM    4  C8  UNL     1       7.660  45.526  60.800  1.00  0.00     0.034 A 
HETATM    5  C9  UNL     1       7.703  45.912  60.766  1.00  0.00     0.027 A 
HETATM    6  C10 UNL     1       7.562  44.488  61.332  1.00  0.00     0.075 A 
HETATM    7  C11 UNL     1       7.406  43.321  60.622  1.00  0.00     0.234 A 
HETATM    8  O3  UNL     1       7.295  42.186  61.114  1.00  0.00    -0.272 OA
HETATM    9  N2  UNL     1       7.390  43.616  59.357  1.00  0.00    -0.344 N 
HETATM   10  C12 UNL     1       7.248  42.763  58.283  1.00  0.00     0.153 C 
HETATM   11  C13 UNL     1       7.615  44.624  62.761  1.00  0.00    -0.017 A 
HETATM   12  C14 UNL     1       7.726  45.807  62.297  1.00  0.00     0.023 A 
HETATM   13  C15 UNL     1       7.801  47.051  63.118  1.00  0.00     0.004 C 
HETATM   14  C16 UNL     1       7.225  48.172  62.658  1.00  0.00    -0.006 C 
HETATM   15 BR1  UNL     1       7.394  49.648  63.781  1.00  0.00    -0.055 Br
HETATM   16  C17 UNL     1       6.519  48.113  61.357  1.00  0.00     0.054 C 
HETATM   17  C24 UNL     1       7.284  47.266  60.372  1.00  0.00     0.015 C 
HETATM   18  C25 UNL     1       6.588  47.230  59.078  1.00  0.00     0.054 C 
ENDROOT
BRANCH  16  19
HETATM   19  C18 UNL     1       5.980  49.343  60.870  1.00  0.00    -0.004 C 
BRANCH  19  20
HETATM   20  C19 UNL     1       4.583  49.722  60.938  1.00  0.00    -0.024 A 
HETATM   21  C20 UNL     1       3.524  48.869  60.762  1.00  0.00     0.014 A 
HETATM   22  C21 UNL     1       2.179  49.252  60.900  1.00  0.00     0.018 A 
HETATM   23  C22 UNL     1       1.951  50.554  61.227  1.00  0.00     0.087 A 
HETATM   24  N3  UNL     1       3.002  51.403  61.404  1.00  0.00    -0.374 N 
HETATM   25  C23 UNL     1       4.283  51.060  61.278  1.00  0.00     0.098 A 
ATOM     26  H3  UNL     1       2.793  52.371  61.651  1.00  0.00     0.164 HD
ENDBRANCH  19  20
ENDBRANCH  16  19
BRANCH   1  27
HETATM   27  O1  UNL     1       8.962  47.102  58.626  1.00  0.00    -0.375 OA
HETATM   28  C1  UNL     1      10.006  46.550  57.982  1.00  0.00     0.203 C 
ENDBRANCH   1  27
BRANCH   1  29
HETATM   29  C3  UNL     1       7.580  47.566  56.806  1.00  0.00     0.254 C 
HETATM   30  O2  UNL     1       7.460  46.902  55.731  1.00  0.00    -0.270 OA
HETATM   31  N1  UNL     1       7.609  48.962  56.607  1.00  0.00    -0.358 N 
HETATM   32  C4  UNL     1       7.675  49.865  57.704  1.00  0.00     0.152 C 
HETATM   33  C5  UNL     1       7.597  49.526  55.276  1.00  0.00     0.152 C 
ENDBRANCH   1  29
TORSDOF 4
ENDMDL
MODEL 4
REMARK VINA RESULT: -6.853567914      8.378     10.827
REMARK  4 active torsions:
REMARK  status: ('A' for Active; 'I' for Inactive)
REMARK    1  A    between atoms: O1_2  and  C2_3 
REMARK    2  A    between atoms: C2_3  and  C3_4 
REMARK       I    between atoms: C3_4  and  N1_6 
REMARK    3  A    between atoms: C17_23  and  C18_24 
REMARK    4  A    between atoms: C18_24  and  C19_25 
ROOT
HETATM    1  C2  UNL     1       7.545  48.209  58.425  1.00  0.00     0.143 C 
HETATM    2  C6  UNL     1       7.435  46.784  58.198  1.00  0.00     0.081 C 
HETATM    3  C7  UNL     1       7.121  46.174  59.468  1.00  0.00     0.060 A 
HETATM    4  C8  UNL     1       6.916  46.538  60.875  1.00  0.00     0.034 A 
HETATM    5  C9  UNL     1       6.961  46.924  60.903  1.00  0.00     0.027 A 
HETATM    6  C10 UNL     1       6.710  45.440  61.225  1.00  0.00     0.075 A 
HETATM    7  C11 UNL     1       6.734  44.383  60.346  1.00  0.00     0.234 A 
HETATM    8  O3  UNL     1       6.525  43.194  60.642  1.00  0.00    -0.272 OA
HETATM    9  N2  UNL     1       7.006  44.844  59.163  1.00  0.00    -0.344 N 
HETATM   10  C12 UNL     1       7.123  44.146  57.980  1.00  0.00     0.153 C 
HETATM   11  C13 UNL     1       6.431  45.382  62.632  1.00  0.00    -0.017 A 
HETATM   12  C14 UNL     1       6.633  46.613  62.370  1.00  0.00     0.023 A 
HETATM   13  C15 UNL     1       6.505  47.734  63.347  1.00  0.00     0.004 C 
HETATM   14  C16 UNL     1       6.038  48.918  62.925  1.00  0.00    -0.006 C 
HETATM   15 BR1  UNL     1       5.928  50.227  64.245  1.00  0.00    -0.055 Br
HETATM   16  C17 UNL     1       5.650  49.049  61.500  1.00  0.00     0.054 C 
HETATM   17  C24 UNL     1       6.629  48.327  60.612  1.00  0.00     0.015 C 
HETATM   18  C25 UNL     1       6.250  48.479  59.200  1.00  0.00     0.054 C 
ENDROOT
BRANCH  16  19
HETATM   19  C18 UNL     1       5.223  50.344  61.074  1.00  0.00    -0.004 C 
BRANCH  19  20
HETATM   20  C19 UNL     1       3.869  50.850  61.179  1.00  0.00    -0.024 A 
HETATM   21  C20 UNL     1       3.528  52.173  61.299  1.00  0.00     0.014 A 
HETATM   22  C21 UNL     1       2.203  52.639  61.330  1.00  0.00     0.018 A 
HETATM   23  C22 UNL     1       1.226  51.696  61.234  1.00  0.00     0.087 A 
HETATM   24  N3  UNL     1       1.563  50.380  61.114  1.00  0.00    -0.374 N 
HETATM   25  C23 UNL     1       2.813  49.918  61.082  1.00  0.00     0.098 A 
ATOM     26  H3  UNL     1       0.805  49.702  61.042  1.00  0.00     0.164 HD
ENDBRANCH  19  20
ENDBRANCH  16  19
BRANCH   1  27
HETATM   27  O1  UNL     1       8.666  48.364  59.290  1.00  0.00    -0.375 OA
HETATM   28  C1  UNL     1       9.851  47.964  58.797  1.00  0.00     0.203 C 
ENDBRANCH   1  27
BRANCH   1  29
HETATM   29  C3  UNL     1       7.733  49.096  57.282  1.00  0.00     0.254 C 
HETATM   30  O2  UNL     1       7.822  50.346  57.487  1.00  0.00    -0.270 OA
HETATM   31  N1  UNL     1       7.827  48.738  55.921  1.00  0.00    -0.358 N 
HETATM   32  C4  UNL     1       7.811  47.377  55.511  1.00  0.00     0.152 C 
HETATM   33  C5  UNL     1       7.918  49.748  54.889  1.00  0.00     0.152 C 
ENDBRANCH   1  29
TORSDOF 4
ENDMDL
MODEL 5
REMARK VINA RESULT: -6.805015667      6.592     10.125
REMARK  4 active torsions:
REMARK  status: ('A' for Active; 'I' for Inactive)
REMARK    1  A    between atoms: O1_2  and  C2_3 
REMARK    2  A    between atoms: C2_3  and  C3_4 
REMARK       I    between atoms: C3_4  and  N1_6 
REMARK    3  A    between atoms: C17_23  and  C18_24 
REMARK    4  A    between atoms: C18_24  and  C19_25 
ROOT
HETATM    1  C2  UNL     1       5.438  49.353  61.365  1.00  0.00     0.143 C 
HETATM    2  C6  UNL     1       5.984  50.209  62.397  1.00  0.00     0.081 C 
HETATM    3  C7  UNL     1       7.404  49.960  62.449  1.00  0.00     0.060 A 
HETATM    4  C8  UNL     1       8.425  49.112  61.821  1.00  0.00     0.034 A 
HETATM    5  C9  UNL     1       8.245  48.889  61.557  1.00  0.00     0.027 A 
HETATM    6  C10 UNL     1       9.308  49.548  62.453  1.00  0.00     0.075 A 
HETATM    7  C11 UNL     1       9.109  50.526  63.399  1.00  0.00     0.234 A 
HETATM    8  O3  UNL     1       9.994  51.037  64.107  1.00  0.00    -0.272 OA
HETATM    9  N2  UNL     1       7.844  50.821  63.417  1.00  0.00    -0.344 N 
HETATM   10  C12 UNL     1       7.195  51.750  64.203  1.00  0.00     0.153 C 
HETATM   11  C13 UNL     1      10.560  48.943  62.093  1.00  0.00    -0.017 A 
HETATM   12  C14 UNL     1       9.684  48.398  61.344  1.00  0.00     0.023 A 
HETATM   13  C15 UNL     1       9.969  47.404  60.268  1.00  0.00     0.004 C 
HETATM   14  C16 UNL     1       9.231  47.425  59.148  1.00  0.00    -0.006 C 
HETATM   15 BR1  UNL     1       9.693  46.133  57.889  1.00  0.00    -0.055 Br
HETATM   16  C17 UNL     1       8.172  48.455  59.027  1.00  0.00     0.054 C 
HETATM   17  C24 UNL     1       7.457  48.643  60.339  1.00  0.00     0.015 C 
HETATM   18  C25 UNL     1       6.396  49.650  60.206  1.00  0.00     0.054 C 
ENDROOT
BRANCH  16  19
HETATM   19  C18 UNL     1       7.364  48.399  57.851  1.00  0.00    -0.004 C 
BRANCH  19  20
HETATM   20  C19 UNL     1       7.628  49.125  56.625  1.00  0.00    -0.024 A 
HETATM   21  C20 UNL     1       8.216  48.594  55.505  1.00  0.00     0.014 A 
HETATM   22  C21 UNL     1       8.398  49.303  54.306  1.00  0.00     0.018 A 
HETATM   23  C22 UNL     1       7.953  50.590  54.290  1.00  0.00     0.087 A 
HETATM   24  N3  UNL     1       7.367  51.119  55.401  1.00  0.00    -0.374 N 
HETATM   25  C23 UNL     1       7.186  50.463  56.547  1.00  0.00     0.098 A 
ATOM     26  H3  UNL     1       7.044  52.086  55.352  1.00  0.00     0.164 HD
ENDBRANCH  19  20
ENDBRANCH  16  19
BRANCH   1  27
HETATM   27  O1  UNL     1       5.646  48.025  61.834  1.00  0.00    -0.375 OA
HETATM   28  C1  UNL     1       4.937  47.663  62.918  1.00  0.00     0.203 C 
ENDBRANCH   1  27
BRANCH   1  29
HETATM   29  C3  UNL     1       4.030  49.487  61.005  1.00  0.00     0.254 C 
HETATM   30  O2  UNL     1       3.512  48.621  60.235  1.00  0.00    -0.270 OA
HETATM   31  N1  UNL     1       3.131  50.496  61.407  1.00  0.00    -0.358 N 
HETATM   32  C4  UNL     1       3.521  51.514  62.320  1.00  0.00     0.152 C 
HETATM   33  C5  UNL     1       1.782  50.546  60.886  1.00  0.00     0.152 C 
ENDBRANCH   1  29
TORSDOF 4
ENDMDL
