MODEL 1
REMARK VINA RESULT: -8.172879234      0.000      0.000
REMARK  2 active torsions:
REMARK  status: ('A' for Active; 'I' for Inactive)
REMARK    1  A    between atoms: C1_2  and  C2_3 
REMARK    2  A    between atoms: C10_15  and  C11_16 
ROOT
HETATM    1  O1  UNL     1      24.566   4.559  20.653  1.00  0.00    -0.300 OA
HETATM    2  C1  UNL     1      23.479   4.088  21.024  1.00  0.00     0.134 C 
HETATM    3  C3  UNL     1      23.265   4.045  22.514  1.00  0.00     0.058 C 
HETATM    4  C4  UNL     1      21.770   3.711  22.601  1.00  0.00     0.020 C 
HETATM    5  C5  UNL     1      21.664   5.137  22.003  1.00  0.00     0.027 C 
HETATM    6  C6  UNL     1      22.767   5.409  22.944  1.00  0.00     0.005 C 
HETATM    7  C7  UNL     1      23.591   6.596  22.754  1.00  0.00     0.023 C 
HETATM    8  C8  UNL     1      22.864   7.848  22.357  1.00  0.00     0.075 C 
HETATM    9 BR1  UNL     1      21.228   7.901  23.436  1.00  0.00    -0.090 Br
HETATM   10  C9  UNL     1      22.552   8.038  20.928  1.00  0.00     0.105 C 
HETATM   11 BR2  UNL     1      20.670   8.480  20.750  1.00  0.00    -0.087 Br
HETATM   12  C10 UNL     1      23.016   6.999  19.972  1.00  0.00     0.171 C 
HETATM   13  O2  UNL     1      22.341   5.871  19.813  1.00  0.00    -0.367 OA
HETATM   14  C17 UNL     1      22.239   4.863  20.641  1.00  0.00     0.192 C 
ENDROOT
BRANCH  12  15
HETATM   15  C11 UNL     1      22.951   7.661  18.603  1.00  0.00    -0.028 A 
HETATM   16  C12 UNL     1      23.748   7.178  17.576  1.00  0.00     0.010 A 
HETATM   17  C13 UNL     1      23.724   7.743  16.306  1.00  0.00     0.001 A 
HETATM   18  C14 UNL     1      22.900   8.805  16.040  1.00  0.00     0.000 A 
HETATM   19  C15 UNL     1      22.110   9.281  17.067  1.00  0.00     0.001 A 
HETATM   20  C16 UNL     1      22.139   8.717  18.324  1.00  0.00     0.010 A 
ENDBRANCH  12  15
BRANCH   2  21
HETATM   21  C2  UNL     1      23.497   2.676  20.453  1.00  0.00     0.243 C 
HETATM   22 CL1  UNL     1      24.468   1.704  21.618  1.00  0.00    -0.100 Cl
HETATM   23 CL2  UNL     1      24.412   2.663  18.924  1.00  0.00    -0.100 Cl
ENDBRANCH   2  21
TORSDOF 2
ENDMDL
MODEL 2
REMARK VINA RESULT: -8.006544960      0.348      1.036
REMARK  2 active torsions:
REMARK  status: ('A' for Active; 'I' for Inactive)
REMARK    1  A    between atoms: C1_2  and  C2_3 
REMARK    2  A    between atoms: C10_15  and  C11_16 
ROOT
HETATM    1  O1  UNL     1      24.653   4.422  20.956  1.00  0.00    -0.300 OA
HETATM    2  C1  UNL     1      23.530   3.989  21.261  1.00  0.00     0.134 C 
HETATM    3  C3  UNL     1      23.186   4.052  22.725  1.00  0.00     0.058 C 
HETATM    4  C4  UNL     1      21.684   3.740  22.701  1.00  0.00     0.020 C 
HETATM    5  C5  UNL     1      21.653   5.121  22.000  1.00  0.00     0.027 C 
HETATM    6  C6  UNL     1      22.672   5.448  23.014  1.00  0.00     0.005 C 
HETATM    7  C7  UNL     1      23.529   6.611  22.816  1.00  0.00     0.023 C 
HETATM    8  C8  UNL     1      22.859   7.839  22.272  1.00  0.00     0.075 C 
HETATM    9 BR1  UNL     1      21.135   7.983  23.194  1.00  0.00    -0.090 Br
HETATM   10  C9  UNL     1      22.678   7.932  20.810  1.00  0.00     0.105 C 
HETATM   11 BR2  UNL     1      20.825   8.377  20.436  1.00  0.00    -0.087 Br
HETATM   12  C10 UNL     1      23.207   6.824  19.974  1.00  0.00     0.171 C 
HETATM   13  O2  UNL     1      22.532   5.693  19.833  1.00  0.00    -0.367 OA
HETATM   14  C17 UNL     1      22.342   4.747  20.716  1.00  0.00     0.192 C 
ENDROOT
BRANCH  12  15
HETATM   15  C11 UNL     1      23.274   7.389  18.562  1.00  0.00    -0.028 A 
HETATM   16  C12 UNL     1      22.368   8.365  18.177  1.00  0.00     0.010 A 
HETATM   17  C13 UNL     1      22.387   8.917  16.902  1.00  0.00     0.001 A 
HETATM   18  C14 UNL     1      23.316   8.500  15.985  1.00  0.00     0.000 A 
HETATM   19  C15 UNL     1      24.215   7.528  16.375  1.00  0.00     0.001 A 
HETATM   20  C16 UNL     1      24.190   6.985  17.640  1.00  0.00     0.010 A 
ENDBRANCH  12  15
BRANCH   2  21
HETATM   21  C2  UNL     1      23.577   2.540  20.792  1.00  0.00     0.243 C 
HETATM   22 CL1  UNL     1      24.422   1.643  22.106  1.00  0.00    -0.100 Cl
HETATM   23 CL2  UNL     1      24.626   2.411  19.358  1.00  0.00    -0.100 Cl
ENDBRANCH   2  21
TORSDOF 2
ENDMDL
MODEL 3
REMARK VINA RESULT: -7.941220376      1.003      1.218
REMARK  2 active torsions:
REMARK  status: ('A' for Active; 'I' for Inactive)
REMARK    1  A    between atoms: C1_2  and  C2_3 
REMARK    2  A    between atoms: C10_15  and  C11_16 
ROOT
HETATM    1  O1  UNL     1      24.836   3.983  21.321  1.00  0.00    -0.300 OA
HETATM    2  C1  UNL     1      23.662   3.629  21.515  1.00  0.00     0.134 C 
HETATM    3  C3  UNL     1      23.122   3.896  22.894  1.00  0.00     0.058 C 
HETATM    4  C4  UNL     1      21.624   3.629  22.694  1.00  0.00     0.020 C 
HETATM    5  C5  UNL     1      21.759   4.906  21.826  1.00  0.00     0.027 C 
HETATM    6  C6  UNL     1      22.643   5.333  22.926  1.00  0.00     0.005 C 
HETATM    7  C7  UNL     1      23.574   6.433  22.707  1.00  0.00     0.023 C 
HETATM    8  C8  UNL     1      23.048   7.597  21.921  1.00  0.00     0.075 C 
HETATM    9 BR1  UNL     1      21.222   7.916  22.560  1.00  0.00    -0.090 Br
HETATM   10  C9  UNL     1      23.075   7.500  20.448  1.00  0.00     0.105 C 
HETATM   11 BR2  UNL     1      21.317   7.949  19.758  1.00  0.00    -0.087 Br
HETATM   12  C10 UNL     1      23.661   6.276  19.845  1.00  0.00     0.171 C 
HETATM   13  O2  UNL     1      22.956   5.158  19.753  1.00  0.00    -0.367 OA
HETATM   14  C17 UNL     1      22.599   4.343  20.713  1.00  0.00     0.192 C 
ENDROOT
BRANCH  12  15
HETATM   15  C11 UNL     1      23.949   6.645  18.397  1.00  0.00    -0.028 A 
HETATM   16  C12 UNL     1      24.500   5.696  17.549  1.00  0.00     0.010 A 
HETATM   17  C13 UNL     1      24.780   5.980  16.218  1.00  0.00     0.001 A 
HETATM   18  C14 UNL     1      24.513   7.223  15.708  1.00  0.00     0.000 A 
HETATM   19  C15 UNL     1      23.964   8.164  16.557  1.00  0.00     0.001 A 
HETATM   20  C16 UNL     1      23.690   7.876  17.876  1.00  0.00     0.010 A 
ENDBRANCH  12  15
BRANCH   2  21
HETATM   21  C2  UNL     1      23.702   2.129  21.245  1.00  0.00     0.243 C 
HETATM   22 CL1  UNL     1      24.477   1.406  22.702  1.00  0.00    -0.100 Cl
HETATM   23 CL2  UNL     1      24.807   1.796  19.887  1.00  0.00    -0.100 Cl
ENDBRANCH   2  21
TORSDOF 2
ENDMDL
MODEL 4
REMARK VINA RESULT: -7.897278453      3.177      4.825
REMARK  2 active torsions:
REMARK  status: ('A' for Active; 'I' for Inactive)
REMARK    1  A    between atoms: C1_2  and  C2_3 
REMARK    2  A    between atoms: C10_15  and  C11_16 
ROOT
HETATM    1  O1  UNL     1      25.502   3.274  20.539  1.00  0.00    -0.300 OA
HETATM    2  C1  UNL     1      24.711   2.546  19.918  1.00  0.00     0.134 C 
HETATM    3  C3  UNL     1      24.817   1.073  20.211  1.00  0.00     0.058 C 
HETATM    4  C4  UNL     1      23.548   0.534  19.538  1.00  0.00     0.020 C 
HETATM    5  C5  UNL     1      22.887   1.345  20.681  1.00  0.00     0.027 C 
HETATM    6  C6  UNL     1      24.011   0.798  21.464  1.00  0.00     0.005 C 
HETATM    7  C7  UNL     1      24.369   1.423  22.731  1.00  0.00     0.023 C 
HETATM    8  C8  UNL     1      23.225   1.847  23.605  1.00  0.00     0.075 C 
HETATM    9 BR1  UNL     1      21.897   0.407  23.514  1.00  0.00    -0.090 Br
HETATM   10  C9  UNL     1      22.597   3.153  23.329  1.00  0.00     0.105 C 
HETATM   11 BR2  UNL     1      20.674   2.911  23.208  1.00  0.00    -0.087 Br
HETATM   12  C10 UNL     1      23.166   3.979  22.233  1.00  0.00     0.171 C 
HETATM   13  O2  UNL     1      22.860   3.735  20.967  1.00  0.00    -0.367 OA
HETATM   14  C17 UNL     1      23.242   2.732  20.219  1.00  0.00     0.192 C 
ENDROOT
BRANCH  12  15
HETATM   15  C11 UNL     1      22.632   5.383  22.474  1.00  0.00    -0.028 A 
HETATM   16  C12 UNL     1      22.711   6.325  21.459  1.00  0.00     0.010 A 
HETATM   17  C13 UNL     1      22.235   7.620  21.625  1.00  0.00     0.001 A 
HETATM   18  C14 UNL     1      21.670   7.998  22.815  1.00  0.00     0.000 A 
HETATM   19  C15 UNL     1      21.594   7.056  23.821  1.00  0.00     0.001 A 
HETATM   20  C16 UNL     1      22.069   5.774  23.650  1.00  0.00     0.010 A 
ENDBRANCH  12  15
BRANCH   2  21
HETATM   21  C2  UNL     1      25.058   2.820  18.460  1.00  0.00     0.243 C 
HETATM   22 CL1  UNL     1      26.778   2.315  18.278  1.00  0.00    -0.100 Cl
HETATM   23 CL2  UNL     1      25.029   4.576  18.159  1.00  0.00    -0.100 Cl
ENDBRANCH   2  21
TORSDOF 2
ENDMDL
MODEL 5
REMARK VINA RESULT: -7.713919451      2.811      4.633
REMARK  2 active torsions:
REMARK  status: ('A' for Active; 'I' for Inactive)
REMARK    1  A    between atoms: C1_2  and  C2_3 
REMARK    2  A    between atoms: C10_15  and  C11_16 
ROOT
HETATM    1  O1  UNL     1      25.466   2.566  20.179  1.00  0.00    -0.300 OA
HETATM    2  C1  UNL     1      24.594   1.769  19.798  1.00  0.00     0.134 C 
HETATM    3  C3  UNL     1      24.646   0.401  20.425  1.00  0.00     0.058 C 
HETATM    4  C4  UNL     1      23.304  -0.193  19.978  1.00  0.00     0.020 C 
HETATM    5  C5  UNL     1      22.774   0.904  20.935  1.00  0.00     0.027 C 
HETATM    6  C6  UNL     1      23.924   0.480  21.754  1.00  0.00     0.005 C 
HETATM    7  C7  UNL     1      24.409   1.357  22.813  1.00  0.00     0.023 C 
HETATM    8  C8  UNL     1      23.357   2.049  23.630  1.00  0.00     0.075 C 
HETATM    9 BR1  UNL     1      21.954   0.721  23.965  1.00  0.00    -0.090 Br
HETATM   10  C9  UNL     1      22.777   3.294  23.091  1.00  0.00     0.105 C 
HETATM   11 BR2  UNL     1      20.841   3.161  23.149  1.00  0.00    -0.087 Br
HETATM   12  C10 UNL     1      23.303   3.802  21.798  1.00  0.00     0.171 C 
HETATM   13  O2  UNL     1      22.891   3.291  20.647  1.00  0.00    -0.367 OA
HETATM   14  C17 UNL     1      23.163   2.118  20.137  1.00  0.00     0.192 C 
ENDROOT
BRANCH  12  15
HETATM   15  C11 UNL     1      22.861   5.257  21.732  1.00  0.00    -0.028 A 
HETATM   16  C12 UNL     1      22.723   5.979  22.907  1.00  0.00     0.010 A 
HETATM   17  C13 UNL     1      22.327   7.311  22.903  1.00  0.00     0.001 A 
HETATM   18  C14 UNL     1      22.060   7.947  21.719  1.00  0.00     0.000 A 
HETATM   19  C15 UNL     1      22.200   7.222  20.553  1.00  0.00     0.001 A 
HETATM   20  C16 UNL     1      22.593   5.901  20.564  1.00  0.00     0.010 A 
ENDBRANCH  12  15
BRANCH   2  21
HETATM   21  C2  UNL     1      24.843   1.672  18.298  1.00  0.00     0.243 C 
HETATM   22 CL1  UNL     1      26.526   1.050  18.136  1.00  0.00    -0.100 Cl
HETATM   23 CL2  UNL     1      24.854   3.306  17.588  1.00  0.00    -0.100 Cl
ENDBRANCH   2  21
TORSDOF 2
ENDMDL
