MODEL 1
REMARK VINA RESULT: -6.692731919      0.000      0.000
REMARK  1 active torsions:
REMARK  status: ('A' for Active; 'I' for Inactive)
REMARK    1  A    between atoms: N2_21  and  S1_23 
ROOT
HETATM    1  C1  UNL     1      23.968  -1.070  20.436  1.00  0.00     0.052 C 
HETATM    2  C2  UNL     1      23.804   0.318  19.935  1.00  0.00     0.108 C 
HETATM    3  F1  UNL     1      23.135  -0.109  18.725  1.00  0.00    -0.243 F 
HETATM    4  C3  UNL     1      22.786   1.195  20.611  1.00  0.00     0.073 C 
HETATM    5  C4  UNL     1      23.159   2.607  21.017  1.00  0.00     0.085 C 
HETATM    6 CL1  UNL     1      22.130   3.247  22.236  1.00  0.00    -0.115 Cl
HETATM    7  C5  UNL     1      23.427   3.626  19.850  1.00  0.00     0.065 C 
HETATM    8 CL2  UNL     1      22.506   5.040  19.826  1.00  0.00    -0.117 Cl
HETATM    9  C6  UNL     1      23.612   2.700  18.796  1.00  0.00     0.040 C 
HETATM   10  C7  UNL     1      24.734   2.374  19.813  1.00  0.00     0.000 C 
HETATM   11  C8  UNL     1      25.014   1.058  19.468  1.00  0.00     0.059 C 
HETATM   12  C9  UNL     1      26.376   0.808  19.996  1.00  0.00     0.061 C 
HETATM   13  C10 UNL     1      27.038  -0.356  19.397  1.00  0.00     0.070 C 
HETATM   14  N1  UNL     1      27.575  -1.260  18.921  1.00  0.00    -0.196 NA
HETATM   15  C11 UNL     1      27.175   2.053  19.560  1.00  0.00     0.025 C 
HETATM   16  C12 UNL     1      26.764   2.734  18.329  1.00  0.00     0.002 C 
HETATM   17  C13 UNL     1      25.781   3.918  18.513  1.00  0.00     0.007 C 
HETATM   18  C14 UNL     1      24.952   3.720  19.657  1.00  0.00     0.022 C 
HETATM   19  C15 UNL     1      26.377   0.739  21.514  1.00  0.00     0.080 C 
HETATM   20  C16 UNL     1      25.220   1.490  22.097  1.00  0.00     0.021 C 
HETATM   21  N2  UNL     1      24.838   1.285  23.291  1.00  0.00    -0.291 N 
ATOM     22  H2  UNL     1      24.041   1.844  23.595  1.00  0.00     0.178 HD
HETATM   23  C18 UNL     1      24.566   2.451  21.293  1.00  0.00     0.089 C 
HETATM   24 BR1  UNL     1      24.867   4.000  22.378  1.00  0.00    -0.076 Br
ENDROOT
BRANCH  21  25
HETATM   25  S1  UNL     1      25.451   0.233  24.435  1.00  0.00     0.226 S 
HETATM   26  C17 UNL     1      24.827  -1.418  24.250  1.00  0.00     0.186 C 
HETATM   27  O1  UNL     1      24.940   0.705  25.796  1.00  0.00    -0.206 OA
HETATM   28  O2  UNL     1      26.952   0.273  24.477  1.00  0.00    -0.206 OA
ENDBRANCH  21  25
TORSDOF 1
ENDMDL
MODEL 2
REMARK VINA RESULT: -6.692197290      3.230      4.638
REMARK  1 active torsions:
REMARK  status: ('A' for Active; 'I' for Inactive)
REMARK    1  A    between atoms: N2_21  and  S1_23 
ROOT
HETATM    1  C1  UNL     1      20.549   1.438  22.509  1.00  0.00     0.052 C 
HETATM    2  C2  UNL     1      21.811   1.543  21.734  1.00  0.00     0.108 C 
HETATM    3  F1  UNL     1      21.475   0.427  20.876  1.00  0.00    -0.243 F 
HETATM    4  C3  UNL     1      21.956   2.693  20.776  1.00  0.00     0.073 C 
HETATM    5  C4  UNL     1      23.230   3.516  20.775  1.00  0.00     0.085 C 
HETATM    6 CL1  UNL     1      23.021   5.069  20.069  1.00  0.00    -0.115 Cl
HETATM    7  C5  UNL     1      24.533   2.791  20.276  1.00  0.00     0.065 C 
HETATM    8 CL2  UNL     1      25.369   3.492  18.988  1.00  0.00    -0.117 Cl
HETATM    9  C6  UNL     1      24.089   1.451  20.389  1.00  0.00     0.040 C 
HETATM   10  C7  UNL     1      24.018   2.016  21.830  1.00  0.00     0.000 C 
HETATM   11  C8  UNL     1      23.091   1.151  22.395  1.00  0.00     0.059 C 
HETATM   12  C9  UNL     1      23.318   1.253  23.856  1.00  0.00     0.061 C 
HETATM   13  C10 UNL     1      22.752   0.137  24.622  1.00  0.00     0.070 C 
HETATM   14  N1  UNL     1      22.325  -0.744  25.234  1.00  0.00    -0.196 NA
HETATM   15  C11 UNL     1      24.851   1.164  23.999  1.00  0.00     0.025 C 
HETATM   16  C12 UNL     1      25.589   0.394  22.994  1.00  0.00     0.002 C 
HETATM   17  C13 UNL     1      26.144   1.209  21.798  1.00  0.00     0.007 C 
HETATM   18  C14 UNL     1      25.317   2.338  21.522  1.00  0.00     0.022 C 
HETATM   19  C15 UNL     1      22.858   2.597  24.395  1.00  0.00     0.080 C 
HETATM   20  C16 UNL     1      22.859   3.645  23.325  1.00  0.00     0.021 C 
HETATM   21  N2  UNL     1      22.204   4.725  23.461  1.00  0.00    -0.291 N 
ATOM     22  H2  UNL     1      22.267   5.375  22.678  1.00  0.00     0.178 HD
HETATM   23  C18 UNL     1      23.623   3.417  22.158  1.00  0.00     0.089 C 
HETATM   24 BR1  UNL     1      24.805   4.918  22.278  1.00  0.00    -0.076 Br
ENDROOT
BRANCH  21  25
HETATM   25  S1  UNL     1      21.255   5.235  24.738  1.00  0.00     0.226 S 
HETATM   26  C17 UNL     1      20.630   6.880  24.512  1.00  0.00     0.186 C 
HETATM   27  O1  UNL     1      22.163   5.317  25.966  1.00  0.00    -0.206 OA
HETATM   28  O2  UNL     1      20.165   4.249  25.048  1.00  0.00    -0.206 OA
ENDBRANCH  21  25
TORSDOF 1
ENDMDL
MODEL 3
REMARK VINA RESULT: -6.478041392      3.164      4.360
REMARK  1 active torsions:
REMARK  status: ('A' for Active; 'I' for Inactive)
REMARK    1  A    between atoms: N2_21  and  S1_23 
ROOT
HETATM    1  C1  UNL     1      20.652   1.208  22.521  1.00  0.00     0.052 C 
HETATM    2  C2  UNL     1      21.862   1.460  21.700  1.00  0.00     0.108 C 
HETATM    3  F1  UNL     1      21.549   0.400  20.765  1.00  0.00    -0.243 F 
HETATM    4  C3  UNL     1      21.886   2.693  20.839  1.00  0.00     0.073 C 
HETATM    5  C4  UNL     1      23.105   3.594  20.849  1.00  0.00     0.085 C 
HETATM    6 CL1  UNL     1      22.766   5.185  20.292  1.00  0.00    -0.115 Cl
HETATM    7  C5  UNL     1      24.421   3.000  20.227  1.00  0.00     0.065 C 
HETATM    8 CL2  UNL     1      25.144   3.860  18.967  1.00  0.00    -0.117 Cl
HETATM    9  C6  UNL     1      24.066   1.630  20.244  1.00  0.00     0.040 C 
HETATM   10  C7  UNL     1      24.038   2.066  21.730  1.00  0.00     0.000 C 
HETATM   11  C8  UNL     1      23.197   1.098  22.262  1.00  0.00     0.059 C 
HETATM   12  C9  UNL     1      23.495   1.091  23.713  1.00  0.00     0.061 C 
HETATM   13  C10 UNL     1      23.039  -0.120  24.406  1.00  0.00     0.070 C 
HETATM   14  N1  UNL     1      22.700  -1.075  24.957  1.00  0.00    -0.196 NA
HETATM   15  C11 UNL     1      25.036   1.090  23.774  1.00  0.00     0.025 C 
HETATM   16  C12 UNL     1      25.764   0.457  22.672  1.00  0.00     0.002 C 
HETATM   17  C13 UNL     1      26.205   1.404  21.526  1.00  0.00     0.007 C 
HETATM   18  C14 UNL     1      25.297   2.496  21.390  1.00  0.00     0.022 C 
HETATM   19  C15 UNL     1      22.984   2.352  24.389  1.00  0.00     0.080 C 
HETATM   20  C16 UNL     1      22.864   3.484  23.415  1.00  0.00     0.021 C 
HETATM   21  N2  UNL     1      22.153   4.504  23.677  1.00  0.00    -0.291 N 
ATOM     22  H2  UNL     1      22.134   5.220  22.951  1.00  0.00     0.178 HD
HETATM   23  C18 UNL     1      23.577   3.405  22.198  1.00  0.00     0.089 C 
HETATM   24 BR1  UNL     1      24.670   4.965  22.391  1.00  0.00    -0.076 Br
ENDROOT
BRANCH  21  25
HETATM   25  S1  UNL     1      21.244   4.842  25.038  1.00  0.00     0.226 S 
HETATM   26  C17 UNL     1      20.300   3.446  25.593  1.00  0.00     0.186 C 
HETATM   27  O1  UNL     1      20.208   5.891  24.634  1.00  0.00    -0.206 OA
HETATM   28  O2  UNL     1      22.084   5.434  26.133  1.00  0.00    -0.206 OA
ENDBRANCH  21  25
TORSDOF 1
ENDMDL
MODEL 4
REMARK VINA RESULT: -5.799072993      2.765      3.888
REMARK  1 active torsions:
REMARK  status: ('A' for Active; 'I' for Inactive)
REMARK    1  A    between atoms: N2_21  and  S1_23 
ROOT
HETATM    1  C1  UNL     1      23.305  -0.017  21.062  1.00  0.00     0.052 C 
HETATM    2  C2  UNL     1      22.543   0.960  21.879  1.00  0.00     0.108 C 
HETATM    3  F1  UNL     1      21.478   1.070  20.906  1.00  0.00    -0.243 F 
HETATM    4  C3  UNL     1      21.843   0.455  23.112  1.00  0.00     0.073 C 
HETATM    5  C4  UNL     1      21.986   1.206  24.421  1.00  0.00     0.085 C 
HETATM    6 CL1  UNL     1      21.626   0.235  25.792  1.00  0.00    -0.115 Cl
HETATM    7  C5  UNL     1      21.319   2.628  24.490  1.00  0.00     0.065 C 
HETATM    8 CL2  UNL     1      20.189   2.898  25.714  1.00  0.00    -0.117 Cl
HETATM    9  C6  UNL     1      21.159   2.857  23.102  1.00  0.00     0.040 C 
HETATM   10  C7  UNL     1      22.687   2.706  23.307  1.00  0.00     0.000 C 
HETATM   11  C8  UNL     1      23.079   2.345  22.024  1.00  0.00     0.059 C 
HETATM   12  C9  UNL     1      24.524   2.670  21.963  1.00  0.00     0.061 C 
HETATM   13  C10 UNL     1      25.052   2.766  20.597  1.00  0.00     0.070 C 
HETATM   14  N1  UNL     1      25.474   2.860  19.527  1.00  0.00    -0.196 NA
HETATM   15  C11 UNL     1      24.612   4.081  22.579  1.00  0.00     0.025 C 
HETATM   16  C12 UNL     1      23.453   4.965  22.433  1.00  0.00     0.002 C 
HETATM   17  C13 UNL     1      22.442   4.947  23.608  1.00  0.00     0.007 C 
HETATM   18  C14 UNL     1      22.426   3.671  24.247  1.00  0.00     0.022 C 
HETATM   19  C15 UNL     1      25.342   1.716  22.817  1.00  0.00     0.080 C 
HETATM   20  C16 UNL     1      24.514   1.117  23.913  1.00  0.00     0.021 C 
HETATM   21  N2  UNL     1      24.888   0.064  24.518  1.00  0.00    -0.291 N 
ATOM     22  H2  UNL     1      24.256  -0.267  25.247  1.00  0.00     0.178 HD
HETATM   23  C18 UNL     1      23.309   1.759  24.277  1.00  0.00     0.089 C 
HETATM   24 BR1  UNL     1      23.715   2.135  26.110  1.00  0.00    -0.076 Br
ENDROOT
BRANCH  21  25
HETATM   25  S1  UNL     1      26.263  -0.857  24.291  1.00  0.00     0.226 S 
HETATM   26  C17 UNL     1      26.296  -1.659  22.709  1.00  0.00     0.186 C 
HETATM   27  O1  UNL     1      26.215  -1.992  25.314  1.00  0.00    -0.206 OA
HETATM   28  O2  UNL     1      27.512  -0.065  24.555  1.00  0.00    -0.206 OA
ENDBRANCH  21  25
TORSDOF 1
ENDMDL
MODEL 5
REMARK VINA RESULT: -5.767075313      3.167      4.862
REMARK  1 active torsions:
REMARK  status: ('A' for Active; 'I' for Inactive)
REMARK    1  A    between atoms: N2_21  and  S1_23 
ROOT
HETATM    1  C1  UNL     1      23.351   2.465  18.598  1.00  0.00     0.052 C 
HETATM    2  C2  UNL     1      22.969   2.061  19.974  1.00  0.00     0.108 C 
HETATM    3  F1  UNL     1      21.551   2.160  19.698  1.00  0.00    -0.243 F 
HETATM    4  C3  UNL     1      23.152   0.619  20.362  1.00  0.00     0.073 C 
HETATM    5  C4  UNL     1      23.821   0.273  21.677  1.00  0.00     0.085 C 
HETATM    6 CL1  UNL     1      24.450  -1.327  21.707  1.00  0.00    -0.115 Cl
HETATM    7  C5  UNL     1      23.029   0.639  22.985  1.00  0.00     0.065 C 
HETATM    8 CL2  UNL     1      22.701  -0.610  24.072  1.00  0.00    -0.117 Cl
HETATM    9  C6  UNL     1      22.110   1.560  22.428  1.00  0.00     0.040 C 
HETATM   10  C7  UNL     1      23.505   2.182  22.165  1.00  0.00     0.000 C 
HETATM   11  C8  UNL     1      23.212   3.016  21.094  1.00  0.00     0.059 C 
HETATM   12  C9  UNL     1      24.302   4.020  21.087  1.00  0.00     0.061 C 
HETATM   13  C10 UNL     1      23.987   5.230  20.319  1.00  0.00     0.070 C 
HETATM   14  N1  UNL     1      23.744   6.194  19.732  1.00  0.00    -0.196 NA
HETATM   15  C11 UNL     1      24.425   4.445  22.565  1.00  0.00     0.025 C 
HETATM   16  C12 UNL     1      23.219   4.386  23.395  1.00  0.00     0.002 C 
HETATM   17  C13 UNL     1      23.020   3.076  24.200  1.00  0.00     0.007 C 
HETATM   18  C14 UNL     1      23.601   1.966  23.518  1.00  0.00     0.022 C 
HETATM   19  C15 UNL     1      25.620   3.403  20.649  1.00  0.00     0.080 C 
HETATM   20  C16 UNL     1      25.645   1.927  20.906  1.00  0.00     0.021 C 
HETATM   21  N2  UNL     1      26.483   1.172  20.322  1.00  0.00    -0.291 N 
ATOM     22  H2  UNL     1      26.420   0.183  20.562  1.00  0.00     0.178 HD
HETATM   23  C18 UNL     1      24.722   1.387  21.831  1.00  0.00     0.089 C 
HETATM   24 BR1  UNL     1      25.961   0.646  23.088  1.00  0.00    -0.076 Br
ENDROOT
BRANCH  21  25
HETATM   25  S1  UNL     1      27.675   1.565  19.219  1.00  0.00     0.226 S 
HETATM   26  C17 UNL     1      27.041   2.442  17.812  1.00  0.00     0.186 C 
HETATM   27  O1  UNL     1      28.218   0.250  18.659  1.00  0.00    -0.206 OA
HETATM   28  O2  UNL     1      28.820   2.285  19.871  1.00  0.00    -0.206 OA
ENDBRANCH  21  25
TORSDOF 1
ENDMDL
