MODEL 1
REMARK VINA RESULT: -8.303742132      0.000      0.000
REMARK  15 active torsions:
REMARK  status: ('A' for Active; 'I' for Inactive)
REMARK    1  A    between atoms: C2_2  and  C3_3 
REMARK    2  A    between atoms: C4_4  and  C5_5 
REMARK    3  A    between atoms: C5_5  and  O1_6 
REMARK    4  A    between atoms: C5_5  and  C22_31 
REMARK    5  A    between atoms: O1_6  and  C6_7 
REMARK    6  A    between atoms: C6_7  and  C7_8 
REMARK    7  A    between atoms: C7_8  and  O3_10 
REMARK    8  A    between atoms: O3_10  and  C8_11 
REMARK    9  A    between atoms: C16_20  and  O5_21 
REMARK   10  A    between atoms: C25_34  and  C26_35 
REMARK   11  A    between atoms: C26_35  and  O7_36 
REMARK   12  A    between atoms: O7_36  and  C27_37 
REMARK   13  A    between atoms: C27_37  and  C28_39 
REMARK   14  A    between atoms: C28_39  and  C29_40 
REMARK   15  A    between atoms: C29_40  and  C30_41 
ROOT
HETATM    1  C7  UNL     1      -3.909   0.725  25.455  1.00  0.00     0.283 C 
HETATM    2  O2  UNL     1      -4.334   0.226  26.553  1.00  0.00    -0.263 OA
ENDROOT
BRANCH   1   3
HETATM    3  C6  UNL     1      -4.844   1.081  24.359  1.00  0.00     0.279 C 
BRANCH   3   4
HETATM    4  O1  UNL     1      -4.177   1.084  23.168  1.00  0.00    -0.372 OA
BRANCH   4   5
HETATM    5  C5  UNL     1      -4.548   0.089  22.290  1.00  0.00     0.148 C 
BRANCH   5   6
HETATM    6  C4  UNL     1      -4.447   0.643  20.920  1.00  0.00     0.006 C 
HETATM    7  C3  UNL     1      -5.048   1.775  20.544  1.00  0.00     0.005 C 
BRANCH   7   8
HETATM    8  C2  UNL     1      -4.882   2.220  19.188  1.00  0.00    -0.064 C 
HETATM    9  C1  UNL     1      -5.755   1.627  18.111  1.00  0.00     0.048 C 
HETATM   10  C25 UNL     1      -4.003   3.123  18.858  1.00  0.00     0.006 C 
BRANCH  10  11
HETATM   11  C26 UNL     1      -3.094   3.778  19.800  1.00  0.00     0.206 C 
BRANCH  11  12
HETATM   12  O7  UNL     1      -3.409   5.175  19.799  1.00  0.00    -0.318 OA
BRANCH  12  13
HETATM   13  C27 UNL     1      -3.871   5.736  20.978  1.00  0.00     0.259 C 
HETATM   14  O8  UNL     1      -4.265   6.924  20.961  1.00  0.00    -0.265 OA
BRANCH  13  15
HETATM   15  C28 UNL     1      -3.882   4.928  22.186  1.00  0.00     0.112 C 
BRANCH  15  16
HETATM   16  C29 UNL     1      -3.199   5.414  23.395  1.00  0.00     0.018 C 
BRANCH  16  17
HETATM   17  C30 UNL     1      -4.018   5.704  24.592  1.00  0.00    -0.051 C 
HETATM   18  C31 UNL     1      -3.080   6.316  25.667  1.00  0.00     0.014 C 
HETATM   19  C32 UNL     1      -5.043   6.768  24.308  1.00  0.00     0.014 C 
HETATM   20  C33 UNL     1      -4.715   4.506  25.166  1.00  0.00     0.014 C 
ENDBRANCH  16  17
ENDBRANCH  15  16
ENDBRANCH  13  15
ENDBRANCH  12  13
ENDBRANCH  11  12
ENDBRANCH  10  11
ENDBRANCH   7   8
ENDBRANCH   5   6
BRANCH   5  21
HETATM   21  C22 UNL     1      -3.596  -1.101  22.367  1.00  0.00     0.010 C 
HETATM   22  C23 UNL     1      -4.110  -2.187  23.275  1.00  0.00     0.012 C 
HETATM   23  C24 UNL     1      -3.446  -1.732  20.983  1.00  0.00     0.012 C 
ENDBRANCH   5  21
ENDBRANCH   4   5
ENDBRANCH   3   4
ENDBRANCH   1   3
BRANCH   1  24
HETATM   24  O3  UNL     1      -2.555   0.884  25.407  1.00  0.00    -0.313 OA
BRANCH  24  25
HETATM   25  C8  UNL     1      -1.677   0.776  26.537  1.00  0.00     0.148 C 
HETATM   26  C9  UNL     1      -0.418  -0.004  26.160  1.00  0.00     0.112 C 
HETATM   27  C10 UNL     1       0.396   0.319  27.372  1.00  0.00     0.139 C 
HETATM   28  O4  UNL     1       1.049  -0.456  28.041  1.00  0.00    -0.297 OA
HETATM   29  C11 UNL     1       0.204   1.751  27.527  1.00  0.00     0.036 C 
HETATM   30  C12 UNL     1       1.246   2.360  26.550  1.00  0.00     0.025 C 
HETATM   31  C13 UNL     1       0.350   2.469  28.744  1.00  0.00     0.059 C 
HETATM   32  C20 UNL     1      -1.182   2.044  26.990  1.00  0.00     0.006 C 
HETATM   33  C14 UNL     1      -0.311   2.377  30.023  1.00  0.00    -0.003 C 
HETATM   34  C18 UNL     1      -0.727   3.635  28.471  1.00  0.00     0.101 C 
HETATM   35  C15 UNL     1      -1.492   1.881  30.427  1.00  0.00     0.072 C 
HETATM   36  C19 UNL     1       0.227   3.708  30.592  1.00  0.00     0.244 C 
HETATM   37  C16 UNL     1      -2.122   1.438  29.088  1.00  0.00     0.129 C 
HETATM   38  C17 UNL     1      -1.788   2.718  28.280  1.00  0.00     0.050 C 
HETATM   39  N1  UNL     1      -0.120   4.527  29.404  1.00  0.00    -0.352 N 
HETATM   40  O6  UNL     1       0.727   3.868  31.670  1.00  0.00    -0.268 OA
ATOM     41  H1  UNL     1       0.043   5.526  29.280  1.00  0.00     0.163 HD
HETATM   42  C21 UNL     1      -1.247   3.041  25.891  1.00  0.00     0.020 C 
BRANCH  37  43
HETATM   43  O5  UNL     1      -3.484   1.252  29.220  1.00  0.00    -0.395 OA
ATOM     44  H5  UNL     1      -3.948   2.078  29.154  1.00  0.00     0.210 HD
ENDBRANCH  37  43
ENDBRANCH  24  25
ENDBRANCH   1  24
TORSDOF 15
ENDMDL
MODEL 2
REMARK VINA RESULT: -8.180960768      1.584      2.611
REMARK  15 active torsions:
REMARK  status: ('A' for Active; 'I' for Inactive)
REMARK    1  A    between atoms: C2_2  and  C3_3 
REMARK    2  A    between atoms: C4_4  and  C5_5 
REMARK    3  A    between atoms: C5_5  and  O1_6 
REMARK    4  A    between atoms: C5_5  and  C22_31 
REMARK    5  A    between atoms: O1_6  and  C6_7 
REMARK    6  A    between atoms: C6_7  and  C7_8 
REMARK    7  A    between atoms: C7_8  and  O3_10 
REMARK    8  A    between atoms: O3_10  and  C8_11 
REMARK    9  A    between atoms: C16_20  and  O5_21 
REMARK   10  A    between atoms: C25_34  and  C26_35 
REMARK   11  A    between atoms: C26_35  and  O7_36 
REMARK   12  A    between atoms: O7_36  and  C27_37 
REMARK   13  A    between atoms: C27_37  and  C28_39 
REMARK   14  A    between atoms: C28_39  and  C29_40 
REMARK   15  A    between atoms: C29_40  and  C30_41 
ROOT
HETATM    1  C7  UNL     1      -4.256   0.064  26.409  1.00  0.00     0.283 C 
HETATM    2  O2  UNL     1      -4.983  -0.965  26.625  1.00  0.00    -0.263 OA
ENDROOT
BRANCH   1   3
HETATM    3  C6  UNL     1      -4.653   1.093  25.417  1.00  0.00     0.279 C 
BRANCH   3   4
HETATM    4  O1  UNL     1      -3.955   0.908  24.257  1.00  0.00    -0.372 OA
BRANCH   4   5
HETATM    5  C5  UNL     1      -4.461  -0.064  23.422  1.00  0.00     0.148 C 
BRANCH   5   6
HETATM    6  C4  UNL     1      -5.053   0.620  22.250  1.00  0.00     0.006 C 
HETATM    7  C3  UNL     1      -4.336   1.346  21.388  1.00  0.00     0.005 C 
BRANCH   7   8
HETATM    8  C2  UNL     1      -5.014   1.967  20.284  1.00  0.00    -0.064 C 
HETATM    9  C1  UNL     1      -6.285   1.347  19.764  1.00  0.00     0.048 C 
HETATM   10  C25 UNL     1      -4.566   3.052  19.719  1.00  0.00     0.006 C 
BRANCH  10  11
HETATM   11  C26 UNL     1      -3.347   3.755  20.122  1.00  0.00     0.206 C 
BRANCH  11  12
HETATM   12  O7  UNL     1      -3.582   5.156  19.945  1.00  0.00    -0.318 OA
BRANCH  12  13
HETATM   13  C27 UNL     1      -3.946   5.898  21.057  1.00  0.00     0.259 C 
HETATM   14  O8  UNL     1      -4.431   7.038  20.884  1.00  0.00    -0.265 OA
BRANCH  13  15
HETATM   15  C28 UNL     1      -3.754   5.325  22.379  1.00  0.00     0.112 C 
BRANCH  15  16
HETATM   16  C29 UNL     1      -3.317   6.185  23.490  1.00  0.00     0.018 C 
BRANCH  16  17
HETATM   17  C30 UNL     1      -4.218   6.335  24.654  1.00  0.00    -0.051 C 
HETATM   18  C31 UNL     1      -5.313   7.365  24.272  1.00  0.00     0.014 C 
HETATM   19  C32 UNL     1      -4.958   5.056  24.940  1.00  0.00     0.014 C 
HETATM   20  C33 UNL     1      -3.531   6.783  25.910  1.00  0.00     0.014 C 
ENDBRANCH  16  17
ENDBRANCH  15  16
ENDBRANCH  13  15
ENDBRANCH  12  13
ENDBRANCH  11  12
ENDBRANCH  10  11
ENDBRANCH   7   8
ENDBRANCH   5   6
BRANCH   5  21
HETATM   21  C22 UNL     1      -3.355  -0.977  22.901  1.00  0.00     0.010 C 
HETATM   22  C23 UNL     1      -2.489  -1.516  24.009  1.00  0.00     0.012 C 
HETATM   23  C24 UNL     1      -3.972  -2.190  22.207  1.00  0.00     0.012 C 
ENDBRANCH   5  21
ENDBRANCH   4   5
ENDBRANCH   3   4
ENDBRANCH   1   3
BRANCH   1  24
HETATM   24  O3  UNL     1      -3.120   0.106  27.163  1.00  0.00    -0.313 OA
BRANCH  24  25
HETATM   25  C8  UNL     1      -2.465   1.310  27.591  1.00  0.00     0.148 C 
HETATM   26  C9  UNL     1      -2.541   1.445  29.111  1.00  0.00     0.112 C 
HETATM   27  C10 UNL     1      -1.549   2.552  29.271  1.00  0.00     0.139 C 
HETATM   28  O4  UNL     1      -1.672   3.552  29.949  1.00  0.00    -0.297 OA
HETATM   29  C11 UNL     1      -0.441   2.125  28.433  1.00  0.00     0.036 C 
HETATM   30  C12 UNL     1       0.351   1.156  29.350  1.00  0.00     0.025 C 
HETATM   31  C13 UNL     1       0.528   2.989  27.855  1.00  0.00     0.059 C 
HETATM   32  C20 UNL     1      -1.059   1.319  27.308  1.00  0.00     0.006 C 
HETATM   33  C14 UNL     1       0.431   4.095  26.935  1.00  0.00    -0.003 C 
HETATM   34  C18 UNL     1       0.849   2.141  26.524  1.00  0.00     0.101 C 
HETATM   35  C15 UNL     1      -0.486   4.478  26.031  1.00  0.00     0.072 C 
HETATM   36  C19 UNL     1       1.940   4.194  26.623  1.00  0.00     0.244 C 
HETATM   37  C16 UNL     1      -1.513   3.327  26.119  1.00  0.00     0.129 C 
HETATM   38  C17 UNL     1      -0.499   2.156  26.094  1.00  0.00     0.050 C 
HETATM   39  N1  UNL     1       2.128   2.748  26.348  1.00  0.00    -0.352 N 
HETATM   40  O6  UNL     1       2.604   5.193  26.633  1.00  0.00    -0.268 OA
ATOM     41  H1  UNL     1       2.997   2.282  26.086  1.00  0.00     0.163 HD
HETATM   42  C21 UNL     1      -0.557  -0.071  27.163  1.00  0.00     0.020 C 
BRANCH  37  43
HETATM   43  O5  UNL     1      -2.340   3.318  25.014  1.00  0.00    -0.395 OA
ATOM     44  H5  UNL     1      -3.222   3.053  25.251  1.00  0.00     0.210 HD
ENDBRANCH  37  43
ENDBRANCH  24  25
ENDBRANCH   1  24
TORSDOF 15
ENDMDL
MODEL 3
REMARK VINA RESULT: -7.916650942      1.827      6.113
REMARK  15 active torsions:
REMARK  status: ('A' for Active; 'I' for Inactive)
REMARK    1  A    between atoms: C2_2  and  C3_3 
REMARK    2  A    between atoms: C4_4  and  C5_5 
REMARK    3  A    between atoms: C5_5  and  O1_6 
REMARK    4  A    between atoms: C5_5  and  C22_31 
REMARK    5  A    between atoms: O1_6  and  C6_7 
REMARK    6  A    between atoms: C6_7  and  C7_8 
REMARK    7  A    between atoms: C7_8  and  O3_10 
REMARK    8  A    between atoms: O3_10  and  C8_11 
REMARK    9  A    between atoms: C16_20  and  O5_21 
REMARK   10  A    between atoms: C25_34  and  C26_35 
REMARK   11  A    between atoms: C26_35  and  O7_36 
REMARK   12  A    between atoms: O7_36  and  C27_37 
REMARK   13  A    between atoms: C27_37  and  C28_39 
REMARK   14  A    between atoms: C28_39  and  C29_40 
REMARK   15  A    between atoms: C29_40  and  C30_41 
ROOT
HETATM    1  C7  UNL     1      -3.689   5.041  20.782  1.00  0.00     0.283 C 
HETATM    2  O2  UNL     1      -3.509   6.141  20.155  1.00  0.00    -0.263 OA
ENDROOT
BRANCH   1   3
HETATM    3  C6  UNL     1      -4.560   3.974  20.230  1.00  0.00     0.279 C 
BRANCH   3   4
HETATM    4  O1  UNL     1      -4.114   2.753  20.650  1.00  0.00    -0.372 OA
BRANCH   4   5
HETATM    5  C5  UNL     1      -4.299   1.725  19.751  1.00  0.00     0.148 C 
BRANCH   5   6
HETATM    6  C4  UNL     1      -4.311   0.459  20.519  1.00  0.00     0.006 C 
HETATM    7  C3  UNL     1      -4.114   0.403  21.839  1.00  0.00     0.005 C 
BRANCH   7   8
HETATM    8  C2  UNL     1      -4.147  -0.881  22.483  1.00  0.00    -0.064 C 
HETATM    9  C1  UNL     1      -3.775  -2.107  21.690  1.00  0.00     0.048 C 
HETATM   10  C25 UNL     1      -4.486  -1.020  23.734  1.00  0.00     0.006 C 
BRANCH  10  11
HETATM   11  C26 UNL     1      -4.870   0.083  24.616  1.00  0.00     0.206 C 
BRANCH  11  12
HETATM   12  O7  UNL     1      -4.455  -0.265  25.942  1.00  0.00    -0.318 OA
BRANCH  12  13
HETATM   13  C27 UNL     1      -3.487   0.521  26.546  1.00  0.00     0.259 C 
HETATM   14  O8  UNL     1      -3.851   1.395  27.364  1.00  0.00    -0.265 OA
BRANCH  13  15
HETATM   15  C28 UNL     1      -2.091   0.301  26.209  1.00  0.00     0.112 C 
BRANCH  15  16
HETATM   16  C29 UNL     1      -1.184   1.451  26.068  1.00  0.00     0.018 C 
BRANCH  16  17
HETATM   17  C30 UNL     1       0.100   1.424  26.804  1.00  0.00    -0.051 C 
HETATM   18  C31 UNL     1       0.898   2.693  26.403  1.00  0.00     0.014 C 
HETATM   19  C32 UNL     1      -0.120   1.545  28.288  1.00  0.00     0.014 C 
HETATM   20  C33 UNL     1       0.936   0.207  26.539  1.00  0.00     0.014 C 
ENDBRANCH  16  17
ENDBRANCH  15  16
ENDBRANCH  13  15
ENDBRANCH  12  13
ENDBRANCH  11  12
ENDBRANCH  10  11
ENDBRANCH   7   8
ENDBRANCH   5   6
BRANCH   5  21
HETATM   21  C22 UNL     1      -5.649   1.840  19.049  1.00  0.00     0.010 C 
HETATM   22  C23 UNL     1      -5.549   1.574  17.570  1.00  0.00     0.012 C 
HETATM   23  C24 UNL     1      -6.612   0.795  19.611  1.00  0.00     0.012 C 
ENDBRANCH   5  21
ENDBRANCH   4   5
ENDBRANCH   3   4
ENDBRANCH   1   3
BRANCH   1  24
HETATM   24  O3  UNL     1      -3.018   4.964  21.968  1.00  0.00    -0.313 OA
BRANCH  24  25
HETATM   25  C8  UNL     1      -3.343   5.722  23.143  1.00  0.00     0.148 C 
HETATM   26  C9  UNL     1      -4.805   6.163  23.105  1.00  0.00     0.112 C 
HETATM   27  C10 UNL     1      -4.923   6.615  24.525  1.00  0.00     0.139 C 
HETATM   28  O4  UNL     1      -5.425   7.646  24.924  1.00  0.00    -0.297 OA
HETATM   29  C11 UNL     1      -4.300   5.533  25.269  1.00  0.00     0.036 C 
HETATM   30  C12 UNL     1      -5.441   4.491  25.409  1.00  0.00     0.025 C 
HETATM   31  C13 UNL     1      -3.726   5.654  26.563  1.00  0.00     0.059 C 
HETATM   32  C20 UNL     1      -3.238   4.959  24.353  1.00  0.00     0.006 C 
HETATM   33  C14 UNL     1      -2.648   6.457  27.087  1.00  0.00    -0.003 C 
HETATM   34  C18 UNL     1      -2.584   4.526  26.430  1.00  0.00     0.101 C 
HETATM   35  C15 UNL     1      -1.591   7.074  26.533  1.00  0.00     0.072 C 
HETATM   36  C19 UNL     1      -2.515   5.711  28.432  1.00  0.00     0.244 C 
HETATM   37  C16 UNL     1      -1.720   6.649  25.053  1.00  0.00     0.129 C 
HETATM   38  C17 UNL     1      -1.993   5.144  25.303  1.00  0.00     0.050 C 
HETATM   39  N1  UNL     1      -2.481   4.349  27.842  1.00  0.00    -0.352 N 
HETATM   40  O6  UNL     1      -2.459   6.212  29.520  1.00  0.00    -0.268 OA
ATOM     41  H1  UNL     1      -2.400   3.466  28.346  1.00  0.00     0.163 HD
HETATM   42  C21 UNL     1      -3.363   3.509  24.057  1.00  0.00     0.020 C 
BRANCH  37  43
HETATM   43  O5  UNL     1      -0.534   6.852  24.376  1.00  0.00    -0.395 OA
ATOM     44  H5  UNL     1      -0.689   6.966  23.445  1.00  0.00     0.210 HD
ENDBRANCH  37  43
ENDBRANCH  24  25
ENDBRANCH   1  24
TORSDOF 15
ENDMDL
MODEL 4
REMARK VINA RESULT: -7.849999168      3.420      5.417
REMARK  15 active torsions:
REMARK  status: ('A' for Active; 'I' for Inactive)
REMARK    1  A    between atoms: C2_2  and  C3_3 
REMARK    2  A    between atoms: C4_4  and  C5_5 
REMARK    3  A    between atoms: C5_5  and  O1_6 
REMARK    4  A    between atoms: C5_5  and  C22_31 
REMARK    5  A    between atoms: O1_6  and  C6_7 
REMARK    6  A    between atoms: C6_7  and  C7_8 
REMARK    7  A    between atoms: C7_8  and  O3_10 
REMARK    8  A    between atoms: O3_10  and  C8_11 
REMARK    9  A    between atoms: C16_20  and  O5_21 
REMARK   10  A    between atoms: C25_34  and  C26_35 
REMARK   11  A    between atoms: C26_35  and  O7_36 
REMARK   12  A    between atoms: O7_36  and  C27_37 
REMARK   13  A    between atoms: C27_37  and  C28_39 
REMARK   14  A    between atoms: C28_39  and  C29_40 
REMARK   15  A    between atoms: C29_40  and  C30_41 
ROOT
HETATM    1  C7  UNL     1      -4.376   2.223  25.316  1.00  0.00     0.283 C 
HETATM    2  O2  UNL     1      -5.245   3.042  25.775  1.00  0.00    -0.263 OA
ENDROOT
BRANCH   1   3
HETATM    3  C6  UNL     1      -4.256   1.963  23.860  1.00  0.00     0.279 C 
BRANCH   3   4
HETATM    4  O1  UNL     1      -4.681   0.695  23.583  1.00  0.00    -0.372 OA
BRANCH   4   5
HETATM    5  C5  UNL     1      -4.598   0.331  22.256  1.00  0.00     0.148 C 
BRANCH   5   6
HETATM    6  C4  UNL     1      -4.235   1.541  21.484  1.00  0.00     0.006 C 
HETATM    7  C3  UNL     1      -4.032   1.531  20.164  1.00  0.00     0.005 C 
BRANCH   7   8
HETATM    8  C2  UNL     1      -3.682   2.765  19.515  1.00  0.00    -0.064 C 
HETATM    9  C1  UNL     1      -3.827   4.058  20.275  1.00  0.00     0.048 C 
HETATM   10  C25 UNL     1      -3.241   2.801  18.290  1.00  0.00     0.006 C 
BRANCH  10  11
HETATM   11  C26 UNL     1      -3.053   1.624  17.440  1.00  0.00     0.206 C 
BRANCH  11  12
HETATM   12  O7  UNL     1      -2.756   2.092  16.120  1.00  0.00    -0.318 OA
BRANCH  12  13
HETATM   13  C27 UNL     1      -1.459   2.501  15.854  1.00  0.00     0.259 C 
HETATM   14  O8  UNL     1      -0.520   1.957  16.476  1.00  0.00    -0.265 OA
BRANCH  13  15
HETATM   15  C28 UNL     1      -1.239   3.542  14.864  1.00  0.00     0.112 C 
BRANCH  15  16
HETATM   16  C29 UNL     1      -0.024   3.516  14.035  1.00  0.00     0.018 C 
BRANCH  16  17
HETATM   17  C30 UNL     1       0.239   4.666  13.142  1.00  0.00    -0.051 C 
HETATM   18  C31 UNL     1       1.746   4.639  12.772  1.00  0.00     0.014 C 
HETATM   19  C32 UNL     1      -0.492   4.519  11.835  1.00  0.00     0.014 C 
HETATM   20  C33 UNL     1      -0.103   5.999  13.737  1.00  0.00     0.014 C 
ENDBRANCH  16  17
ENDBRANCH  15  16
ENDBRANCH  13  15
ENDBRANCH  12  13
ENDBRANCH  11  12
ENDBRANCH  10  11
ENDBRANCH   7   8
ENDBRANCH   5   6
BRANCH   5  21
HETATM   21  C22 UNL     1      -3.492  -0.697  22.033  1.00  0.00     0.010 C 
HETATM   22  C23 UNL     1      -3.145  -1.446  23.292  1.00  0.00     0.012 C 
HETATM   23  C24 UNL     1      -3.958  -1.745  21.023  1.00  0.00     0.012 C 
ENDBRANCH   5  21
ENDBRANCH   4   5
ENDBRANCH   3   4
ENDBRANCH   1   3
BRANCH   1  24
HETATM   24  O3  UNL     1      -3.605   1.638  26.278  1.00  0.00    -0.313 OA
BRANCH  24  25
HETATM   25  C8  UNL     1      -2.727   2.346  27.167  1.00  0.00     0.148 C 
HETATM   26  C9  UNL     1      -2.830   1.777  28.581  1.00  0.00     0.112 C 
HETATM   27  C10 UNL     1      -1.633   2.456  29.165  1.00  0.00     0.139 C 
HETATM   28  O4  UNL     1      -1.567   3.032  30.232  1.00  0.00    -0.297 OA
HETATM   29  C11 UNL     1      -0.610   2.248  28.154  1.00  0.00     0.036 C 
HETATM   30  C12 UNL     1      -0.075   0.826  28.472  1.00  0.00     0.025 C 
HETATM   31  C13 UNL     1       0.541   3.062  27.974  1.00  0.00     0.059 C 
HETATM   32  C20 UNL     1      -1.342   2.197  26.828  1.00  0.00     0.006 C 
HETATM   33  C14 UNL     1       0.715   4.461  27.671  1.00  0.00    -0.003 C 
HETATM   34  C18 UNL     1       0.725   2.878  26.385  1.00  0.00     0.101 C 
HETATM   35  C15 UNL     1      -0.067   5.396  27.105  1.00  0.00     0.072 C 
HETATM   36  C19 UNL     1       2.221   4.382  27.342  1.00  0.00     0.244 C 
HETATM   37  C16 UNL     1      -1.316   4.572  26.723  1.00  0.00     0.129 C 
HETATM   38  C17 UNL     1      -0.572   3.365  26.099  1.00  0.00     0.050 C 
HETATM   39  N1  UNL     1       2.109   3.222  26.423  1.00  0.00    -0.352 N 
HETATM   40  O6  UNL     1       3.080   5.104  27.765  1.00  0.00    -0.268 OA
ATOM     41  H1  UNL     1       2.869   2.763  25.921  1.00  0.00     0.163 HD
HETATM   42  C21 UNL     1      -1.139   0.961  26.030  1.00  0.00     0.020 C 
BRANCH  37  43
HETATM   43  O5  UNL     1      -2.085   5.243  25.793  1.00  0.00    -0.395 OA
ATOM     44  H5  UNL     1      -2.760   4.676  25.437  1.00  0.00     0.210 HD
ENDBRANCH  37  43
ENDBRANCH  24  25
ENDBRANCH   1  24
TORSDOF 15
ENDMDL
MODEL 5
REMARK VINA RESULT: -7.844243875      4.088      6.496
REMARK  15 active torsions:
REMARK  status: ('A' for Active; 'I' for Inactive)
REMARK    1  A    between atoms: C2_2  and  C3_3 
REMARK    2  A    between atoms: C4_4  and  C5_5 
REMARK    3  A    between atoms: C5_5  and  O1_6 
REMARK    4  A    between atoms: C5_5  and  C22_31 
REMARK    5  A    between atoms: O1_6  and  C6_7 
REMARK    6  A    between atoms: C6_7  and  C7_8 
REMARK    7  A    between atoms: C7_8  and  O3_10 
REMARK    8  A    between atoms: O3_10  and  C8_11 
REMARK    9  A    between atoms: C16_20  and  O5_21 
REMARK   10  A    between atoms: C25_34  and  C26_35 
REMARK   11  A    between atoms: C26_35  and  O7_36 
REMARK   12  A    between atoms: O7_36  and  C27_37 
REMARK   13  A    between atoms: C27_37  and  C28_39 
REMARK   14  A    between atoms: C28_39  and  C29_40 
REMARK   15  A    between atoms: C29_40  and  C30_41 
ROOT
HETATM    1  C7  UNL     1      -3.950  -1.388  22.183  1.00  0.00     0.283 C 
HETATM    2  O2  UNL     1      -4.024  -2.520  22.772  1.00  0.00    -0.263 OA
ENDROOT
BRANCH   1   3
HETATM    3  C6  UNL     1      -3.343  -1.259  20.835  1.00  0.00     0.279 C 
BRANCH   3   4
HETATM    4  O1  UNL     1      -4.258  -0.733  19.968  1.00  0.00    -0.372 OA
BRANCH   4   5
HETATM    5  C5  UNL     1      -4.167   0.629  19.783  1.00  0.00     0.148 C 
BRANCH   5   6
HETATM    6  C4  UNL     1      -4.166   0.882  18.324  1.00  0.00     0.006 C 
HETATM    7  C3  UNL     1      -3.233   1.613  17.710  1.00  0.00     0.005 C 
BRANCH   7   8
HETATM    8  C2  UNL     1      -3.329   1.794  16.288  1.00  0.00    -0.064 C 
HETATM    9  C1  UNL     1      -4.685   1.729  15.633  1.00  0.00     0.048 C 
HETATM   10  C25 UNL     1      -2.282   2.016  15.545  1.00  0.00     0.006 C 
BRANCH  10  11
HETATM   11  C26 UNL     1      -0.911   2.103  16.050  1.00  0.00     0.206 C 
BRANCH  11  12
HETATM   12  O7  UNL     1      -0.257   3.158  15.336  1.00  0.00    -0.318 OA
BRANCH  12  13
HETATM   13  C27 UNL     1       0.650   2.808  14.350  1.00  0.00     0.259 C 
HETATM   14  O8  UNL     1       1.543   1.975  14.625  1.00  0.00    -0.265 OA
BRANCH  13  15
HETATM   15  C28 UNL     1       0.532   3.417  13.036  1.00  0.00     0.112 C 
BRANCH  15  16
HETATM   16  C29 UNL     1      -0.312   4.608  12.857  1.00  0.00     0.018 C 
BRANCH  16  17
HETATM   17  C30 UNL     1       0.350   5.930  12.779  1.00  0.00    -0.051 C 
HETATM   18  C31 UNL     1       1.842   5.688  12.429  1.00  0.00     0.014 C 
HETATM   19  C32 UNL     1      -0.197   6.748  11.640  1.00  0.00     0.014 C 
HETATM   20  C33 UNL     1       0.260   6.739  14.038  1.00  0.00     0.014 C 
ENDBRANCH  16  17
ENDBRANCH  15  16
ENDBRANCH  13  15
ENDBRANCH  12  13
ENDBRANCH  11  12
ENDBRANCH  10  11
ENDBRANCH   7   8
ENDBRANCH   5   6
BRANCH   5  21
HETATM   21  C22 UNL     1      -5.381   1.348  20.365  1.00  0.00     0.010 C 
HETATM   22  C23 UNL     1      -5.281   2.844  20.224  1.00  0.00     0.012 C 
HETATM   23  C24 UNL     1      -6.641   0.928  19.608  1.00  0.00     0.012 C 
ENDBRANCH   5  21
ENDBRANCH   4   5
ENDBRANCH   3   4
ENDBRANCH   1   3
BRANCH   1  24
HETATM   24  O3  UNL     1      -4.469  -0.353  22.906  1.00  0.00    -0.313 OA
BRANCH  24  25
HETATM   25  C8  UNL     1      -3.741   0.416  23.874  1.00  0.00     0.148 C 
HETATM   26  C9  UNL     1      -3.874   1.909  23.576  1.00  0.00     0.112 C 
HETATM   27  C10 UNL     1      -3.321   2.428  24.865  1.00  0.00     0.139 C 
HETATM   28  O4  UNL     1      -2.504   3.316  25.004  1.00  0.00    -0.297 OA
HETATM   29  C11 UNL     1      -3.997   1.618  25.864  1.00  0.00     0.036 C 
HETATM   30  C12 UNL     1      -5.358   2.341  26.050  1.00  0.00     0.025 C 
HETATM   31  C13 UNL     1      -3.513   1.364  27.175  1.00  0.00     0.059 C 
HETATM   32  C20 UNL     1      -4.254   0.278  25.207  1.00  0.00     0.006 C 
HETATM   33  C14 UNL     1      -2.312   0.737  27.673  1.00  0.00    -0.003 C 
HETATM   34  C18 UNL     1      -4.152  -0.099  27.392  1.00  0.00     0.101 C 
HETATM   35  C15 UNL     1      -1.427  -0.127  27.150  1.00  0.00     0.072 C 
HETATM   36  C19 UNL     1      -2.782   0.602  29.138  1.00  0.00     0.244 C 
HETATM   37  C16 UNL     1      -2.052  -0.420  25.769  1.00  0.00     0.129 C 
HETATM   38  C17 UNL     1      -3.508  -0.636  26.253  1.00  0.00     0.050 C 
HETATM   39  N1  UNL     1      -4.099   0.000  28.815  1.00  0.00    -0.352 N 
HETATM   40  O6  UNL     1      -2.162   0.919  30.115  1.00  0.00    -0.268 OA
ATOM     41  H1  UNL     1      -4.821  -0.285  29.477  1.00  0.00     0.163 HD
HETATM   42  C21 UNL     1      -5.674  -0.156  25.166  1.00  0.00     0.020 C 
BRANCH  37  43
HETATM   43  O5  UNL     1      -1.516  -1.567  25.217  1.00  0.00    -0.395 OA
ATOM     44  H5  UNL     1      -1.419  -2.247  25.873  1.00  0.00     0.210 HD
ENDBRANCH  37  43
ENDBRANCH  24  25
ENDBRANCH   1  24
TORSDOF 15
ENDMDL
