MODEL 1
REMARK VINA RESULT: -7.730382451      0.000      0.000
REMARK  10 active torsions:
REMARK  status: ('A' for Active; 'I' for Inactive)
REMARK    1  A    between atoms: C2_2  and  C3_3 
REMARK    2  A    between atoms: C3_3  and  N1_4 
REMARK    3  A    between atoms: N1_4  and  C4_5 
REMARK    4  A    between atoms: N1_4  and  C7_8 
REMARK    5  A    between atoms: C4_5  and  C5_6 
REMARK    6  A    between atoms: C7_8  and  C8_9 
REMARK    7  A    between atoms: C8_9  and  C9_10 
REMARK    8  A    between atoms: C9_10  and  N2_11 
REMARK    9  A    between atoms: C13_18  and  C14_19 
REMARK   10  A    between atoms: C13_18  and  C16_21 
ROOT
HETATM    1  N2  UNL     1      27.106  19.578  13.402  1.00  0.00     0.222 N 
HETATM    2  C10 UNL     1      27.205  19.233  11.954  1.00  0.00     0.412 C 
HETATM    3  O1  UNL     1      26.866  19.962  11.101  1.00  0.00    -0.258 OA
HETATM    4  C11 UNL     1      27.736  18.024  12.466  1.00  0.00     0.407 A 
HETATM    5  N3  UNL     1      27.667  18.307  13.775  1.00  0.00     0.261 N 
HETATM    6  C12 UNL     1      27.827  18.025  14.894  1.00  0.00     0.415 C 
HETATM    7  O2  UNL     1      27.348  17.634  15.993  1.00  0.00    -0.258 OA
HETATM    8  C13 UNL     1      27.208  18.201  13.889  1.00  0.00     0.368 C 
HETATM    9  C16 UNL     1      28.072  17.279  13.037  1.00  0.00     0.381 A 
HETATM   10  O3  UNL     1      28.769  16.193  13.144  1.00  0.00    -0.265 OA
ENDROOT
BRANCH   1  11
HETATM   11  C9  UNL     1      26.877  20.847  13.932  1.00  0.00     0.248 C 
BRANCH  11  12
HETATM   12  C8  UNL     1      28.012  21.736  14.118  1.00  0.00     0.031 C 
BRANCH  12  13
HETATM   13  C7  UNL     1      29.425  21.424  14.058  1.00  0.00     0.302 C 
BRANCH  13  14
HETATM   14  N1  UNL     1      30.286  22.487  13.488  1.00  0.00     0.098 N 
BRANCH  14  15
HETATM   15  C3  UNL     1      29.659  23.074  12.300  1.00  0.00     0.299 C 
BRANCH  15  16
HETATM   16  C2  UNL     1      30.193  22.700  11.003  1.00  0.00    -0.007 C 
HETATM   17  C1  UNL     1      29.624  21.954  10.102  1.00  0.00     0.008 C 
ENDBRANCH  15  16
ENDBRANCH  14  15
BRANCH  14  18
HETATM   18  C4  UNL     1      30.091  23.610  14.475  1.00  0.00     0.299 C 
BRANCH  18  19
HETATM   19  C5  UNL     1      31.019  23.547  15.599  1.00  0.00    -0.007 C 
HETATM   20  C6  UNL     1      32.303  23.329  15.542  1.00  0.00     0.008 C 
ENDBRANCH  18  19
ENDBRANCH  14  18
ENDBRANCH  13  14
ENDBRANCH  12  13
ENDBRANCH  11  12
ENDBRANCH   1  11
BRANCH   8  21
HETATM   21  C14 UNL     1      25.749  17.661  13.926  1.00  0.00     0.025 C 
HETATM   22  C15 UNL     1      24.915  18.305  14.658  1.00  0.00     0.010 C 
ENDBRANCH   8  21
TORSDOF 10
ENDMDL
MODEL 2
REMARK VINA RESULT: -7.657624724      1.808      3.541
REMARK  10 active torsions:
REMARK  status: ('A' for Active; 'I' for Inactive)
REMARK    1  A    between atoms: C2_2  and  C3_3 
REMARK    2  A    between atoms: C3_3  and  N1_4 
REMARK    3  A    between atoms: N1_4  and  C4_5 
REMARK    4  A    between atoms: N1_4  and  C7_8 
REMARK    5  A    between atoms: C4_5  and  C5_6 
REMARK    6  A    between atoms: C7_8  and  C8_9 
REMARK    7  A    between atoms: C8_9  and  C9_10 
REMARK    8  A    between atoms: C9_10  and  N2_11 
REMARK    9  A    between atoms: C13_18  and  C14_19 
REMARK   10  A    between atoms: C13_18  and  C16_21 
ROOT
HETATM    1  N2  UNL     1      27.334  19.796  14.915  1.00  0.00     0.222 N 
HETATM    2  C10 UNL     1      28.453  19.633  15.888  1.00  0.00     0.412 C 
HETATM    3  O1  UNL     1      29.394  20.331  15.899  1.00  0.00    -0.258 OA
HETATM    4  C11 UNL     1      27.654  18.557  16.347  1.00  0.00     0.407 A 
HETATM    5  N3  UNL     1      26.629  18.682  15.491  1.00  0.00     0.261 N 
HETATM    6  C12 UNL     1      25.596  18.342  15.072  1.00  0.00     0.415 C 
HETATM    7  O2  UNL     1      24.930  17.734  14.190  1.00  0.00    -0.258 OA
HETATM    8  C13 UNL     1      26.785  18.450  15.094  1.00  0.00     0.368 C 
HETATM    9  C16 UNL     1      26.945  17.871  16.494  1.00  0.00     0.381 A 
HETATM   10  O3  UNL     1      26.397  16.996  17.275  1.00  0.00    -0.265 OA
ENDROOT
BRANCH   1  11
HETATM   11  C9  UNL     1      27.106  20.905  14.101  1.00  0.00     0.248 C 
BRANCH  11  12
HETATM   12  C8  UNL     1      27.742  20.948  12.794  1.00  0.00     0.031 C 
BRANCH  12  13
HETATM   13  C7  UNL     1      29.094  21.343  12.459  1.00  0.00     0.302 C 
BRANCH  13  14
HETATM   14  N1  UNL     1      29.366  22.798  12.528  1.00  0.00     0.098 N 
BRANCH  14  15
HETATM   15  C3  UNL     1      30.230  23.105  13.672  1.00  0.00     0.299 C 
BRANCH  15  16
HETATM   16  C2  UNL     1      29.668  23.907  14.744  1.00  0.00    -0.007 C 
HETATM   17  C1  UNL     1      28.888  24.941  14.629  1.00  0.00     0.008 C 
ENDBRANCH  15  16
ENDBRANCH  14  15
BRANCH  14  18
HETATM   18  C4  UNL     1      30.344  22.989  11.397  1.00  0.00     0.299 C 
BRANCH  18  19
HETATM   19  C5  UNL     1      29.990  22.225  10.205  1.00  0.00    -0.007 C 
HETATM   20  C6  UNL     1      30.769  21.934   9.202  1.00  0.00     0.008 C 
ENDBRANCH  18  19
ENDBRANCH  14  18
ENDBRANCH  13  14
ENDBRANCH  12  13
ENDBRANCH  11  12
ENDBRANCH   1  11
BRANCH   8  21
HETATM   21  C14 UNL     1      27.536  17.552  14.069  1.00  0.00     0.025 C 
HETATM   22  C15 UNL     1      27.421  17.872  12.832  1.00  0.00     0.010 C 
ENDBRANCH   8  21
TORSDOF 10
ENDMDL
MODEL 3
REMARK VINA RESULT: -7.569541490      1.391      2.648
REMARK  10 active torsions:
REMARK  status: ('A' for Active; 'I' for Inactive)
REMARK    1  A    between atoms: C2_2  and  C3_3 
REMARK    2  A    between atoms: C3_3  and  N1_4 
REMARK    3  A    between atoms: N1_4  and  C4_5 
REMARK    4  A    between atoms: N1_4  and  C7_8 
REMARK    5  A    between atoms: C4_5  and  C5_6 
REMARK    6  A    between atoms: C7_8  and  C8_9 
REMARK    7  A    between atoms: C8_9  and  C9_10 
REMARK    8  A    between atoms: C9_10  and  N2_11 
REMARK    9  A    between atoms: C13_18  and  C14_19 
REMARK   10  A    between atoms: C13_18  and  C16_21 
ROOT
HETATM    1  N2  UNL     1      28.274  18.829  13.399  1.00  0.00     0.222 N 
HETATM    2  C10 UNL     1      28.042  17.359  13.293  1.00  0.00     0.412 C 
HETATM    3  O1  UNL     1      28.852  16.613  12.890  1.00  0.00    -0.258 OA
HETATM    4  C11 UNL     1      26.773  17.706  13.817  1.00  0.00     0.407 A 
HETATM    5  N3  UNL     1      26.953  19.030  13.932  1.00  0.00     0.261 N 
HETATM    6  C12 UNL     1      26.575  20.095  14.217  1.00  0.00     0.415 C 
HETATM    7  O2  UNL     1      26.119  21.216  13.861  1.00  0.00    -0.258 OA
HETATM    8  C13 UNL     1      26.859  19.196  13.485  1.00  0.00     0.368 C 
HETATM    9  C16 UNL     1      25.970  18.172  14.181  1.00  0.00     0.381 A 
HETATM   10  O3  UNL     1      24.849  18.107  14.825  1.00  0.00    -0.265 OA
ENDROOT
BRANCH   1  11
HETATM   11  C9  UNL     1      29.506  19.476  13.311  1.00  0.00     0.248 C 
BRANCH  11  12
HETATM   12  C8  UNL     1      30.113  19.981  14.531  1.00  0.00     0.031 C 
BRANCH  12  13
HETATM   13  C7  UNL     1      29.797  21.187  15.267  1.00  0.00     0.302 C 
BRANCH  13  14
HETATM   14  N1  UNL     1      30.585  22.385  14.892  1.00  0.00     0.098 N 
BRANCH  14  15
HETATM   15  C3  UNL     1      29.708  23.431  14.360  1.00  0.00     0.299 C 
BRANCH  15  16
HETATM   16  C2  UNL     1      29.236  23.284  12.994  1.00  0.00    -0.007 C 
HETATM   17  C1  UNL     1      29.944  22.987  11.944  1.00  0.00     0.008 C 
ENDBRANCH  15  16
ENDBRANCH  14  15
BRANCH  14  18
HETATM   18  C4  UNL     1      30.917  22.976  16.239  1.00  0.00     0.299 C 
BRANCH  18  19
HETATM   19  C5  UNL     1      32.348  23.191  16.427  1.00  0.00    -0.007 C 
HETATM   20  C6  UNL     1      33.216  23.524  15.514  1.00  0.00     0.008 C 
ENDBRANCH  18  19
ENDBRANCH  14  18
ENDBRANCH  13  14
ENDBRANCH  12  13
ENDBRANCH  11  12
ENDBRANCH   1  11
BRANCH   8  21
HETATM   21  C14 UNL     1      26.385  19.383  12.015  1.00  0.00     0.025 C 
HETATM   22  C15 UNL     1      27.185  20.005  11.228  1.00  0.00     0.010 C 
ENDBRANCH   8  21
TORSDOF 10
ENDMDL
MODEL 4
REMARK VINA RESULT: -7.531155012      0.549      2.570
REMARK  10 active torsions:
REMARK  status: ('A' for Active; 'I' for Inactive)
REMARK    1  A    between atoms: C2_2  and  C3_3 
REMARK    2  A    between atoms: C3_3  and  N1_4 
REMARK    3  A    between atoms: N1_4  and  C4_5 
REMARK    4  A    between atoms: N1_4  and  C7_8 
REMARK    5  A    between atoms: C4_5  and  C5_6 
REMARK    6  A    between atoms: C7_8  and  C8_9 
REMARK    7  A    between atoms: C8_9  and  C9_10 
REMARK    8  A    between atoms: C9_10  and  N2_11 
REMARK    9  A    between atoms: C13_18  and  C14_19 
REMARK   10  A    between atoms: C13_18  and  C16_21 
ROOT
HETATM    1  N2  UNL     1      27.006  19.547  13.390  1.00  0.00     0.222 N 
HETATM    2  C10 UNL     1      27.113  19.191  11.945  1.00  0.00     0.412 C 
HETATM    3  O1  UNL     1      26.749  19.900  11.085  1.00  0.00    -0.258 OA
HETATM    4  C11 UNL     1      27.684  18.005  12.468  1.00  0.00     0.407 A 
HETATM    5  N3  UNL     1      27.609  18.299  13.774  1.00  0.00     0.261 N 
HETATM    6  C12 UNL     1      27.780  18.034  14.896  1.00  0.00     0.415 C 
HETATM    7  O2  UNL     1      27.316  17.638  16.000  1.00  0.00    -0.258 OA
HETATM    8  C13 UNL     1      27.153  18.179  13.891  1.00  0.00     0.368 C 
HETATM    9  C16 UNL     1      28.044  17.277  13.046  1.00  0.00     0.381 A 
HETATM   10  O3  UNL     1      28.776  16.215  13.162  1.00  0.00    -0.265 OA
ENDROOT
BRANCH   1  11
HETATM   11  C9  UNL     1      26.738  20.814  13.908  1.00  0.00     0.248 C 
BRANCH  11  12
HETATM   12  C8  UNL     1      27.855  21.700  14.186  1.00  0.00     0.031 C 
BRANCH  12  13
HETATM   13  C7  UNL     1      29.110  21.825  13.473  1.00  0.00     0.302 C 
BRANCH  13  14
HETATM   14  N1  UNL     1      29.579  23.214  13.252  1.00  0.00     0.098 N 
BRANCH  14  15
HETATM   15  C3  UNL     1      30.750  23.498  14.086  1.00  0.00     0.299 C 
BRANCH  15  16
HETATM   16  C2  UNL     1      30.524  23.759  15.497  1.00  0.00    -0.007 C 
HETATM   17  C1  UNL     1      31.031  23.116  16.508  1.00  0.00     0.008 C 
ENDBRANCH  15  16
ENDBRANCH  14  15
BRANCH  14  18
HETATM   18  C4  UNL     1      30.235  23.111  11.899  1.00  0.00     0.299 C 
BRANCH  18  19
HETATM   19  C5  UNL     1      29.619  22.101  11.044  1.00  0.00    -0.007 C 
HETATM   20  C6  UNL     1      29.822  21.925   9.769  1.00  0.00     0.008 C 
ENDBRANCH  18  19
ENDBRANCH  14  18
ENDBRANCH  13  14
ENDBRANCH  12  13
ENDBRANCH  11  12
ENDBRANCH   1  11
BRANCH   8  21
HETATM   21  C14 UNL     1      25.712  17.593  13.936  1.00  0.00     0.025 C 
HETATM   22  C15 UNL     1      24.850  18.239  14.632  1.00  0.00     0.010 C 
ENDBRANCH   8  21
TORSDOF 10
ENDMDL
MODEL 5
REMARK VINA RESULT: -7.530401437      3.064      5.131
REMARK  10 active torsions:
REMARK  status: ('A' for Active; 'I' for Inactive)
REMARK    1  A    between atoms: C2_2  and  C3_3 
REMARK    2  A    between atoms: C3_3  and  N1_4 
REMARK    3  A    between atoms: N1_4  and  C4_5 
REMARK    4  A    between atoms: N1_4  and  C7_8 
REMARK    5  A    between atoms: C4_5  and  C5_6 
REMARK    6  A    between atoms: C7_8  and  C8_9 
REMARK    7  A    between atoms: C8_9  and  C9_10 
REMARK    8  A    between atoms: C9_10  and  N2_11 
REMARK    9  A    between atoms: C13_18  and  C14_19 
REMARK   10  A    between atoms: C13_18  and  C16_21 
ROOT
HETATM    1  N2  UNL     1      29.084  20.461  12.506  1.00  0.00     0.222 N 
HETATM    2  C10 UNL     1      29.795  19.245  12.997  1.00  0.00     0.412 C 
HETATM    3  O1  UNL     1      29.858  18.251  12.380  1.00  0.00    -0.258 OA
HETATM    4  C11 UNL     1      30.054  20.072  14.118  1.00  0.00     0.407 A 
HETATM    5  N3  UNL     1      29.429  21.184  13.702  1.00  0.00     0.261 N 
HETATM    6  C12 UNL     1      29.092  22.288  13.855  1.00  0.00     0.415 C 
HETATM    7  O2  UNL     1      28.186  23.115  14.152  1.00  0.00    -0.258 OA
HETATM    8  C13 UNL     1      28.965  21.102  13.818  1.00  0.00     0.368 C 
HETATM    9  C16 UNL     1      30.110  20.815  14.780  1.00  0.00     0.381 A 
HETATM   10  O3  UNL     1      30.693  21.336  15.813  1.00  0.00    -0.265 OA
ENDROOT
BRANCH   1  11
HETATM   11  C9  UNL     1      28.650  20.691  11.201  1.00  0.00     0.248 C 
BRANCH  11  12
HETATM   12  C8  UNL     1      29.558  21.347  10.274  1.00  0.00     0.031 C 
BRANCH  12  13
HETATM   13  C7  UNL     1      30.835  20.879   9.775  1.00  0.00     0.302 C 
BRANCH  13  14
HETATM   14  N1  UNL     1      31.438  21.706   8.703  1.00  0.00     0.098 N 
BRANCH  14  15
HETATM   15  C3  UNL     1      32.546  22.505   9.233  1.00  0.00     0.299 C 
BRANCH  15  16
HETATM   16  C2  UNL     1      33.869  21.907   9.228  1.00  0.00    -0.007 C 
HETATM   17  C1  UNL     1      34.911  22.295   9.903  1.00  0.00     0.008 C 
ENDBRANCH  15  16
ENDBRANCH  14  15
BRANCH  14  18
HETATM   18  C4  UNL     1      32.205  20.679   7.910  1.00  0.00     0.299 C 
BRANCH  18  19
HETATM   19  C5  UNL     1      31.975  20.783   6.472  1.00  0.00    -0.007 C 
HETATM   20  C6  UNL     1      31.083  21.521   5.874  1.00  0.00     0.008 C 
ENDBRANCH  18  19
ENDBRANCH  14  18
ENDBRANCH  13  14
ENDBRANCH  12  13
ENDBRANCH  11  12
ENDBRANCH   1  11
BRANCH   8  21
HETATM   21  C14 UNL     1      27.631  20.574  14.422  1.00  0.00     0.025 C 
HETATM   22  C15 UNL     1      26.560  20.833  13.765  1.00  0.00     0.010 C 
ENDBRANCH   8  21
TORSDOF 10
ENDMDL
