MODEL 1
REMARK VINA RESULT: -8.287950838      0.000      0.000
REMARK  15 active torsions:
REMARK  status: ('A' for Active; 'I' for Inactive)
REMARK    1  A    between atoms: C4_4  and  O1_5 
REMARK    2  A    between atoms: C4_4  and  C5_7 
REMARK    3  A    between atoms: C6_10  and  C7_11 
REMARK    4  A    between atoms: C8_13  and  O4_14 
REMARK    5  A    between atoms: O4_14  and  C9_15 
REMARK    6  A    between atoms: C9_15  and  C10_17 
REMARK    7  A    between atoms: C10_17  and  C11_18 
REMARK    8  A    between atoms: C11_18  and  C12_19 
REMARK    9  A    between atoms: C12_19  and  C13_20 
REMARK   10  A    between atoms: C13_20  and  C14_21 
REMARK   11  A    between atoms: C14_21  and  C15_22 
REMARK   12  A    between atoms: C15_22  and  C16_23 
REMARK   13  A    between atoms: C16_23  and  C17_24 
REMARK   14  A    between atoms: N2_25  and  N3_27 
REMARK   15  A    between atoms: C27_39  and  O8_40 
ROOT
HETATM    1  C1  UNL     1       9.401  19.412  21.042  1.00  0.00     0.016 C 
HETATM    2  C2  UNL     1       9.883  19.211  19.575  1.00  0.00    -0.034 C 
HETATM    3  C3  UNL     1       8.703  18.799  18.830  1.00  0.00     0.058 C 
HETATM    4  C4  UNL     1       8.551  17.582  17.971  1.00  0.00     0.148 C 
HETATM    5  C6  UNL     1       8.716  17.777  16.476  1.00  0.00     0.120 C 
HETATM    6  C8  UNL     1       9.755  17.056  15.723  1.00  0.00     0.146 C 
HETATM    7  C18 UNL     1      10.855  17.986  15.095  1.00  0.00     0.039 C 
HETATM    8  C19 UNL     1      11.501  18.770  16.113  1.00  0.00     0.004 A 
HETATM    9  C20 UNL     1      12.911  18.821  16.393  1.00  0.00     0.001 A 
HETATM   10  C21 UNL     1      13.221  18.719  17.876  1.00  0.00     0.006 C 
HETATM   11  C22 UNL     1      12.124  18.062  18.701  1.00  0.00     0.006 C 
HETATM   12  C23 UNL     1      11.236  18.724  19.598  1.00  0.00    -0.005 C 
HETATM   13  C24 UNL     1      11.641  20.170  19.955  1.00  0.00     0.011 C 
HETATM   14  C25 UNL     1      10.459  20.582  19.145  1.00  0.00    -0.003 C 
HETATM   15  C26 UNL     1      10.622  20.988  17.788  1.00  0.00     0.038 C 
HETATM   16  C27 UNL     1      11.966  21.066  17.080  1.00  0.00     0.127 C 
HETATM   17  C28 UNL     1      12.180  20.036  15.977  1.00  0.00    -0.010 A 
HETATM   18  C29 UNL     1      12.388  20.505  14.540  1.00  0.00     0.018 C 
ENDROOT
BRANCH   6  19
HETATM   19  O4  UNL     1       9.339  16.292  14.615  1.00  0.00    -0.312 OA
BRANCH  19  20
HETATM   20  C9  UNL     1       8.729  15.034  14.715  1.00  0.00     0.282 C 
HETATM   21  O5  UNL     1       8.984  14.436  15.799  1.00  0.00    -0.260 OA
BRANCH  20  22
HETATM   22  C10 UNL     1       7.892  14.471  13.678  1.00  0.00     0.078 C 
BRANCH  22  23
HETATM   23  C11 UNL     1       6.471  14.204  13.870  1.00  0.00    -0.021 C 
BRANCH  23  24
HETATM   24  C12 UNL     1       5.956  13.239  14.851  1.00  0.00     0.027 C 
BRANCH  24  25
HETATM   25  C13 UNL     1       4.496  12.941  14.866  1.00  0.00     0.004 C 
BRANCH  25  26
HETATM   26  C14 UNL     1       3.748  13.747  15.884  1.00  0.00     0.001 C 
BRANCH  26  27
HETATM   27  C15 UNL     1       3.037  14.943  15.398  1.00  0.00     0.005 C 
BRANCH  27  28
HETATM   28  C16 UNL     1       3.619  16.273  15.715  1.00  0.00     0.046 C 
BRANCH  28  29
HETATM   29  C17 UNL     1       2.938  17.086  16.710  1.00  0.00     0.086 C 
HETATM   30  N2  UNL     1       3.675  17.838  17.484  1.00  0.00    -0.256 N 
ATOM     31  H2  UNL     1       4.690  17.840  17.378  1.00  0.00     0.192 HD
BRANCH  30  32
HETATM   32  N3  UNL     1       3.080  18.630  18.444  1.00  0.00    -0.040 N 
HETATM   33  O6  UNL     1       2.667  18.092  19.509  1.00  0.00    -0.516 OA
HETATM   34  O7  UNL     1       2.939  19.963  18.256  1.00  0.00    -0.516 OA
ENDBRANCH  30  32
ENDBRANCH  28  29
ENDBRANCH  27  28
ENDBRANCH  26  27
ENDBRANCH  25  26
ENDBRANCH  24  25
ENDBRANCH  23  24
ENDBRANCH  22  23
ENDBRANCH  20  22
ENDBRANCH  19  20
ENDBRANCH   6  19
BRANCH   5  35
HETATM   35  C7  UNL     1       7.440  17.439  15.717  1.00  0.00     0.241 C 
HETATM   36  O3  UNL     1       7.045  18.039  14.761  1.00  0.00    -0.306 OA
ENDBRANCH   5  35
BRANCH   4  37
HETATM   37  O1  UNL     1       9.180  16.437  18.441  1.00  0.00    -0.380 OA
ATOM     38  H1  UNL     1       8.602  15.765  18.784  1.00  0.00     0.211 HD
ENDBRANCH   4  37
BRANCH   4  39
HETATM   39  C5  UNL     1       7.111  17.176  18.127  1.00  0.00     0.266 C 
HETATM   40  N1  UNL     1       6.502  16.024  17.610  1.00  0.00    -0.059 NA
HETATM   41  O2  UNL     1       6.382  17.945  18.785  1.00  0.00    -0.273 OA
ENDBRANCH   4  39
BRANCH  16  42
HETATM   42  O8  UNL     1      12.089  22.308  16.370  1.00  0.00    -0.395 OA
ATOM     43  H8  UNL     1      12.840  22.286  15.788  1.00  0.00     0.210 HD
ENDBRANCH  16  42
TORSDOF 15
ENDMDL
MODEL 2
REMARK VINA RESULT: -8.180776867      3.697      5.929
REMARK  15 active torsions:
REMARK  status: ('A' for Active; 'I' for Inactive)
REMARK    1  A    between atoms: C4_4  and  O1_5 
REMARK    2  A    between atoms: C4_4  and  C5_7 
REMARK    3  A    between atoms: C6_10  and  C7_11 
REMARK    4  A    between atoms: C8_13  and  O4_14 
REMARK    5  A    between atoms: O4_14  and  C9_15 
REMARK    6  A    between atoms: C9_15  and  C10_17 
REMARK    7  A    between atoms: C10_17  and  C11_18 
REMARK    8  A    between atoms: C11_18  and  C12_19 
REMARK    9  A    between atoms: C12_19  and  C13_20 
REMARK   10  A    between atoms: C13_20  and  C14_21 
REMARK   11  A    between atoms: C14_21  and  C15_22 
REMARK   12  A    between atoms: C15_22  and  C16_23 
REMARK   13  A    between atoms: C16_23  and  C17_24 
REMARK   14  A    between atoms: N2_25  and  N3_27 
REMARK   15  A    between atoms: C27_39  and  O8_40 
ROOT
HETATM    1  C1  UNL     1      10.251  16.790  14.000  1.00  0.00     0.016 C 
HETATM    2  C2  UNL     1      10.062  17.320  15.452  1.00  0.00    -0.034 C 
HETATM    3  C3  UNL     1       9.308  16.290  16.150  1.00  0.00     0.058 C 
HETATM    4  C4  UNL     1       8.028  16.460  16.908  1.00  0.00     0.148 C 
HETATM    5  C6  UNL     1       8.139  16.585  18.415  1.00  0.00     0.120 C 
HETATM    6  C8  UNL     1       7.648  17.779  19.120  1.00  0.00     0.146 C 
HETATM    7  C18 UNL     1       8.773  18.614  19.831  1.00  0.00     0.039 C 
HETATM    8  C19 UNL     1       9.774  19.030  18.886  1.00  0.00     0.004 A 
HETATM    9  C20 UNL     1      10.202  20.378  18.626  1.00  0.00     0.001 A 
HETATM   10  C21 UNL     1      10.300  20.690  17.143  1.00  0.00     0.006 C 
HETATM   11  C22 UNL     1       9.453  19.788  16.257  1.00  0.00     0.006 C 
HETATM   12  C23 UNL     1       9.938  18.752  15.405  1.00  0.00    -0.005 C 
HETATM   13  C24 UNL     1      11.463  18.774  15.168  1.00  0.00     0.011 C 
HETATM   14  C25 UNL     1      11.497  17.534  15.995  1.00  0.00    -0.003 C 
HETATM   15  C26 UNL     1      11.822  17.603  17.381  1.00  0.00     0.038 C 
HETATM   16  C27 UNL     1      12.182  18.889  18.108  1.00  0.00     0.127 C 
HETATM   17  C28 UNL     1      11.156  19.368  19.128  1.00  0.00    -0.010 A 
HETATM   18  C29 UNL     1      11.547  19.465  20.600  1.00  0.00     0.018 C 
ENDROOT
BRANCH   6  19
HETATM   19  O4  UNL     1       6.719  17.581  20.160  1.00  0.00    -0.312 OA
BRANCH  19  20
HETATM   20  C9  UNL     1       5.360  17.912  20.069  1.00  0.00     0.282 C 
HETATM   21  O5  UNL     1       4.857  18.282  21.168  1.00  0.00    -0.260 OA
BRANCH  20  22
HETATM   22  C10 UNL     1       4.603  17.834  18.838  1.00  0.00     0.078 C 
BRANCH  22  23
HETATM   23  C11 UNL     1       3.170  18.098  18.776  1.00  0.00    -0.021 C 
BRANCH  23  24
HETATM   24  C12 UNL     1       2.601  19.353  18.266  1.00  0.00     0.027 C 
BRANCH  24  25
HETATM   25  C13 UNL     1       3.084  20.644  18.832  1.00  0.00     0.004 C 
BRANCH  25  26
HETATM   26  C14 UNL     1       2.020  21.383  19.586  1.00  0.00     0.001 C 
BRANCH  26  27
HETATM   27  C15 UNL     1       2.187  22.842  19.719  1.00  0.00     0.005 C 
BRANCH  27  28
HETATM   28  C16 UNL     1       3.366  23.467  19.068  1.00  0.00     0.046 C 
BRANCH  28  29
HETATM   29  C17 UNL     1       3.851  24.724  19.617  1.00  0.00     0.086 C 
HETATM   30  N2  UNL     1       4.238  25.644  18.773  1.00  0.00    -0.256 N 
ATOM     31  H2  UNL     1       4.194  25.466  17.770  1.00  0.00     0.192 HD
BRANCH  30  32
HETATM   32  N3  UNL     1       4.705  26.854  19.241  1.00  0.00    -0.040 N 
HETATM   33  O6  UNL     1       4.303  27.272  20.363  1.00  0.00    -0.516 OA
HETATM   34  O7  UNL     1       5.582  27.587  18.517  1.00  0.00    -0.516 OA
ENDBRANCH  30  32
ENDBRANCH  28  29
ENDBRANCH  27  28
ENDBRANCH  26  27
ENDBRANCH  25  26
ENDBRANCH  24  25
ENDBRANCH  23  24
ENDBRANCH  22  23
ENDBRANCH  20  22
ENDBRANCH  19  20
ENDBRANCH   6  19
BRANCH   5  35
HETATM   35  C7  UNL     1       7.430  15.443  19.132  1.00  0.00     0.241 C 
HETATM   36  O3  UNL     1       7.820  14.936  20.142  1.00  0.00    -0.306 OA
ENDBRANCH   5  35
BRANCH   4  37
HETATM   37  O1  UNL     1       7.121  17.354  16.356  1.00  0.00    -0.380 OA
ATOM     38  H1  UNL     1       6.807  17.133  15.486  1.00  0.00     0.211 HD
ENDBRANCH   4  37
BRANCH   4  39
HETATM   39  C5  UNL     1       7.284  15.169  16.705  1.00  0.00     0.266 C 
HETATM   40  N1  UNL     1       5.933  14.923  16.989  1.00  0.00    -0.059 NA
HETATM   41  O2  UNL     1       7.938  14.215  16.234  1.00  0.00    -0.273 OA
ENDBRANCH   4  39
BRANCH  16  42
HETATM   42  O8  UNL     1      13.354  18.700  18.915  1.00  0.00    -0.395 OA
ATOM     43  H8  UNL     1      14.069  19.238  18.595  1.00  0.00     0.210 HD
ENDBRANCH  16  42
TORSDOF 15
ENDMDL
MODEL 3
REMARK VINA RESULT: -8.119677450      3.545      8.355
REMARK  15 active torsions:
REMARK  status: ('A' for Active; 'I' for Inactive)
REMARK    1  A    between atoms: C4_4  and  O1_5 
REMARK    2  A    between atoms: C4_4  and  C5_7 
REMARK    3  A    between atoms: C6_10  and  C7_11 
REMARK    4  A    between atoms: C8_13  and  O4_14 
REMARK    5  A    between atoms: O4_14  and  C9_15 
REMARK    6  A    between atoms: C9_15  and  C10_17 
REMARK    7  A    between atoms: C10_17  and  C11_18 
REMARK    8  A    between atoms: C11_18  and  C12_19 
REMARK    9  A    between atoms: C12_19  and  C13_20 
REMARK   10  A    between atoms: C13_20  and  C14_21 
REMARK   11  A    between atoms: C14_21  and  C15_22 
REMARK   12  A    between atoms: C15_22  and  C16_23 
REMARK   13  A    between atoms: C16_23  and  C17_24 
REMARK   14  A    between atoms: N2_25  and  N3_27 
REMARK   15  A    between atoms: C27_39  and  O8_40 
ROOT
HETATM    1  C1  UNL     1       5.582  14.222  16.426  1.00  0.00     0.016 C 
HETATM    2  C2  UNL     1       6.628  15.370  16.538  1.00  0.00    -0.034 C 
HETATM    3  C3  UNL     1       6.948  15.470  17.954  1.00  0.00     0.058 C 
HETATM    4  C4  UNL     1       6.881  16.694  18.815  1.00  0.00     0.148 C 
HETATM    5  C6  UNL     1       8.186  17.426  19.060  1.00  0.00     0.120 C 
HETATM    6  C8  UNL     1       8.358  18.833  18.662  1.00  0.00     0.146 C 
HETATM    7  C18 UNL     1       9.441  19.056  17.545  1.00  0.00     0.039 C 
HETATM    8  C19 UNL     1       9.125  18.291  16.369  1.00  0.00     0.004 A 
HETATM    9  C20 UNL     1       8.957  18.799  15.034  1.00  0.00     0.001 A 
HETATM   10  C21 UNL     1       7.726  18.240  14.342  1.00  0.00     0.006 C 
HETATM   11  C22 UNL     1       6.654  17.726  15.291  1.00  0.00     0.006 C 
HETATM   12  C23 UNL     1       6.334  16.359  15.536  1.00  0.00    -0.005 C 
HETATM   13  C24 UNL     1       6.942  15.364  14.524  1.00  0.00     0.011 C 
HETATM   14  C25 UNL     1       7.815  14.925  15.649  1.00  0.00    -0.003 C 
HETATM   15  C26 UNL     1       9.140  15.437  15.774  1.00  0.00     0.038 C 
HETATM   16  C27 UNL     1       9.770  16.414  14.792  1.00  0.00     0.127 C 
HETATM   17  C28 UNL     1      10.017  17.815  15.338  1.00  0.00    -0.010 A 
HETATM   18  C29 UNL     1      11.444  18.349  15.425  1.00  0.00     0.018 C 
ENDROOT
BRANCH   6  19
HETATM   19  O4  UNL     1       8.762  19.744  19.658  1.00  0.00    -0.312 OA
BRANCH  19  20
HETATM   20  C9  UNL     1       9.900  20.557  19.560  1.00  0.00     0.282 C 
HETATM   21  O5  UNL     1       9.632  21.772  19.335  1.00  0.00    -0.260 OA
BRANCH  20  22
HETATM   22  C10 UNL     1      11.250  20.056  19.698  1.00  0.00     0.078 C 
BRANCH  22  23
HETATM   23  C11 UNL     1      12.418  20.798  19.238  1.00  0.00    -0.021 C 
BRANCH  23  24
HETATM   24  C12 UNL     1      12.953  20.699  17.874  1.00  0.00     0.027 C 
BRANCH  24  25
HETATM   25  C13 UNL     1      12.461  21.649  16.837  1.00  0.00     0.004 C 
BRANCH  25  26
HETATM   26  C14 UNL     1      13.162  21.490  15.522  1.00  0.00     0.001 C 
BRANCH  26  27
HETATM   27  C15 UNL     1      14.419  20.720  15.525  1.00  0.00     0.005 C 
BRANCH  27  28
HETATM   28  C16 UNL     1      15.672  21.436  15.174  1.00  0.00     0.046 C 
BRANCH  28  29
HETATM   29  C17 UNL     1      16.095  22.521  16.045  1.00  0.00     0.086 C 
HETATM   30  N2  UNL     1      16.305  22.240  17.303  1.00  0.00    -0.256 N 
ATOM     31  H2  UNL     1      16.170  21.288  17.643  1.00  0.00     0.192 HD
BRANCH  30  32
HETATM   32  N3  UNL     1      16.708  23.233  18.172  1.00  0.00    -0.040 N 
HETATM   33  O6  UNL     1      15.853  23.761  18.935  1.00  0.00    -0.516 OA
HETATM   34  O7  UNL     1      17.999  23.639  18.212  1.00  0.00    -0.516 OA
ENDBRANCH  30  32
ENDBRANCH  28  29
ENDBRANCH  27  28
ENDBRANCH  26  27
ENDBRANCH  25  26
ENDBRANCH  24  25
ENDBRANCH  23  24
ENDBRANCH  22  23
ENDBRANCH  20  22
ENDBRANCH  19  20
ENDBRANCH   6  19
BRANCH   5  35
HETATM   35  C7  UNL     1       8.560  17.436  20.536  1.00  0.00     0.241 C 
HETATM   36  O3  UNL     1       9.673  17.296  20.951  1.00  0.00    -0.306 OA
ENDBRANCH   5  35
BRANCH   4  37
HETATM   37  O1  UNL     1       5.820  17.550  18.554  1.00  0.00    -0.380 OA
ATOM     38  H1  UNL     1       5.544  18.093  19.284  1.00  0.00     0.211 HD
ENDBRANCH   4  37
BRANCH   4  39
HETATM   39  C5  UNL     1       6.486  16.189  20.175  1.00  0.00     0.266 C 
HETATM   40  N1  UNL     1       5.544  16.760  21.043  1.00  0.00    -0.059 NA
HETATM   41  O2  UNL     1       7.058  15.154  20.574  1.00  0.00    -0.273 OA
ENDBRANCH   4  39
BRANCH  16  42
HETATM   42  O8  UNL     1      11.093  15.985  14.435  1.00  0.00    -0.395 OA
ATOM     43  H8  UNL     1      11.062  15.144  13.993  1.00  0.00     0.210 HD
ENDBRANCH  16  42
TORSDOF 15
ENDMDL
MODEL 4
REMARK VINA RESULT: -8.059567255      3.801      8.651
REMARK  15 active torsions:
REMARK  status: ('A' for Active; 'I' for Inactive)
REMARK    1  A    between atoms: C4_4  and  O1_5 
REMARK    2  A    between atoms: C4_4  and  C5_7 
REMARK    3  A    between atoms: C6_10  and  C7_11 
REMARK    4  A    between atoms: C8_13  and  O4_14 
REMARK    5  A    between atoms: O4_14  and  C9_15 
REMARK    6  A    between atoms: C9_15  and  C10_17 
REMARK    7  A    between atoms: C10_17  and  C11_18 
REMARK    8  A    between atoms: C11_18  and  C12_19 
REMARK    9  A    between atoms: C12_19  and  C13_20 
REMARK   10  A    between atoms: C13_20  and  C14_21 
REMARK   11  A    between atoms: C14_21  and  C15_22 
REMARK   12  A    between atoms: C15_22  and  C16_23 
REMARK   13  A    between atoms: C16_23  and  C17_24 
REMARK   14  A    between atoms: N2_25  and  N3_27 
REMARK   15  A    between atoms: C27_39  and  O8_40 
ROOT
HETATM    1  C1  UNL     1       5.494  14.193  16.533  1.00  0.00     0.016 C 
HETATM    2  C2  UNL     1       6.551  15.335  16.600  1.00  0.00    -0.034 C 
HETATM    3  C3  UNL     1       6.911  15.451  18.004  1.00  0.00     0.058 C 
HETATM    4  C4  UNL     1       6.878  16.687  18.851  1.00  0.00     0.148 C 
HETATM    5  C6  UNL     1       8.194  17.413  19.049  1.00  0.00     0.120 C 
HETATM    6  C8  UNL     1       8.365  18.813  18.628  1.00  0.00     0.146 C 
HETATM    7  C18 UNL     1       9.417  19.013  17.477  1.00  0.00     0.039 C 
HETATM    8  C19 UNL     1       9.062  18.235  16.321  1.00  0.00     0.004 A 
HETATM    9  C20 UNL     1       8.860  18.727  14.985  1.00  0.00     0.001 A 
HETATM   10  C21 UNL     1       7.606  18.168  14.335  1.00  0.00     0.006 C 
HETATM   11  C22 UNL     1       6.558  17.674  15.321  1.00  0.00     0.006 C 
HETATM   12  C23 UNL     1       6.236  16.312  15.593  1.00  0.00    -0.005 C 
HETATM   13  C24 UNL     1       6.807  15.300  14.578  1.00  0.00     0.011 C 
HETATM   14  C25 UNL     1       7.709  14.870  15.684  1.00  0.00    -0.003 C 
HETATM   15  C26 UNL     1       9.040  15.374  15.764  1.00  0.00     0.038 C 
HETATM   16  C27 UNL     1       9.649  16.332  14.752  1.00  0.00     0.127 C 
HETATM   17  C28 UNL     1       9.921  17.739  15.272  1.00  0.00    -0.010 A 
HETATM   18  C29 UNL     1      11.354  18.263  15.312  1.00  0.00     0.018 C 
ENDROOT
BRANCH   6  19
HETATM   19  O4  UNL     1       8.803  19.734  19.599  1.00  0.00    -0.312 OA
BRANCH  19  20
HETATM   20  C9  UNL     1       9.895  20.595  19.425  1.00  0.00     0.282 C 
HETATM   21  O5  UNL     1       9.580  21.819  19.455  1.00  0.00    -0.260 OA
BRANCH  20  22
HETATM   22  C10 UNL     1      11.251  20.130  19.225  1.00  0.00     0.078 C 
BRANCH  22  23
HETATM   23  C11 UNL     1      12.405  21.020  19.282  1.00  0.00    -0.021 C 
BRANCH  23  24
HETATM   24  C12 UNL     1      12.774  21.936  18.196  1.00  0.00     0.027 C 
BRANCH  24  25
HETATM   25  C13 UNL     1      12.211  21.703  16.836  1.00  0.00     0.004 C 
BRANCH  25  26
HETATM   26  C14 UNL     1      13.267  21.417  15.811  1.00  0.00     0.001 C 
BRANCH  26  27
HETATM   27  C15 UNL     1      14.245  20.364  16.136  1.00  0.00     0.005 C 
BRANCH  27  28
HETATM   28  C16 UNL     1      15.365  20.140  15.186  1.00  0.00     0.046 C 
BRANCH  28  29
HETATM   29  C17 UNL     1      16.204  21.280  14.853  1.00  0.00     0.086 C 
HETATM   30  N2  UNL     1      17.459  21.234  15.213  1.00  0.00    -0.256 N 
ATOM     31  H2  UNL     1      17.818  20.418  15.709  1.00  0.00     0.192 HD
BRANCH  30  32
HETATM   32  N3  UNL     1      18.299  22.289  14.920  1.00  0.00    -0.040 N 
HETATM   33  O6  UNL     1      18.490  22.600  13.712  1.00  0.00    -0.516 OA
HETATM   34  O7  UNL     1      18.910  22.984  15.907  1.00  0.00    -0.516 OA
ENDBRANCH  30  32
ENDBRANCH  28  29
ENDBRANCH  27  28
ENDBRANCH  26  27
ENDBRANCH  25  26
ENDBRANCH  24  25
ENDBRANCH  23  24
ENDBRANCH  22  23
ENDBRANCH  20  22
ENDBRANCH  19  20
ENDBRANCH   6  19
BRANCH   5  35
HETATM   35  C7  UNL     1       8.610  17.440  20.514  1.00  0.00     0.241 C 
HETATM   36  O3  UNL     1       9.744  17.408  20.894  1.00  0.00    -0.306 OA
ENDBRANCH   5  35
BRANCH   4  37
HETATM   37  O1  UNL     1       5.815  17.547  18.609  1.00  0.00    -0.380 OA
ATOM     38  H1  UNL     1       5.548  18.084  19.347  1.00  0.00     0.211 HD
ENDBRANCH   4  37
BRANCH   4  39
HETATM   39  C5  UNL     1       6.518  16.203  20.228  1.00  0.00     0.266 C 
HETATM   40  N1  UNL     1       5.620  16.803  21.122  1.00  0.00    -0.059 NA
HETATM   41  O2  UNL     1       7.079  15.158  20.617  1.00  0.00    -0.273 OA
ENDBRANCH   4  39
BRANCH  16  42
HETATM   42  O8  UNL     1      10.958  15.889  14.363  1.00  0.00    -0.395 OA
ATOM     43  H8  UNL     1      11.238  16.334  13.572  1.00  0.00     0.210 HD
ENDBRANCH  16  42
TORSDOF 15
ENDMDL
MODEL 5
REMARK VINA RESULT: -7.932930814      4.380      9.123
REMARK  15 active torsions:
REMARK  status: ('A' for Active; 'I' for Inactive)
REMARK    1  A    between atoms: C4_4  and  O1_5 
REMARK    2  A    between atoms: C4_4  and  C5_7 
REMARK    3  A    between atoms: C6_10  and  C7_11 
REMARK    4  A    between atoms: C8_13  and  O4_14 
REMARK    5  A    between atoms: O4_14  and  C9_15 
REMARK    6  A    between atoms: C9_15  and  C10_17 
REMARK    7  A    between atoms: C10_17  and  C11_18 
REMARK    8  A    between atoms: C11_18  and  C12_19 
REMARK    9  A    between atoms: C12_19  and  C13_20 
REMARK   10  A    between atoms: C13_20  and  C14_21 
REMARK   11  A    between atoms: C14_21  and  C15_22 
REMARK   12  A    between atoms: C15_22  and  C16_23 
REMARK   13  A    between atoms: C16_23  and  C17_24 
REMARK   14  A    between atoms: N2_25  and  N3_27 
REMARK   15  A    between atoms: C27_39  and  O8_40 
ROOT
HETATM    1  C1  UNL     1       5.509  14.182  16.617  1.00  0.00     0.016 C 
HETATM    2  C2  UNL     1       6.551  15.338  16.666  1.00  0.00    -0.034 C 
HETATM    3  C3  UNL     1       6.914  15.477  18.068  1.00  0.00     0.058 C 
HETATM    4  C4  UNL     1       6.867  16.724  18.898  1.00  0.00     0.148 C 
HETATM    5  C6  UNL     1       8.174  17.469  19.084  1.00  0.00     0.120 C 
HETATM    6  C8  UNL     1       8.326  18.865  18.643  1.00  0.00     0.146 C 
HETATM    7  C18 UNL     1       9.373  19.063  17.487  1.00  0.00     0.039 C 
HETATM    8  C19 UNL     1       9.025  18.265  16.343  1.00  0.00     0.004 A 
HETATM    9  C20 UNL     1       8.813  18.737  15.000  1.00  0.00     0.001 A 
HETATM   10  C21 UNL     1       7.565  18.154  14.362  1.00  0.00     0.006 C 
HETATM   11  C22 UNL     1       6.525  17.660  15.357  1.00  0.00     0.006 C 
HETATM   12  C23 UNL     1       6.221  16.298  15.648  1.00  0.00    -0.005 C 
HETATM   13  C24 UNL     1       6.803  15.280  14.644  1.00  0.00     0.011 C 
HETATM   14  C25 UNL     1       7.713  14.875  15.753  1.00  0.00    -0.003 C 
HETATM   15  C26 UNL     1       9.038  15.397  15.823  1.00  0.00     0.038 C 
HETATM   16  C27 UNL     1       9.631  16.350  14.797  1.00  0.00     0.127 C 
HETATM   17  C28 UNL     1       9.887  17.767  15.298  1.00  0.00    -0.010 A 
HETATM   18  C29 UNL     1      11.314  18.309  15.326  1.00  0.00     0.018 C 
ENDROOT
BRANCH   6  19
HETATM   19  O4  UNL     1       8.756  19.804  19.601  1.00  0.00    -0.312 OA
BRANCH  19  20
HETATM   20  C9  UNL     1       9.946  20.537  19.500  1.00  0.00     0.282 C 
HETATM   21  O5  UNL     1       9.763  21.757  19.223  1.00  0.00    -0.260 OA
BRANCH  20  22
HETATM   22  C10 UNL     1      11.257  19.955  19.690  1.00  0.00     0.078 C 
BRANCH  22  23
HETATM   23  C11 UNL     1      12.416  20.348  18.898  1.00  0.00    -0.021 C 
BRANCH  23  24
HETATM   24  C12 UNL     1      13.344  21.415  19.297  1.00  0.00     0.027 C 
BRANCH  24  25
HETATM   25  C13 UNL     1      14.674  21.498  18.630  1.00  0.00     0.004 C 
BRANCH  25  26
HETATM   26  C14 UNL     1      15.089  22.907  18.333  1.00  0.00     0.001 C 
BRANCH  26  27
HETATM   27  C15 UNL     1      14.013  23.905  18.195  1.00  0.00     0.005 C 
BRANCH  27  28
HETATM   28  C16 UNL     1      14.312  25.306  18.588  1.00  0.00     0.046 C 
BRANCH  28  29
HETATM   29  C17 UNL     1      15.708  25.709  18.640  1.00  0.00     0.086 C 
HETATM   30  N2  UNL     1      16.223  26.247  17.568  1.00  0.00    -0.256 N 
ATOM     31  H2  UNL     1      15.650  26.372  16.733  1.00  0.00     0.192 HD
BRANCH  30  32
HETATM   32  N3  UNL     1      17.544  26.647  17.564  1.00  0.00    -0.040 N 
HETATM   33  O6  UNL     1      17.882  27.628  16.845  1.00  0.00    -0.516 OA
HETATM   34  O7  UNL     1      18.466  26.005  18.317  1.00  0.00    -0.516 OA
ENDBRANCH  30  32
ENDBRANCH  28  29
ENDBRANCH  27  28
ENDBRANCH  26  27
ENDBRANCH  25  26
ENDBRANCH  24  25
ENDBRANCH  23  24
ENDBRANCH  22  23
ENDBRANCH  20  22
ENDBRANCH  19  20
ENDBRANCH   6  19
BRANCH   5  35
HETATM   35  C7  UNL     1       8.594  17.520  20.547  1.00  0.00     0.241 C 
HETATM   36  O3  UNL     1       9.707  17.320  20.937  1.00  0.00    -0.306 OA
ENDBRANCH   5  35
BRANCH   4  37
HETATM   37  O1  UNL     1       5.793  17.567  18.648  1.00  0.00    -0.380 OA
ATOM     38  H1  UNL     1       6.006  18.379  18.203  1.00  0.00     0.211 HD
ENDBRANCH   4  37
BRANCH   4  39
HETATM   39  C5  UNL     1       6.517  16.253  20.283  1.00  0.00     0.266 C 
HETATM   40  N1  UNL     1       5.587  16.833  21.158  1.00  0.00    -0.059 NA
HETATM   41  O2  UNL     1       7.118  15.241  20.698  1.00  0.00    -0.273 OA
ENDBRANCH   4  39
BRANCH  16  42
HETATM   42  O8  UNL     1      10.945  15.918  14.410  1.00  0.00    -0.395 OA
ATOM     43  H8  UNL     1      11.567  16.074  15.112  1.00  0.00     0.210 HD
ENDBRANCH  16  42
TORSDOF 15
ENDMDL
