MODEL 1
REMARK VINA RESULT: -8.363600607      0.000      0.000
REMARK  5 active torsions:
REMARK  status: ('A' for Active; 'I' for Inactive)
REMARK    1  A    between atoms: O1_2  and  C2_3 
REMARK    2  A    between atoms: C2_3  and  C3_5 
REMARK    3  A    between atoms: C13_16  and  C14_17 
REMARK    4  A    between atoms: C14_17  and  C15_18 
REMARK    5  A    between atoms: C15_18  and  N1_19 
REMARK       I    between atoms: N1_19  and  C16_21 
ROOT
HETATM    1  C3  UNL     1      45.737  27.005   3.153  1.00  0.00     0.180 A 
HETATM    2  C4  UNL     1      46.579  25.778   3.203  1.00  0.00     0.058 C 
HETATM    3  C5  UNL     1      47.728  25.789   4.107  1.00  0.00     0.007 C 
HETATM    4  C6  UNL     1      47.788  26.911   5.108  1.00  0.00     0.003 C 
HETATM    5  C7  UNL     1      49.312  26.712   5.033  1.00  0.00     0.004 C 
HETATM    6  C8  UNL     1      50.054  27.889   4.426  1.00  0.00     0.012 C 
HETATM    7  C9  UNL     1      48.910  27.805   3.406  1.00  0.00     0.006 C 
HETATM    8  C10 UNL     1      47.665  28.115   4.207  1.00  0.00     0.033 C 
HETATM    9  C11 UNL     1      46.420  28.181   3.419  1.00  0.00     0.104 A 
HETATM   10  C12 UNL     1      46.082  29.484   2.777  1.00  0.00     0.050 C 
HETATM   11  O3  UNL     1      45.314  27.645   4.290  1.00  0.00    -0.352 OA
HETATM   12  C13 UNL     1      49.041  26.288   3.664  1.00  0.00    -0.009 C 
ENDROOT
BRANCH  12  13
HETATM   13  C14 UNL     1      49.893  25.677   2.721  1.00  0.00     0.001 C 
BRANCH  13  14
HETATM   14  C15 UNL     1      50.449  24.324   2.863  1.00  0.00     0.087 C 
BRANCH  14  15
HETATM   15  N1  UNL     1      50.620  23.532   1.712  1.00  0.00    -0.338 N 
HETATM   16  C16 UNL     1      49.662  22.590   1.304  1.00  0.00     0.217 C 
HETATM   17  C17 UNL     1      49.851  21.773   0.107  1.00  0.00     0.117 C 
HETATM   18  O4  UNL     1      48.589  22.423   1.982  1.00  0.00    -0.274 OA
ATOM     19  H1  UNL     1      51.467  23.647   1.155  1.00  0.00     0.168 HD
ENDBRANCH  14  15
ENDBRANCH  13  14
ENDBRANCH  12  13
BRANCH   1  20
HETATM   20  C2  UNL     1      44.693  26.969   2.072  1.00  0.00     0.296 C 
HETATM   21  O2  UNL     1      44.974  26.744   0.866  1.00  0.00    -0.262 OA
BRANCH  20  22
HETATM   22  O1  UNL     1      43.348  27.186   2.367  1.00  0.00    -0.324 OA
HETATM   23  C1  UNL     1      42.681  28.332   1.836  1.00  0.00     0.213 C 
ENDBRANCH  20  22
ENDBRANCH   1  20
TORSDOF 5
ENDMDL
MODEL 2
REMARK VINA RESULT: -8.361458784      3.225      6.675
REMARK  5 active torsions:
REMARK  status: ('A' for Active; 'I' for Inactive)
REMARK    1  A    between atoms: O1_2  and  C2_3 
REMARK    2  A    between atoms: C2_3  and  C3_5 
REMARK    3  A    between atoms: C13_16  and  C14_17 
REMARK    4  A    between atoms: C14_17  and  C15_18 
REMARK    5  A    between atoms: C15_18  and  N1_19 
REMARK       I    between atoms: N1_19  and  C16_21 
ROOT
HETATM    1  C3  UNL     1      49.132  26.629   3.900  1.00  0.00     0.180 A 
HETATM    2  C4  UNL     1      48.585  28.002   3.719  1.00  0.00     0.058 C 
HETATM    3  C5  UNL     1      47.177  28.213   4.051  1.00  0.00     0.007 C 
HETATM    4  C6  UNL     1      46.491  27.110   4.812  1.00  0.00     0.003 C 
HETATM    5  C7  UNL     1      45.212  27.619   4.125  1.00  0.00     0.004 C 
HETATM    6  C8  UNL     1      44.608  26.630   3.144  1.00  0.00     0.012 C 
HETATM    7  C9  UNL     1      46.076  26.495   2.713  1.00  0.00     0.006 C 
HETATM    8  C10 UNL     1      46.774  25.922   3.926  1.00  0.00     0.033 C 
HETATM    9  C11 UNL     1      48.204  25.615   3.731  1.00  0.00     0.104 A 
HETATM   10  C12 UNL     1      48.548  24.281   3.159  1.00  0.00     0.050 C 
HETATM   11  O3  UNL     1      48.901  25.897   5.037  1.00  0.00    -0.352 OA
HETATM   12  C13 UNL     1      46.118  28.002   3.049  1.00  0.00    -0.009 C 
ENDROOT
BRANCH  12  13
HETATM   13  C14 UNL     1      45.882  28.791   1.904  1.00  0.00     0.001 C 
BRANCH  13  14
HETATM   14  C15 UNL     1      45.088  30.027   1.902  1.00  0.00     0.087 C 
BRANCH  14  15
HETATM   15  N1  UNL     1      43.732  29.967   1.527  1.00  0.00    -0.338 N 
HETATM   16  C16 UNL     1      42.793  30.915   1.964  1.00  0.00     0.217 C 
HETATM   17  C17 UNL     1      41.388  30.842   1.568  1.00  0.00     0.117 C 
HETATM   18  O4  UNL     1      43.153  31.877   2.728  1.00  0.00    -0.274 OA
ATOM     19  H1  UNL     1      43.421  29.209   0.918  1.00  0.00     0.168 HD
ENDBRANCH  14  15
ENDBRANCH  13  14
ENDBRANCH  12  13
BRANCH   1  20
HETATM   20  C2  UNL     1      50.528  26.468   3.368  1.00  0.00     0.296 C 
HETATM   21  O2  UNL     1      50.780  26.403   2.136  1.00  0.00    -0.262 OA
BRANCH  20  22
HETATM   22  O1  UNL     1      51.620  26.385   4.231  1.00  0.00    -0.324 OA
HETATM   23  C1  UNL     1      52.059  27.548   4.934  1.00  0.00     0.213 C 
ENDBRANCH  20  22
ENDBRANCH   1  20
TORSDOF 5
ENDMDL
MODEL 3
REMARK VINA RESULT: -8.213561156      2.961      6.209
REMARK  5 active torsions:
REMARK  status: ('A' for Active; 'I' for Inactive)
REMARK    1  A    between atoms: O1_2  and  C2_3 
REMARK    2  A    between atoms: C2_3  and  C3_5 
REMARK    3  A    between atoms: C13_16  and  C14_17 
REMARK    4  A    between atoms: C14_17  and  C15_18 
REMARK    5  A    between atoms: C15_18  and  N1_19 
REMARK       I    between atoms: N1_19  and  C16_21 
ROOT
HETATM    1  C3  UNL     1      48.986  26.707   3.873  1.00  0.00     0.180 A 
HETATM    2  C4  UNL     1      48.448  28.060   3.557  1.00  0.00     0.058 C 
HETATM    3  C5  UNL     1      47.034  28.301   3.834  1.00  0.00     0.007 C 
HETATM    4  C6  UNL     1      46.326  27.272   4.673  1.00  0.00     0.003 C 
HETATM    5  C7  UNL     1      45.065  27.720   3.913  1.00  0.00     0.004 C 
HETATM    6  C8  UNL     1      44.482  26.648   3.009  1.00  0.00     0.012 C 
HETATM    7  C9  UNL     1      45.959  26.473   2.628  1.00  0.00     0.006 C 
HETATM    8  C10 UNL     1      46.626  26.010   3.904  1.00  0.00     0.033 C 
HETATM    9  C11 UNL     1      48.058  25.683   3.772  1.00  0.00     0.104 A 
HETATM   10  C12 UNL     1      48.411  24.304   3.330  1.00  0.00     0.050 C 
HETATM   11  O3  UNL     1      48.724  26.080   5.065  1.00  0.00    -0.352 OA
HETATM   12  C13 UNL     1      45.999  28.004   2.829  1.00  0.00    -0.009 C 
ENDROOT
BRANCH  12  13
HETATM   13  C14 UNL     1      45.793  28.687   1.613  1.00  0.00     0.001 C 
BRANCH  13  14
HETATM   14  C15 UNL     1      44.671  29.600   1.358  1.00  0.00     0.087 C 
BRANCH  14  15
HETATM   15  N1  UNL     1      44.128  29.668   0.060  1.00  0.00    -0.338 N 
HETATM   16  C16 UNL     1      43.013  28.906  -0.325  1.00  0.00     0.217 C 
HETATM   17  C17 UNL     1      42.459  28.985  -1.674  1.00  0.00     0.117 C 
HETATM   18  O4  UNL     1      42.452  28.115   0.510  1.00  0.00    -0.274 OA
ATOM     19  H1  UNL     1      44.559  30.292  -0.623  1.00  0.00     0.168 HD
ENDBRANCH  14  15
ENDBRANCH  13  14
ENDBRANCH  12  13
BRANCH   1  20
HETATM   20  C2  UNL     1      50.394  26.497   3.391  1.00  0.00     0.296 C 
HETATM   21  O2  UNL     1      50.687  26.412   2.170  1.00  0.00    -0.262 OA
BRANCH  20  22
HETATM   22  O1  UNL     1      51.452  26.388   4.293  1.00  0.00    -0.324 OA
HETATM   23  C1  UNL     1      52.050  27.568   4.832  1.00  0.00     0.213 C 
ENDBRANCH  20  22
ENDBRANCH   1  20
TORSDOF 5
ENDMDL
MODEL 4
REMARK VINA RESULT: -7.961441553      0.936      1.214
REMARK  5 active torsions:
REMARK  status: ('A' for Active; 'I' for Inactive)
REMARK    1  A    between atoms: O1_2  and  C2_3 
REMARK    2  A    between atoms: C2_3  and  C3_5 
REMARK    3  A    between atoms: C13_16  and  C14_17 
REMARK    4  A    between atoms: C14_17  and  C15_18 
REMARK    5  A    between atoms: C15_18  and  N1_19 
REMARK       I    between atoms: N1_19  and  C16_21 
ROOT
HETATM    1  C3  UNL     1      45.932  26.946   3.250  1.00  0.00     0.180 A 
HETATM    2  C4  UNL     1      46.701  25.679   3.397  1.00  0.00     0.058 C 
HETATM    3  C5  UNL     1      47.868  25.700   4.276  1.00  0.00     0.007 C 
HETATM    4  C6  UNL     1      48.016  26.902   5.171  1.00  0.00     0.003 C 
HETATM    5  C7  UNL     1      49.523  26.605   5.089  1.00  0.00     0.004 C 
HETATM    6  C8  UNL     1      50.321  27.675   4.366  1.00  0.00     0.012 C 
HETATM    7  C9  UNL     1      49.151  27.570   3.377  1.00  0.00     0.006 C 
HETATM    8  C10 UNL     1      47.945  28.025   4.167  1.00  0.00     0.033 C 
HETATM    9  C11 UNL     1      46.689  28.097   3.397  1.00  0.00     0.104 A 
HETATM   10  C12 UNL     1      46.415  29.355   2.645  1.00  0.00     0.050 C 
HETATM   11  O3  UNL     1      45.573  27.709   4.332  1.00  0.00    -0.352 OA
HETATM   12  C13 UNL     1      49.198  26.077   3.769  1.00  0.00    -0.009 C 
ENDROOT
BRANCH  12  13
HETATM   13  C14 UNL     1      49.991  25.333   2.871  1.00  0.00     0.001 C 
BRANCH  13  14
HETATM   14  C15 UNL     1      49.654  23.987   2.389  1.00  0.00     0.087 C 
BRANCH  14  15
HETATM   15  N1  UNL     1      50.661  23.004   2.347  1.00  0.00    -0.338 N 
HETATM   16  C16 UNL     1      50.688  22.003   1.364  1.00  0.00     0.217 C 
HETATM   17  C17 UNL     1      51.739  20.988   1.331  1.00  0.00     0.117 C 
HETATM   18  O4  UNL     1      49.779  21.956   0.463  1.00  0.00    -0.274 OA
ATOM     19  H1  UNL     1      51.396  23.021   3.055  1.00  0.00     0.168 HD
ENDBRANCH  14  15
ENDBRANCH  13  14
ENDBRANCH  12  13
BRANCH   1  20
HETATM   20  C2  UNL     1      44.864  26.877   2.194  1.00  0.00     0.296 C 
HETATM   21  O2  UNL     1      43.638  26.971   2.464  1.00  0.00    -0.262 OA
BRANCH  20  22
HETATM   22  O1  UNL     1      45.194  26.706   0.851  1.00  0.00    -0.324 OA
HETATM   23  C1  UNL     1      44.626  27.568  -0.135  1.00  0.00     0.213 C 
ENDBRANCH  20  22
ENDBRANCH   1  20
TORSDOF 5
ENDMDL
MODEL 5
REMARK VINA RESULT: -7.805564800      3.251      5.328
REMARK  5 active torsions:
REMARK  status: ('A' for Active; 'I' for Inactive)
REMARK    1  A    between atoms: O1_2  and  C2_3 
REMARK    2  A    between atoms: C2_3  and  C3_5 
REMARK    3  A    between atoms: C13_16  and  C14_17 
REMARK    4  A    between atoms: C14_17  and  C15_18 
REMARK    5  A    between atoms: C15_18  and  N1_19 
REMARK       I    between atoms: N1_19  and  C16_21 
ROOT
HETATM    1  C3  UNL     1      43.288  30.698   1.720  1.00  0.00     0.180 A 
HETATM    2  C4  UNL     1      44.572  30.577   2.465  1.00  0.00     0.058 C 
HETATM    3  C5  UNL     1      45.442  29.453   2.125  1.00  0.00     0.007 C 
HETATM    4  C6  UNL     1      45.105  28.695   0.869  1.00  0.00     0.003 C 
HETATM    5  C7  UNL     1      45.771  27.502   1.576  1.00  0.00     0.004 C 
HETATM    6  C8  UNL     1      44.810  26.375   1.911  1.00  0.00     0.012 C 
HETATM    7  C9  UNL     1      43.938  27.549   2.379  1.00  0.00     0.006 C 
HETATM    8  C10 UNL     1      43.661  28.340   1.119  1.00  0.00     0.033 C 
HETATM    9  C11 UNL     1      42.756  29.491   1.296  1.00  0.00     0.104 A 
HETATM   10  C12 UNL     1      41.290  29.231   1.209  1.00  0.00     0.050 C 
HETATM   11  O3  UNL     1      43.223  30.571   0.356  1.00  0.00    -0.352 OA
HETATM   12  C13 UNL     1      45.299  28.150   2.794  1.00  0.00    -0.009 C 
ENDROOT
BRANCH  12  13
HETATM   13  C14 UNL     1      45.596  27.866   4.143  1.00  0.00     0.001 C 
BRANCH  13  14
HETATM   14  C15 UNL     1      46.901  27.386   4.620  1.00  0.00     0.087 C 
BRANCH  14  15
HETATM   15  N1  UNL     1      48.050  28.155   4.354  1.00  0.00    -0.338 N 
HETATM   16  C16 UNL     1      49.315  27.572   4.181  1.00  0.00     0.217 C 
HETATM   17  C17 UNL     1      50.501  28.381   3.905  1.00  0.00     0.117 C 
HETATM   18  O4  UNL     1      49.459  26.303   4.263  1.00  0.00    -0.274 OA
ATOM     19  H1  UNL     1      47.960  29.169   4.284  1.00  0.00     0.168 HD
ENDBRANCH  14  15
ENDBRANCH  13  14
ENDBRANCH  12  13
BRANCH   1  20
HETATM   20  C2  UNL     1      42.384  31.771   2.258  1.00  0.00     0.296 C 
HETATM   21  O2  UNL     1      42.068  32.789   1.588  1.00  0.00    -0.262 OA
BRANCH  20  22
HETATM   22  O1  UNL     1      41.848  31.680   3.542  1.00  0.00    -0.324 OA
HETATM   23  C1  UNL     1      40.594  32.299   3.833  1.00  0.00     0.213 C 
ENDBRANCH  20  22
ENDBRANCH   1  20
TORSDOF 5
ENDMDL
