MODEL 1
REMARK VINA RESULT: -5.792380940      0.000      0.000
REMARK  2 active torsions:
REMARK  status: ('A' for Active; 'I' for Inactive)
REMARK    1  A    between atoms: C10_14  and  O1_15 
REMARK    2  A    between atoms: C10_14  and  C11_17 
ROOT
HETATM    1  C1  UNL     1      21.211  -0.409  26.845  1.00  0.00     0.020 C 
HETATM    2  C2  UNL     1      22.647  -0.221  26.404  1.00  0.00     0.010 A 
HETATM    3  C3  UNL     1      23.360  -1.008  27.377  1.00  0.00     0.058 A 
HETATM    4  C4  UNL     1      23.603  -1.130  25.938  1.00  0.00     0.113 A 
HETATM    5  F1  UNL     1      24.853  -1.627  26.027  1.00  0.00    -0.242 F 
HETATM    6  C5  UNL     1      22.982  -1.813  24.821  1.00  0.00     0.051 C 
HETATM    7  C6  UNL     1      22.958  -0.956  23.607  1.00  0.00     0.030 C 
HETATM    8  C7  UNL     1      21.592  -0.341  23.527  1.00  0.00     0.200 C 
HETATM    9  N1  UNL     1      21.108   0.035  22.195  1.00  0.00    -0.063 N 
ATOM     10  H11 UNL     1      20.123   0.056  21.932  1.00  0.00     0.278 HD
ATOM     11  H12 UNL     1      21.231  -0.540  21.362  1.00  0.00     0.278 HD
HETATM   12  C8  UNL     1      21.913   1.245  22.491  1.00  0.00     0.232 C 
HETATM   13  C9  UNL     1      21.404   1.006  23.909  1.00  0.00     0.091 C 
HETATM   14  C10 UNL     1      22.007   1.796  24.980  1.00  0.00     0.137 C 
HETATM   15  C12 UNL     1      22.918   1.172  25.957  1.00  0.00     0.037 C 
HETATM   16  C13 UNL     1      22.959   1.962  27.263  1.00  0.00     0.025 C 
HETATM   17  C14 UNL     1      24.327   1.408  25.443  1.00  0.00    -0.002 C 
HETATM   18 BR1  UNL     1      25.664   1.337  26.876  1.00  0.00    -0.055 Br
HETATM   19  C15 UNL     1      24.754   0.854  24.182  1.00  0.00    -0.004 C 
HETATM   20  C16 UNL     1      23.967   0.023  23.286  1.00  0.00     0.053 C 
HETATM   21  C17 UNL     1      23.306   0.881  22.177  1.00  0.00     0.161 C 
HETATM   22  C18 UNL     1      23.283   0.016  20.899  1.00  0.00     0.043 C 
HETATM   23  C19 UNL     1      23.014   1.035  19.819  1.00  0.00     0.030 C 
HETATM   24  C20 UNL     1      23.839   2.204  20.335  1.00  0.00     0.233 C 
HETATM   25  N2  UNL     1      24.140   1.926  21.693  1.00  0.00    -0.064 N 
ATOM     26  H21 UNL     1      25.129   1.718  21.829  1.00  0.00     0.278 HD
ATOM     27  H22 UNL     1      24.080   2.761  22.275  1.00  0.00     0.278 HD
ENDROOT
BRANCH  14  28
HETATM   28  O1  UNL     1      22.742   2.756  24.206  1.00  0.00    -0.383 OA
ATOM     29  H1  UNL     1      22.269   3.549  24.430  1.00  0.00     0.210 HD
ENDBRANCH  14  28
BRANCH  14  30
HETATM   30  C11 UNL     1      20.925   2.719  25.538  1.00  0.00     0.388 C 
HETATM   31  F2  UNL     1      19.764   2.474  24.734  1.00  0.00    -0.211 F 
HETATM   32  F3  UNL     1      21.084   4.046  25.345  1.00  0.00    -0.211 F 
ENDBRANCH  14  30
TORSDOF 2
ENDMDL
MODEL 2
REMARK VINA RESULT: -5.671534532      1.054      1.234
REMARK  2 active torsions:
REMARK  status: ('A' for Active; 'I' for Inactive)
REMARK    1  A    between atoms: C10_14  and  O1_15 
REMARK    2  A    between atoms: C10_14  and  C11_17 
ROOT
HETATM    1  C1  UNL     1      21.213  -1.110  25.806  1.00  0.00     0.020 C 
HETATM    2  C2  UNL     1      22.601  -0.726  25.339  1.00  0.00     0.010 A 
HETATM    3  C3  UNL     1      23.397  -1.810  25.855  1.00  0.00     0.058 A 
HETATM    4  C4  UNL     1      23.496  -1.356  24.467  1.00  0.00     0.113 A 
HETATM    5  F1  UNL     1      24.743  -1.813  24.236  1.00  0.00    -0.242 F 
HETATM    6  C5  UNL     1      22.761  -1.566  23.236  1.00  0.00     0.051 C 
HETATM    7  C6  UNL     1      22.628  -0.304  22.462  1.00  0.00     0.030 C 
HETATM    8  C7  UNL     1      21.269   0.256  22.758  1.00  0.00     0.200 C 
HETATM    9  N1  UNL     1      20.662   1.109  21.730  1.00  0.00    -0.063 N 
ATOM     10  H11 UNL     1      19.656   1.204  21.592  1.00  0.00     0.278 HD
ATOM     11  H12 UNL     1      20.695   0.908  20.732  1.00  0.00     0.278 HD
HETATM   12  C8  UNL     1      21.506   2.129  22.398  1.00  0.00     0.232 C 
HETATM   13  C9  UNL     1      21.135   1.343  23.652  1.00  0.00     0.091 C 
HETATM   14  C10 UNL     1      21.850   1.669  24.884  1.00  0.00     0.137 C 
HETATM   15  C12 UNL     1      22.844   0.737  25.449  1.00  0.00     0.037 C 
HETATM   16  C13 UNL     1      23.022   0.957  26.949  1.00  0.00     0.025 C 
HETATM   17  C14 UNL     1      24.199   1.193  24.937  1.00  0.00    -0.002 C 
HETATM   18 BR1  UNL     1      25.669   0.606  26.095  1.00  0.00    -0.055 Br
HETATM   19  C15 UNL     1      24.494   1.187  23.526  1.00  0.00    -0.004 C 
HETATM   20  C16 UNL     1      23.614   0.750  22.454  1.00  0.00     0.053 C 
HETATM   21  C17 UNL     1      22.857   1.954  21.837  1.00  0.00     0.161 C 
HETATM   22  C18 UNL     1      22.700   1.656  20.331  1.00  0.00     0.043 C 
HETATM   23  C19 UNL     1      22.338   3.007  19.765  1.00  0.00     0.030 C 
HETATM   24  C20 UNL     1      23.224   3.905  20.617  1.00  0.00     0.233 C 
HETATM   25  N2  UNL     1      23.653   3.127  21.723  1.00  0.00    -0.064 N 
ATOM     26  H21 UNL     1      24.648   2.909  21.673  1.00  0.00     0.278 HD
ATOM     27  H22 UNL     1      23.660   3.668  22.588  1.00  0.00     0.278 HD
ENDROOT
BRANCH  14  28
HETATM   28  O1  UNL     1      22.517   2.874  24.480  1.00  0.00    -0.383 OA
ATOM     29  H1  UNL     1      23.280   2.508  24.049  1.00  0.00     0.210 HD
ENDBRANCH  14  28
BRANCH  14  30
HETATM   30  C11 UNL     1      20.839   2.272  25.858  1.00  0.00     0.388 C 
HETATM   31  F2  UNL     1      19.731   2.687  25.048  1.00  0.00    -0.211 F 
HETATM   32  F3  UNL     1      21.167   3.442  26.445  1.00  0.00    -0.211 F 
ENDBRANCH  14  30
TORSDOF 2
ENDMDL
MODEL 3
REMARK VINA RESULT: -5.363922616      2.736      4.960
REMARK  2 active torsions:
REMARK  status: ('A' for Active; 'I' for Inactive)
REMARK    1  A    between atoms: C10_14  and  O1_15 
REMARK    2  A    between atoms: C10_14  and  C11_17 
ROOT
HETATM    1  C1  UNL     1      22.859   1.674  24.840  1.00  0.00     0.020 C 
HETATM    2  C2  UNL     1      21.785   1.999  23.824  1.00  0.00     0.010 A 
HETATM    3  C3  UNL     1      20.726   2.498  24.663  1.00  0.00     0.058 A 
HETATM    4  C4  UNL     1      21.179   3.208  23.466  1.00  0.00     0.113 A 
HETATM    5  F1  UNL     1      20.044   3.904  23.251  1.00  0.00    -0.242 F 
HETATM    6  C5  UNL     1      22.265   4.104  23.122  1.00  0.00     0.051 C 
HETATM    7  C6  UNL     1      22.824   3.790  21.781  1.00  0.00     0.030 C 
HETATM    8  C7  UNL     1      24.053   2.959  21.997  1.00  0.00     0.200 C 
HETATM    9  N1  UNL     1      25.087   3.018  20.958  1.00  0.00    -0.063 N 
ATOM     10  H11 UNL     1      26.081   2.875  21.137  1.00  0.00     0.278 HD
ATOM     11  H12 UNL     1      25.380   3.877  20.495  1.00  0.00     0.278 HD
HETATM   12  C8  UNL     1      24.202   2.002  20.337  1.00  0.00     0.232 C 
HETATM   13  C9  UNL     1      24.005   1.563  21.785  1.00  0.00     0.091 C 
HETATM   14  C10 UNL     1      22.952   0.585  22.051  1.00  0.00     0.137 C 
HETATM   15  C12 UNL     1      21.712   0.981  22.742  1.00  0.00     0.037 C 
HETATM   16  C13 UNL     1      21.049  -0.214  23.423  1.00  0.00     0.025 C 
HETATM   17  C14 UNL     1      20.694   1.284  21.657  1.00  0.00    -0.002 C 
HETATM   18 BR1  UNL     1      18.848   1.107  22.297  1.00  0.00    -0.055 Br
HETATM   19  C15 UNL     1      20.914   2.355  20.718  1.00  0.00    -0.004 C 
HETATM   20  C16 UNL     1      22.049   3.263  20.684  1.00  0.00     0.053 C 
HETATM   21  C17 UNL     1      23.124   2.764  19.684  1.00  0.00     0.161 C 
HETATM   22  C18 UNL     1      23.759   4.019  19.050  1.00  0.00     0.043 C 
HETATM   23  C19 UNL     1      24.468   3.454  17.843  1.00  0.00     0.030 C 
HETATM   24  C20 UNL     1      23.464   2.396  17.408  1.00  0.00     0.233 C 
HETATM   25  N2  UNL     1      22.578   2.199  18.498  1.00  0.00    -0.064 N 
ATOM     26  H21 UNL     1      21.644   2.558  18.300  1.00  0.00     0.278 HD
ATOM     27  H22 UNL     1      22.338   1.215  18.620  1.00  0.00     0.278 HD
ENDROOT
BRANCH  14  28
HETATM   28  O1  UNL     1      22.632   0.184  20.710  1.00  0.00    -0.383 OA
ATOM     29  H1  UNL     1      23.501  -0.010  20.381  1.00  0.00     0.210 HD
ENDBRANCH  14  28
BRANCH  14  30
HETATM   30  C11 UNL     1      23.628  -0.700  22.528  1.00  0.00     0.388 C 
HETATM   31  F2  UNL     1      24.791  -0.275  23.249  1.00  0.00    -0.211 F 
HETATM   32  F3  UNL     1      24.194  -1.487  21.588  1.00  0.00    -0.211 F 
ENDBRANCH  14  30
TORSDOF 2
ENDMDL
MODEL 4
REMARK VINA RESULT: -5.021618345      1.813      2.615
REMARK  2 active torsions:
REMARK  status: ('A' for Active; 'I' for Inactive)
REMARK    1  A    between atoms: C10_14  and  O1_15 
REMARK    2  A    between atoms: C10_14  and  C11_17 
ROOT
HETATM    1  C1  UNL     1      21.040  -1.295  23.327  1.00  0.00     0.020 C 
HETATM    2  C2  UNL     1      22.261  -0.492  23.723  1.00  0.00     0.010 A 
HETATM    3  C3  UNL     1      22.907  -1.378  24.656  1.00  0.00     0.058 A 
HETATM    4  C4  UNL     1      23.628  -0.736  23.555  1.00  0.00     0.113 A 
HETATM    5  F1  UNL     1      24.857  -0.804  24.105  1.00  0.00    -0.242 F 
HETATM    6  C5  UNL     1      23.813  -0.973  22.138  1.00  0.00     0.051 C 
HETATM    7  C6  UNL     1      23.770   0.295  21.365  1.00  0.00     0.030 C 
HETATM    8  C7  UNL     1      22.388   0.423  20.799  1.00  0.00     0.200 C 
HETATM    9  N1  UNL     1      22.242   1.206  19.567  1.00  0.00    -0.063 N 
ATOM     10  H11 UNL     1      21.514   1.043  18.872  1.00  0.00     0.278 HD
ATOM     11  H12 UNL     1      22.888   1.155  18.780  1.00  0.00     0.278 HD
HETATM   12  C8  UNL     1      22.218   2.320  20.546  1.00  0.00     0.232 C 
HETATM   13  C9  UNL     1      21.461   1.305  21.397  1.00  0.00     0.091 C 
HETATM   14  C10 UNL     1      21.225   1.648  22.798  1.00  0.00     0.137 C 
HETATM   15  C12 UNL     1      21.953   0.955  23.878  1.00  0.00     0.037 C 
HETATM   16  C13 UNL     1      21.183   1.016  25.195  1.00  0.00     0.025 C 
HETATM   17  C14 UNL     1      23.152   1.824  24.213  1.00  0.00    -0.002 C 
HETATM   18 BR1  UNL     1      23.813   1.510  26.033  1.00  0.00    -0.055 Br
HETATM   19  C15 UNL     1      24.173   2.083  23.230  1.00  0.00    -0.004 C 
HETATM   20  C16 UNL     1      24.224   1.568  21.871  1.00  0.00     0.053 C 
HETATM   21  C17 UNL     1      23.628   2.593  20.871  1.00  0.00     0.161 C 
HETATM   22  C18 UNL     1      24.440   2.463  19.565  1.00  0.00     0.043 C 
HETATM   23  C19 UNL     1      24.077   3.729  18.827  1.00  0.00     0.030 C 
HETATM   24  C20 UNL     1      24.018   4.713  19.987  1.00  0.00     0.233 C 
HETATM   25  N2  UNL     1      23.959   3.942  21.176  1.00  0.00    -0.064 N 
ATOM     26  H21 UNL     1      24.821   4.010  21.717  1.00  0.00     0.278 HD
ATOM     27  H22 UNL     1      23.319   4.346  21.860  1.00  0.00     0.278 HD
ENDROOT
BRANCH  14  28
HETATM   28  O1  UNL     1      21.609   3.031  22.790  1.00  0.00    -0.383 OA
ATOM     29  H1  UNL     1      20.766   3.441  22.944  1.00  0.00     0.210 HD
ENDBRANCH  14  28
BRANCH  14  30
HETATM   30  C11 UNL     1      19.718   1.822  22.983  1.00  0.00     0.388 C 
HETATM   31  F2  UNL     1      19.120   1.195  21.842  1.00  0.00    -0.211 F 
HETATM   32  F3  UNL     1      19.220   3.072  22.868  1.00  0.00    -0.211 F 
ENDBRANCH  14  30
TORSDOF 2
ENDMDL
MODEL 5
REMARK VINA RESULT: -4.820139790      1.564      1.962
REMARK  2 active torsions:
REMARK  status: ('A' for Active; 'I' for Inactive)
REMARK    1  A    between atoms: C10_14  and  O1_15 
REMARK    2  A    between atoms: C10_14  and  C11_17 
ROOT
HETATM    1  C1  UNL     1      22.668  -0.594  28.856  1.00  0.00     0.020 C 
HETATM    2  C2  UNL     1      23.816  -0.042  28.038  1.00  0.00     0.010 A 
HETATM    3  C3  UNL     1      24.957  -0.453  28.814  1.00  0.00     0.058 A 
HETATM    4  C4  UNL     1      24.870  -0.674  27.370  1.00  0.00     0.113 A 
HETATM    5  F1  UNL     1      26.195  -0.759  27.139  1.00  0.00    -0.242 F 
HETATM    6  C5  UNL     1      24.250  -1.644  26.490  1.00  0.00     0.051 C 
HETATM    7  C6  UNL     1      23.658  -0.991  25.293  1.00  0.00     0.030 C 
HETATM    8  C7  UNL     1      22.191  -0.826  25.558  1.00  0.00     0.200 C 
HETATM    9  N1  UNL     1      21.305  -0.780  24.391  1.00  0.00    -0.063 N 
ATOM     10  H11 UNL     1      20.332  -1.087  24.403  1.00  0.00     0.278 HD
ATOM     11  H12 UNL     1      21.399  -1.391  23.580  1.00  0.00     0.278 HD
HETATM   12  C8  UNL     1      21.725   0.642  24.410  1.00  0.00     0.232 C 
HETATM   13  C9  UNL     1      21.679   0.439  25.921  1.00  0.00     0.091 C 
HETATM   14  C10 UNL     1      22.238   1.500  26.757  1.00  0.00     0.137 C 
HETATM   15  C12 UNL     1      23.509   1.302  27.478  1.00  0.00     0.037 C 
HETATM   16  C13 UNL     1      23.609   2.224  28.692  1.00  0.00     0.025 C 
HETATM   17  C14 UNL     1      24.598   1.883  26.595  1.00  0.00    -0.002 C 
HETATM   18 BR1  UNL     1      26.193   2.392  27.617  1.00  0.00    -0.055 Br
HETATM   19  C15 UNL     1      24.861   1.331  25.290  1.00  0.00    -0.004 C 
HETATM   20  C16 UNL     1      24.191   0.198  24.672  1.00  0.00     0.053 C 
HETATM   21  C17 UNL     1      23.041   0.675  23.748  1.00  0.00     0.161 C 
HETATM   22  C18 UNL     1      22.988  -0.308  22.560  1.00  0.00     0.043 C 
HETATM   23  C19 UNL     1      22.153   0.442  21.551  1.00  0.00     0.030 C 
HETATM   24  C20 UNL     1      22.658   1.859  21.779  1.00  0.00     0.233 C 
HETATM   25  N2  UNL     1      23.352   1.854  23.016  1.00  0.00    -0.064 N 
ATOM     26  H21 UNL     1      24.357   1.969  22.889  1.00  0.00     0.278 HD
ATOM     27  H22 UNL     1      23.171   2.698  23.558  1.00  0.00     0.278 HD
ENDROOT
BRANCH  14  28
HETATM   28  O1  UNL     1      22.414   2.532  25.776  1.00  0.00    -0.383 OA
ATOM     29  H1  UNL     1      21.719   2.307  25.168  1.00  0.00     0.210 HD
ENDBRANCH  14  28
BRANCH  14  30
HETATM   30  C11 UNL     1      21.085   2.119  27.547  1.00  0.00     0.388 C 
HETATM   31  F2  UNL     1      20.210   1.029  27.861  1.00  0.00    -0.211 F 
HETATM   32  F3  UNL     1      20.240   2.930  26.876  1.00  0.00    -0.211 F 
ENDBRANCH  14  30
TORSDOF 2
ENDMDL
