MODEL 1
REMARK VINA RESULT: -6.851727507      0.000      0.000
REMARK  6 active torsions:
REMARK  status: ('A' for Active; 'I' for Inactive)
REMARK    1  A    between atoms: C2_2  and  O1_3 
REMARK    2  A    between atoms: C2_2  and  C3_5 
REMARK    3  A    between atoms: C5_7  and  O2_8 
REMARK    4  A    between atoms: C6_10  and  O3_11 
REMARK    5  A    between atoms: C6_10  and  O4_13 
REMARK    6  A    between atoms: C7_15  and  C8_17 
ROOT
HETATM    1  C3  UNL     1      -5.102   2.212  16.653  1.00  0.00     0.078 A 
HETATM    2  C4  UNL     1      -5.601   2.395  15.359  1.00  0.00     0.075 A 
HETATM    3  C5  UNL     1      -4.076   2.514  14.968  1.00  0.00     0.159 C 
HETATM    4  C6  UNL     1      -4.325   1.270  15.691  1.00  0.00     0.208 C 
HETATM    5  C7  UNL     1      -4.767   3.715  14.605  1.00  0.00     0.171 C 
HETATM    6  F1  UNL     1      -5.688   3.546  13.568  1.00  0.00    -0.236 F 
HETATM    7  C9  UNL     1      -5.432   3.608  16.006  1.00  0.00     0.100 A 
HETATM    8 CL1  UNL     1      -6.642   4.633  16.568  1.00  0.00    -0.114 Cl
ENDROOT
BRANCH   1   9
HETATM    9  C2  UNL     1      -5.962   1.680  17.715  1.00  0.00     0.130 C 
HETATM   10  C1  UNL     1      -7.323   1.366  17.164  1.00  0.00     0.040 C 
BRANCH   9  11
HETATM   11  O1  UNL     1      -5.380   0.569  18.290  1.00  0.00    -0.395 OA
ATOM     12  H1  UNL     1      -4.433   0.589  18.208  1.00  0.00     0.210 HD
ENDBRANCH   9  11
ENDBRANCH   1   9
BRANCH   4  13
HETATM   13  O3  UNL     1      -3.304   0.585  16.264  1.00  0.00    -0.362 OA
ATOM     14  H3  UNL     1      -2.832   0.006  15.677  1.00  0.00     0.213 HD
ENDBRANCH   4  13
BRANCH   4  15
HETATM   15  O4  UNL     1      -5.175   0.310  15.088  1.00  0.00    -0.362 OA
ATOM     16  H4  UNL     1      -5.553   0.630  14.277  1.00  0.00     0.213 HD
ENDBRANCH   4  15
BRANCH   3  17
HETATM   17  O2  UNL     1      -3.158   3.024  15.852  1.00  0.00    -0.380 OA
ATOM     18  H2  UNL     1      -2.239   3.089  15.619  1.00  0.00     0.211 HD
ENDBRANCH   3  17
BRANCH   5  19
HETATM   19  C8  UNL     1      -3.989   4.940  14.370  1.00  0.00     0.134 C 
HETATM   20 BR1  UNL     1      -4.860   5.938  12.930  1.00  0.00    -0.093 Br
ENDBRANCH   5  19
TORSDOF 6
ENDMDL
MODEL 2
REMARK VINA RESULT: -6.097417675      3.446      4.879
REMARK  6 active torsions:
REMARK  status: ('A' for Active; 'I' for Inactive)
REMARK    1  A    between atoms: C2_2  and  O1_3 
REMARK    2  A    between atoms: C2_2  and  C3_5 
REMARK    3  A    between atoms: C5_7  and  O2_8 
REMARK    4  A    between atoms: C6_10  and  O3_11 
REMARK    5  A    between atoms: C6_10  and  O4_13 
REMARK    6  A    between atoms: C7_15  and  C8_17 
ROOT
HETATM    1  C3  UNL     1      -3.962   3.253  12.206  1.00  0.00     0.078 A 
HETATM    2  C4  UNL     1      -3.544   2.562  13.349  1.00  0.00     0.075 A 
HETATM    3  C5  UNL     1      -5.090   2.344  13.580  1.00  0.00     0.159 C 
HETATM    4  C6  UNL     1      -4.701   1.885  12.250  1.00  0.00     0.208 C 
HETATM    5  C7  UNL     1      -4.523   3.038  14.697  1.00  0.00     0.171 C 
HETATM    6  F1  UNL     1      -3.642   2.264  15.455  1.00  0.00    -0.236 F 
HETATM    7  C9  UNL     1      -3.785   3.895  13.632  1.00  0.00     0.100 A 
HETATM    8 CL1  UNL     1      -2.642   5.079  13.984  1.00  0.00    -0.114 Cl
ENDROOT
BRANCH   1   9
HETATM    9  C2  UNL     1      -3.010   3.574  11.138  1.00  0.00     0.130 C 
HETATM   10  C1  UNL     1      -1.622   3.180  11.554  1.00  0.00     0.040 C 
BRANCH   9  11
HETATM   11  O1  UNL     1      -3.382   2.954   9.964  1.00  0.00    -0.395 OA
ATOM     12  H1  UNL     1      -4.013   3.474   9.479  1.00  0.00     0.210 HD
ENDBRANCH   9  11
ENDBRANCH   1   9
BRANCH   4  13
HETATM   13  O3  UNL     1      -5.630   1.708  11.278  1.00  0.00    -0.362 OA
ATOM     14  H3  UNL     1      -6.074   0.868  11.298  1.00  0.00     0.213 HD
ENDBRANCH   4  13
BRANCH   4  15
HETATM   15  O4  UNL     1      -3.801   0.794  12.161  1.00  0.00    -0.362 OA
ATOM     16  H4  UNL     1      -3.599   0.573  11.259  1.00  0.00     0.213 HD
ENDBRANCH   4  15
BRANCH   3  17
HETATM   17  O2  UNL     1      -6.006   3.277  13.159  1.00  0.00    -0.380 OA
ATOM     18  H2  UNL     1      -6.546   3.120  12.394  1.00  0.00     0.211 HD
ENDBRANCH   3  17
BRANCH   5  19
HETATM   19  C8  UNL     1      -5.414   3.784  15.598  1.00  0.00     0.134 C 
HETATM   20 BR1  UNL     1      -5.783   2.652  17.151  1.00  0.00    -0.093 Br
ENDBRANCH   5  19
TORSDOF 6
ENDMDL
MODEL 3
REMARK VINA RESULT: -5.832713207      3.559      5.182
REMARK  6 active torsions:
REMARK  status: ('A' for Active; 'I' for Inactive)
REMARK    1  A    between atoms: C2_2  and  O1_3 
REMARK    2  A    between atoms: C2_2  and  C3_5 
REMARK    3  A    between atoms: C5_7  and  O2_8 
REMARK    4  A    between atoms: C6_10  and  O3_11 
REMARK    5  A    between atoms: C6_10  and  O4_13 
REMARK    6  A    between atoms: C7_15  and  C8_17 
ROOT
HETATM    1  C3  UNL     1      -4.016   3.543  11.566  1.00  0.00     0.078 A 
HETATM    2  C4  UNL     1      -3.476   3.450  12.854  1.00  0.00     0.075 A 
HETATM    3  C5  UNL     1      -4.597   2.359  13.064  1.00  0.00     0.159 C 
HETATM    4  C6  UNL     1      -3.785   2.040  11.893  1.00  0.00     0.208 C 
HETATM    5  C7  UNL     1      -4.764   3.418  14.014  1.00  0.00     0.171 C 
HETATM    6  F1  UNL     1      -3.744   3.489  14.966  1.00  0.00    -0.236 F 
HETATM    7  C9  UNL     1      -4.511   4.369  12.811  1.00  0.00     0.100 A 
HETATM    8 CL1  UNL     1      -4.384   6.043  12.927  1.00  0.00    -0.114 Cl
ENDROOT
BRANCH   1   9
HETATM    9  C2  UNL     1      -3.274   4.215  10.493  1.00  0.00     0.130 C 
HETATM   10  C1  UNL     1      -1.910   4.607  10.982  1.00  0.00     0.040 C 
BRANCH   9  11
HETATM   11  O1  UNL     1      -3.200   3.401   9.382  1.00  0.00    -0.395 OA
ATOM     12  H1  UNL     1      -3.689   2.595   9.506  1.00  0.00     0.210 HD
ENDBRANCH   9  11
ENDBRANCH   1   9
BRANCH   4  13
HETATM   13  O3  UNL     1      -4.236   1.176  10.951  1.00  0.00    -0.362 OA
ATOM     14  H3  UNL     1      -3.662   1.067  10.201  1.00  0.00     0.213 HD
ENDBRANCH   4  13
BRANCH   4  15
HETATM   15  O4  UNL     1      -2.413   1.747  12.097  1.00  0.00    -0.362 OA
ATOM     16  H4  UNL     1      -2.027   1.316  11.343  1.00  0.00     0.213 HD
ENDBRANCH   4  15
BRANCH   3  17
HETATM   17  O2  UNL     1      -5.797   2.441  12.401  1.00  0.00    -0.380 OA
ATOM     18  H2  UNL     1      -6.619   2.438  12.877  1.00  0.00     0.211 HD
ENDBRANCH   3  17
BRANCH   5  19
HETATM   19  C8  UNL     1      -6.064   3.578  14.680  1.00  0.00     0.134 C 
HETATM   20 BR1  UNL     1      -5.828   3.143  16.572  1.00  0.00    -0.093 Br
ENDBRANCH   5  19
TORSDOF 6
ENDMDL
MODEL 4
REMARK VINA RESULT: -5.744030590      3.025      4.559
REMARK  6 active torsions:
REMARK  status: ('A' for Active; 'I' for Inactive)
REMARK    1  A    between atoms: C2_2  and  O1_3 
REMARK    2  A    between atoms: C2_2  and  C3_5 
REMARK    3  A    between atoms: C5_7  and  O2_8 
REMARK    4  A    between atoms: C6_10  and  O3_11 
REMARK    5  A    between atoms: C6_10  and  O4_13 
REMARK    6  A    between atoms: C7_15  and  C8_17 
ROOT
HETATM    1  C3  UNL     1      -4.335   4.160  13.214  1.00  0.00     0.078 A 
HETATM    2  C4  UNL     1      -3.859   3.522  14.365  1.00  0.00     0.075 A 
HETATM    3  C5  UNL     1      -5.249   2.774  14.322  1.00  0.00     0.159 C 
HETATM    4  C6  UNL     1      -4.549   2.629  13.049  1.00  0.00     0.208 C 
HETATM    5  C7  UNL     1      -5.115   3.484  15.559  1.00  0.00     0.171 C 
HETATM    6  F1  UNL     1      -4.130   2.966  16.403  1.00  0.00    -0.236 F 
HETATM    7  C9  UNL     1      -4.586   4.656  14.686  1.00  0.00     0.100 A 
HETATM    8 CL1  UNL     1      -3.984   6.104  15.297  1.00  0.00    -0.114 Cl
ENDROOT
BRANCH   1   9
HETATM    9  C2  UNL     1      -3.419   4.903  12.341  1.00  0.00     0.130 C 
HETATM   10  C1  UNL     1      -2.011   4.775  12.849  1.00  0.00     0.040 C 
BRANCH   9  11
HETATM   11  O1  UNL     1      -3.531   4.456  11.041  1.00  0.00    -0.395 OA
ATOM     12  H1  UNL     1      -3.353   5.150  10.417  1.00  0.00     0.210 HD
ENDBRANCH   9  11
ENDBRANCH   1   9
BRANCH   4  13
HETATM   13  O3  UNL     1      -5.219   2.265  11.927  1.00  0.00    -0.362 OA
ATOM     14  H3  UNL     1      -5.005   2.772  11.152  1.00  0.00     0.213 HD
ENDBRANCH   4  13
BRANCH   4  15
HETATM   15  O4  UNL     1      -3.322   1.919  13.043  1.00  0.00    -0.362 OA
ATOM     16  H4  UNL     1      -3.248   1.345  12.289  1.00  0.00     0.213 HD
ENDBRANCH   4  15
BRANCH   3  17
HETATM   17  O2  UNL     1      -6.367   3.390  13.813  1.00  0.00    -0.380 OA
ATOM     18  H2  UNL     1      -6.945   2.933  13.214  1.00  0.00     0.211 HD
ENDBRANCH   3  17
BRANCH   5  19
HETATM   19  C8  UNL     1      -6.322   3.779  16.344  1.00  0.00     0.134 C 
HETATM   20 BR1  UNL     1      -6.322   2.609  17.911  1.00  0.00    -0.093 Br
ENDBRANCH   5  19
TORSDOF 6
ENDMDL
MODEL 5
REMARK VINA RESULT: -5.441595639      3.061      3.774
REMARK  6 active torsions:
REMARK  status: ('A' for Active; 'I' for Inactive)
REMARK    1  A    between atoms: C2_2  and  O1_3 
REMARK    2  A    between atoms: C2_2  and  C3_5 
REMARK    3  A    between atoms: C5_7  and  O2_8 
REMARK    4  A    between atoms: C6_10  and  O3_11 
REMARK    5  A    between atoms: C6_10  and  O4_13 
REMARK    6  A    between atoms: C7_15  and  C8_17 
ROOT
HETATM    1  C3  UNL     1      -3.849   2.488  13.303  1.00  0.00     0.078 A 
HETATM    2  C4  UNL     1      -4.300   3.471  12.416  1.00  0.00     0.075 A 
HETATM    3  C5  UNL     1      -3.289   2.791  11.411  1.00  0.00     0.159 C 
HETATM    4  C6  UNL     1      -4.214   1.802  11.955  1.00  0.00     0.208 C 
HETATM    5  C7  UNL     1      -2.941   4.169  11.596  1.00  0.00     0.171 C 
HETATM    6  F1  UNL     1      -3.875   5.063  11.066  1.00  0.00    -0.236 F 
HETATM    7  C9  UNL     1      -3.179   3.898  13.107  1.00  0.00     0.100 A 
HETATM    8 CL1  UNL     1      -3.118   5.074  14.309  1.00  0.00    -0.114 Cl
ENDROOT
BRANCH   1   9
HETATM    9  C2  UNL     1      -4.592   2.198  14.534  1.00  0.00     0.130 C 
HETATM   10  C1  UNL     1      -5.842   3.029  14.587  1.00  0.00     0.040 C 
BRANCH   9  11
HETATM   11  O1  UNL     1      -4.875   0.850  14.615  1.00  0.00    -0.395 OA
ATOM     12  H1  UNL     1      -4.857   0.543  15.514  1.00  0.00     0.210 HD
ENDBRANCH   9  11
ENDBRANCH   1   9
BRANCH   4  13
HETATM   13  O3  UNL     1      -3.928   0.478  11.894  1.00  0.00    -0.362 OA
ATOM     14  H3  UNL     1      -3.602   0.178  11.054  1.00  0.00     0.213 HD
ENDBRANCH   4  13
BRANCH   4  15
HETATM   15  O4  UNL     1      -5.591   1.939  11.647  1.00  0.00    -0.362 OA
ATOM     16  H4  UNL     1      -5.791   1.632  10.770  1.00  0.00     0.213 HD
ENDBRANCH   4  15
BRANCH   3  17
HETATM   17  O2  UNL     1      -2.139   2.192  11.864  1.00  0.00    -0.380 OA
ATOM     18  H2  UNL     1      -1.480   2.691  12.332  1.00  0.00     0.211 HD
ENDBRANCH   3  17
BRANCH   5  19
HETATM   19  C8  UNL     1      -1.586   4.614  11.242  1.00  0.00     0.134 C 
HETATM   20 BR1  UNL     1      -1.670   6.522  10.822  1.00  0.00    -0.093 Br
ENDBRANCH   5  19
TORSDOF 6
ENDMDL
