MODEL 1
REMARK VINA RESULT: -9.756104583      0.000      0.000
REMARK  18 active torsions:
REMARK  status: ('A' for Active; 'I' for Inactive)
REMARK    1  A    between atoms: C2_2  and  C3_3 
REMARK    2  A    between atoms: C3_3  and  C4_4 
REMARK    3  A    between atoms: C4_4  and  C5_5 
REMARK    4  A    between atoms: C5_5  and  C6_6 
REMARK    5  A    between atoms: C6_6  and  N1_7 
REMARK       I    between atoms: N1_7  and  C7_9 
REMARK    6  A    between atoms: C7_9  and  C8_11 
REMARK    7  A    between atoms: N2_15  and  C12_16 
REMARK    8  A    between atoms: C12_16  and  O2_17 
REMARK    9  A    between atoms: C12_16  and  C13_19 
REMARK   10  A    between atoms: C13_19  and  C14_20 
REMARK   11  A    between atoms: C19_25  and  C20_26 
REMARK   12  A    between atoms: C20_26  and  O3_27 
REMARK   13  A    between atoms: C20_26  and  N3_29 
REMARK   14  A    between atoms: C24_33  and  C25_34 
REMARK       I    between atoms: N5_38  and  C27_39 
REMARK   15  A    between atoms: C27_39  and  C28_41 
REMARK       I    between atoms: C28_41  and  N6_43 
REMARK   16  A    between atoms: N6_43  and  C29_45 
REMARK   17  A    between atoms: C29_45  and  O7_46 
REMARK   18  A    between atoms: C29_45  and  C30_48 
ROOT
HETATM    1  C25 UNL     1      16.511 -22.241 -14.606  1.00  0.00     0.313 C 
HETATM    2  O4  UNL     1      17.212 -21.715 -15.495  1.00  0.00    -0.255 OA
HETATM    3  N4  UNL     1      16.977 -22.919 -13.509  1.00  0.00    -0.393 NA
HETATM    4  C26 UNL     1      17.430 -23.574 -12.453  1.00  0.00     0.233 C 
ENDROOT
BRANCH   1   5
HETATM    5  C24 UNL     1      15.022 -22.056 -14.848  1.00  0.00     0.193 C 
HETATM    6  N3  UNL     1      14.666 -20.632 -14.821  1.00  0.00    -0.349 N 
HETATM    7  C21 UNL     1      14.122 -20.369 -13.525  1.00  0.00     0.126 C 
HETATM    8  C22 UNL     1      13.318 -21.665 -13.278  1.00  0.00     0.022 C 
HETATM    9  C23 UNL     1      14.334 -22.690 -13.695  1.00  0.00     0.038 C 
BRANCH   6  10
HETATM   10  C20 UNL     1      14.858 -19.754 -15.877  1.00  0.00     0.138 C 
BRANCH  10  11
HETATM   11  C19 UNL     1      14.003 -19.254 -16.937  1.00  0.00     0.171 C 
HETATM   12  C10 UNL     1      14.333 -20.011 -18.180  1.00  0.00     0.060 C 
HETATM   13  C9  UNL     1      13.087 -20.643 -18.664  1.00  0.00     0.126 C 
HETATM   14  C11 UNL     1      14.809 -21.429 -18.025  1.00  0.00     0.134 C 
HETATM   15  C8  UNL     1      11.982 -20.025 -17.869  1.00  0.00     0.204 C 
HETATM   16  N2  UNL     1      13.523 -21.976 -18.354  1.00  0.00    -0.357 N 
HETATM   17  N5  UNL     1      12.600 -19.295 -16.791  1.00  0.00    -0.316 N 
HETATM   18  C27 UNL     1      11.867 -18.699 -15.733  1.00  0.00     0.313 C 
HETATM   19  O5  UNL     1      12.504 -17.944 -14.914  1.00  0.00    -0.262 OA
BRANCH  15  20
HETATM   20  C7  UNL     1      11.384 -19.012 -18.832  1.00  0.00     0.242 C 
HETATM   21  N1  UNL     1      10.670 -19.275 -19.986  1.00  0.00    -0.359 N 
ATOM     22  H1  UNL     1      10.493 -20.251 -20.225  1.00  0.00     0.162 HD
HETATM   23  O1  UNL     1      11.581 -17.784 -18.507  1.00  0.00    -0.271 OA
BRANCH  21  24
HETATM   24  C6  UNL     1      10.154 -18.253 -20.880  1.00  0.00     0.122 C 
BRANCH  24  25
HETATM   25  C5  UNL     1       8.786 -18.545 -21.417  1.00  0.00     0.020 C 
BRANCH  25  26
HETATM   26  C4  UNL     1       7.781 -17.680 -20.735  1.00  0.00     0.002 C 
BRANCH  26  27
HETATM   27  C3  UNL     1       7.091 -18.254 -19.559  1.00  0.00    -0.000 C 
BRANCH  27  28
HETATM   28  C2  UNL     1       7.726 -18.006 -18.226  1.00  0.00    -0.005 C 
HETATM   29  C1  UNL     1       8.227 -16.556 -18.226  1.00  0.00     0.005 C 
ENDBRANCH  27  28
ENDBRANCH  26  27
ENDBRANCH  25  26
ENDBRANCH  24  25
ENDBRANCH  21  24
ENDBRANCH  15  20
BRANCH  18  30
HETATM   30  C28 UNL     1      10.445 -18.838 -15.439  1.00  0.00     0.315 C 
HETATM   31  O6  UNL     1       9.941 -19.944 -15.604  1.00  0.00    -0.262 OA
HETATM   32  N6  UNL     1       9.671 -17.751 -14.984  1.00  0.00    -0.303 N 
ATOM     33  H6  UNL     1      10.186 -16.874 -14.897  1.00  0.00     0.171 HD
BRANCH  32  34
HETATM   34  C29 UNL     1       8.340 -17.666 -14.636  1.00  0.00     0.123 C 
BRANCH  34  35
HETATM   35  O7  UNL     1       7.800 -18.860 -14.365  1.00  0.00    -0.349 OA
ATOM     36  H7  UNL     1       7.427 -18.904 -13.492  1.00  0.00     0.219 HD
ENDBRANCH  34  35
BRANCH  34  37
HETATM   37  C30 UNL     1       7.436 -16.534 -14.517  1.00  0.00     0.067 C 
HETATM   38  C31 UNL     1       8.000 -15.174 -14.691  1.00  0.00     0.040 C 
HETATM   39  C32 UNL     1       6.868 -14.399 -15.287  1.00  0.00    -0.030 C 
HETATM   40  C33 UNL     1       5.867 -15.184 -15.628  1.00  0.00    -0.030 C 
HETATM   41  C34 UNL     1       6.158 -16.611 -15.323  1.00  0.00     0.040 C 
ENDBRANCH  34  37
ENDBRANCH  32  34
ENDBRANCH  18  30
BRANCH  16  42
HETATM   42  C12 UNL     1      12.914 -23.245 -18.366  1.00  0.00     0.114 C 
BRANCH  42  43
HETATM   43  O2  UNL     1      11.605 -23.241 -18.235  1.00  0.00    -0.349 OA
ATOM     44  H2  UNL     1      11.138 -22.703 -18.863  1.00  0.00     0.219 HD
ENDBRANCH  42  43
BRANCH  42  45
HETATM   45  C13 UNL     1      13.506 -24.560 -18.499  1.00  0.00     0.088 C 
BRANCH  45  46
HETATM   46  C14 UNL     1      14.295 -24.765 -19.757  1.00  0.00    -0.007 C 
HETATM   47  C15 UNL     1      14.011 -23.615 -20.749  1.00  0.00     0.005 C 
HETATM   48  C16 UNL     1      15.089 -23.865 -21.781  1.00  0.00     0.000 C 
HETATM   49  C17 UNL     1      16.261 -24.380 -21.012  1.00  0.00     0.000 C 
HETATM   50  C18 UNL     1      15.783 -24.557 -19.566  1.00  0.00     0.005 C 
ENDBRANCH  45  46
ENDBRANCH  42  45
ENDBRANCH  16  42
ENDBRANCH  10  11
BRANCH  10  51
HETATM   51  O3  UNL     1      16.075 -19.265 -15.939  1.00  0.00    -0.348 OA
ATOM     52  H3  UNL     1      16.722 -19.848 -15.560  1.00  0.00     0.219 HD
ENDBRANCH  10  51
ENDBRANCH   6  10
ENDBRANCH   1   5
TORSDOF 17
ENDMDL
MODEL 2
REMARK VINA RESULT: -9.286003669      0.908      1.324
REMARK  18 active torsions:
REMARK  status: ('A' for Active; 'I' for Inactive)
REMARK    1  A    between atoms: C2_2  and  C3_3 
REMARK    2  A    between atoms: C3_3  and  C4_4 
REMARK    3  A    between atoms: C4_4  and  C5_5 
REMARK    4  A    between atoms: C5_5  and  C6_6 
REMARK    5  A    between atoms: C6_6  and  N1_7 
REMARK       I    between atoms: N1_7  and  C7_9 
REMARK    6  A    between atoms: C7_9  and  C8_11 
REMARK    7  A    between atoms: N2_15  and  C12_16 
REMARK    8  A    between atoms: C12_16  and  O2_17 
REMARK    9  A    between atoms: C12_16  and  C13_19 
REMARK   10  A    between atoms: C13_19  and  C14_20 
REMARK   11  A    between atoms: C19_25  and  C20_26 
REMARK   12  A    between atoms: C20_26  and  O3_27 
REMARK   13  A    between atoms: C20_26  and  N3_29 
REMARK   14  A    between atoms: C24_33  and  C25_34 
REMARK       I    between atoms: N5_38  and  C27_39 
REMARK   15  A    between atoms: C27_39  and  C28_41 
REMARK       I    between atoms: C28_41  and  N6_43 
REMARK   16  A    between atoms: N6_43  and  C29_45 
REMARK   17  A    between atoms: C29_45  and  O7_46 
REMARK   18  A    between atoms: C29_45  and  C30_48 
ROOT
HETATM    1  C25 UNL     1      16.197 -22.311 -14.850  1.00  0.00     0.313 C 
HETATM    2  O4  UNL     1      16.651 -22.229 -13.690  1.00  0.00    -0.255 OA
HETATM    3  N4  UNL     1      16.903 -22.678 -15.967  1.00  0.00    -0.393 NA
HETATM    4  C26 UNL     1      17.587 -23.033 -17.042  1.00  0.00     0.233 C 
ENDROOT
BRANCH   1   5
HETATM    5  C24 UNL     1      14.722 -21.953 -14.928  1.00  0.00     0.193 C 
HETATM    6  N3  UNL     1      14.537 -20.499 -14.859  1.00  0.00    -0.349 N 
HETATM    7  C21 UNL     1      14.171 -20.194 -13.510  1.00  0.00     0.126 C 
HETATM    8  C22 UNL     1      13.255 -21.394 -13.181  1.00  0.00     0.022 C 
HETATM    9  C23 UNL     1      14.095 -22.522 -13.708  1.00  0.00     0.038 C 
BRANCH   6  10
HETATM   10  C20 UNL     1      14.714 -19.633 -15.928  1.00  0.00     0.138 C 
BRANCH  10  11
HETATM   11  C19 UNL     1      13.838 -19.127 -16.967  1.00  0.00     0.171 C 
HETATM   12  C10 UNL     1      14.158 -19.860 -18.227  1.00  0.00     0.060 C 
HETATM   13  C9  UNL     1      12.913 -20.501 -18.703  1.00  0.00     0.126 C 
HETATM   14  C11 UNL     1      14.654 -21.275 -18.101  1.00  0.00     0.134 C 
HETATM   15  C8  UNL     1      11.813 -19.909 -17.882  1.00  0.00     0.204 C 
HETATM   16  N2  UNL     1      13.369 -21.833 -18.420  1.00  0.00    -0.357 N 
HETATM   17  N5  UNL     1      12.437 -19.188 -16.801  1.00  0.00    -0.316 N 
HETATM   18  C27 UNL     1      11.712 -18.617 -15.724  1.00  0.00     0.313 C 
HETATM   19  O5  UNL     1      12.352 -17.867 -14.902  1.00  0.00    -0.262 OA
BRANCH  15  20
HETATM   20  C7  UNL     1      11.188 -18.888 -18.820  1.00  0.00     0.242 C 
HETATM   21  N1  UNL     1      10.460 -19.142 -19.967  1.00  0.00    -0.359 N 
ATOM     22  H1  UNL     1      10.292 -20.116 -20.219  1.00  0.00     0.162 HD
HETATM   23  O1  UNL     1      11.375 -17.664 -18.479  1.00  0.00    -0.271 OA
BRANCH  21  24
HETATM   24  C6  UNL     1       9.919 -18.114 -20.838  1.00  0.00     0.122 C 
BRANCH  24  25
HETATM   25  C5  UNL     1       8.423 -18.027 -20.824  1.00  0.00     0.020 C 
BRANCH  25  26
HETATM   26  C4  UNL     1       7.978 -17.178 -19.683  1.00  0.00     0.002 C 
BRANCH  26  27
HETATM   27  C3  UNL     1       6.863 -17.694 -18.859  1.00  0.00    -0.000 C 
BRANCH  27  28
HETATM   28  C2  UNL     1       5.755 -18.383 -19.593  1.00  0.00    -0.005 C 
HETATM   29  C1  UNL     1       4.440 -17.959 -18.928  1.00  0.00     0.005 C 
ENDBRANCH  27  28
ENDBRANCH  26  27
ENDBRANCH  25  26
ENDBRANCH  24  25
ENDBRANCH  21  24
ENDBRANCH  15  20
BRANCH  18  30
HETATM   30  C28 UNL     1      10.297 -18.779 -15.411  1.00  0.00     0.315 C 
HETATM   31  O6  UNL     1       9.846 -19.920 -15.415  1.00  0.00    -0.262 OA
HETATM   32  N6  UNL     1       9.471 -17.675 -15.117  1.00  0.00    -0.303 N 
ATOM     33  H6  UNL     1       9.944 -16.772 -15.158  1.00  0.00     0.171 HD
BRANCH  32  34
HETATM   34  C29 UNL     1       8.135 -17.603 -14.784  1.00  0.00     0.123 C 
BRANCH  34  35
HETATM   35  O7  UNL     1       7.657 -18.762 -14.315  1.00  0.00    -0.349 OA
ATOM     36  H7  UNL     1       6.907 -19.074 -14.806  1.00  0.00     0.219 HD
ENDBRANCH  34  35
BRANCH  34  37
HETATM   37  C30 UNL     1       7.172 -16.516 -14.852  1.00  0.00     0.067 C 
HETATM   38  C31 UNL     1       7.657 -15.187 -15.296  1.00  0.00     0.040 C 
HETATM   39  C32 UNL     1       6.473 -14.597 -15.993  1.00  0.00    -0.030 C 
HETATM   40  C33 UNL     1       5.510 -15.482 -16.150  1.00  0.00    -0.030 C 
HETATM   41  C34 UNL     1       5.886 -16.809 -15.591  1.00  0.00     0.040 C 
ENDBRANCH  34  37
ENDBRANCH  32  34
ENDBRANCH  18  30
BRANCH  16  42
HETATM   42  C12 UNL     1      12.777 -23.109 -18.443  1.00  0.00     0.114 C 
BRANCH  42  43
HETATM   43  O2  UNL     1      11.582 -23.182 -17.897  1.00  0.00    -0.349 OA
ATOM     44  H2  UNL     1      10.920 -23.607 -18.429  1.00  0.00     0.219 HD
ENDBRANCH  42  43
BRANCH  42  45
HETATM   45  C13 UNL     1      13.278 -24.359 -18.974  1.00  0.00     0.088 C 
BRANCH  45  46
HETATM   46  C14 UNL     1      14.658 -24.283 -19.553  1.00  0.00    -0.007 C 
HETATM   47  C15 UNL     1      15.549 -25.384 -18.935  1.00  0.00     0.005 C 
HETATM   48  C16 UNL     1      16.758 -25.306 -19.841  1.00  0.00     0.000 C 
HETATM   49  C17 UNL     1      16.218 -24.968 -21.193  1.00  0.00     0.000 C 
HETATM   50  C18 UNL     1      14.718 -24.712 -21.005  1.00  0.00     0.005 C 
ENDBRANCH  45  46
ENDBRANCH  42  45
ENDBRANCH  16  42
ENDBRANCH  10  11
BRANCH  10  51
HETATM   51  O3  UNL     1      15.937 -19.165 -16.029  1.00  0.00    -0.348 OA
ATOM     52  H3  UNL     1      15.985 -18.384 -16.566  1.00  0.00     0.219 HD
ENDBRANCH  10  51
ENDBRANCH   6  10
ENDBRANCH   1   5
TORSDOF 17
ENDMDL
MODEL 3
REMARK VINA RESULT: -8.574482817      2.663      4.106
REMARK  18 active torsions:
REMARK  status: ('A' for Active; 'I' for Inactive)
REMARK    1  A    between atoms: C2_2  and  C3_3 
REMARK    2  A    between atoms: C3_3  and  C4_4 
REMARK    3  A    between atoms: C4_4  and  C5_5 
REMARK    4  A    between atoms: C5_5  and  C6_6 
REMARK    5  A    between atoms: C6_6  and  N1_7 
REMARK       I    between atoms: N1_7  and  C7_9 
REMARK    6  A    between atoms: C7_9  and  C8_11 
REMARK    7  A    between atoms: N2_15  and  C12_16 
REMARK    8  A    between atoms: C12_16  and  O2_17 
REMARK    9  A    between atoms: C12_16  and  C13_19 
REMARK   10  A    between atoms: C13_19  and  C14_20 
REMARK   11  A    between atoms: C19_25  and  C20_26 
REMARK   12  A    between atoms: C20_26  and  O3_27 
REMARK   13  A    between atoms: C20_26  and  N3_29 
REMARK   14  A    between atoms: C24_33  and  C25_34 
REMARK       I    between atoms: N5_38  and  C27_39 
REMARK   15  A    between atoms: C27_39  and  C28_41 
REMARK       I    between atoms: C28_41  and  N6_43 
REMARK   16  A    between atoms: N6_43  and  C29_45 
REMARK   17  A    between atoms: C29_45  and  O7_46 
REMARK   18  A    between atoms: C29_45  and  C30_48 
ROOT
HETATM    1  C25 UNL     1      13.002 -19.462 -14.724  1.00  0.00     0.313 C 
HETATM    2  O4  UNL     1      13.777 -18.735 -15.380  1.00  0.00    -0.255 OA
HETATM    3  N4  UNL     1      13.341 -20.626 -14.082  1.00  0.00    -0.393 NA
HETATM    4  C26 UNL     1      13.671 -21.748 -13.464  1.00  0.00     0.233 C 
ENDROOT
BRANCH   1   5
HETATM    5  C24 UNL     1      11.581 -18.924 -14.690  1.00  0.00     0.193 C 
HETATM    6  N3  UNL     1      11.529 -17.566 -15.245  1.00  0.00    -0.349 N 
HETATM    7  C21 UNL     1      11.512 -16.668 -14.132  1.00  0.00     0.126 C 
HETATM    8  C22 UNL     1      10.610 -17.444 -13.146  1.00  0.00     0.022 C 
HETATM    9  C23 UNL     1      11.216 -18.814 -13.255  1.00  0.00     0.038 C 
BRANCH   6  10
HETATM   10  C20 UNL     1      11.516 -17.270 -16.600  1.00  0.00     0.138 C 
BRANCH  10  11
HETATM   11  C19 UNL     1      10.516 -17.384 -17.644  1.00  0.00     0.171 C 
HETATM   12  C10 UNL     1      10.992 -18.408 -18.618  1.00  0.00     0.060 C 
HETATM   13  C9  UNL     1       9.951 -19.454 -18.716  1.00  0.00     0.126 C 
HETATM   14  C11 UNL     1      11.846 -19.528 -18.089  1.00  0.00     0.134 C 
HETATM   15  C8  UNL     1       8.751 -18.898 -18.020  1.00  0.00     0.204 C 
HETATM   16  N2  UNL     1      10.749 -20.453 -18.062  1.00  0.00    -0.357 N 
HETATM   17  N5  UNL     1       9.185 -17.719 -17.313  1.00  0.00    -0.316 N 
HETATM   18  C27 UNL     1       8.358 -17.002 -16.411  1.00  0.00     0.313 C 
HETATM   19  O5  UNL     1       8.794 -15.883 -15.959  1.00  0.00    -0.262 OA
BRANCH  15  20
HETATM   20  C7  UNL     1       7.859 -18.449 -19.167  1.00  0.00     0.242 C 
HETATM   21  N1  UNL     1       6.483 -18.552 -19.245  1.00  0.00    -0.359 N 
ATOM     22  H1  UNL     1       5.988 -18.950 -18.447  1.00  0.00     0.162 HD
HETATM   23  O1  UNL     1       8.485 -17.919 -20.155  1.00  0.00    -0.271 OA
BRANCH  21  24
HETATM   24  C6  UNL     1       5.695 -18.131 -20.390  1.00  0.00     0.122 C 
BRANCH  24  25
HETATM   25  C5  UNL     1       4.232 -18.432 -20.269  1.00  0.00     0.020 C 
BRANCH  25  26
HETATM   26  C4  UNL     1       3.471 -17.651 -21.286  1.00  0.00     0.002 C 
BRANCH  26  27
HETATM   27  C3  UNL     1       2.490 -16.668 -20.779  1.00  0.00    -0.000 C 
BRANCH  27  28
HETATM   28  C2  UNL     1       2.368 -16.553 -19.291  1.00  0.00    -0.005 C 
HETATM   29  C1  UNL     1       2.519 -15.068 -18.938  1.00  0.00     0.005 C 
ENDBRANCH  27  28
ENDBRANCH  26  27
ENDBRANCH  25  26
ENDBRANCH  24  25
ENDBRANCH  21  24
ENDBRANCH  15  20
BRANCH  18  30
HETATM   30  C28 UNL     1       7.042 -17.381 -15.908  1.00  0.00     0.315 C 
HETATM   31  O6  UNL     1       7.004 -18.063 -14.889  1.00  0.00    -0.262 OA
HETATM   32  N6  UNL     1       5.856 -16.986 -16.560  1.00  0.00    -0.303 N 
ATOM     33  H6  UNL     1       6.004 -16.435 -17.406  1.00  0.00     0.171 HD
BRANCH  32  34
HETATM   34  C29 UNL     1       4.531 -17.215 -16.253  1.00  0.00     0.123 C 
BRANCH  34  35
HETATM   35  O7  UNL     1       4.046 -18.312 -16.845  1.00  0.00    -0.349 OA
ATOM     36  H7  UNL     1       3.699 -18.941 -16.224  1.00  0.00     0.219 HD
ENDBRANCH  34  35
BRANCH  34  37
HETATM   37  C30 UNL     1       3.587 -16.490 -15.419  1.00  0.00     0.067 C 
HETATM   38  C31 UNL     1       3.647 -15.008 -15.429  1.00  0.00     0.040 C 
HETATM   39  C32 UNL     1       2.228 -14.598 -15.200  1.00  0.00    -0.030 C 
HETATM   40  C33 UNL     1       1.408 -15.627 -15.264  1.00  0.00    -0.030 C 
HETATM   41  C34 UNL     1       2.135 -16.894 -15.547  1.00  0.00     0.040 C 
ENDBRANCH  34  37
ENDBRANCH  32  34
ENDBRANCH  18  30
BRANCH  16  42
HETATM   42  C12 UNL     1      10.514 -21.761 -17.597  1.00  0.00     0.114 C 
BRANCH  42  43
HETATM   43  O2  UNL     1       9.701 -21.851 -16.566  1.00  0.00    -0.349 OA
ATOM     44  H2  UNL     1       9.995 -22.426 -15.869  1.00  0.00     0.219 HD
ENDBRANCH  42  43
BRANCH  42  45
HETATM   45  C13 UNL     1      11.028 -23.026 -18.076  1.00  0.00     0.088 C 
BRANCH  45  46
HETATM   46  C14 UNL     1      12.443 -22.979 -18.570  1.00  0.00    -0.007 C 
HETATM   47  C15 UNL     1      13.067 -24.392 -18.514  1.00  0.00     0.005 C 
HETATM   48  C16 UNL     1      14.341 -24.165 -19.298  1.00  0.00     0.000 C 
HETATM   49  C17 UNL     1      13.984 -23.169 -20.353  1.00  0.00     0.000 C 
HETATM   50  C18 UNL     1      12.544 -22.730 -20.061  1.00  0.00     0.005 C 
ENDBRANCH  45  46
ENDBRANCH  42  45
ENDBRANCH  16  42
ENDBRANCH  10  11
BRANCH  10  51
HETATM   51  O3  UNL     1      12.652 -16.782 -17.042  1.00  0.00    -0.348 OA
ATOM     52  H3  UNL     1      13.049 -16.172 -16.431  1.00  0.00     0.219 HD
ENDBRANCH  10  51
ENDBRANCH   6  10
ENDBRANCH   1   5
TORSDOF 17
ENDMDL
MODEL 4
REMARK VINA RESULT: -8.493964974      4.385      9.864
REMARK  18 active torsions:
REMARK  status: ('A' for Active; 'I' for Inactive)
REMARK    1  A    between atoms: C2_2  and  C3_3 
REMARK    2  A    between atoms: C3_3  and  C4_4 
REMARK    3  A    between atoms: C4_4  and  C5_5 
REMARK    4  A    between atoms: C5_5  and  C6_6 
REMARK    5  A    between atoms: C6_6  and  N1_7 
REMARK       I    between atoms: N1_7  and  C7_9 
REMARK    6  A    between atoms: C7_9  and  C8_11 
REMARK    7  A    between atoms: N2_15  and  C12_16 
REMARK    8  A    between atoms: C12_16  and  O2_17 
REMARK    9  A    between atoms: C12_16  and  C13_19 
REMARK   10  A    between atoms: C13_19  and  C14_20 
REMARK   11  A    between atoms: C19_25  and  C20_26 
REMARK   12  A    between atoms: C20_26  and  O3_27 
REMARK   13  A    between atoms: C20_26  and  N3_29 
REMARK   14  A    between atoms: C24_33  and  C25_34 
REMARK       I    between atoms: N5_38  and  C27_39 
REMARK   15  A    between atoms: C27_39  and  C28_41 
REMARK       I    between atoms: C28_41  and  N6_43 
REMARK   16  A    between atoms: N6_43  and  C29_45 
REMARK   17  A    between atoms: C29_45  and  O7_46 
REMARK   18  A    between atoms: C29_45  and  C30_48 
ROOT
HETATM    1  C25 UNL     1       1.695 -14.191 -15.716  1.00  0.00     0.313 C 
HETATM    2  O4  UNL     1       0.957 -13.443 -15.042  1.00  0.00    -0.255 OA
HETATM    3  N4  UNL     1       1.565 -15.550 -15.840  1.00  0.00    -0.393 NA
HETATM    4  C26 UNL     1       1.436 -16.862 -15.958  1.00  0.00     0.233 C 
ENDROOT
BRANCH   1   5
HETATM    5  C24 UNL     1       2.806 -13.435 -16.425  1.00  0.00     0.193 C 
HETATM    6  N3  UNL     1       4.110 -13.752 -15.831  1.00  0.00    -0.349 N 
HETATM    7  C21 UNL     1       4.431 -12.675 -14.945  1.00  0.00     0.126 C 
HETATM    8  C22 UNL     1       3.902 -11.469 -15.751  1.00  0.00     0.022 C 
HETATM    9  C23 UNL     1       2.556 -11.994 -16.162  1.00  0.00     0.038 C 
BRANCH   6  10
HETATM   10  C20 UNL     1       4.839 -14.900 -16.101  1.00  0.00     0.138 C 
BRANCH  10  11
HETATM   11  C19 UNL     1       5.788 -15.268 -17.134  1.00  0.00     0.171 C 
HETATM   12  C10 UNL     1       7.159 -15.111 -16.567  1.00  0.00     0.060 C 
HETATM   13  C9  UNL     1       7.848 -16.413 -16.691  1.00  0.00     0.126 C 
HETATM   14  C11 UNL     1       7.331 -15.338 -15.089  1.00  0.00     0.134 C 
HETATM   15  C8  UNL     1       6.986 -17.245 -17.585  1.00  0.00     0.204 C 
HETATM   16  N2  UNL     1       7.850 -16.663 -15.277  1.00  0.00    -0.357 N 
HETATM   17  N5  UNL     1       5.731 -16.550 -17.722  1.00  0.00    -0.316 N 
HETATM   18  C27 UNL     1       4.600 -17.104 -18.374  1.00  0.00     0.313 C 
HETATM   19  O5  UNL     1       3.588 -16.339 -18.573  1.00  0.00    -0.262 OA
BRANCH  15  20
HETATM   20  C7  UNL     1       7.703 -17.176 -18.925  1.00  0.00     0.242 C 
HETATM   21  N1  UNL     1       8.205 -18.233 -19.660  1.00  0.00    -0.359 N 
ATOM     22  H1  UNL     1       8.071 -19.175 -19.292  1.00  0.00     0.162 HD
HETATM   23  O1  UNL     1       7.838 -15.989 -19.398  1.00  0.00    -0.271 OA
BRANCH  21  24
HETATM   24  C6  UNL     1       8.910 -18.091 -20.921  1.00  0.00     0.122 C 
BRANCH  24  25
HETATM   25  C5  UNL     1      10.289 -18.679 -20.920  1.00  0.00     0.020 C 
BRANCH  25  26
HETATM   26  C4  UNL     1      10.595 -19.244 -19.575  1.00  0.00     0.002 C 
BRANCH  26  27
HETATM   27  C3  UNL     1      11.183 -20.600 -19.537  1.00  0.00    -0.000 C 
BRANCH  27  28
HETATM   28  C2  UNL     1      10.280 -21.706 -19.087  1.00  0.00    -0.005 C 
HETATM   29  C1  UNL     1      11.019 -22.472 -17.983  1.00  0.00     0.005 C 
ENDBRANCH  27  28
ENDBRANCH  26  27
ENDBRANCH  25  26
ENDBRANCH  24  25
ENDBRANCH  21  24
ENDBRANCH  15  20
BRANCH  18  30
HETATM   30  C28 UNL     1       4.424 -18.469 -18.857  1.00  0.00     0.315 C 
HETATM   31  O6  UNL     1       5.305 -18.931 -19.575  1.00  0.00    -0.262 OA
HETATM   32  N6  UNL     1       3.289 -19.235 -18.519  1.00  0.00    -0.303 N 
ATOM     33  H6  UNL     1       2.612 -18.748 -17.931  1.00  0.00     0.171 HD
BRANCH  32  34
HETATM   34  C29 UNL     1       2.935 -20.527 -18.846  1.00  0.00     0.123 C 
BRANCH  34  35
HETATM   35  O7  UNL     1       3.820 -21.431 -18.408  1.00  0.00    -0.349 OA
ATOM     36  H7  UNL     1       3.468 -22.313 -18.401  1.00  0.00     0.219 HD
ENDBRANCH  34  35
BRANCH  34  37
HETATM   37  C30 UNL     1       1.798 -21.071 -19.569  1.00  0.00     0.067 C 
HETATM   38  C31 UNL     1       1.594 -22.539 -19.540  1.00  0.00     0.040 C 
HETATM   39  C32 UNL     1       0.108 -22.689 -19.619  1.00  0.00    -0.030 C 
HETATM   40  C33 UNL     1      -0.505 -21.529 -19.491  1.00  0.00    -0.030 C 
HETATM   41  C34 UNL     1       0.462 -20.413 -19.303  1.00  0.00     0.040 C 
ENDBRANCH  34  37
ENDBRANCH  32  34
ENDBRANCH  18  30
BRANCH  16  42
HETATM   42  C12 UNL     1       8.204 -17.757 -14.464  1.00  0.00     0.114 C 
BRANCH  42  43
HETATM   43  O2  UNL     1       7.286 -18.693 -14.354  1.00  0.00    -0.349 OA
ATOM     44  H2  UNL     1       7.496 -19.517 -14.775  1.00  0.00     0.219 HD
ENDBRANCH  42  43
BRANCH  42  45
HETATM   45  C13 UNL     1       9.423 -18.014 -13.728  1.00  0.00     0.088 C 
BRANCH  45  46
HETATM   46  C14 UNL     1      10.652 -18.139 -14.577  1.00  0.00    -0.007 C 
HETATM   47  C15 UNL     1      11.802 -18.755 -13.749  1.00  0.00     0.005 C 
HETATM   48  C16 UNL     1      12.807 -19.045 -14.842  1.00  0.00     0.000 C 
HETATM   49  C17 UNL     1      11.995 -19.426 -16.036  1.00  0.00     0.000 C 
HETATM   50  C18 UNL     1      10.528 -19.204 -15.647  1.00  0.00     0.005 C 
ENDBRANCH  45  46
ENDBRANCH  42  45
ENDBRANCH  16  42
ENDBRANCH  10  11
BRANCH  10  51
HETATM   51  O3  UNL     1       4.629 -15.871 -15.242  1.00  0.00    -0.348 OA
ATOM     52  H3  UNL     1       4.037 -15.617 -14.543  1.00  0.00     0.219 HD
ENDBRANCH  10  51
ENDBRANCH   6  10
ENDBRANCH   1   5
TORSDOF 17
ENDMDL
MODEL 5
REMARK VINA RESULT: -8.427046235      2.717      4.219
REMARK  18 active torsions:
REMARK  status: ('A' for Active; 'I' for Inactive)
REMARK    1  A    between atoms: C2_2  and  C3_3 
REMARK    2  A    between atoms: C3_3  and  C4_4 
REMARK    3  A    between atoms: C4_4  and  C5_5 
REMARK    4  A    between atoms: C5_5  and  C6_6 
REMARK    5  A    between atoms: C6_6  and  N1_7 
REMARK       I    between atoms: N1_7  and  C7_9 
REMARK    6  A    between atoms: C7_9  and  C8_11 
REMARK    7  A    between atoms: N2_15  and  C12_16 
REMARK    8  A    between atoms: C12_16  and  O2_17 
REMARK    9  A    between atoms: C12_16  and  C13_19 
REMARK   10  A    between atoms: C13_19  and  C14_20 
REMARK   11  A    between atoms: C19_25  and  C20_26 
REMARK   12  A    between atoms: C20_26  and  O3_27 
REMARK   13  A    between atoms: C20_26  and  N3_29 
REMARK   14  A    between atoms: C24_33  and  C25_34 
REMARK       I    between atoms: N5_38  and  C27_39 
REMARK   15  A    between atoms: C27_39  and  C28_41 
REMARK       I    between atoms: C28_41  and  N6_43 
REMARK   16  A    between atoms: N6_43  and  C29_45 
REMARK   17  A    between atoms: C29_45  and  O7_46 
REMARK   18  A    between atoms: C29_45  and  C30_48 
ROOT
HETATM    1  C25 UNL     1      13.005 -19.431 -14.744  1.00  0.00     0.313 C 
HETATM    2  O4  UNL     1      13.786 -18.710 -15.398  1.00  0.00    -0.255 OA
HETATM    3  N4  UNL     1      13.331 -20.603 -14.111  1.00  0.00    -0.393 NA
HETATM    4  C26 UNL     1      13.649 -21.733 -13.502  1.00  0.00     0.233 C 
ENDROOT
BRANCH   1   5
HETATM    5  C24 UNL     1      11.591 -18.876 -14.702  1.00  0.00     0.193 C 
HETATM    6  N3  UNL     1      11.545 -17.531 -15.288  1.00  0.00    -0.349 N 
HETATM    7  C21 UNL     1      11.556 -16.606 -14.197  1.00  0.00     0.126 C 
HETATM    8  C22 UNL     1      10.661 -17.347 -13.179  1.00  0.00     0.022 C 
HETATM    9  C23 UNL     1      11.249 -18.727 -13.264  1.00  0.00     0.038 C 
BRANCH   6  10
HETATM   10  C20 UNL     1      11.514 -17.268 -16.649  1.00  0.00     0.138 C 
BRANCH  10  11
HETATM   11  C19 UNL     1      10.495 -17.388 -17.673  1.00  0.00     0.171 C 
HETATM   12  C10 UNL     1      10.949 -18.426 -18.645  1.00  0.00     0.060 C 
HETATM   13  C9  UNL     1       9.901 -19.467 -18.711  1.00  0.00     0.126 C 
HETATM   14  C11 UNL     1      11.807 -19.544 -18.119  1.00  0.00     0.134 C 
HETATM   15  C8  UNL     1       8.716 -18.898 -18.000  1.00  0.00     0.204 C 
HETATM   16  N2  UNL     1      10.706 -20.463 -18.061  1.00  0.00    -0.357 N 
HETATM   17  N5  UNL     1       9.169 -17.713 -17.315  1.00  0.00    -0.316 N 
HETATM   18  C27 UNL     1       8.362 -16.982 -16.406  1.00  0.00     0.313 C 
HETATM   19  O5  UNL     1       8.811 -15.860 -15.974  1.00  0.00    -0.262 OA
BRANCH  15  20
HETATM   20  C7  UNL     1       7.806 -18.457 -19.136  1.00  0.00     0.242 C 
HETATM   21  N1  UNL     1       6.426 -18.526 -19.175  1.00  0.00    -0.359 N 
ATOM     22  H1  UNL     1       5.943 -18.888 -18.353  1.00  0.00     0.162 HD
HETATM   23  O1  UNL     1       8.419 -17.971 -20.155  1.00  0.00    -0.271 OA
BRANCH  21  24
HETATM   24  C6  UNL     1       5.619 -18.116 -20.310  1.00  0.00     0.122 C 
BRANCH  24  25
HETATM   25  C5  UNL     1       4.177 -18.513 -20.211  1.00  0.00     0.020 C 
BRANCH  25  26
HETATM   26  C4  UNL     1       4.046 -19.724 -19.351  1.00  0.00     0.002 C 
BRANCH  26  27
HETATM   27  C3  UNL     1       2.688 -20.287 -19.190  1.00  0.00    -0.000 C 
BRANCH  27  28
HETATM   28  C2  UNL     1       2.469 -21.666 -19.729  1.00  0.00    -0.005 C 
HETATM   29  C1  UNL     1       3.322 -22.622 -18.886  1.00  0.00     0.005 C 
ENDBRANCH  27  28
ENDBRANCH  26  27
ENDBRANCH  25  26
ENDBRANCH  24  25
ENDBRANCH  21  24
ENDBRANCH  15  20
BRANCH  18  30
HETATM   30  C28 UNL     1       7.054 -17.349 -15.875  1.00  0.00     0.315 C 
HETATM   31  O6  UNL     1       7.031 -18.060 -14.876  1.00  0.00    -0.262 OA
HETATM   32  N6  UNL     1       5.858 -16.910 -16.479  1.00  0.00    -0.303 N 
ATOM     33  H6  UNL     1       5.992 -16.338 -17.312  1.00  0.00     0.171 HD
BRANCH  32  34
HETATM   34  C29 UNL     1       4.538 -17.121 -16.139  1.00  0.00     0.123 C 
BRANCH  34  35
HETATM   35  O7  UNL     1       4.051 -18.261 -16.642  1.00  0.00    -0.349 OA
ATOM     36  H7  UNL     1       4.509 -19.029 -16.321  1.00  0.00     0.219 HD
ENDBRANCH  34  35
BRANCH  34  37
HETATM   37  C30 UNL     1       3.601 -16.340 -15.349  1.00  0.00     0.067 C 
HETATM   38  C31 UNL     1       3.627 -14.865 -15.499  1.00  0.00     0.040 C 
HETATM   39  C32 UNL     1       2.205 -14.463 -15.268  1.00  0.00    -0.030 C 
HETATM   40  C33 UNL     1       1.407 -15.510 -15.211  1.00  0.00    -0.030 C 
HETATM   41  C34 UNL     1       2.156 -16.783 -15.397  1.00  0.00     0.040 C 
ENDBRANCH  34  37
ENDBRANCH  32  34
ENDBRANCH  18  30
BRANCH  16  42
HETATM   42  C12 UNL     1      10.474 -21.764 -17.576  1.00  0.00     0.114 C 
BRANCH  42  43
HETATM   43  O2  UNL     1       9.609 -21.848 -16.588  1.00  0.00    -0.349 OA
ATOM     44  H2  UNL     1       8.809 -21.351 -16.708  1.00  0.00     0.219 HD
ENDBRANCH  42  43
BRANCH  42  45
HETATM   45  C13 UNL     1      11.039 -23.028 -17.996  1.00  0.00     0.088 C 
BRANCH  45  46
HETATM   46  C14 UNL     1      12.422 -22.935 -18.570  1.00  0.00    -0.007 C 
HETATM   47  C15 UNL     1      13.111 -24.317 -18.505  1.00  0.00     0.005 C 
HETATM   48  C16 UNL     1      14.329 -24.061 -19.365  1.00  0.00     0.000 C 
HETATM   49  C17 UNL     1      13.871 -23.117 -20.429  1.00  0.00     0.000 C 
HETATM   50  C18 UNL     1      12.430 -22.732 -20.071  1.00  0.00     0.005 C 
ENDBRANCH  45  46
ENDBRANCH  42  45
ENDBRANCH  16  42
ENDBRANCH  10  11
BRANCH  10  51
HETATM   51  O3  UNL     1      12.652 -16.811 -17.122  1.00  0.00    -0.348 OA
ATOM     52  H3  UNL     1      12.948 -16.032 -16.667  1.00  0.00     0.219 HD
ENDBRANCH  10  51
ENDBRANCH   6  10
ENDBRANCH   1   5
TORSDOF 17
ENDMDL
