MODEL 1
REMARK VINA RESULT: -7.828489104      0.000      0.000
REMARK  15 active torsions:
REMARK  status: ('A' for Active; 'I' for Inactive)
REMARK    1  A    between atoms: C2_2  and  C3_3 
REMARK    2  A    between atoms: C3_3  and  C4_4 
REMARK    3  A    between atoms: C4_4  and  C5_5 
REMARK       I    between atoms: C5_5  and  N1_7 
REMARK    4  A    between atoms: N1_7  and  C6_8 
REMARK    5  A    between atoms: N1_7  and  C8_10 
REMARK    6  A    between atoms: C8_10  and  C9_11 
REMARK    7  A    between atoms: C9_11  and  C10_12 
REMARK    8  A    between atoms: C9_11  and  C15_20 
REMARK    9  A    between atoms: C10_12  and  C11_13 
REMARK   10  A    between atoms: C11_13  and  C12_14 
REMARK   11  A    between atoms: C12_14  and  N2_15 
REMARK       I    between atoms: N2_15  and  C13_17 
REMARK   12  A    between atoms: C15_20  and  O3_21 
REMARK   13  A    between atoms: C15_20  and  N3_23 
REMARK       I    between atoms: N3_23  and  C16_25 
REMARK   14  A    between atoms: C16_25  and  C17_27 
REMARK   15  A    between atoms: C27_38  and  C29_40 
ROOT
HETATM    1  N3  UNL     1      23.157  25.923   9.497  1.00  0.00    -0.332 N 
ATOM      2  H3  UNL     1      23.477  26.629   8.834  1.00  0.00     0.165 HD
HETATM    3  C16 UNL     1      23.363  26.168  10.879  1.00  0.00     0.255 C 
HETATM    4  O4  UNL     1      22.965  25.282  11.675  1.00  0.00    -0.271 OA
ENDROOT
BRANCH   3   5
HETATM    5  C17 UNL     1      24.009  27.383  11.435  1.00  0.00     0.340 C 
HETATM    6  C18 UNL     1      24.226  28.430  10.362  1.00  0.00     0.216 C 
HETATM    7  O5  UNL     1      23.452  29.497  10.760  1.00  0.00    -0.354 OA
HETATM    8  C19 UNL     1      22.387  29.026  11.541  1.00  0.00     0.364 C 
HETATM    9  C20 UNL     1      21.726  30.067  12.329  1.00  0.00     0.055 C 
HETATM   10  N5  UNL     1      23.083  28.015  12.287  1.00  0.00     0.133 N 
HETATM   11  C21 UNL     1      20.403  30.553  11.819  1.00  0.00     0.003 C 
HETATM   12  C32 UNL     1      21.650  29.930  13.842  1.00  0.00     0.006 C 
HETATM   13  C22 UNL     1      19.331  29.751  11.341  1.00  0.00     0.007 C 
HETATM   14  C35 UNL     1      20.047  31.380  13.078  1.00  0.00    -0.034 C 
HETATM   15  C23 UNL     1      18.082  29.428  12.163  1.00  0.00     0.010 C 
HETATM   16  C24 UNL     1      18.244  29.068  13.547  1.00  0.00    -0.042 C 
HETATM   17  C25 UNL     1      17.680  27.644  13.806  1.00  0.00     0.015 C 
HETATM   18  C26 UNL     1      18.088  29.854  14.755  1.00  0.00     0.028 C 
HETATM   19  C31 UNL     1      19.742  28.884  13.640  1.00  0.00     0.021 C 
HETATM   20  C27 UNL     1      19.462  30.410  15.221  1.00  0.00     0.044 C 
HETATM   21  C28 UNL     1      19.970  29.652  16.449  1.00  0.00     0.026 C 
HETATM   22  C30 UNL     1      20.212  30.268  14.002  1.00  0.00    -0.013 C 
HETATM   23  C36 UNL     1      21.135  32.461  13.091  1.00  0.00     0.016 C 
HETATM   24  C37 UNL     1      18.866  32.153  12.780  1.00  0.00     0.016 C 
HETATM   25  C33 UNL     1      22.145  28.622  14.310  1.00  0.00     0.036 C 
HETATM   26  C34 UNL     1      23.503  28.433  13.578  1.00  0.00     0.277 C 
BRANCH  20  27
HETATM   27  C29 UNL     1      19.278  31.775  15.765  1.00  0.00     0.240 C 
HETATM   28  N4  UNL     1      20.374  32.501  16.259  1.00  0.00    -0.061 NA
HETATM   29  O6  UNL     1      18.151  32.281  15.788  1.00  0.00    -0.276 OA
ENDBRANCH  20  27
ENDBRANCH   3   5
BRANCH   1  30
HETATM   30  C15 UNL     1      22.530  24.754   8.976  1.00  0.00     0.229 C 
BRANCH  30  31
HETATM   31  C9  UNL     1      22.203  24.884   7.460  1.00  0.00     0.073 C 
BRANCH  31  32
HETATM   32  C8  UNL     1      20.825  25.350   7.297  1.00  0.00     0.075 C 
BRANCH  32  33
HETATM   33  N1  UNL     1      19.841  24.777   6.494  1.00  0.00    -0.332 N 
HETATM   34  C5  UNL     1      18.482  24.610   6.778  1.00  0.00     0.223 C 
HETATM   35  O1  UNL     1      17.726  24.091   5.858  1.00  0.00    -0.273 OA
BRANCH  34  36
HETATM   36  C4  UNL     1      17.744  24.946   7.998  1.00  0.00     0.103 C 
BRANCH  36  37
HETATM   37  C3  UNL     1      17.318  26.386   8.081  1.00  0.00     0.009 C 
BRANCH  37  38
HETATM   38  C2  UNL     1      18.119  27.106   9.168  1.00  0.00    -0.004 C 
HETATM   39  C1  UNL     1      18.383  26.146  10.310  1.00  0.00     0.005 C 
ENDBRANCH  37  38
ENDBRANCH  36  37
ENDBRANCH  34  36
BRANCH  33  40
HETATM   40  C6  UNL     1      20.197  24.345   5.106  1.00  0.00     0.126 C 
HETATM   41  C7  UNL     1      20.407  25.612   4.266  1.00  0.00     0.027 C 
ENDBRANCH  33  40
ENDBRANCH  32  33
ENDBRANCH  31  32
BRANCH  31  42
HETATM   42  C10 UNL     1      23.331  25.571   6.819  1.00  0.00     0.016 C 
BRANCH  42  43
HETATM   43  C11 UNL     1      23.900  25.141   5.532  1.00  0.00     0.020 C 
BRANCH  43  44
HETATM   44  C12 UNL     1      25.097  24.271   5.540  1.00  0.00     0.122 C 
BRANCH  44  45
HETATM   45  N2  UNL     1      25.349  23.544   6.730  1.00  0.00    -0.361 N 
HETATM   46  C13 UNL     1      24.909  22.208   6.897  1.00  0.00     0.213 C 
HETATM   47  C14 UNL     1      25.168  21.438   8.150  1.00  0.00     0.117 C 
HETATM   48  O2  UNL     1      24.281  21.667   5.952  1.00  0.00    -0.274 OA
ATOM     49  H2  UNL     1      25.863  23.995   7.488  1.00  0.00     0.162 HD
ENDBRANCH  44  45
ENDBRANCH  43  44
ENDBRANCH  42  43
ENDBRANCH  31  42
ENDBRANCH  30  31
BRANCH  30  50
HETATM   50  O3  UNL     1      21.375  24.436   9.625  1.00  0.00    -0.376 OA
ATOM     51  H3  UNL     1      21.606  24.095  10.482  1.00  0.00     0.212 HD
ENDBRANCH  30  50
ENDBRANCH   1  30
TORSDOF 15
ENDMDL
MODEL 2
REMARK VINA RESULT: -7.823064522      1.695      2.718
REMARK  15 active torsions:
REMARK  status: ('A' for Active; 'I' for Inactive)
REMARK    1  A    between atoms: C2_2  and  C3_3 
REMARK    2  A    between atoms: C3_3  and  C4_4 
REMARK    3  A    between atoms: C4_4  and  C5_5 
REMARK       I    between atoms: C5_5  and  N1_7 
REMARK    4  A    between atoms: N1_7  and  C6_8 
REMARK    5  A    between atoms: N1_7  and  C8_10 
REMARK    6  A    between atoms: C8_10  and  C9_11 
REMARK    7  A    between atoms: C9_11  and  C10_12 
REMARK    8  A    between atoms: C9_11  and  C15_20 
REMARK    9  A    between atoms: C10_12  and  C11_13 
REMARK   10  A    between atoms: C11_13  and  C12_14 
REMARK   11  A    between atoms: C12_14  and  N2_15 
REMARK       I    between atoms: N2_15  and  C13_17 
REMARK   12  A    between atoms: C15_20  and  O3_21 
REMARK   13  A    between atoms: C15_20  and  N3_23 
REMARK       I    between atoms: N3_23  and  C16_25 
REMARK   14  A    between atoms: C16_25  and  C17_27 
REMARK   15  A    between atoms: C27_38  and  C29_40 
ROOT
HETATM    1  N3  UNL     1      22.407  26.154  11.579  1.00  0.00    -0.332 N 
ATOM      2  H3  UNL     1      21.740  26.888  11.811  1.00  0.00     0.165 HD
HETATM    3  C16 UNL     1      23.787  26.429  11.755  1.00  0.00     0.255 C 
HETATM    4  O4  UNL     1      24.589  25.510  11.456  1.00  0.00    -0.271 OA
ENDROOT
BRANCH   3   5
HETATM    5  C17 UNL     1      24.335  27.712  12.261  1.00  0.00     0.340 C 
HETATM    6  C18 UNL     1      24.593  28.685  11.127  1.00  0.00     0.216 C 
HETATM    7  O5  UNL     1      23.745  29.740  11.380  1.00  0.00    -0.354 OA
HETATM    8  C19 UNL     1      22.643  29.279  12.113  1.00  0.00     0.364 C 
HETATM    9  C20 UNL     1      21.878  30.344  12.763  1.00  0.00     0.055 C 
HETATM   10  N5  UNL     1      23.319  28.362  12.987  1.00  0.00     0.133 N 
HETATM   11  C21 UNL     1      20.581  30.726  12.117  1.00  0.00     0.003 C 
HETATM   12  C32 UNL     1      21.688  30.318  14.273  1.00  0.00     0.006 C 
HETATM   13  C22 UNL     1      19.584  29.839  11.624  1.00  0.00     0.007 C 
HETATM   14  C35 UNL     1      20.091  31.628  13.277  1.00  0.00    -0.034 C 
HETATM   15  C23 UNL     1      18.289  29.520  12.372  1.00  0.00     0.010 C 
HETATM   16  C24 UNL     1      18.356  29.274  13.789  1.00  0.00    -0.042 C 
HETATM   17  C25 UNL     1      17.833  27.848  14.116  1.00  0.00     0.015 C 
HETATM   18  C26 UNL     1      18.071  30.140  14.915  1.00  0.00     0.028 C 
HETATM   19  C31 UNL     1      19.847  29.169  14.009  1.00  0.00     0.021 C 
HETATM   20  C27 UNL     1      19.379  30.796  15.438  1.00  0.00     0.044 C 
HETATM   21  C28 UNL     1      19.819  30.158  16.758  1.00  0.00     0.026 C 
HETATM   22  C30 UNL     1      20.229  30.598  14.295  1.00  0.00    -0.013 C 
HETATM   23  C36 UNL     1      21.128  32.757  13.286  1.00  0.00     0.016 C 
HETATM   24  C37 UNL     1      18.906  32.318  12.829  1.00  0.00     0.016 C 
HETATM   25  C33 UNL     1      22.199  29.074  14.878  1.00  0.00     0.036 C 
HETATM   26  C34 UNL     1      23.618  28.896  14.269  1.00  0.00     0.277 C 
BRANCH  20  27
HETATM   27  C29 UNL     1      19.095  32.187  15.857  1.00  0.00     0.240 C 
HETATM   28  N4  UNL     1      20.115  32.997  16.384  1.00  0.00    -0.061 NA
HETATM   29  O6  UNL     1      17.952  32.642  15.745  1.00  0.00    -0.276 OA
ENDBRANCH  20  27
ENDBRANCH   3   5
BRANCH   1  30
HETATM   30  C15 UNL     1      21.893  24.914  11.096  1.00  0.00     0.229 C 
BRANCH  30  31
HETATM   31  C9  UNL     1      21.284  25.042   9.671  1.00  0.00     0.073 C 
BRANCH  31  32
HETATM   32  C8  UNL     1      20.462  26.252   9.599  1.00  0.00     0.075 C 
BRANCH  32  33
HETATM   33  N1  UNL     1      19.078  26.313   9.449  1.00  0.00    -0.332 N 
HETATM   34  C5  UNL     1      18.320  26.060   8.302  1.00  0.00     0.223 C 
HETATM   35  O1  UNL     1      17.026  26.129   8.400  1.00  0.00    -0.273 OA
BRANCH  34  36
HETATM   36  C4  UNL     1      18.771  25.712   6.953  1.00  0.00     0.103 C 
BRANCH  36  37
HETATM   37  C3  UNL     1      17.746  25.956   5.881  1.00  0.00     0.009 C 
BRANCH  37  38
HETATM   38  C2  UNL     1      18.351  26.815   4.767  1.00  0.00    -0.004 C 
HETATM   39  C1  UNL     1      17.869  28.242   4.921  1.00  0.00     0.005 C 
ENDBRANCH  37  38
ENDBRANCH  36  37
ENDBRANCH  34  36
BRANCH  33  40
HETATM   40  C6  UNL     1      18.230  26.593  10.651  1.00  0.00     0.126 C 
HETATM   41  C7  UNL     1      18.061  25.273  11.416  1.00  0.00     0.027 C 
ENDBRANCH  33  40
ENDBRANCH  32  33
ENDBRANCH  31  32
BRANCH  31  42
HETATM   42  C10 UNL     1      22.355  24.778   8.703  1.00  0.00     0.016 C 
BRANCH  42  43
HETATM   43  C11 UNL     1      23.128  25.849   8.055  1.00  0.00     0.020 C 
BRANCH  43  44
HETATM   44  C12 UNL     1      23.405  25.747   6.605  1.00  0.00     0.122 C 
BRANCH  44  45
HETATM   45  N2  UNL     1      22.311  25.416   5.768  1.00  0.00    -0.361 N 
HETATM   46  C13 UNL     1      22.389  25.529   4.358  1.00  0.00     0.213 C 
HETATM   47  C14 UNL     1      21.237  25.187   3.470  1.00  0.00     0.117 C 
HETATM   48  O2  UNL     1      23.467  25.933   3.852  1.00  0.00    -0.274 OA
ATOM     49  H2  UNL     1      21.443  25.088   6.191  1.00  0.00     0.162 HD
ENDBRANCH  44  45
ENDBRANCH  43  44
ENDBRANCH  42  43
ENDBRANCH  31  42
ENDBRANCH  30  31
BRANCH  30  50
HETATM   50  O3  UNL     1      20.939  24.382  11.911  1.00  0.00    -0.376 OA
ATOM     51  H3  UNL     1      20.947  23.439  11.790  1.00  0.00     0.212 HD
ENDBRANCH  30  50
ENDBRANCH   1  30
TORSDOF 15
ENDMDL
MODEL 3
REMARK VINA RESULT: -7.771668213      1.292      3.993
REMARK  15 active torsions:
REMARK  status: ('A' for Active; 'I' for Inactive)
REMARK    1  A    between atoms: C2_2  and  C3_3 
REMARK    2  A    between atoms: C3_3  and  C4_4 
REMARK    3  A    between atoms: C4_4  and  C5_5 
REMARK       I    between atoms: C5_5  and  N1_7 
REMARK    4  A    between atoms: N1_7  and  C6_8 
REMARK    5  A    between atoms: N1_7  and  C8_10 
REMARK    6  A    between atoms: C8_10  and  C9_11 
REMARK    7  A    between atoms: C9_11  and  C10_12 
REMARK    8  A    between atoms: C9_11  and  C15_20 
REMARK    9  A    between atoms: C10_12  and  C11_13 
REMARK   10  A    between atoms: C11_13  and  C12_14 
REMARK   11  A    between atoms: C12_14  and  N2_15 
REMARK       I    between atoms: N2_15  and  C13_17 
REMARK   12  A    between atoms: C15_20  and  O3_21 
REMARK   13  A    between atoms: C15_20  and  N3_23 
REMARK       I    between atoms: N3_23  and  C16_25 
REMARK   14  A    between atoms: C16_25  and  C17_27 
REMARK   15  A    between atoms: C27_38  and  C29_40 
ROOT
HETATM    1  N3  UNL     1      22.466  26.326  10.034  1.00  0.00    -0.332 N 
ATOM      2  H3  UNL     1      22.130  27.234   9.715  1.00  0.00     0.165 HD
HETATM    3  C16 UNL     1      23.498  26.304  11.007  1.00  0.00     0.255 C 
HETATM    4  O4  UNL     1      23.898  25.173  11.378  1.00  0.00    -0.271 OA
ENDROOT
BRANCH   3   5
HETATM    5  C17 UNL     1      24.124  27.509  11.604  1.00  0.00     0.340 C 
HETATM    6  C18 UNL     1      24.370  28.576  10.555  1.00  0.00     0.216 C 
HETATM    7  O5  UNL     1      23.582  29.634  10.950  1.00  0.00    -0.354 OA
HETATM    8  C19 UNL     1      22.496  29.147  11.691  1.00  0.00     0.364 C 
HETATM    9  C20 UNL     1      21.810  30.173  12.477  1.00  0.00     0.055 C 
HETATM   10  N5  UNL     1      23.172  28.125  12.439  1.00  0.00     0.133 N 
HETATM   11  C21 UNL     1      20.501  30.666  11.937  1.00  0.00     0.003 C 
HETATM   12  C32 UNL     1      21.690  30.009  13.985  1.00  0.00     0.006 C 
HETATM   13  C22 UNL     1      19.445  29.870  11.414  1.00  0.00     0.007 C 
HETATM   14  C35 UNL     1      20.107  31.470  13.200  1.00  0.00    -0.034 C 
HETATM   15  C23 UNL     1      18.174  29.531  12.193  1.00  0.00     0.010 C 
HETATM   16  C24 UNL     1      18.296  29.147  13.575  1.00  0.00    -0.042 C 
HETATM   17  C25 UNL     1      17.728  27.717  13.792  1.00  0.00     0.015 C 
HETATM   18  C26 UNL     1      18.103  29.910  14.791  1.00  0.00     0.028 C 
HETATM   19  C31 UNL     1      19.790  28.963  13.708  1.00  0.00     0.021 C 
HETATM   20  C27 UNL     1      19.461  30.461  15.307  1.00  0.00     0.044 C 
HETATM   21  C28 UNL     1      19.935  29.681  16.536  1.00  0.00     0.026 C 
HETATM   22  C30 UNL     1      20.247  30.342  14.108  1.00  0.00    -0.013 C 
HETATM   23  C36 UNL     1      21.191  32.552  13.264  1.00  0.00     0.016 C 
HETATM   24  C37 UNL     1      18.933  32.245  12.881  1.00  0.00     0.016 C 
HETATM   25  C33 UNL     1      22.174  28.693  14.444  1.00  0.00     0.036 C 
HETATM   26  C34 UNL     1      23.554  28.520  13.749  1.00  0.00     0.277 C 
BRANCH  20  27
HETATM   27  C29 UNL     1      19.258  31.815  15.870  1.00  0.00     0.240 C 
HETATM   28  N4  UNL     1      17.971  32.373  15.944  1.00  0.00    -0.061 NA
HETATM   29  O6  UNL     1      20.228  32.463  16.277  1.00  0.00    -0.276 OA
ENDBRANCH  20  27
ENDBRANCH   3   5
BRANCH   1  30
HETATM   30  C15 UNL     1      21.869  25.160   9.472  1.00  0.00     0.229 C 
BRANCH  30  31
HETATM   31  C9  UNL     1      20.891  25.498   8.310  1.00  0.00     0.073 C 
BRANCH  31  32
HETATM   32  C8  UNL     1      21.228  24.687   7.139  1.00  0.00     0.075 C 
BRANCH  32  33
HETATM   33  N1  UNL     1      21.902  25.112   5.996  1.00  0.00    -0.332 N 
HETATM   34  C5  UNL     1      23.282  25.227   5.798  1.00  0.00     0.223 C 
HETATM   35  O1  UNL     1      23.700  25.601   4.626  1.00  0.00    -0.273 OA
BRANCH  34  36
HETATM   36  C4  UNL     1      24.375  24.978   6.740  1.00  0.00     0.103 C 
BRANCH  36  37
HETATM   37  C3  UNL     1      25.013  23.624   6.596  1.00  0.00     0.009 C 
BRANCH  37  38
HETATM   38  C2  UNL     1      24.375  22.640   7.580  1.00  0.00    -0.004 C 
HETATM   39  C1  UNL     1      23.503  21.666   6.815  1.00  0.00     0.005 C 
ENDBRANCH  37  38
ENDBRANCH  36  37
ENDBRANCH  34  36
BRANCH  33  40
HETATM   40  C6  UNL     1      21.115  25.416   4.759  1.00  0.00     0.126 C 
HETATM   41  C7  UNL     1      20.310  24.159   4.403  1.00  0.00     0.027 C 
ENDBRANCH  33  40
ENDBRANCH  32  33
ENDBRANCH  31  32
BRANCH  31  42
HETATM   42  C10 UNL     1      19.533  25.526   8.865  1.00  0.00     0.016 C 
BRANCH  42  43
HETATM   43  C11 UNL     1      18.803  26.776   9.128  1.00  0.00     0.020 C 
BRANCH  43  44
HETATM   44  C12 UNL     1      17.672  27.137   8.244  1.00  0.00     0.122 C 
BRANCH  44  45
HETATM   45  N2  UNL     1      18.000  27.623   6.954  1.00  0.00    -0.361 N 
HETATM   46  C13 UNL     1      17.768  26.856   5.786  1.00  0.00     0.213 C 
HETATM   47  C14 UNL     1      18.115  27.361   4.424  1.00  0.00     0.117 C 
HETATM   48  O2  UNL     1      17.254  25.717   5.916  1.00  0.00    -0.274 OA
ATOM     49  H2  UNL     1      18.414  28.551   6.864  1.00  0.00     0.162 HD
ENDBRANCH  44  45
ENDBRANCH  43  44
ENDBRANCH  42  43
ENDBRANCH  31  42
ENDBRANCH  30  31
BRANCH  30  50
HETATM   50  O3  UNL     1      21.185  24.418  10.389  1.00  0.00    -0.376 OA
ATOM     51  H3  UNL     1      21.810  24.105  11.033  1.00  0.00     0.212 HD
ENDBRANCH  30  50
ENDBRANCH   1  30
TORSDOF 15
ENDMDL
MODEL 4
REMARK VINA RESULT: -7.769874508      7.471     12.754
REMARK  15 active torsions:
REMARK  status: ('A' for Active; 'I' for Inactive)
REMARK    1  A    between atoms: C2_2  and  C3_3 
REMARK    2  A    between atoms: C3_3  and  C4_4 
REMARK    3  A    between atoms: C4_4  and  C5_5 
REMARK       I    between atoms: C5_5  and  N1_7 
REMARK    4  A    between atoms: N1_7  and  C6_8 
REMARK    5  A    between atoms: N1_7  and  C8_10 
REMARK    6  A    between atoms: C8_10  and  C9_11 
REMARK    7  A    between atoms: C9_11  and  C10_12 
REMARK    8  A    between atoms: C9_11  and  C15_20 
REMARK    9  A    between atoms: C10_12  and  C11_13 
REMARK   10  A    between atoms: C11_13  and  C12_14 
REMARK   11  A    between atoms: C12_14  and  N2_15 
REMARK       I    between atoms: N2_15  and  C13_17 
REMARK   12  A    between atoms: C15_20  and  O3_21 
REMARK   13  A    between atoms: C15_20  and  N3_23 
REMARK       I    between atoms: N3_23  and  C16_25 
REMARK   14  A    between atoms: C16_25  and  C17_27 
REMARK   15  A    between atoms: C27_38  and  C29_40 
ROOT
HETATM    1  N3  UNL     1      20.183  35.807  16.638  1.00  0.00    -0.332 N 
ATOM      2  H3  UNL     1      19.846  36.281  15.801  1.00  0.00     0.165 HD
HETATM    3  C16 UNL     1      21.200  36.441  17.397  1.00  0.00     0.255 C 
HETATM    4  O4  UNL     1      21.602  35.834  18.419  1.00  0.00    -0.271 OA
ENDROOT
BRANCH   3   5
HETATM    5  C17 UNL     1      21.809  37.752  17.065  1.00  0.00     0.340 C 
HETATM    6  C18 UNL     1      21.734  38.033  15.577  1.00  0.00     0.216 C 
HETATM    7  O5  UNL     1      20.939  39.153  15.478  1.00  0.00    -0.354 OA
HETATM    8  C19 UNL     1      20.077  39.204  16.582  1.00  0.00     0.364 C 
HETATM    9  C20 UNL     1      19.463  40.515  16.792  1.00  0.00     0.055 C 
HETATM   10  N5  UNL     1      20.987  38.762  17.601  1.00  0.00     0.133 N 
HETATM   11  C21 UNL     1      18.030  40.658  16.375  1.00  0.00     0.003 C 
HETATM   12  C32 UNL     1      19.663  41.235  18.118  1.00  0.00     0.006 C 
HETATM   13  C22 UNL     1      16.975  39.739  16.632  1.00  0.00     0.007 C 
HETATM   14  C35 UNL     1      17.817  42.046  17.026  1.00  0.00    -0.034 C 
HETATM   15  C23 UNL     1      15.926  39.939  17.726  1.00  0.00     0.010 C 
HETATM   16  C24 UNL     1      16.359  40.399  19.020  1.00  0.00    -0.042 C 
HETATM   17  C25 UNL     1      15.991  39.360  20.115  1.00  0.00     0.015 C 
HETATM   18  C26 UNL     1      16.338  41.721  19.611  1.00  0.00     0.028 C 
HETATM   19  C31 UNL     1      17.861  40.276  18.898  1.00  0.00     0.021 C 
HETATM   20  C27 UNL     1      17.709  42.424  19.418  1.00  0.00     0.044 C 
HETATM   21  C28 UNL     1      18.494  42.460  20.731  1.00  0.00     0.026 C 
HETATM   22  C30 UNL     1      18.248  41.624  18.350  1.00  0.00    -0.013 C 
HETATM   23  C36 UNL     1      18.779  42.941  16.235  1.00  0.00     0.016 C 
HETATM   24  C37 UNL     1      16.532  42.543  16.598  1.00  0.00     0.016 C 
HETATM   25  C33 UNL     1      20.358  40.394  19.111  1.00  0.00     0.036 C 
HETATM   26  C34 UNL     1      21.581  39.816  18.346  1.00  0.00     0.277 C 
BRANCH  20  27
HETATM   27  C29 UNL     1      17.489  43.865  19.159  1.00  0.00     0.240 C 
HETATM   28  N4  UNL     1      18.578  44.736  18.994  1.00  0.00    -0.061 NA
HETATM   29  O6  UNL     1      16.337  44.308  19.090  1.00  0.00    -0.276 OA
ENDBRANCH  20  27
ENDBRANCH   3   5
BRANCH   1  30
HETATM   30  C15 UNL     1      19.602  34.548  16.970  1.00  0.00     0.229 C 
BRANCH  30  31
HETATM   31  C9  UNL     1      18.866  33.900  15.763  1.00  0.00     0.073 C 
BRANCH  31  32
HETATM   32  C8  UNL     1      19.766  33.858  14.609  1.00  0.00     0.075 C 
BRANCH  32  33
HETATM   33  N1  UNL     1      20.608  32.809  14.245  1.00  0.00    -0.332 N 
HETATM   34  C5  UNL     1      20.371  31.792  13.316  1.00  0.00     0.223 C 
HETATM   35  O1  UNL     1      21.323  30.935  13.094  1.00  0.00    -0.273 OA
BRANCH  34  36
HETATM   36  C4  UNL     1      19.172  31.530  12.517  1.00  0.00     0.103 C 
BRANCH  36  37
HETATM   37  C3  UNL     1      18.262  30.484  13.099  1.00  0.00     0.009 C 
BRANCH  37  38
HETATM   38  C2  UNL     1      17.909  29.447  12.029  1.00  0.00    -0.004 C 
HETATM   39  C1  UNL     1      17.867  28.072  12.663  1.00  0.00     0.005 C 
ENDBRANCH  37  38
ENDBRANCH  36  37
ENDBRANCH  34  36
BRANCH  33  40
HETATM   40  C6  UNL     1      21.990  32.755  14.819  1.00  0.00     0.126 C 
HETATM   41  C7  UNL     1      22.666  34.100  14.525  1.00  0.00     0.027 C 
ENDBRANCH  33  40
ENDBRANCH  32  33
ENDBRANCH  31  32
BRANCH  31  42
HETATM   42  C10 UNL     1      18.182  32.697  16.252  1.00  0.00     0.016 C 
BRANCH  42  43
HETATM   43  C11 UNL     1      16.825  32.320  15.824  1.00  0.00     0.020 C 
BRANCH  43  44
HETATM   44  C12 UNL     1      15.672  32.803  16.616  1.00  0.00     0.122 C 
BRANCH  44  45
HETATM   45  N2  UNL     1      15.329  34.170  16.477  1.00  0.00    -0.361 N 
HETATM   46  C13 UNL     1      15.362  35.064  17.576  1.00  0.00     0.213 C 
HETATM   47  C14 UNL     1      14.996  36.506  17.437  1.00  0.00     0.117 C 
HETATM   48  O2  UNL     1      15.709  34.615  18.697  1.00  0.00    -0.274 OA
ATOM     49  H2  UNL     1      15.051  34.522  15.560  1.00  0.00     0.162 HD
ENDBRANCH  44  45
ENDBRANCH  43  44
ENDBRANCH  42  43
ENDBRANCH  31  42
ENDBRANCH  30  31
BRANCH  30  50
HETATM   50  O3  UNL     1      18.716  34.628  18.004  1.00  0.00    -0.376 OA
ATOM     51  H3  UNL     1      17.923  34.176  17.742  1.00  0.00     0.212 HD
ENDBRANCH  30  50
ENDBRANCH   1  30
TORSDOF 15
ENDMDL
MODEL 5
REMARK VINA RESULT: -7.742206603      1.170      3.873
REMARK  15 active torsions:
REMARK  status: ('A' for Active; 'I' for Inactive)
REMARK    1  A    between atoms: C2_2  and  C3_3 
REMARK    2  A    between atoms: C3_3  and  C4_4 
REMARK    3  A    between atoms: C4_4  and  C5_5 
REMARK       I    between atoms: C5_5  and  N1_7 
REMARK    4  A    between atoms: N1_7  and  C6_8 
REMARK    5  A    between atoms: N1_7  and  C8_10 
REMARK    6  A    between atoms: C8_10  and  C9_11 
REMARK    7  A    between atoms: C9_11  and  C10_12 
REMARK    8  A    between atoms: C9_11  and  C15_20 
REMARK    9  A    between atoms: C10_12  and  C11_13 
REMARK   10  A    between atoms: C11_13  and  C12_14 
REMARK   11  A    between atoms: C12_14  and  N2_15 
REMARK       I    between atoms: N2_15  and  C13_17 
REMARK   12  A    between atoms: C15_20  and  O3_21 
REMARK   13  A    between atoms: C15_20  and  N3_23 
REMARK       I    between atoms: N3_23  and  C16_25 
REMARK   14  A    between atoms: C16_25  and  C17_27 
REMARK   15  A    between atoms: C27_38  and  C29_40 
ROOT
HETATM    1  N3  UNL     1      23.455  25.998   9.554  1.00  0.00    -0.332 N 
ATOM      2  H3  UNL     1      23.845  26.691   8.917  1.00  0.00     0.165 HD
HETATM    3  C16 UNL     1      23.538  26.255  10.947  1.00  0.00     0.255 C 
HETATM    4  O4  UNL     1      23.055  25.383  11.711  1.00  0.00    -0.271 OA
ENDROOT
BRANCH   3   5
HETATM    5  C17 UNL     1      24.149  27.465  11.548  1.00  0.00     0.340 C 
HETATM    6  C18 UNL     1      24.396  28.534  10.502  1.00  0.00     0.216 C 
HETATM    7  O5  UNL     1      23.595  29.585  10.889  1.00  0.00    -0.354 OA
HETATM    8  C19 UNL     1      22.507  29.090  11.621  1.00  0.00     0.364 C 
HETATM    9  C20 UNL     1      21.806  30.111  12.401  1.00  0.00     0.055 C 
HETATM   10  N5  UNL     1      23.185  28.074  12.375  1.00  0.00     0.133 N 
HETATM   11  C21 UNL     1      20.498  30.592  11.849  1.00  0.00     0.003 C 
HETATM   12  C32 UNL     1      21.674  29.946  13.907  1.00  0.00     0.006 C 
HETATM   13  C22 UNL     1      19.453  29.788  11.317  1.00  0.00     0.007 C 
HETATM   14  C35 UNL     1      20.085  31.393  13.108  1.00  0.00    -0.034 C 
HETATM   15  C23 UNL     1      18.178  29.438  12.085  1.00  0.00     0.010 C 
HETATM   16  C24 UNL     1      18.291  29.056  13.468  1.00  0.00    -0.042 C 
HETATM   17  C25 UNL     1      17.732  27.621  13.680  1.00  0.00     0.015 C 
HETATM   18  C26 UNL     1      18.081  29.818  14.682  1.00  0.00     0.028 C 
HETATM   19  C31 UNL     1      19.786  28.884  13.614  1.00  0.00     0.021 C 
HETATM   20  C27 UNL     1      19.430  30.380  15.209  1.00  0.00     0.044 C 
HETATM   21  C28 UNL     1      19.899  29.605  16.443  1.00  0.00     0.026 C 
HETATM   22  C30 UNL     1      20.227  30.267  14.018  1.00  0.00    -0.013 C 
HETATM   23  C36 UNL     1      21.160  32.485  13.180  1.00  0.00     0.016 C 
HETATM   24  C37 UNL     1      18.908  32.159  12.779  1.00  0.00     0.016 C 
HETATM   25  C33 UNL     1      22.165  28.635  14.371  1.00  0.00     0.036 C 
HETATM   26  C34 UNL     1      23.552  28.473  13.688  1.00  0.00     0.277 C 
BRANCH  20  27
HETATM   27  C29 UNL     1      19.211  31.732  15.770  1.00  0.00     0.240 C 
HETATM   28  N4  UNL     1      17.920  32.284  15.824  1.00  0.00    -0.061 NA
HETATM   29  O6  UNL     1      20.171  32.385  16.193  1.00  0.00    -0.276 OA
ENDBRANCH  20  27
ENDBRANCH   3   5
BRANCH   1  30
HETATM   30  C15 UNL     1      22.860  24.832   8.989  1.00  0.00     0.229 C 
BRANCH  30  31
HETATM   31  C9  UNL     1      22.668  24.954   7.450  1.00  0.00     0.073 C 
BRANCH  31  32
HETATM   32  C8  UNL     1      23.948  25.289   6.824  1.00  0.00     0.075 C 
BRANCH  32  33
HETATM   33  N1  UNL     1      24.576  24.602   5.787  1.00  0.00    -0.332 N 
HETATM   34  C5  UNL     1      24.297  24.659   4.418  1.00  0.00     0.223 C 
HETATM   35  O1  UNL     1      25.046  23.965   3.615  1.00  0.00    -0.273 OA
BRANCH  34  36
HETATM   36  C4  UNL     1      23.256  25.413   3.717  1.00  0.00     0.103 C 
BRANCH  36  37
HETATM   37  C3  UNL     1      22.851  24.818   2.397  1.00  0.00     0.009 C 
BRANCH  37  38
HETATM   38  C2  UNL     1      21.606  23.946   2.578  1.00  0.00    -0.004 C 
HETATM   39  C1  UNL     1      20.369  24.813   2.472  1.00  0.00     0.005 C 
ENDBRANCH  37  38
ENDBRANCH  36  37
ENDBRANCH  34  36
BRANCH  33  40
HETATM   40  C6  UNL     1      25.762  23.743   6.099  1.00  0.00     0.126 C 
HETATM   41  C7  UNL     1      25.241  22.449   6.738  1.00  0.00     0.027 C 
ENDBRANCH  33  40
ENDBRANCH  32  33
ENDBRANCH  31  32
BRANCH  31  42
HETATM   42  C10 UNL     1      21.871  23.804   7.008  1.00  0.00     0.016 C 
BRANCH  42  43
HETATM   43  C11 UNL     1      20.701  23.934   6.125  1.00  0.00     0.020 C 
BRANCH  43  44
HETATM   44  C12 UNL     1      19.824  25.115   6.280  1.00  0.00     0.122 C 
BRANCH  44  45
HETATM   45  N2  UNL     1      19.592  25.571   7.601  1.00  0.00    -0.361 N 
HETATM   46  C13 UNL     1      18.475  25.137   8.356  1.00  0.00     0.213 C 
HETATM   47  C14 UNL     1      18.223  25.617   9.748  1.00  0.00     0.117 C 
HETATM   48  O2  UNL     1      17.679  24.322   7.824  1.00  0.00    -0.274 OA
ATOM     49  H2  UNL     1      20.249  26.230   8.021  1.00  0.00     0.162 HD
ENDBRANCH  44  45
ENDBRANCH  43  44
ENDBRANCH  42  43
ENDBRANCH  31  42
ENDBRANCH  30  31
BRANCH  30  50
HETATM   50  O3  UNL     1      21.649  24.534   9.538  1.00  0.00    -0.376 OA
ATOM     51  H3  UNL     1      21.124  25.327   9.534  1.00  0.00     0.212 HD
ENDBRANCH  30  50
ENDBRANCH   1  30
TORSDOF 15
ENDMDL
