MODEL 1
REMARK VINA RESULT: -5.371871776      0.000      0.000
REMARK  15 active torsions:
REMARK  status: ('A' for Active; 'I' for Inactive)
REMARK    1  A    between atoms: C2_2  and  C3_3 
REMARK    2  A    between atoms: C3_3  and  O1_4 
REMARK    3  A    between atoms: C8_10  and  C9_11 
REMARK    4  A    between atoms: C14_17  and  C15_18 
REMARK    5  A    between atoms: C15_18  and  O3_19 
REMARK    6  A    between atoms: O3_19  and  C16_20 
REMARK    7  A    between atoms: C16_20  and  C17_22 
REMARK    8  A    between atoms: C17_22  and  C18_23 
REMARK    9  A    between atoms: C18_23  and  C19_24 
REMARK   10  A    between atoms: C19_24  and  N1_25 
REMARK   11  A    between atoms: C23_29  and  O5_30 
REMARK   12  A    between atoms: C24_32  and  O6_33 
REMARK   13  A    between atoms: O6_33  and  C25_34 
REMARK   14  A    between atoms: C25_34  and  C26_36 
REMARK   15  A    between atoms: C26_36  and  N2_37 
ROOT
HETATM    1  C3  UNL     1      11.890  15.951  11.598  1.00  0.00     0.069 C 
HETATM    2  C4  UNL     1      11.286  17.245  11.242  1.00  0.00     0.055 C 
HETATM    3  C5  UNL     1       9.931  17.461  10.763  1.00  0.00     0.007 C 
HETATM    4  C6  UNL     1       9.310  16.501   9.837  1.00  0.00     0.033 C 
HETATM    5  C7  UNL     1       8.917  15.177  10.273  1.00  0.00    -0.015 C 
HETATM    6  C8  UNL     1       9.267  14.528  11.514  1.00  0.00    -0.015 C 
HETATM    7  C10 UNL     1       9.901  14.930  12.718  1.00  0.00     0.003 C 
HETATM    8  C11 UNL     1       9.813  13.689  13.656  1.00  0.00     0.022 C 
HETATM    9  C12 UNL     1      11.379  15.253  12.759  1.00  0.00     0.035 C 
HETATM   10  C13 UNL     1      11.027  15.767  14.084  1.00  0.00     0.022 C 
HETATM   11  C14 UNL     1       9.673  16.136  13.524  1.00  0.00     0.007 C 
HETATM   12  C22 UNL     1       9.840  17.533  13.059  1.00  0.00     0.032 C 
HETATM   13  C23 UNL     1      11.235  17.904  12.567  1.00  0.00     0.138 C 
HETATM   14  C24 UNL     1       9.689  18.617  14.088  1.00  0.00     0.148 C 
HETATM   15  C29 UNL     1       8.997  19.786  13.338  1.00  0.00     0.013 C 
HETATM   16  C30 UNL     1       9.445  21.129  13.769  1.00  0.00     0.012 C 
HETATM   17  C31 UNL     1       8.991  19.508  11.912  1.00  0.00     0.017 C 
HETATM   18  C32 UNL     1       9.022  17.957  11.875  1.00  0.00    -0.026 C 
HETATM   19  C33 UNL     1       7.618  17.639  11.755  1.00  0.00     0.016 C 
ENDROOT
BRANCH  11  20
HETATM   20  C15 UNL     1       8.417  15.894  14.294  1.00  0.00     0.190 C 
BRANCH  20  21
HETATM   21  O3  UNL     1       8.339  16.191  15.636  1.00  0.00    -0.321 OA
BRANCH  21  22
HETATM   22  C16 UNL     1       8.445  15.211  16.570  1.00  0.00     0.258 C 
HETATM   23  O4  UNL     1       7.551  14.343  16.674  1.00  0.00    -0.265 OA
BRANCH  22  24
HETATM   24  C17 UNL     1       9.630  15.118  17.519  1.00  0.00     0.113 C 
BRANCH  24  25
HETATM   25  C18 UNL     1      10.097  16.461  17.915  1.00  0.00     0.040 C 
BRANCH  25  26
HETATM   26  C19 UNL     1      11.576  16.592  17.928  1.00  0.00     0.271 C 
BRANCH  26  27
HETATM   27  N1  UNL     1      12.122  17.260  19.044  1.00  0.00     0.080 N 
HETATM   28  C20 UNL     1      11.443  18.325  19.656  1.00  0.00     0.309 C 
HETATM   29  C21 UNL     1      13.487  17.640  18.732  1.00  0.00     0.309 C 
ENDBRANCH  26  27
ENDBRANCH  25  26
ENDBRANCH  24  25
ENDBRANCH  22  24
ENDBRANCH  21  22
ENDBRANCH  20  21
ENDBRANCH  11  20
BRANCH   6  30
HETATM   30  C9  UNL     1       9.665  13.105  11.200  1.00  0.00     0.266 C 
HETATM   31  O2  UNL     1      10.175  12.822  10.097  1.00  0.00    -0.302 OA
ENDBRANCH   6  30
BRANCH  13  32
HETATM   32  O5  UNL     1      11.468  19.250  12.387  1.00  0.00    -0.394 OA
ATOM     33  H5  UNL     1      11.211  19.705  13.181  1.00  0.00     0.210 HD
ENDBRANCH  13  32
BRANCH  14  34
HETATM   34  O6  UNL     1      10.941  19.161  14.593  1.00  0.00    -0.313 OA
BRANCH  34  35
HETATM   35  C25 UNL     1      11.113  19.631  15.862  1.00  0.00     0.276 C 
HETATM   36  O7  UNL     1      10.072  19.500  16.616  1.00  0.00    -0.263 OA
BRANCH  35  37
HETATM   37  C26 UNL     1      12.298  20.254  16.458  1.00  0.00     0.227 C 
BRANCH  37  38
HETATM   38  N2  UNL     1      13.109  20.937  15.519  1.00  0.00    -0.412 N 
HETATM   39  C27 UNL     1      14.507  20.971  15.811  1.00  0.00     0.143 C 
HETATM   40  C28 UNL     1      12.560  22.143  14.982  1.00  0.00     0.143 C 
ENDBRANCH  37  38
ENDBRANCH  35  37
ENDBRANCH  34  35
ENDBRANCH  14  34
BRANCH   1  41
HETATM   41  C2  UNL     1      13.375  16.179  11.826  1.00  0.00     0.034 C 
HETATM   42  C1  UNL     1      14.202  15.716  10.650  1.00  0.00     0.008 C 
ENDBRANCH   1  41
BRANCH   1  43
HETATM   43  O1  UNL     1      11.907  15.101  10.476  1.00  0.00    -0.389 OA
ATOM     44  H1  UNL     1      11.096  15.343  10.043  1.00  0.00     0.210 HD
ENDBRANCH   1  43
TORSDOF 15
ENDMDL
MODEL 2
REMARK VINA RESULT: -5.135834005      1.829      2.876
REMARK  15 active torsions:
REMARK  status: ('A' for Active; 'I' for Inactive)
REMARK    1  A    between atoms: C2_2  and  C3_3 
REMARK    2  A    between atoms: C3_3  and  O1_4 
REMARK    3  A    between atoms: C8_10  and  C9_11 
REMARK    4  A    between atoms: C14_17  and  C15_18 
REMARK    5  A    between atoms: C15_18  and  O3_19 
REMARK    6  A    between atoms: O3_19  and  C16_20 
REMARK    7  A    between atoms: C16_20  and  C17_22 
REMARK    8  A    between atoms: C17_22  and  C18_23 
REMARK    9  A    between atoms: C18_23  and  C19_24 
REMARK   10  A    between atoms: C19_24  and  N1_25 
REMARK   11  A    between atoms: C23_29  and  O5_30 
REMARK   12  A    between atoms: C24_32  and  O6_33 
REMARK   13  A    between atoms: O6_33  and  C25_34 
REMARK   14  A    between atoms: C25_34  and  C26_36 
REMARK   15  A    between atoms: C26_36  and  N2_37 
ROOT
HETATM    1  C3  UNL     1      12.111  16.182  11.606  1.00  0.00     0.069 C 
HETATM    2  C4  UNL     1      11.732  17.594  11.776  1.00  0.00     0.055 C 
HETATM    3  C5  UNL     1      10.539  18.235  11.251  1.00  0.00     0.007 C 
HETATM    4  C6  UNL     1      10.031  17.880   9.916  1.00  0.00     0.033 C 
HETATM    5  C7  UNL     1       9.421  16.592   9.658  1.00  0.00    -0.015 C 
HETATM    6  C8  UNL     1       9.431  15.434  10.520  1.00  0.00    -0.015 C 
HETATM    7  C10 UNL     1       9.835  15.175  11.855  1.00  0.00     0.003 C 
HETATM    8  C11 UNL     1       9.424  13.696  12.124  1.00  0.00     0.022 C 
HETATM    9  C12 UNL     1      11.297  15.173  12.250  1.00  0.00     0.035 C 
HETATM   10  C13 UNL     1      10.727  15.146  13.599  1.00  0.00     0.022 C 
HETATM   11  C14 UNL     1       9.567  15.957  13.069  1.00  0.00     0.007 C 
HETATM   12  C22 UNL     1       9.972  17.364  13.301  1.00  0.00     0.032 C 
HETATM   13  C23 UNL     1      11.470  17.640  13.232  1.00  0.00     0.138 C 
HETATM   14  C24 UNL     1       9.720  17.930  14.669  1.00  0.00     0.148 C 
HETATM   15  C29 UNL     1       9.326  19.410  14.422  1.00  0.00     0.013 C 
HETATM   16  C30 UNL     1       9.809  20.344  15.463  1.00  0.00     0.012 C 
HETATM   17  C31 UNL     1       9.593  19.756  13.036  1.00  0.00     0.017 C 
HETATM   18  C32 UNL     1       9.471  18.384  12.321  1.00  0.00    -0.026 C 
HETATM   19  C33 UNL     1       8.099  18.409  11.871  1.00  0.00     0.016 C 
ENDROOT
BRANCH  11  20
HETATM   20  C15 UNL     1       8.159  15.653  13.461  1.00  0.00     0.190 C 
BRANCH  20  21
HETATM   21  O3  UNL     1       7.787  15.597  14.785  1.00  0.00    -0.321 OA
BRANCH  21  22
HETATM   22  C16 UNL     1       7.722  14.407  15.436  1.00  0.00     0.258 C 
HETATM   23  O4  UNL     1       6.969  13.501  15.015  1.00  0.00    -0.265 OA
BRANCH  22  24
HETATM   24  C17 UNL     1       8.541  14.118  16.684  1.00  0.00     0.113 C 
BRANCH  24  25
HETATM   25  C18 UNL     1       8.099  14.960  17.814  1.00  0.00     0.040 C 
BRANCH  25  26
HETATM   26  C19 UNL     1       6.776  14.565  18.362  1.00  0.00     0.271 C 
BRANCH  26  27
HETATM   27  N1  UNL     1       5.841  15.611  18.518  1.00  0.00     0.080 N 
HETATM   28  C20 UNL     1       5.214  15.844  19.752  1.00  0.00     0.309 C 
HETATM   29  C21 UNL     1       4.856  15.511  17.457  1.00  0.00     0.309 C 
ENDBRANCH  26  27
ENDBRANCH  25  26
ENDBRANCH  24  25
ENDBRANCH  22  24
ENDBRANCH  21  22
ENDBRANCH  20  21
ENDBRANCH  11  20
BRANCH   6  30
HETATM   30  C9  UNL     1       9.738  14.223   9.671  1.00  0.00     0.266 C 
HETATM   31  O2  UNL     1      10.468  14.328   8.663  1.00  0.00    -0.302 OA
ENDBRANCH   6  30
BRANCH  13  32
HETATM   32  O5  UNL     1      11.873  18.871  13.703  1.00  0.00    -0.394 OA
ATOM     33  H5  UNL     1      11.146  19.476  13.614  1.00  0.00     0.210 HD
ENDBRANCH  13  32
BRANCH  14  34
HETATM   34  O6  UNL     1      10.886  17.973  15.539  1.00  0.00    -0.313 OA
BRANCH  34  35
HETATM   35  C25 UNL     1      10.938  17.400  16.775  1.00  0.00     0.276 C 
HETATM   36  O7  UNL     1      11.340  16.172  16.768  1.00  0.00    -0.263 OA
BRANCH  35  37
HETATM   37  C26 UNL     1      10.600  17.987  18.075  1.00  0.00     0.227 C 
BRANCH  37  38
HETATM   38  N2  UNL     1      11.720  18.511  18.765  1.00  0.00    -0.412 N 
HETATM   39  C27 UNL     1      11.694  18.378  20.187  1.00  0.00     0.143 C 
HETATM   40  C28 UNL     1      12.233  19.751  18.269  1.00  0.00     0.143 C 
ENDBRANCH  37  38
ENDBRANCH  35  37
ENDBRANCH  34  35
ENDBRANCH  14  34
BRANCH   1  41
HETATM   41  C2  UNL     1      13.529  16.016  12.125  1.00  0.00     0.034 C 
HETATM   42  C1  UNL     1      14.516  15.802  11.002  1.00  0.00     0.008 C 
ENDBRANCH   1  41
BRANCH   1  43
HETATM   43  O1  UNL     1      12.276  15.888  10.239  1.00  0.00    -0.389 OA
ATOM     44  H1  UNL     1      11.403  16.054   9.903  1.00  0.00     0.210 HD
ENDBRANCH   1  43
TORSDOF 15
ENDMDL
MODEL 3
REMARK VINA RESULT: -5.094899946      5.374     10.326
REMARK  15 active torsions:
REMARK  status: ('A' for Active; 'I' for Inactive)
REMARK    1  A    between atoms: C2_2  and  C3_3 
REMARK    2  A    between atoms: C3_3  and  O1_4 
REMARK    3  A    between atoms: C8_10  and  C9_11 
REMARK    4  A    between atoms: C14_17  and  C15_18 
REMARK    5  A    between atoms: C15_18  and  O3_19 
REMARK    6  A    between atoms: O3_19  and  C16_20 
REMARK    7  A    between atoms: C16_20  and  C17_22 
REMARK    8  A    between atoms: C17_22  and  C18_23 
REMARK    9  A    between atoms: C18_23  and  C19_24 
REMARK   10  A    between atoms: C19_24  and  N1_25 
REMARK   11  A    between atoms: C23_29  and  O5_30 
REMARK   12  A    between atoms: C24_32  and  O6_33 
REMARK   13  A    between atoms: O6_33  and  C25_34 
REMARK   14  A    between atoms: C25_34  and  C26_36 
REMARK   15  A    between atoms: C26_36  and  N2_37 
ROOT
HETATM    1  C3  UNL     1      14.414  23.350  15.909  1.00  0.00     0.069 C 
HETATM    2  C4  UNL     1      14.847  21.951  15.758  1.00  0.00     0.055 C 
HETATM    3  C5  UNL     1      16.202  21.448  15.902  1.00  0.00     0.007 C 
HETATM    4  C6  UNL     1      17.344  22.237  15.412  1.00  0.00     0.033 C 
HETATM    5  C7  UNL     1      17.754  23.459  16.071  1.00  0.00    -0.015 C 
HETATM    6  C8  UNL     1      17.028  24.193  17.080  1.00  0.00    -0.015 C 
HETATM    7  C10 UNL     1      15.863  23.958  17.855  1.00  0.00     0.003 C 
HETATM    8  C11 UNL     1      15.769  25.173  18.826  1.00  0.00     0.022 C 
HETATM    9  C12 UNL     1      14.487  23.950  17.225  1.00  0.00     0.035 C 
HETATM   10  C13 UNL     1      14.110  23.402  18.529  1.00  0.00     0.022 C 
HETATM   11  C14 UNL     1      15.471  22.748  18.589  1.00  0.00     0.007 C 
HETATM   12  C22 UNL     1      15.256  21.406  17.997  1.00  0.00     0.032 C 
HETATM   13  C23 UNL     1      14.178  21.324  16.921  1.00  0.00     0.138 C 
HETATM   14  C24 UNL     1      14.721  20.337  18.906  1.00  0.00     0.148 C 
HETATM   15  C29 UNL     1      15.429  19.034  18.449  1.00  0.00     0.013 C 
HETATM   16  C30 UNL     1      14.583  17.823  18.543  1.00  0.00     0.012 C 
HETATM   17  C31 UNL     1      16.118  19.274  17.193  1.00  0.00     0.017 C 
HETATM   18  C32 UNL     1      16.411  20.797  17.259  1.00  0.00    -0.026 C 
HETATM   19  C33 UNL     1      17.756  20.813  17.787  1.00  0.00     0.016 C 
ENDROOT
BRANCH  11  20
HETATM   20  C15 UNL     1      16.279  22.739  19.845  1.00  0.00     0.190 C 
BRANCH  20  21
HETATM   21  O3  UNL     1      17.577  22.285  19.851  1.00  0.00    -0.321 OA
BRANCH  21  22
HETATM   22  C16 UNL     1      18.486  22.792  20.723  1.00  0.00     0.258 C 
HETATM   23  O4  UNL     1      19.249  22.026  21.352  1.00  0.00    -0.265 OA
BRANCH  22  24
HETATM   24  C17 UNL     1      18.622  24.286  20.977  1.00  0.00     0.113 C 
BRANCH  24  25
HETATM   25  C18 UNL     1      19.930  24.784  20.504  1.00  0.00     0.040 C 
BRANCH  25  26
HETATM   26  C19 UNL     1      20.091  24.712  19.030  1.00  0.00     0.271 C 
BRANCH  26  27
HETATM   27  N1  UNL     1      20.328  25.941  18.379  1.00  0.00     0.080 N 
HETATM   28  C20 UNL     1      20.717  25.984  17.031  1.00  0.00     0.309 C 
HETATM   29  C21 UNL     1      21.234  26.728  19.195  1.00  0.00     0.309 C 
ENDBRANCH  26  27
ENDBRANCH  25  26
ENDBRANCH  24  25
ENDBRANCH  22  24
ENDBRANCH  21  22
ENDBRANCH  20  21
ENDBRANCH  11  20
BRANCH   6  30
HETATM   30  C9  UNL     1      17.097  25.660  16.730  1.00  0.00     0.266 C 
HETATM   31  O2  UNL     1      17.271  26.019  15.547  1.00  0.00    -0.302 OA
ENDBRANCH   6  30
BRANCH  13  32
HETATM   32  O5  UNL     1      13.790  20.052  16.559  1.00  0.00    -0.394 OA
ATOM     33  H5  UNL     1      13.167  20.124  15.845  1.00  0.00     0.210 HD
ENDBRANCH  13  32
BRANCH  14  34
HETATM   34  O6  UNL     1      13.296  20.076  18.774  1.00  0.00    -0.313 OA
BRANCH  34  35
HETATM   35  C25 UNL     1      12.551  19.415  19.707  1.00  0.00     0.276 C 
HETATM   36  O7  UNL     1      13.021  19.497  20.908  1.00  0.00    -0.263 OA
BRANCH  35  37
HETATM   37  C26 UNL     1      11.320  18.643  19.519  1.00  0.00     0.227 C 
BRANCH  37  38
HETATM   38  N2  UNL     1      11.132  18.195  18.189  1.00  0.00    -0.412 N 
HETATM   39  C27 UNL     1      10.454  19.101  17.316  1.00  0.00     0.143 C 
HETATM   40  C28 UNL     1      10.785  16.817  18.039  1.00  0.00     0.143 C 
ENDBRANCH  37  38
ENDBRANCH  35  37
ENDBRANCH  34  35
ENDBRANCH  14  34
BRANCH   1  41
HETATM   41  C2  UNL     1      12.969  23.440  15.451  1.00  0.00     0.034 C 
HETATM   42  C1  UNL     1      12.807  23.005  14.013  1.00  0.00     0.008 C 
ENDBRANCH   1  41
BRANCH   1  43
HETATM   43  O1  UNL     1      15.061  24.160  14.957  1.00  0.00    -0.389 OA
ATOM     44  H1  UNL     1      15.219  24.952  15.459  1.00  0.00     0.210 HD
ENDBRANCH   1  43
TORSDOF 15
ENDMDL
MODEL 4
REMARK VINA RESULT: -5.050966946      6.885     10.981
REMARK  15 active torsions:
REMARK  status: ('A' for Active; 'I' for Inactive)
REMARK    1  A    between atoms: C2_2  and  C3_3 
REMARK    2  A    between atoms: C3_3  and  O1_4 
REMARK    3  A    between atoms: C8_10  and  C9_11 
REMARK    4  A    between atoms: C14_17  and  C15_18 
REMARK    5  A    between atoms: C15_18  and  O3_19 
REMARK    6  A    between atoms: O3_19  and  C16_20 
REMARK    7  A    between atoms: C16_20  and  C17_22 
REMARK    8  A    between atoms: C17_22  and  C18_23 
REMARK    9  A    between atoms: C18_23  and  C19_24 
REMARK   10  A    between atoms: C19_24  and  N1_25 
REMARK   11  A    between atoms: C23_29  and  O5_30 
REMARK   12  A    between atoms: C24_32  and  O6_33 
REMARK   13  A    between atoms: O6_33  and  C25_34 
REMARK   14  A    between atoms: C25_34  and  C26_36 
REMARK   15  A    between atoms: C26_36  and  N2_37 
ROOT
HETATM    1  C3  UNL     1      14.499  22.414  15.821  1.00  0.00     0.069 C 
HETATM    2  C4  UNL     1      14.766  23.734  16.415  1.00  0.00     0.055 C 
HETATM    3  C5  UNL     1      14.830  24.043  17.834  1.00  0.00     0.007 C 
HETATM    4  C6  UNL     1      13.901  23.400  18.777  1.00  0.00     0.033 C 
HETATM    5  C7  UNL     1      14.011  21.994  19.104  1.00  0.00    -0.015 C 
HETATM    6  C8  UNL     1      14.817  21.002  18.433  1.00  0.00    -0.015 C 
HETATM    7  C10 UNL     1      15.821  21.030  17.430  1.00  0.00     0.003 C 
HETATM    8  C11 UNL     1      16.312  19.556  17.308  1.00  0.00     0.022 C 
HETATM    9  C12 UNL     1      15.490  21.373  15.993  1.00  0.00     0.035 C 
HETATM   10  C13 UNL     1      16.948  21.436  15.882  1.00  0.00     0.022 C 
HETATM   11  C14 UNL     1      16.986  21.916  17.314  1.00  0.00     0.007 C 
HETATM   12  C22 UNL     1      16.943  23.393  17.204  1.00  0.00     0.032 C 
HETATM   13  C23 UNL     1      16.174  23.945  16.008  1.00  0.00     0.138 C 
HETATM   14  C24 UNL     1      18.246  24.097  16.952  1.00  0.00     0.148 C 
HETATM   15  C29 UNL     1      18.149  25.418  17.761  1.00  0.00     0.013 C 
HETATM   16  C30 UNL     1      18.805  26.573  17.110  1.00  0.00     0.012 C 
HETATM   17  C31 UNL     1      16.785  25.598  18.228  1.00  0.00     0.017 C 
HETATM   18  C32 UNL     1      16.267  24.138  18.317  1.00  0.00    -0.026 C 
HETATM   19  C33 UNL     1      16.506  23.827  19.707  1.00  0.00     0.016 C 
ENDROOT
BRANCH  11  20
HETATM   20  C15 UNL     1      18.001  21.404  18.282  1.00  0.00     0.190 C 
BRANCH  20  21
HETATM   21  O3  UNL     1      19.149  22.114  18.548  1.00  0.00    -0.321 OA
BRANCH  21  22
HETATM   22  C16 UNL     1      19.576  22.289  19.825  1.00  0.00     0.258 C 
HETATM   23  O4  UNL     1      19.071  21.620  20.754  1.00  0.00    -0.265 OA
BRANCH  22  24
HETATM   24  C17 UNL     1      20.666  23.285  20.189  1.00  0.00     0.113 C 
BRANCH  24  25
HETATM   25  C18 UNL     1      20.086  24.588  20.571  1.00  0.00     0.040 C 
BRANCH  25  26
HETATM   26  C19 UNL     1      21.101  25.586  20.993  1.00  0.00     0.271 C 
BRANCH  26  27
HETATM   27  N1  UNL     1      21.049  26.830  20.330  1.00  0.00     0.080 N 
HETATM   28  C20 UNL     1      21.872  27.098  19.224  1.00  0.00     0.309 C 
HETATM   29  C21 UNL     1      21.168  27.885  21.320  1.00  0.00     0.309 C 
ENDBRANCH  26  27
ENDBRANCH  25  26
ENDBRANCH  24  25
ENDBRANCH  22  24
ENDBRANCH  21  22
ENDBRANCH  20  21
ENDBRANCH  11  20
BRANCH   6  30
HETATM   30  C9  UNL     1      13.974  19.762  18.250  1.00  0.00     0.266 C 
HETATM   31  O2  UNL     1      12.737  19.855  18.117  1.00  0.00    -0.302 OA
ENDBRANCH   6  30
BRANCH  13  32
HETATM   32  O5  UNL     1      16.350  25.287  15.750  1.00  0.00    -0.394 OA
ATOM     33  H5  UNL     1      17.280  25.449  15.641  1.00  0.00     0.210 HD
ENDBRANCH  13  32
BRANCH  14  34
HETATM   34  O6  UNL     1      18.470  24.498  15.572  1.00  0.00    -0.313 OA
BRANCH  34  35
HETATM   35  C25 UNL     1      19.699  24.543  14.979  1.00  0.00     0.276 C 
HETATM   36  O7  UNL     1      20.486  23.579  15.329  1.00  0.00    -0.263 OA
BRANCH  35  37
HETATM   37  C26 UNL     1      20.222  25.524  14.026  1.00  0.00     0.227 C 
BRANCH  37  38
HETATM   38  N2  UNL     1      20.817  26.651  14.645  1.00  0.00    -0.412 N 
HETATM   39  C27 UNL     1      20.521  27.917  14.052  1.00  0.00     0.143 C 
HETATM   40  C28 UNL     1      22.164  26.477  15.091  1.00  0.00     0.143 C 
ENDBRANCH  37  38
ENDBRANCH  35  37
ENDBRANCH  34  35
ENDBRANCH  14  34
BRANCH   1  41
HETATM   41  C2  UNL     1      14.304  22.609  14.327  1.00  0.00     0.034 C 
HETATM   42  C1  UNL     1      12.842  22.644  13.951  1.00  0.00     0.008 C 
ENDBRANCH   1  41
BRANCH   1  43
HETATM   43  O1  UNL     1      13.226  21.957  16.212  1.00  0.00    -0.389 OA
ATOM     44  H1  UNL     1      13.100  21.222  15.624  1.00  0.00     0.210 HD
ENDBRANCH   1  43
TORSDOF 15
ENDMDL
MODEL 5
REMARK VINA RESULT: -5.046399853     12.945     18.025
REMARK  15 active torsions:
REMARK  status: ('A' for Active; 'I' for Inactive)
REMARK    1  A    between atoms: C2_2  and  C3_3 
REMARK    2  A    between atoms: C3_3  and  O1_4 
REMARK    3  A    between atoms: C8_10  and  C9_11 
REMARK    4  A    between atoms: C14_17  and  C15_18 
REMARK    5  A    between atoms: C15_18  and  O3_19 
REMARK    6  A    between atoms: O3_19  and  C16_20 
REMARK    7  A    between atoms: C16_20  and  C17_22 
REMARK    8  A    between atoms: C17_22  and  C18_23 
REMARK    9  A    between atoms: C18_23  and  C19_24 
REMARK   10  A    between atoms: C19_24  and  N1_25 
REMARK   11  A    between atoms: C23_29  and  O5_30 
REMARK   12  A    between atoms: C24_32  and  O6_33 
REMARK   13  A    between atoms: O6_33  and  C25_34 
REMARK   14  A    between atoms: C25_34  and  C26_36 
REMARK   15  A    between atoms: C26_36  and  N2_37 
ROOT
HETATM    1  C3  UNL     1      25.596  23.100  19.579  1.00  0.00     0.069 C 
HETATM    2  C4  UNL     1      25.029  23.592  20.845  1.00  0.00     0.055 C 
HETATM    3  C5  UNL     1      25.656  24.525  21.765  1.00  0.00     0.007 C 
HETATM    4  C6  UNL     1      27.105  24.461  22.015  1.00  0.00     0.033 C 
HETATM    5  C7  UNL     1      28.064  24.854  21.003  1.00  0.00    -0.015 C 
HETATM    6  C8  UNL     1      27.803  25.111  19.607  1.00  0.00    -0.015 C 
HETATM    7  C10 UNL     1      26.638  25.238  18.806  1.00  0.00     0.003 C 
HETATM    8  C11 UNL     1      27.159  25.639  17.393  1.00  0.00     0.022 C 
HETATM    9  C12 UNL     1      25.764  24.042  18.493  1.00  0.00     0.035 C 
HETATM   10  C13 UNL     1      24.858  25.083  18.004  1.00  0.00     0.022 C 
HETATM   11  C14 UNL     1      25.408  25.994  19.077  1.00  0.00     0.007 C 
HETATM   12  C22 UNL     1      24.501  25.787  20.230  1.00  0.00     0.032 C 
HETATM   13  C23 UNL     1      23.889  24.395  20.348  1.00  0.00     0.138 C 
HETATM   14  C24 UNL     1      23.222  26.575  20.242  1.00  0.00     0.148 C 
HETATM   15  C29 UNL     1      22.982  26.925  21.735  1.00  0.00     0.013 C 
HETATM   16  C30 UNL     1      21.557  26.930  22.131  1.00  0.00     0.012 C 
HETATM   17  C31 UNL     1      23.905  26.166  22.562  1.00  0.00     0.017 C 
HETATM   18  C32 UNL     1      25.098  25.928  21.599  1.00  0.00    -0.026 C 
HETATM   19  C33 UNL     1      25.976  27.021  21.946  1.00  0.00     0.016 C 
ENDROOT
BRANCH  11  20
HETATM   20  C15 UNL     1      25.726  27.425  18.799  1.00  0.00     0.190 C 
BRANCH  20  21
HETATM   21  O3  UNL     1      24.878  28.208  18.050  1.00  0.00    -0.321 OA
BRANCH  21  22
HETATM   22  C16 UNL     1      25.274  28.712  16.853  1.00  0.00     0.258 C 
HETATM   23  O4  UNL     1      26.080  29.668  16.810  1.00  0.00    -0.265 OA
BRANCH  22  24
HETATM   24  C17 UNL     1      24.773  28.155  15.530  1.00  0.00     0.113 C 
BRANCH  24  25
HETATM   25  C18 UNL     1      23.517  27.401  15.716  1.00  0.00     0.040 C 
BRANCH  25  26
HETATM   26  C19 UNL     1      22.328  28.085  15.147  1.00  0.00     0.271 C 
BRANCH  26  27
HETATM   27  N1  UNL     1      21.140  27.325  15.116  1.00  0.00     0.080 N 
HETATM   28  C20 UNL     1      21.117  26.037  14.559  1.00  0.00     0.309 C 
HETATM   29  C21 UNL     1      20.083  28.143  14.551  1.00  0.00     0.309 C 
ENDBRANCH  26  27
ENDBRANCH  25  26
ENDBRANCH  24  25
ENDBRANCH  22  24
ENDBRANCH  21  22
ENDBRANCH  20  21
ENDBRANCH  11  20
BRANCH   6  30
HETATM   30  C9  UNL     1      28.884  24.436  18.798  1.00  0.00     0.266 C 
HETATM   31  O2  UNL     1      28.906  23.193  18.687  1.00  0.00    -0.302 OA
ENDBRANCH   6  30
BRANCH  13  32
HETATM   32  O5  UNL     1      22.852  24.271  21.247  1.00  0.00    -0.394 OA
ATOM     33  H5  UNL     1      22.121  23.857  20.803  1.00  0.00     0.210 HD
ENDBRANCH  13  32
BRANCH  14  34
HETATM   34  O6  UNL     1      22.042  25.836  19.817  1.00  0.00    -0.313 OA
BRANCH  34  35
HETATM   35  C25 UNL     1      21.218  26.230  18.804  1.00  0.00     0.276 C 
HETATM   36  O7  UNL     1      21.250  27.500  18.565  1.00  0.00    -0.263 OA
BRANCH  35  37
HETATM   37  C26 UNL     1      20.323  25.415  17.979  1.00  0.00     0.227 C 
BRANCH  37  38
HETATM   38  N2  UNL     1      19.249  24.845  18.705  1.00  0.00    -0.412 N 
HETATM   39  C27 UNL     1      19.523  23.599  19.349  1.00  0.00     0.143 C 
HETATM   40  C28 UNL     1      17.959  24.957  18.100  1.00  0.00     0.143 C 
ENDBRANCH  37  38
ENDBRANCH  35  37
ENDBRANCH  34  35
ENDBRANCH  14  34
BRANCH   1  41
HETATM   41  C2  UNL     1      24.700  21.982  19.073  1.00  0.00     0.034 C 
HETATM   42  C1  UNL     1      25.495  20.761  18.674  1.00  0.00     0.008 C 
ENDBRANCH   1  41
BRANCH   1  43
HETATM   43  O1  UNL     1      26.796  22.406  19.825  1.00  0.00    -0.389 OA
ATOM     44  H1  UNL     1      27.086  22.212  18.941  1.00  0.00     0.210 HD
ENDBRANCH   1  43
TORSDOF 15
ENDMDL
