MODEL 1
REMARK VINA RESULT: -7.061440746      0.000      0.000
REMARK  3 active torsions:
REMARK  status: ('A' for Active; 'I' for Inactive)
REMARK    1  A    between atoms: C8_10  and  C9_11 
REMARK    2  A    between atoms: C9_11  and  O3_12 
REMARK    3  A    between atoms: O3_12  and  C10_13 
ROOT
HETATM    1  C1  UNL     1      -0.131  39.396  23.490  1.00  0.00     0.049 C 
HETATM    2  C2  UNL     1       0.670  38.424  23.532  1.00  0.00     0.077 C 
HETATM    3  O1  UNL     1       1.217  38.083  24.907  1.00  0.00    -0.344 OA
HETATM    4  C3  UNL     1       2.213  37.008  25.220  1.00  0.00     0.166 C 
HETATM    5  C4  UNL     1       3.582  37.655  25.264  1.00  0.00     0.038 C 
HETATM    6  C5  UNL     1       4.079  37.258  23.895  1.00  0.00     0.043 C 
HETATM    7  C6  UNL     1       2.817  37.619  23.178  1.00  0.00     0.088 C 
HETATM    8  C7  UNL     1       2.990  38.991  22.683  1.00  0.00     0.049 C 
HETATM    9  O2  UNL     1       1.721  37.125  23.737  1.00  0.00    -0.361 OA
HETATM   10  C8  UNL     1       0.903  36.121  23.936  1.00  0.00     0.119 C 
HETATM   11  C12 UNL     1       0.205  35.680  22.672  1.00  0.00     0.079 C 
HETATM   12  C13 UNL     1       0.128  36.655  21.597  1.00  0.00     0.170 A 
HETATM   13  O5  UNL     1       0.107  37.936  21.348  1.00  0.00    -0.359 OA
HETATM   14  C14 UNL     1       1.007  37.687  22.208  1.00  0.00     0.163 A 
HETATM   15  C15 UNL     1       2.284  36.840  22.168  1.00  0.00     0.201 C 
HETATM   16  O6  UNL     1       2.539  35.654  22.943  1.00  0.00    -0.363 OA
HETATM   17  C16 UNL     1       2.240  35.749  24.303  1.00  0.00     0.117 C 
HETATM   18  C17 UNL     1       2.603  34.525  24.940  1.00  0.00     0.052 C 
ENDROOT
BRANCH  10  19
HETATM   19  C9  UNL     1       0.034  35.756  25.031  1.00  0.00     0.220 C 
BRANCH  19  20
HETATM   20  O3  UNL     1      -1.075  34.986  24.862  1.00  0.00    -0.319 OA
BRANCH  20  21
HETATM   21  C10 UNL     1      -1.310  33.919  25.701  1.00  0.00     0.254 C 
HETATM   22  C11 UNL     1      -0.466  32.710  25.662  1.00  0.00     0.126 C 
HETATM   23  O4  UNL     1      -2.261  33.970  26.519  1.00  0.00    -0.266 OA
ENDBRANCH  20  21
ENDBRANCH  19  20
ENDBRANCH  10  19
TORSDOF 3
ENDMDL
MODEL 2
REMARK VINA RESULT: -6.886290074      1.655      3.015
REMARK  3 active torsions:
REMARK  status: ('A' for Active; 'I' for Inactive)
REMARK    1  A    between atoms: C8_10  and  C9_11 
REMARK    2  A    between atoms: C9_11  and  O3_12 
REMARK    3  A    between atoms: O3_12  and  C10_13 
ROOT
HETATM    1  C1  UNL     1       0.158  36.775  20.826  1.00  0.00     0.049 C 
HETATM    2  C2  UNL     1       0.657  37.486  21.739  1.00  0.00     0.077 C 
HETATM    3  O1  UNL     1      -0.340  38.138  22.681  1.00  0.00    -0.344 OA
HETATM    4  C3  UNL     1      -0.011  39.060  23.814  1.00  0.00     0.166 C 
HETATM    5  C4  UNL     1      -0.158  40.479  23.304  1.00  0.00     0.038 C 
HETATM    6  C5  UNL     1       1.297  40.798  23.058  1.00  0.00     0.043 C 
HETATM    7  C6  UNL     1       1.608  39.507  22.369  1.00  0.00     0.088 C 
HETATM    8  C7  UNL     1       1.462  39.750  20.929  1.00  0.00     0.049 C 
HETATM    9  O2  UNL     1       1.188  38.434  23.026  1.00  0.00    -0.361 OA
HETATM   10  C8  UNL     1       1.350  37.554  23.983  1.00  0.00     0.119 C 
HETATM   11  C12 UNL     1       2.575  36.695  23.783  1.00  0.00     0.079 C 
HETATM   12  C13 UNL     1       3.087  36.597  22.425  1.00  0.00     0.170 A 
HETATM   13  O5  UNL     1       2.737  36.664  21.170  1.00  0.00    -0.359 OA
HETATM   14  C14 UNL     1       2.202  37.621  21.810  1.00  0.00     0.163 A 
HETATM   15  C15 UNL     1       2.780  38.807  22.591  1.00  0.00     0.201 C 
HETATM   16  O6  UNL     1       2.652  39.033  24.007  1.00  0.00    -0.363 OA
HETATM   17  C16 UNL     1       1.364  38.883  24.525  1.00  0.00     0.117 C 
HETATM   18  C17 UNL     1       1.389  39.198  25.917  1.00  0.00     0.052 C 
ENDROOT
BRANCH  10  19
HETATM   19  C9  UNL     1       0.428  36.771  24.773  1.00  0.00     0.220 C 
BRANCH  19  20
HETATM   20  O3  UNL     1       0.392  35.412  24.727  1.00  0.00    -0.319 OA
BRANCH  20  21
HETATM   21  C10 UNL     1      -0.672  34.768  24.136  1.00  0.00     0.254 C 
HETATM   22  C11 UNL     1      -2.029  34.839  24.712  1.00  0.00     0.126 C 
HETATM   23  O4  UNL     1      -0.492  34.105  23.086  1.00  0.00    -0.266 OA
ENDBRANCH  20  21
ENDBRANCH  19  20
ENDBRANCH  10  19
TORSDOF 3
ENDMDL
MODEL 3
REMARK VINA RESULT: -6.804963341      1.507      3.287
REMARK  3 active torsions:
REMARK  status: ('A' for Active; 'I' for Inactive)
REMARK    1  A    between atoms: C8_10  and  C9_11 
REMARK    2  A    between atoms: C9_11  and  O3_12 
REMARK    3  A    between atoms: O3_12  and  C10_13 
ROOT
HETATM    1  C1  UNL     1       4.276  36.736  24.782  1.00  0.00     0.049 C 
HETATM    2  C2  UNL     1       3.297  37.043  24.051  1.00  0.00     0.077 C 
HETATM    3  O1  UNL     1       3.092  36.167  22.827  1.00  0.00    -0.344 OA
HETATM    4  C3  UNL     1       2.035  36.346  21.781  1.00  0.00     0.166 C 
HETATM    5  C4  UNL     1       2.655  37.122  20.637  1.00  0.00     0.038 C 
HETATM    6  C5  UNL     1       2.106  38.493  20.953  1.00  0.00     0.043 C 
HETATM    7  C6  UNL     1       2.416  38.434  22.415  1.00  0.00     0.088 C 
HETATM    8  C7  UNL     1       3.724  39.076  22.596  1.00  0.00     0.049 C 
HETATM    9  O2  UNL     1       2.005  37.320  23.006  1.00  0.00    -0.361 OA
HETATM   10  C8  UNL     1       1.045  36.607  23.542  1.00  0.00     0.119 C 
HETATM   11  C12 UNL     1       0.488  37.231  24.798  1.00  0.00     0.079 C 
HETATM   12  C13 UNL     1       1.346  38.180  25.489  1.00  0.00     0.170 A 
HETATM   13  O5  UNL     1       2.594  38.502  25.694  1.00  0.00    -0.359 OA
HETATM   14  C14 UNL     1       2.419  38.256  24.462  1.00  0.00     0.163 A 
HETATM   15  C15 UNL     1       1.546  38.904  23.381  1.00  0.00     0.201 C 
HETATM   16  O6  UNL     1       0.443  38.282  22.697  1.00  0.00    -0.363 OA
HETATM   17  C16 UNL     1       0.687  36.998  22.208  1.00  0.00     0.117 C 
HETATM   18  C17 UNL     1      -0.471  36.546  21.506  1.00  0.00     0.052 C 
ENDROOT
BRANCH  10  19
HETATM   19  C9  UNL     1       0.815  35.186  23.656  1.00  0.00     0.220 C 
BRANCH  19  20
HETATM   20  O3  UNL     1       0.514  34.583  24.838  1.00  0.00    -0.319 OA
BRANCH  20  21
HETATM   21  C10 UNL     1       1.417  33.727  25.427  1.00  0.00     0.254 C 
HETATM   22  C11 UNL     1       1.388  32.276  25.159  1.00  0.00     0.126 C 
HETATM   23  O4  UNL     1       2.287  34.183  26.209  1.00  0.00    -0.266 OA
ENDBRANCH  20  21
ENDBRANCH  19  20
ENDBRANCH  10  19
TORSDOF 3
ENDMDL
MODEL 4
REMARK VINA RESULT: -6.798604873      1.401      3.185
REMARK  3 active torsions:
REMARK  status: ('A' for Active; 'I' for Inactive)
REMARK    1  A    between atoms: C8_10  and  C9_11 
REMARK    2  A    between atoms: C9_11  and  O3_12 
REMARK    3  A    between atoms: O3_12  and  C10_13 
ROOT
HETATM    1  C1  UNL     1       4.284  36.590  24.740  1.00  0.00     0.049 C 
HETATM    2  C2  UNL     1       3.329  36.982  24.017  1.00  0.00     0.077 C 
HETATM    3  O1  UNL     1       3.088  36.174  22.753  1.00  0.00    -0.344 OA
HETATM    4  C3  UNL     1       2.052  36.456  21.709  1.00  0.00     0.166 C 
HETATM    5  C4  UNL     1       2.722  37.249  20.606  1.00  0.00     0.038 C 
HETATM    6  C5  UNL     1       2.244  38.632  20.981  1.00  0.00     0.043 C 
HETATM    7  C6  UNL     1       2.538  38.490  22.441  1.00  0.00     0.088 C 
HETATM    8  C7  UNL     1       3.876  39.052  22.659  1.00  0.00     0.049 C 
HETATM    9  O2  UNL     1       2.063  37.374  22.978  1.00  0.00    -0.361 OA
HETATM   10  C8  UNL     1       1.062  36.690  23.474  1.00  0.00     0.119 C 
HETATM   11  C12 UNL     1       0.528  37.286  24.755  1.00  0.00     0.079 C 
HETATM   12  C13 UNL     1       1.429  38.155  25.493  1.00  0.00     0.170 A 
HETATM   13  O5  UNL     1       2.691  38.400  25.721  1.00  0.00    -0.359 OA
HETATM   14  C14 UNL     1       2.513  38.220  24.477  1.00  0.00     0.163 A 
HETATM   15  C15 UNL     1       1.685  38.962  23.422  1.00  0.00     0.201 C 
HETATM   16  O6  UNL     1       0.557  38.432  22.703  1.00  0.00    -0.363 OA
HETATM   17  C16 UNL     1       0.736  37.160  22.158  1.00  0.00     0.117 C 
HETATM   18  C17 UNL     1      -0.438  36.803  21.429  1.00  0.00     0.052 C 
ENDROOT
BRANCH  10  19
HETATM   19  C9  UNL     1       0.755  35.280  23.522  1.00  0.00     0.220 C 
BRANCH  19  20
HETATM   20  O3  UNL     1       0.251  34.675  24.632  1.00  0.00    -0.319 OA
BRANCH  20  21
HETATM   21  C10 UNL     1      -1.045  34.209  24.637  1.00  0.00     0.254 C 
HETATM   22  C11 UNL     1      -1.613  33.533  25.820  1.00  0.00     0.126 C 
HETATM   23  O4  UNL     1      -1.763  34.359  23.619  1.00  0.00    -0.266 OA
ENDBRANCH  20  21
ENDBRANCH  19  20
ENDBRANCH  10  19
TORSDOF 3
ENDMDL
MODEL 5
REMARK VINA RESULT: -6.729278270      2.047      3.178
REMARK  3 active torsions:
REMARK  status: ('A' for Active; 'I' for Inactive)
REMARK    1  A    between atoms: C8_10  and  C9_11 
REMARK    2  A    between atoms: C9_11  and  O3_12 
REMARK    3  A    between atoms: O3_12  and  C10_13 
ROOT
HETATM    1  C1  UNL     1      -0.755  36.296  21.413  1.00  0.00     0.049 C 
HETATM    2  C2  UNL     1       0.101  36.955  22.063  1.00  0.00     0.077 C 
HETATM    3  O1  UNL     1      -0.107  36.995  23.567  1.00  0.00    -0.344 OA
HETATM    4  C3  UNL     1       0.737  37.740  24.555  1.00  0.00     0.166 C 
HETATM    5  C4  UNL     1       0.061  39.069  24.820  1.00  0.00     0.038 C 
HETATM    6  C5  UNL     1       0.907  39.950  23.932  1.00  0.00     0.043 C 
HETATM    7  C6  UNL     1       0.886  39.025  22.757  1.00  0.00     0.088 C 
HETATM    8  C7  UNL     1      -0.217  39.465  21.893  1.00  0.00     0.049 C 
HETATM    9  O2  UNL     1       1.190  37.770  23.056  1.00  0.00    -0.361 OA
HETATM   10  C8  UNL     1       2.086  36.850  23.315  1.00  0.00     0.119 C 
HETATM   11  C12 UNL     1       2.987  36.567  22.137  1.00  0.00     0.079 C 
HETATM   12  C13 UNL     1       2.474  36.927  20.825  1.00  0.00     0.170 A 
HETATM   13  O5  UNL     1       1.373  37.096  20.144  1.00  0.00    -0.359 OA
HETATM   14  C14 UNL     1       1.254  37.643  21.282  1.00  0.00     0.163 A 
HETATM   15  C15 UNL     1       2.002  38.787  21.976  1.00  0.00     0.201 C 
HETATM   16  O6  UNL     1       2.813  38.675  23.160  1.00  0.00    -0.363 OA
HETATM   17  C16 UNL     1       2.241  37.958  24.213  1.00  0.00     0.117 C 
HETATM   18  C17 UNL     1       3.133  37.990  25.327  1.00  0.00     0.052 C 
ENDROOT
BRANCH  10  19
HETATM   19  C9  UNL     1       2.065  35.645  24.110  1.00  0.00     0.220 C 
BRANCH  19  20
HETATM   20  O3  UNL     1       3.018  34.680  24.007  1.00  0.00    -0.319 OA
BRANCH  20  21
HETATM   21  C10 UNL     1       3.566  34.125  25.142  1.00  0.00     0.254 C 
HETATM   22  C11 UNL     1       4.664  33.141  25.064  1.00  0.00     0.126 C 
HETATM   23  O4  UNL     1       3.128  34.457  26.270  1.00  0.00    -0.266 OA
ENDBRANCH  20  21
ENDBRANCH  19  20
ENDBRANCH  10  19
TORSDOF 3
ENDMDL
