MODEL 1
REMARK VINA RESULT: -6.968287046      0.000      0.000
REMARK  8 active torsions:
REMARK  status: ('A' for Active; 'I' for Inactive)
REMARK    1  A    between atoms: C7_7  and  N1_8 
REMARK    2  A    between atoms: C8_10  and  C10_12 
REMARK    3  A    between atoms: C10_12  and  O1_13 
REMARK    4  A    between atoms: C10_12  and  C11_15 
REMARK    5  A    between atoms: C11_15  and  C13_17 
REMARK    6  A    between atoms: C16_20  and  O2_21 
REMARK    7  A    between atoms: C19_25  and  O3_27 
REMARK    8  A    between atoms: C19_25  and  C21_29 
ROOT
HETATM    1  C11 UNL     1      16.539  17.590  14.424  1.00  0.00     0.043 C 
HETATM    2  C12 UNL     1      17.343  18.374  15.474  1.00  0.00     0.017 C 
ENDROOT
BRANCH   1   3
HETATM    3  C10 UNL     1      15.078  17.660  14.603  1.00  0.00     0.170 C 
BRANCH   3   4
HETATM    4  C8  UNL     1      14.429  16.501  15.188  1.00  0.00     0.008 C 
HETATM    5  N1  UNL     1      14.052  16.422  16.334  1.00  0.00    -0.386 N 
ATOM      6  H1  UNL     1      13.653  15.486  16.400  1.00  0.00     0.160 HD
HETATM    7  C9  UNL     1      14.191  15.279  14.320  1.00  0.00     0.066 C 
BRANCH   5   8
HETATM    8  C7  UNL     1      13.888  16.937  17.572  1.00  0.00     0.110 C 
HETATM    9  C2  UNL     1      15.032  16.519  18.496  1.00  0.00    -0.065 C 
HETATM   10  C1  UNL     1      16.069  17.510  18.786  1.00  0.00     0.045 C 
HETATM   11  C3  UNL     1      14.977  15.282  18.953  1.00  0.00    -0.022 C 
HETATM   12  C4  UNL     1      13.874  14.347  18.597  1.00  0.00     0.027 C 
HETATM   13  C5  UNL     1      12.534  15.018  18.470  1.00  0.00     0.006 C 
HETATM   14  C6  UNL     1      12.652  16.515  18.347  1.00  0.00     0.030 C 
ENDBRANCH   5   8
ENDBRANCH   3   4
BRANCH   3  15
HETATM   15  O1  UNL     1      14.382  18.011  13.459  1.00  0.00    -0.389 OA
ATOM     16  H1  UNL     1      14.007  18.873  13.595  1.00  0.00     0.210 HD
ENDBRANCH   3  15
ENDBRANCH   1   3
BRANCH   1  17
HETATM   17  C13 UNL     1      17.027  18.008  13.106  1.00  0.00    -0.071 A 
HETATM   18  C14 UNL     1      17.431  18.354  12.010  1.00  0.00     0.020 A 
HETATM   19  C15 UNL     1      18.503  19.401  11.820  1.00  0.00     0.049 C 
HETATM   20  C21 UNL     1      16.636  17.501  10.974  1.00  0.00     0.050 A 
HETATM   21  C18 UNL     1      17.393  17.200  11.914  1.00  0.00     0.020 A 
HETATM   22  C19 UNL     1      16.781  18.054  10.680  1.00  0.00     0.056 A 
HETATM   23  C16 UNL     1      19.612  18.380  12.108  1.00  0.00     0.120 C 
HETATM   24  C17 UNL     1      18.879  17.113  11.688  1.00  0.00     0.049 C 
HETATM   25  C20 UNL     1      15.965  19.304  10.858  1.00  0.00     0.045 C 
BRANCH  23  26
HETATM   26  O2  UNL     1      20.708  18.495  11.326  1.00  0.00    -0.396 OA
ATOM     27  H2  UNL     1      20.709  17.938  10.556  1.00  0.00     0.210 HD
ENDBRANCH  23  26
BRANCH  22  28
HETATM   28  O3  UNL     1      17.622  18.077   9.529  1.00  0.00    -0.390 OA
ATOM     29  H3  UNL     1      17.144  18.070   8.708  1.00  0.00     0.210 HD
ENDBRANCH  22  28
ENDBRANCH   1  17
TORSDOF 8
ENDMDL
MODEL 2
REMARK VINA RESULT: -6.945620533      3.630      7.065
REMARK  8 active torsions:
REMARK  status: ('A' for Active; 'I' for Inactive)
REMARK    1  A    between atoms: C7_7  and  N1_8 
REMARK    2  A    between atoms: C8_10  and  C10_12 
REMARK    3  A    between atoms: C10_12  and  O1_13 
REMARK    4  A    between atoms: C10_12  and  C11_15 
REMARK    5  A    between atoms: C11_15  and  C13_17 
REMARK    6  A    between atoms: C16_20  and  O2_21 
REMARK    7  A    between atoms: C19_25  and  O3_27 
REMARK    8  A    between atoms: C19_25  and  C21_29 
ROOT
HETATM    1  C11 UNL     1      14.767  17.789  15.864  1.00  0.00     0.043 C 
HETATM    2  C12 UNL     1      16.270  17.711  16.179  1.00  0.00     0.017 C 
ENDROOT
BRANCH   1   3
HETATM    3  C10 UNL     1      14.445  17.719  14.428  1.00  0.00     0.170 C 
BRANCH   3   4
HETATM    4  C8  UNL     1      13.742  18.853  13.854  1.00  0.00     0.008 C 
HETATM    5  N1  UNL     1      12.685  19.285  14.251  1.00  0.00    -0.386 N 
ATOM      6  H1  UNL     1      12.488  20.068  13.628  1.00  0.00     0.160 HD
HETATM    7  C9  UNL     1      14.356  19.571  12.667  1.00  0.00     0.066 C 
BRANCH   5   8
HETATM    8  C7  UNL     1      11.631  19.264  15.095  1.00  0.00     0.110 C 
HETATM    9  C2  UNL     1      10.364  18.796  14.380  1.00  0.00    -0.065 C 
HETATM   10  C1  UNL     1       9.917  17.423  14.616  1.00  0.00     0.045 C 
HETATM   11  C3  UNL     1       9.782  19.689  13.602  1.00  0.00    -0.022 C 
HETATM   12  C4  UNL     1      10.318  21.067  13.427  1.00  0.00     0.027 C 
HETATM   13  C5  UNL     1      10.922  21.640  14.680  1.00  0.00     0.006 C 
HETATM   14  C6  UNL     1      11.206  20.584  15.716  1.00  0.00     0.030 C 
ENDBRANCH   5   8
ENDBRANCH   3   4
BRANCH   3  15
HETATM   15  O1  UNL     1      13.780  16.565  14.050  1.00  0.00    -0.389 OA
ATOM     16  H1  UNL     1      14.169  15.835  14.516  1.00  0.00     0.210 HD
ENDBRANCH   3  15
ENDBRANCH   1   3
BRANCH   1  17
HETATM   17  C13 UNL     1      14.098  16.789  16.702  1.00  0.00    -0.071 A 
HETATM   18  C14 UNL     1      13.540  15.960  17.398  1.00  0.00     0.020 A 
HETATM   19  C15 UNL     1      14.279  14.855  18.115  1.00  0.00     0.049 C 
HETATM   20  C21 UNL     1      12.024  16.323  17.363  1.00  0.00     0.050 A 
HETATM   21  C18 UNL     1      13.035  16.949  17.728  1.00  0.00     0.020 A 
HETATM   22  C19 UNL     1      12.055  15.688  17.452  1.00  0.00     0.056 A 
HETATM   23  C16 UNL     1      14.683  15.803  19.251  1.00  0.00     0.120 C 
HETATM   24  C17 UNL     1      13.543  16.805  19.138  1.00  0.00     0.049 C 
HETATM   25  C20 UNL     1      12.246  14.719  16.319  1.00  0.00     0.045 C 
BRANCH  23  26
HETATM   26  O2  UNL     1      14.629  15.262  20.489  1.00  0.00    -0.396 OA
ATOM     27  H2  UNL     1      14.441  15.879  21.186  1.00  0.00     0.210 HD
ENDBRANCH  23  26
BRANCH  22  28
HETATM   28  O3  UNL     1      11.550  15.086  18.642  1.00  0.00    -0.390 OA
ATOM     29  H3  UNL     1      10.738  15.473  18.949  1.00  0.00     0.210 HD
ENDBRANCH  22  28
ENDBRANCH   1  17
TORSDOF 8
ENDMDL
MODEL 3
REMARK VINA RESULT: -6.928669408      4.190      7.520
REMARK  8 active torsions:
REMARK  status: ('A' for Active; 'I' for Inactive)
REMARK    1  A    between atoms: C7_7  and  N1_8 
REMARK    2  A    between atoms: C8_10  and  C10_12 
REMARK    3  A    between atoms: C10_12  and  O1_13 
REMARK    4  A    between atoms: C10_12  and  C11_15 
REMARK    5  A    between atoms: C11_15  and  C13_17 
REMARK    6  A    between atoms: C16_20  and  O2_21 
REMARK    7  A    between atoms: C19_25  and  O3_27 
REMARK    8  A    between atoms: C19_25  and  C21_29 
ROOT
HETATM    1  C11 UNL     1      15.695  17.305  18.711  1.00  0.00     0.043 C 
HETATM    2  C12 UNL     1      16.677  17.995  17.748  1.00  0.00     0.017 C 
ENDROOT
BRANCH   1   3
HETATM    3  C10 UNL     1      15.010  16.133  18.139  1.00  0.00     0.170 C 
BRANCH   3   4
HETATM    4  C8  UNL     1      13.572  16.233  17.960  1.00  0.00     0.008 C 
HETATM    5  N1  UNL     1      12.979  15.949  16.945  1.00  0.00    -0.386 N 
ATOM      6  H1  UNL     1      12.002  16.137  17.168  1.00  0.00     0.160 HD
HETATM    7  C9  UNL     1      12.722  16.726  19.116  1.00  0.00     0.066 C 
BRANCH   5   8
HETATM    8  C7  UNL     1      12.946  15.510  15.668  1.00  0.00     0.110 C 
HETATM    9  C2  UNL     1      13.569  16.535  14.720  1.00  0.00    -0.065 C 
HETATM   10  C1  UNL     1      14.921  16.271  14.227  1.00  0.00     0.045 C 
HETATM   11  C3  UNL     1      12.816  17.579  14.429  1.00  0.00    -0.022 C 
HETATM   12  C4  UNL     1      11.445  17.755  14.985  1.00  0.00     0.027 C 
HETATM   13  C5  UNL     1      10.684  16.466  15.128  1.00  0.00     0.006 C 
HETATM   14  C6  UNL     1      11.581  15.258  15.051  1.00  0.00     0.030 C 
ENDBRANCH   5   8
ENDBRANCH   3   4
BRANCH   3  15
HETATM   15  O1  UNL     1      15.280  14.943  18.794  1.00  0.00    -0.389 OA
ATOM     16  H1  UNL     1      16.070  14.573  18.418  1.00  0.00     0.210 HD
ENDBRANCH   3  15
ENDBRANCH   1   3
BRANCH   1  17
HETATM   17  C13 UNL     1      16.419  17.057  19.961  1.00  0.00    -0.071 A 
HETATM   18  C14 UNL     1      17.020  16.853  21.001  1.00  0.00     0.020 A 
HETATM   19  C15 UNL     1      17.868  15.625  21.235  1.00  0.00     0.049 C 
HETATM   20  C21 UNL     1      16.720  18.081  21.915  1.00  0.00     0.050 A 
HETATM   21  C18 UNL     1      17.245  17.971  20.793  1.00  0.00     0.020 A 
HETATM   22  C19 UNL     1      16.822  17.583  22.308  1.00  0.00     0.056 A 
HETATM   23  C16 UNL     1      19.044  16.237  20.462  1.00  0.00     0.120 C 
HETATM   24  C17 UNL     1      18.723  17.710  20.674  1.00  0.00     0.049 C 
HETATM   25  C20 UNL     1      15.751  16.582  22.643  1.00  0.00     0.045 C 
BRANCH  23  26
HETATM   26  O2  UNL     1      20.261  16.003  21.002  1.00  0.00    -0.396 OA
ATOM     27  H2  UNL     1      20.706  15.235  20.665  1.00  0.00     0.210 HD
ENDBRANCH  23  26
BRANCH  22  28
HETATM   28  O3  UNL     1      17.915  17.580  23.224  1.00  0.00    -0.390 OA
ATOM     29  H3  UNL     1      17.777  17.023  23.980  1.00  0.00     0.210 HD
ENDBRANCH  22  28
ENDBRANCH   1  17
TORSDOF 8
ENDMDL
MODEL 4
REMARK VINA RESULT: -6.927113928      2.491      7.529
REMARK  8 active torsions:
REMARK  status: ('A' for Active; 'I' for Inactive)
REMARK    1  A    between atoms: C7_7  and  N1_8 
REMARK    2  A    between atoms: C8_10  and  C10_12 
REMARK    3  A    between atoms: C10_12  and  O1_13 
REMARK    4  A    between atoms: C10_12  and  C11_15 
REMARK    5  A    between atoms: C11_15  and  C13_17 
REMARK    6  A    between atoms: C16_20  and  O2_21 
REMARK    7  A    between atoms: C19_25  and  O3_27 
REMARK    8  A    between atoms: C19_25  and  C21_29 
ROOT
HETATM    1  C11 UNL     1      15.315  17.375  15.854  1.00  0.00     0.043 C 
HETATM    2  C12 UNL     1      16.627  17.588  16.628  1.00  0.00     0.017 C 
ENDROOT
BRANCH   1   3
HETATM    3  C10 UNL     1      15.495  16.841  14.493  1.00  0.00     0.170 C 
BRANCH   3   4
HETATM    4  C8  UNL     1      15.258  17.755  13.390  1.00  0.00     0.008 C 
HETATM    5  N1  UNL     1      15.942  17.835  12.397  1.00  0.00    -0.386 N 
ATOM      6  H1  UNL     1      15.495  18.567  11.845  1.00  0.00     0.160 HD
HETATM    7  C9  UNL     1      14.068  18.694  13.460  1.00  0.00     0.066 C 
BRANCH   5   8
HETATM    8  C7  UNL     1      16.995  17.453  11.642  1.00  0.00     0.110 C 
HETATM    9  C2  UNL     1      18.159  18.433  11.787  1.00  0.00    -0.065 C 
HETATM   10  C1  UNL     1      19.284  18.033  12.633  1.00  0.00     0.045 C 
HETATM   11  C3  UNL     1      18.038  19.568  11.126  1.00  0.00    -0.022 C 
HETATM   12  C4  UNL     1      16.847  19.882  10.288  1.00  0.00     0.027 C 
HETATM   13  C5  UNL     1      16.286  18.686   9.569  1.00  0.00     0.006 C 
HETATM   14  C6  UNL     1      16.790  17.385  10.138  1.00  0.00     0.030 C 
ENDBRANCH   5   8
ENDBRANCH   3   4
BRANCH   3  15
HETATM   15  O1  UNL     1      14.792  15.675  14.243  1.00  0.00    -0.389 OA
ATOM     16  H1  UNL     1      14.836  15.132  15.022  1.00  0.00     0.210 HD
ENDBRANCH   3  15
ENDBRANCH   1   3
BRANCH   1  17
HETATM   17  C13 UNL     1      14.426  16.592  16.719  1.00  0.00    -0.071 A 
HETATM   18  C14 UNL     1      13.685  15.944  17.437  1.00  0.00     0.020 A 
HETATM   19  C15 UNL     1      14.144  14.733  18.214  1.00  0.00     0.049 C 
HETATM   20  C21 UNL     1      12.293  16.642  17.355  1.00  0.00     0.050 A 
HETATM   21  C18 UNL     1      13.416  17.037  17.715  1.00  0.00     0.020 A 
HETATM   22  C19 UNL     1      12.177  16.021  17.471  1.00  0.00     0.056 A 
HETATM   23  C16 UNL     1      14.742  15.614  19.318  1.00  0.00     0.120 C 
HETATM   24  C17 UNL     1      13.862  16.844  19.140  1.00  0.00     0.049 C 
HETATM   25  C20 UNL     1      12.154  14.984  16.382  1.00  0.00     0.045 C 
BRANCH  23  26
HETATM   26  O2  UNL     1      14.552  15.155  20.575  1.00  0.00    -0.396 OA
ATOM     27  H2  UNL     1      13.662  14.889  20.772  1.00  0.00     0.210 HD
ENDBRANCH  23  26
BRANCH  22  28
HETATM   28  O3  UNL     1      11.535  15.604  18.674  1.00  0.00    -0.390 OA
ATOM     29  H3  UNL     1      10.671  15.234  18.535  1.00  0.00     0.210 HD
ENDBRANCH  22  28
ENDBRANCH   1  17
TORSDOF 8
ENDMDL
MODEL 5
REMARK VINA RESULT: -6.886660734      2.407      7.253
REMARK  8 active torsions:
REMARK  status: ('A' for Active; 'I' for Inactive)
REMARK    1  A    between atoms: C7_7  and  N1_8 
REMARK    2  A    between atoms: C8_10  and  C10_12 
REMARK    3  A    between atoms: C10_12  and  O1_13 
REMARK    4  A    between atoms: C10_12  and  C11_15 
REMARK    5  A    between atoms: C11_15  and  C13_17 
REMARK    6  A    between atoms: C16_20  and  O2_21 
REMARK    7  A    between atoms: C19_25  and  O3_27 
REMARK    8  A    between atoms: C19_25  and  C21_29 
ROOT
HETATM    1  C11 UNL     1      16.185  18.171  15.985  1.00  0.00     0.043 C 
HETATM    2  C12 UNL     1      16.790  18.148  17.398  1.00  0.00     0.017 C 
ENDROOT
BRANCH   1   3
HETATM    3  C10 UNL     1      17.156  17.919  14.906  1.00  0.00     0.170 C 
BRANCH   3   4
HETATM    4  C8  UNL     1      17.657  19.077  14.187  1.00  0.00     0.008 C 
HETATM    5  N1  UNL     1      18.682  19.104  13.546  1.00  0.00    -0.386 N 
ATOM      6  H1  UNL     1      18.724  20.057  13.185  1.00  0.00     0.160 HD
HETATM    7  C9  UNL     1      16.857  20.366  14.225  1.00  0.00     0.066 C 
BRANCH   5   8
HETATM    8  C7  UNL     1      19.800  18.521  13.061  1.00  0.00     0.110 C 
HETATM    9  C2  UNL     1      20.646  19.523  12.276  1.00  0.00    -0.065 C 
HETATM   10  C1  UNL     1      21.838  20.065  12.929  1.00  0.00     0.045 C 
HETATM   11  C3  UNL     1      20.215  19.811  11.063  1.00  0.00    -0.022 C 
HETATM   12  C4  UNL     1      18.984  19.202  10.487  1.00  0.00     0.027 C 
HETATM   13  C5  UNL     1      18.776  17.769  10.891  1.00  0.00     0.006 C 
HETATM   14  C6  UNL     1      19.621  17.378  12.076  1.00  0.00     0.030 C 
ENDBRANCH   5   8
ENDBRANCH   3   4
BRANCH   3  15
HETATM   15  O1  UNL     1      16.741  16.983  13.975  1.00  0.00    -0.389 OA
ATOM     16  H1  UNL     1      17.269  16.201  14.088  1.00  0.00     0.210 HD
ENDBRANCH   3  15
ENDBRANCH   1   3
BRANCH   1  17
HETATM   17  C13 UNL     1      15.022  17.277  15.999  1.00  0.00    -0.071 A 
HETATM   18  C14 UNL     1      14.055  16.536  16.008  1.00  0.00     0.020 A 
HETATM   19  C15 UNL     1      13.794  15.538  17.111  1.00  0.00     0.049 C 
HETATM   20  C21 UNL     1      13.245  16.875  14.720  1.00  0.00     0.050 A 
HETATM   21  C18 UNL     1      13.593  17.553  15.703  1.00  0.00     0.020 A 
HETATM   22  C19 UNL     1      13.129  16.256  14.849  1.00  0.00     0.056 A 
HETATM   23  C16 UNL     1      13.198  16.626  18.014  1.00  0.00     0.120 C 
HETATM   24  C17 UNL     1      12.728  17.593  16.936  1.00  0.00     0.049 C 
HETATM   25  C20 UNL     1      14.065  15.155  14.436  1.00  0.00     0.045 C 
BRANCH  23  26
HETATM   26  O2  UNL     1      12.111  16.244  18.720  1.00  0.00    -0.396 OA
ATOM     27  H2  UNL     1      11.297  16.655  18.453  1.00  0.00     0.210 HD
ENDBRANCH  23  26
BRANCH  22  28
HETATM   28  O3  UNL     1      11.815  15.803  15.165  1.00  0.00    -0.390 OA
ATOM     29  H3  UNL     1      11.593  14.970  14.766  1.00  0.00     0.210 HD
ENDBRANCH  22  28
ENDBRANCH   1  17
TORSDOF 8
ENDMDL
