MODEL 1
REMARK VINA RESULT: -9.798276230      0.000      0.000
REMARK  3 active torsions:
REMARK  status: ('A' for Active; 'I' for Inactive)
REMARK    1  A    between atoms: N1_1  and  C1_4 
REMARK    2  A    between atoms: N5_21  and  C12_22 
REMARK    3  A    between atoms: C15_25  and  C16_26 
ROOT
HETATM    1  C1  UNL     1      40.635  -6.497  35.954  1.00  0.00     0.113 C 
HETATM    2  C2  UNL     1      40.364  -5.615  36.968  1.00  0.00     0.024 A 
HETATM    3  C3  UNL     1      39.998  -4.446  36.855  1.00  0.00    -0.035 A 
HETATM    4  C4  UNL     1      39.911  -3.642  38.175  1.00  0.00     0.086 A 
HETATM    5  N2  UNL     1      39.663  -2.635  38.983  1.00  0.00    -0.394 N 
ATOM      6  H2  UNL     1      39.591  -2.202  39.904  1.00  0.00     0.155 HD
HETATM    7  C5  UNL     1      39.612  -2.629  38.172  1.00  0.00     0.073 A 
HETATM    8  C6  UNL     1      40.106  -4.172  38.552  1.00  0.00     0.073 A 
HETATM    9  C7  UNL     1      40.446  -5.442  38.299  1.00  0.00     0.016 A 
HETATM   10  C8  UNL     1      40.772  -6.283  39.461  1.00  0.00     0.105 A 
HETATM   11  N3  UNL     1      40.591  -5.383  40.320  1.00  0.00    -0.367 N 
ATOM     12  H3  UNL     1      40.690  -5.434  41.334  1.00  0.00     0.161 HD
HETATM   13  C9  UNL     1      40.208  -4.255  39.500  1.00  0.00     0.135 A 
HETATM   14  N4  UNL     1      41.078  -7.650  39.454  1.00  0.00    -0.374 N 
ATOM     15  H4  UNL     1      41.330  -7.993  40.381  1.00  0.00     0.161 HD
HETATM   16  C10 UNL     1      41.125  -8.698  38.450  1.00  0.00     0.141 C 
HETATM   17  C11 UNL     1      40.022  -8.664  37.409  1.00  0.00     0.150 C 
HETATM   18  N5  UNL     1      40.469  -7.900  36.199  1.00  0.00    -0.331 N 
HETATM   19  C28 UNL     1      39.405  -2.547  36.889  1.00  0.00     0.035 C 
HETATM   20  C29 UNL     1      38.493  -2.083  35.880  1.00  0.00     0.003 C 
HETATM   21  C30 UNL     1      38.153  -3.513  35.460  1.00  0.00     0.004 C 
HETATM   22  C31 UNL     1      39.506  -4.241  35.462  1.00  0.00     0.038 C 
ENDROOT
BRANCH  18  23
HETATM   23  C12 UNL     1      40.882  -8.728  35.183  1.00  0.00     0.036 A 
HETATM   24  C13 UNL     1      39.916  -9.267  34.352  1.00  0.00     0.030 A 
HETATM   25  C14 UNL     1      40.281 -10.061  33.288  1.00  0.00     0.017 A 
HETATM   26  C15 UNL     1      41.608 -10.347  33.007  1.00  0.00     0.008 A 
HETATM   27  C26 UNL     1      42.526  -9.802  33.846  1.00  0.00     0.017 A 
HETATM   28  C27 UNL     1      42.215  -8.999  34.932  1.00  0.00     0.030 A 
BRANCH  26  29
HETATM   29  C16 UNL     1      41.941 -11.152  31.852  1.00  0.00     0.116 A 
HETATM   30  N6  UNL     1      41.601 -12.455  31.684  1.00  0.00    -0.338 N 
HETATM   31  C17 UNL     1      42.033 -12.932  30.512  1.00  0.00     0.088 A 
ATOM     32  H6  UNL     1      41.080 -13.003  32.368  1.00  0.00     0.167 HD
HETATM   33  C18 UNL     1      42.686 -11.863  29.905  1.00  0.00     0.063 A 
HETATM   34  C25 UNL     1      41.936 -14.157  29.911  1.00  0.00     0.071 A 
HETATM   35  C19 UNL     1      43.248 -12.033  28.669  1.00  0.00     0.033 A 
HETATM   36  N8  UNL     1      42.606 -10.824  30.737  1.00  0.00    -0.340 N 
HETATM   37  C20 UNL     1      43.170 -13.273  28.019  1.00  0.00     0.016 A 
HETATM   38  C21 UNL     1      42.507 -14.305  28.672  1.00  0.00    -0.007 A 
HETATM   39  C22 UNL     1      42.441 -15.555  28.013  1.00  0.00     0.015 A 
HETATM   40  C23 UNL     1      41.801 -16.613  28.617  1.00  0.00     0.018 A 
HETATM   41  C24 UNL     1      41.238 -16.406  29.872  1.00  0.00     0.088 A 
HETATM   42  N7  UNL     1      41.323 -15.211  30.465  1.00  0.00    -0.363 N 
ATOM     43  H7  UNL     1      40.899 -15.095  31.386  1.00  0.00     0.165 HD
ATOM     44  H8  UNL     1      43.000  -9.901  30.549  1.00  0.00     0.167 HD
ENDBRANCH  26  29
ENDBRANCH  18  23
BRANCH   1  45
HETATM   45  N1  UNL     1      41.027  -5.976  35.202  1.00  0.00    -0.385 N 
ATOM     46  H12 UNL     1      40.704  -5.755  34.260  1.00  0.00     0.157 HD
ATOM     47  H11 UNL     1      41.986  -5.742  35.460  1.00  0.00     0.157 HD
ENDBRANCH   1  45
TORSDOF 3
ENDMDL
MODEL 2
REMARK VINA RESULT: -9.246987998      5.177     10.145
REMARK  3 active torsions:
REMARK  status: ('A' for Active; 'I' for Inactive)
REMARK    1  A    between atoms: N1_1  and  C1_4 
REMARK    2  A    between atoms: N5_21  and  C12_22 
REMARK    3  A    between atoms: C15_25  and  C16_26 
ROOT
HETATM    1  C1  UNL     1      39.230  -5.221  36.218  1.00  0.00     0.113 C 
HETATM    2  C2  UNL     1      39.757  -5.907  37.282  1.00  0.00     0.024 A 
HETATM    3  C3  UNL     1      39.974  -7.116  37.349  1.00  0.00    -0.035 A 
HETATM    4  C4  UNL     1      40.438  -7.636  38.731  1.00  0.00     0.086 A 
HETATM    5  N2  UNL     1      40.866  -8.481  39.643  1.00  0.00    -0.394 N 
ATOM      6  H2  UNL     1      41.209  -8.721  40.573  1.00  0.00     0.155 HD
HETATM    7  C5  UNL     1      40.641  -8.660  38.883  1.00  0.00     0.073 A 
HETATM    8  C6  UNL     1      40.421  -7.016  39.009  1.00  0.00     0.073 A 
HETATM    9  C7  UNL     1      40.114  -5.788  38.573  1.00  0.00     0.016 A 
HETATM   10  C8  UNL     1      40.262  -4.687  39.536  1.00  0.00     0.105 A 
HETATM   11  N3  UNL     1      40.651  -5.409  40.489  1.00  0.00    -0.367 N 
ATOM     12  H3  UNL     1      40.903  -5.136  41.439  1.00  0.00     0.161 HD
HETATM   13  C9  UNL     1      40.650  -6.725  39.892  1.00  0.00     0.135 A 
HETATM   14  N4  UNL     1      40.076  -3.321  39.292  1.00  0.00    -0.374 N 
ATOM     15  H4  UNL     1      40.177  -2.761  40.139  1.00  0.00     0.161 HD
HETATM   16  C10 UNL     1      39.774  -2.506  38.128  1.00  0.00     0.141 C 
HETATM   17  C11 UNL     1      40.458  -2.920  36.838  1.00  0.00     0.150 C 
HETATM   18  N5  UNL     1      39.575  -3.839  36.050  1.00  0.00    -0.331 N 
HETATM   19  C28 UNL     1      40.398  -9.034  37.659  1.00  0.00     0.035 C 
HETATM   20  C29 UNL     1      40.881  -9.828  36.563  1.00  0.00     0.003 C 
HETATM   21  C30 UNL     1      41.167  -8.583  35.723  1.00  0.00     0.004 C 
HETATM   22  C31 UNL     1      39.953  -7.674  35.966  1.00  0.00     0.038 C 
ENDROOT
BRANCH  18  23
HETATM   23  C12 UNL     1      38.909  -3.184  35.042  1.00  0.00     0.036 A 
HETATM   24  C13 UNL     1      37.565  -2.911  35.222  1.00  0.00     0.030 A 
HETATM   25  C14 UNL     1      36.865  -2.212  34.265  1.00  0.00     0.017 A 
HETATM   26  C15 UNL     1      37.466  -1.757  33.102  1.00  0.00     0.008 A 
HETATM   27  C26 UNL     1      38.786  -2.046  32.960  1.00  0.00     0.017 A 
HETATM   28  C27 UNL     1      39.538  -2.747  33.889  1.00  0.00     0.030 A 
BRANCH  26  29
HETATM   29  C16 UNL     1      36.696  -0.990  32.147  1.00  0.00     0.116 A 
HETATM   30  N6  UNL     1      35.563  -1.416  31.535  1.00  0.00    -0.338 N 
HETATM   31  C17 UNL     1      35.063  -0.487  30.714  1.00  0.00     0.088 A 
ATOM     32  H6  UNL     1      35.144  -2.334  31.683  1.00  0.00     0.167 HD
HETATM   33  C18 UNL     1      35.937   0.592  30.816  1.00  0.00     0.063 A 
HETATM   34  C25 UNL     1      33.964  -0.455  29.900  1.00  0.00     0.071 A 
HETATM   35  C19 UNL     1      35.695   1.723  30.084  1.00  0.00     0.033 A 
HETATM   36  N8  UNL     1      36.893   0.250  31.679  1.00  0.00    -0.340 N 
HETATM   37  C20 UNL     1      34.579   1.796  29.239  1.00  0.00     0.016 A 
HETATM   38  C21 UNL     1      33.741   0.690  29.177  1.00  0.00    -0.007 A 
HETATM   39  C22 UNL     1      32.623   0.769  28.315  1.00  0.00     0.015 A 
HETATM   40  C23 UNL     1      31.763  -0.301  28.210  1.00  0.00     0.018 A 
HETATM   41  C24 UNL     1      32.036  -1.434  28.968  1.00  0.00     0.088 A 
HETATM   42  N7  UNL     1      33.105  -1.473  29.771  1.00  0.00    -0.363 N 
ATOM     43  H7  UNL     1      33.274  -2.321  30.311  1.00  0.00     0.165 HD
ATOM     44  H8  UNL     1      37.672   0.852  31.948  1.00  0.00     0.167 HD
ENDBRANCH  26  29
ENDBRANCH  18  23
BRANCH   1  45
HETATM   45  N1  UNL     1      38.570  -5.819  35.774  1.00  0.00    -0.385 N 
ATOM     46  H12 UNL     1      38.585  -6.361  34.910  1.00  0.00     0.157 HD
ATOM     47  H11 UNL     1      37.692  -5.738  36.286  1.00  0.00     0.157 HD
ENDBRANCH   1  45
TORSDOF 3
ENDMDL
MODEL 3
REMARK VINA RESULT: -9.122850871      4.811     10.225
REMARK  3 active torsions:
REMARK  status: ('A' for Active; 'I' for Inactive)
REMARK    1  A    between atoms: N1_1  and  C1_4 
REMARK    2  A    between atoms: N5_21  and  C12_22 
REMARK    3  A    between atoms: C15_25  and  C16_26 
ROOT
HETATM    1  C1  UNL     1      40.295  -6.164  36.588  1.00  0.00     0.113 C 
HETATM    2  C2  UNL     1      40.942  -6.941  37.513  1.00  0.00     0.024 A 
HETATM    3  C3  UNL     1      41.434  -8.054  37.331  1.00  0.00    -0.035 A 
HETATM    4  C4  UNL     1      41.973  -8.762  38.597  1.00  0.00     0.086 A 
HETATM    5  N2  UNL     1      42.565  -9.678  39.333  1.00  0.00    -0.394 N 
ATOM      6  H2  UNL     1      42.932 -10.043  40.211  1.00  0.00     0.155 HD
HETATM    7  C5  UNL     1      42.407  -9.722  38.537  1.00  0.00     0.073 A 
HETATM    8  C6  UNL     1      41.805  -8.243  39.002  1.00  0.00     0.073 A 
HETATM    9  C7  UNL     1      41.231  -7.047  38.822  1.00  0.00     0.016 A 
HETATM   10  C8  UNL     1      41.093  -6.193  40.012  1.00  0.00     0.105 A 
HETATM   11  N3  UNL     1      41.618  -7.010  40.811  1.00  0.00    -0.367 N 
ATOM     12  H3  UNL     1      41.775  -6.914  41.814  1.00  0.00     0.161 HD
HETATM   13  C9  UNL     1      41.939  -8.120  39.942  1.00  0.00     0.135 A 
HETATM   14  N4  UNL     1      40.599  -4.884  40.059  1.00  0.00    -0.374 N 
ATOM     15  H4  UNL     1      40.546  -4.526  41.012  1.00  0.00     0.161 HD
HETATM   16  C10 UNL     1      40.143  -3.911  39.081  1.00  0.00     0.141 C 
HETATM   17  C11 UNL     1      40.936  -3.854  37.788  1.00  0.00     0.150 C 
HETATM   18  N5  UNL     1      40.311  -4.739  36.753  1.00  0.00    -0.331 N 
HETATM   19  C28 UNL     1      42.287  -9.849  37.246  1.00  0.00     0.035 C 
HETATM   20  C29 UNL     1      42.968 -10.242  36.043  1.00  0.00     0.003 C 
HETATM   21  C30 UNL     1      42.976  -8.805  35.520  1.00  0.00     0.004 C 
HETATM   22  C31 UNL     1      41.578  -8.269  35.862  1.00  0.00     0.038 C 
ENDROOT
BRANCH  18  23
HETATM   23  C12 UNL     1      39.535  -4.034  35.864  1.00  0.00     0.036 A 
HETATM   24  C13 UNL     1      38.164  -4.048  36.047  1.00  0.00     0.030 A 
HETATM   25  C14 UNL     1      37.346  -3.316  35.216  1.00  0.00     0.017 A 
HETATM   26  C15 UNL     1      37.852  -2.547  34.180  1.00  0.00     0.008 A 
HETATM   27  C26 UNL     1      39.202  -2.560  34.031  1.00  0.00     0.017 A 
HETATM   28  C27 UNL     1      40.071  -3.279  34.836  1.00  0.00     0.030 A 
BRANCH  26  29
HETATM   29  C16 UNL     1      36.953  -1.763  33.361  1.00  0.00     0.116 A 
HETATM   30  N6  UNL     1      35.614  -1.657  33.552  1.00  0.00    -0.338 N 
HETATM   31  C17 UNL     1      35.047  -0.852  32.648  1.00  0.00     0.088 A 
ATOM     32  H6  UNL     1      35.104  -2.134  34.295  1.00  0.00     0.167 HD
HETATM   33  C18 UNL     1      36.094  -0.425  31.836  1.00  0.00     0.063 A 
HETATM   34  C25 UNL     1      33.757  -0.448  32.439  1.00  0.00     0.071 A 
HETATM   35  C19 UNL     1      35.835   0.427  30.798  1.00  0.00     0.033 A 
HETATM   36  N8  UNL     1      37.210  -0.991  32.297  1.00  0.00    -0.340 N 
HETATM   37  C20 UNL     1      34.526   0.865  30.550  1.00  0.00     0.016 A 
HETATM   38  C21 UNL     1      33.520   0.407  31.391  1.00  0.00    -0.007 A 
HETATM   39  C22 UNL     1      32.202   0.848  31.129  1.00  0.00     0.015 A 
HETATM   40  C23 UNL     1      31.166   0.419  31.928  1.00  0.00     0.018 A 
HETATM   41  C24 UNL     1      31.464  -0.444  32.977  1.00  0.00     0.088 A 
HETATM   42  N7  UNL     1      32.723  -0.841  33.193  1.00  0.00    -0.363 N 
ATOM     43  H7  UNL     1      32.904  -1.476  33.970  1.00  0.00     0.165 HD
ATOM     44  H8  UNL     1      38.137  -0.854  31.893  1.00  0.00     0.167 HD
ENDBRANCH  26  29
ENDBRANCH  18  23
BRANCH   1  45
HETATM   45  N1  UNL     1      39.804  -6.775  35.975  1.00  0.00    -0.385 N 
ATOM     46  H12 UNL     1      39.265  -7.630  36.121  1.00  0.00     0.157 HD
ATOM     47  H11 UNL     1      40.020  -6.489  35.020  1.00  0.00     0.157 HD
ENDBRANCH   1  45
TORSDOF 3
ENDMDL
MODEL 4
REMARK VINA RESULT: -9.051383599      1.398      2.260
REMARK  3 active torsions:
REMARK  status: ('A' for Active; 'I' for Inactive)
REMARK    1  A    between atoms: N1_1  and  C1_4 
REMARK    2  A    between atoms: N5_21  and  C12_22 
REMARK    3  A    between atoms: C15_25  and  C16_26 
ROOT
HETATM    1  C1  UNL     1      40.592  -7.780  36.031  1.00  0.00     0.113 C 
HETATM    2  C2  UNL     1      40.347  -6.899  37.053  1.00  0.00     0.024 A 
HETATM    3  C3  UNL     1      40.516  -5.680  37.036  1.00  0.00    -0.035 A 
HETATM    4  C4  UNL     1      40.293  -4.956  38.385  1.00  0.00     0.086 A 
HETATM    5  N2  UNL     1      40.185  -3.964  39.242  1.00  0.00    -0.394 N 
ATOM      6  H2  UNL     1      39.973  -3.571  40.159  1.00  0.00     0.155 HD
HETATM    7  C5  UNL     1      40.422  -3.912  38.466  1.00  0.00     0.073 A 
HETATM    8  C6  UNL     1      40.130  -5.531  38.708  1.00  0.00     0.073 A 
HETATM    9  C7  UNL     1      40.026  -6.819  38.356  1.00  0.00     0.016 A 
HETATM   10  C8  UNL     1      39.588  -7.757  39.401  1.00  0.00     0.105 A 
HETATM   11  N3  UNL     1      39.480  -6.891  40.306  1.00  0.00    -0.367 N 
ATOM     12  H3  UNL     1      39.197  -7.012  41.279  1.00  0.00     0.161 HD
HETATM   13  C9  UNL     1      39.861  -5.681  39.614  1.00  0.00     0.135 A 
HETATM   14  N4  UNL     1      39.334  -9.126  39.254  1.00  0.00    -0.374 N 
ATOM     15  H4  UNL     1      39.101  -9.573  40.140  1.00  0.00     0.161 HD
HETATM   16  C10 UNL     1      39.320 -10.066  38.146  1.00  0.00     0.141 C 
HETATM   17  C11 UNL     1      38.743  -9.543  36.844  1.00  0.00     0.150 C 
HETATM   18  N5  UNL     1      39.832  -8.995  35.973  1.00  0.00    -0.331 N 
HETATM   19  C28 UNL     1      40.716  -3.709  37.214  1.00  0.00     0.035 C 
HETATM   20  C29 UNL     1      40.455  -2.876  36.073  1.00  0.00     0.003 C 
HETATM   21  C30 UNL     1      39.764  -4.021  35.332  1.00  0.00     0.004 C 
HETATM   22  C31 UNL     1      40.648  -5.245  35.615  1.00  0.00     0.038 C 
ENDROOT
BRANCH  18  23
HETATM   23  C12 UNL     1      40.221  -9.886  35.001  1.00  0.00     0.036 A 
HETATM   24  C13 UNL     1      39.548  -9.863  33.793  1.00  0.00     0.030 A 
HETATM   25  C14 UNL     1      39.932 -10.699  32.769  1.00  0.00     0.017 A 
HETATM   26  C15 UNL     1      40.992 -11.583  32.902  1.00  0.00     0.008 A 
HETATM   27  C26 UNL     1      41.626 -11.578  34.103  1.00  0.00     0.017 A 
HETATM   28  C27 UNL     1      41.280 -10.760  35.167  1.00  0.00     0.030 A 
BRANCH  26  29
HETATM   29  C16 UNL     1      41.382 -12.411  31.781  1.00  0.00     0.116 A 
HETATM   30  N6  UNL     1      42.136 -11.999  30.732  1.00  0.00    -0.338 N 
HETATM   31  C17 UNL     1      42.348 -12.987  29.856  1.00  0.00     0.088 A 
ATOM     32  H6  UNL     1      42.498 -11.052  30.624  1.00  0.00     0.167 HD
HETATM   33  C18 UNL     1      41.684 -14.090  30.387  1.00  0.00     0.063 A 
HETATM   34  C25 UNL     1      43.031 -13.054  28.673  1.00  0.00     0.071 A 
HETATM   35  C19 UNL     1      41.713 -15.280  29.713  1.00  0.00     0.033 A 
HETATM   36  N8  UNL     1      41.124 -13.702  31.533  1.00  0.00    -0.340 N 
HETATM   37  C20 UNL     1      42.403 -15.390  28.497  1.00  0.00     0.016 A 
HETATM   38  C21 UNL     1      43.047 -14.258  28.014  1.00  0.00    -0.007 A 
HETATM   39  C22 UNL     1      43.733 -14.376  26.783  1.00  0.00     0.015 A 
HETATM   40  C23 UNL     1      44.383 -13.284  26.255  1.00  0.00     0.018 A 
HETATM   41  C24 UNL     1      44.336 -12.089  26.966  1.00  0.00     0.088 A 
HETATM   42  N7  UNL     1      43.675 -12.015  28.126  1.00  0.00    -0.363 N 
ATOM     43  H7  UNL     1      43.661 -11.123  28.620  1.00  0.00     0.165 HD
ATOM     44  H8  UNL     1      40.573 -14.308  32.141  1.00  0.00     0.167 HD
ENDBRANCH  26  29
ENDBRANCH  18  23
BRANCH   1  45
HETATM   45  N1  UNL     1      41.384  -7.445  35.532  1.00  0.00    -0.385 N 
ATOM     46  H12 UNL     1      42.083  -6.727  35.726  1.00  0.00     0.157 HD
ATOM     47  H11 UNL     1      41.365  -7.871  34.605  1.00  0.00     0.157 HD
ENDBRANCH   1  45
TORSDOF 3
ENDMDL
MODEL 5
REMARK VINA RESULT: -9.037962573      3.006      4.739
REMARK  3 active torsions:
REMARK  status: ('A' for Active; 'I' for Inactive)
REMARK    1  A    between atoms: N1_1  and  C1_4 
REMARK    2  A    between atoms: N5_21  and  C12_22 
REMARK    3  A    between atoms: C15_25  and  C16_26 
ROOT
HETATM    1  C1  UNL     1      39.742 -10.458  35.805  1.00  0.00     0.113 C 
HETATM    2  C2  UNL     1      38.876 -10.247  36.847  1.00  0.00     0.024 A 
HETATM    3  C3  UNL     1      39.052  -9.515  37.820  1.00  0.00    -0.035 A 
HETATM    4  C4  UNL     1      37.963  -9.587  38.917  1.00  0.00     0.086 A 
HETATM    5  N2  UNL     1      37.315  -9.294  40.022  1.00  0.00    -0.394 N 
ATOM      6  H2  UNL     1      36.528  -9.375  40.666  1.00  0.00     0.155 HD
HETATM    7  C5  UNL     1      38.034  -8.998  39.789  1.00  0.00     0.073 A 
HETATM    8  C6  UNL     1      37.598 -10.045  38.573  1.00  0.00     0.073 A 
HETATM    9  C7  UNL     1      37.726 -10.674  37.398  1.00  0.00     0.016 A 
HETATM   10  C8  UNL     1      36.641 -11.589  37.015  1.00  0.00     0.105 A 
HETATM   11  N3  UNL     1      35.953 -11.406  38.051  1.00  0.00    -0.367 N 
ATOM     12  H3  UNL     1      35.058 -11.821  38.309  1.00  0.00     0.161 HD
HETATM   13  C9  UNL     1      36.758 -10.454  38.784  1.00  0.00     0.135 A 
HETATM   14  N4  UNL     1      36.516 -12.294  35.811  1.00  0.00    -0.374 N 
ATOM     15  H4  UNL     1      35.705 -12.912  35.809  1.00  0.00     0.161 HD
HETATM   16  C10 UNL     1      37.260 -12.359  34.565  1.00  0.00     0.141 C 
HETATM   17  C11 UNL     1      37.801 -11.039  34.050  1.00  0.00     0.150 C 
HETATM   18  N5  UNL     1      39.205 -10.828  34.528  1.00  0.00    -0.331 N 
HETATM   19  C28 UNL     1      39.139  -8.393  39.460  1.00  0.00     0.035 C 
HETATM   20  C29 UNL     1      39.800  -7.118  39.398  1.00  0.00     0.003 C 
HETATM   21  C30 UNL     1      39.799  -7.136  37.870  1.00  0.00     0.004 C 
HETATM   22  C31 UNL     1      40.172  -8.581  37.507  1.00  0.00     0.038 C 
ENDROOT
BRANCH  18  23
HETATM   23  C12 UNL     1      40.137 -11.149  33.568  1.00  0.00     0.036 A 
HETATM   24  C13 UNL     1      40.289 -12.482  33.233  1.00  0.00     0.030 A 
HETATM   25  C14 UNL     1      41.170 -12.851  32.242  1.00  0.00     0.017 A 
HETATM   26  C15 UNL     1      41.927 -11.919  31.548  1.00  0.00     0.008 A 
HETATM   27  C26 UNL     1      41.751 -10.621  31.907  1.00  0.00     0.017 A 
HETATM   28  C27 UNL     1      40.880 -10.194  32.897  1.00  0.00     0.030 A 
BRANCH  26  29
HETATM   29  C16 UNL     1      42.808 -12.355  30.486  1.00  0.00     0.116 A 
HETATM   30  N6  UNL     1      42.702 -13.530  29.817  1.00  0.00    -0.338 N 
HETATM   31  C17 UNL     1      43.647 -13.653  28.880  1.00  0.00     0.088 A 
ATOM     32  H6  UNL     1      41.988 -14.234  30.006  1.00  0.00     0.167 HD
HETATM   33  C18 UNL     1      44.395 -12.483  28.965  1.00  0.00     0.063 A 
HETATM   34  C25 UNL     1      43.940 -14.636  27.974  1.00  0.00     0.071 A 
HETATM   35  C19 UNL     1      45.456 -12.300  28.120  1.00  0.00     0.033 A 
HETATM   36  N8  UNL     1      43.861 -11.739  29.933  1.00  0.00    -0.340 N 
HETATM   37  C20 UNL     1      45.789 -13.284  27.177  1.00  0.00     0.016 A 
HETATM   38  C21 UNL     1      45.009 -14.432  27.137  1.00  0.00    -0.007 A 
HETATM   39  C22 UNL     1      45.357 -15.422  26.189  1.00  0.00     0.015 A 
HETATM   40  C23 UNL     1      44.621 -16.582  26.110  1.00  0.00     0.018 A 
HETATM   41  C24 UNL     1      43.547 -16.735  26.981  1.00  0.00     0.088 A 
HETATM   42  N7  UNL     1      43.249 -15.778  27.866  1.00  0.00    -0.363 N 
ATOM     43  H7  UNL     1      42.456 -15.925  28.490  1.00  0.00     0.165 HD
ATOM     44  H8  UNL     1      44.207 -10.821  30.216  1.00  0.00     0.167 HD
ENDBRANCH  26  29
ENDBRANCH  18  23
BRANCH   1  45
HETATM   45  N1  UNL     1      40.666 -10.415  36.172  1.00  0.00    -0.385 N 
ATOM     46  H12 UNL     1      41.318  -9.648  36.341  1.00  0.00     0.157 HD
ATOM     47  H11 UNL     1      41.001 -11.373  36.271  1.00  0.00     0.157 HD
ENDBRANCH   1  45
TORSDOF 3
ENDMDL
