MODEL 1
REMARK VINA RESULT: -8.241284991      0.000      0.000
REMARK  4 active torsions:
REMARK  status: ('A' for Active; 'I' for Inactive)
REMARK    1  A    between atoms: C1_2  and  C2_4 
REMARK    2  A    between atoms: C8_10  and  N2_11 
REMARK       I    between atoms: N2_11  and  C9_13 
REMARK       I    between atoms: C9_13  and  N3_15 
REMARK    3  A    between atoms: N3_15  and  C10_17 
REMARK    4  A    between atoms: C14_21  and  N4_22 
ROOT
HETATM    1  N2  UNL     1      15.005  -2.466   4.834  1.00  0.00    -0.338 N 
ATOM      2  H2  UNL     1      14.456  -2.889   5.582  1.00  0.00     0.164 HD
HETATM    3  C9  UNL     1      14.565  -1.227   4.355  1.00  0.00     0.317 C 
HETATM    4  O2  UNL     1      15.265  -0.710   3.416  1.00  0.00    -0.247 OA
HETATM    5  N3  UNL     1      13.455  -0.502   4.786  1.00  0.00    -0.333 N 
ATOM      6  H3  UNL     1      12.914  -0.935   5.534  1.00  0.00     0.165 HD
ENDROOT
BRANCH   1   7
HETATM    7  C8  UNL     1      16.147  -3.202   4.383  1.00  0.00     0.094 C 
HETATM    8  C6  UNL     1      16.438  -4.304   5.378  1.00  0.00     0.010 C 
HETATM    9  C5  UNL     1      15.372  -5.345   5.262  1.00  0.00     0.011 C 
HETATM   10  C7  UNL     1      17.807  -4.913   5.126  1.00  0.00     0.025 C 
HETATM   11  C4  UNL     1      15.364  -5.929   3.867  1.00  0.00    -0.013 C 
HETATM   12  C3  UNL     1      16.739  -6.541   3.657  1.00  0.00     0.023 C 
HETATM   13  C20 UNL     1      15.133  -4.898   2.814  1.00  0.00     0.011 C 
HETATM   14  C2  UNL     1      17.787  -5.451   3.700  1.00  0.00     0.040 C 
HETATM   15  C21 UNL     1      17.484  -4.331   2.744  1.00  0.00     0.025 C 
HETATM   16  C19 UNL     1      16.077  -3.761   2.996  1.00  0.00     0.010 C 
BRANCH  14  17
HETATM   17  C1  UNL     1      19.070  -6.063   3.356  1.00  0.00     0.239 C 
HETATM   18  N1  UNL     1      20.184  -5.901   4.211  1.00  0.00    -0.061 NA
HETATM   19  O1  UNL     1      19.192  -6.733   2.307  1.00  0.00    -0.276 OA
ENDBRANCH  14  17
ENDBRANCH   1   7
BRANCH   5  20
HETATM   20  C10 UNL     1      12.973   0.743   4.338  1.00  0.00     0.042 A 
HETATM   21  C11 UNL     1      13.804   1.932   4.816  1.00  0.00     0.032 A 
HETATM   22  C12 UNL     1      12.565   2.524   5.453  1.00  0.00     0.011 A 
HETATM   23  C13 UNL     1      11.784   1.372   4.885  1.00  0.00     0.038 A 
HETATM   24  C14 UNL     1      11.291   1.674   3.466  1.00  0.00     0.106 C 
HETATM   25  C18 UNL     1      12.455   0.838   2.943  1.00  0.00     0.058 C 
BRANCH  24  26
HETATM   26  N4  UNL     1       9.987   1.173   3.161  1.00  0.00    -0.263 N 
HETATM   27  C15 UNL     1       8.880   0.934   4.018  1.00  0.00     0.245 A 
HETATM   28  O3  UNL     1       8.905   1.127   5.258  1.00  0.00    -0.271 OA
HETATM   29  C16 UNL     1       7.725   0.440   3.261  1.00  0.00     0.227 A 
HETATM   30  N5  UNL     1       8.208   0.344   1.887  1.00  0.00    -0.334 N 
HETATM   31  C17 UNL     1       9.551   0.801   1.844  1.00  0.00     0.325 A 
ATOM     32  H5  UNL     1       7.670   0.004   1.090  1.00  0.00     0.164 HD
HETATM   33  O4  UNL     1      10.231   0.857   0.787  1.00  0.00    -0.247 OA
ENDBRANCH  24  26
ENDBRANCH   5  20
TORSDOF 4
ENDMDL
MODEL 2
REMARK VINA RESULT: -8.239880977      0.418      1.400
REMARK  4 active torsions:
REMARK  status: ('A' for Active; 'I' for Inactive)
REMARK    1  A    between atoms: C1_2  and  C2_4 
REMARK    2  A    between atoms: C8_10  and  N2_11 
REMARK       I    between atoms: N2_11  and  C9_13 
REMARK       I    between atoms: C9_13  and  N3_15 
REMARK    3  A    between atoms: N3_15  and  C10_17 
REMARK    4  A    between atoms: C14_21  and  N4_22 
ROOT
HETATM    1  N2  UNL     1      15.082  -2.467   4.858  1.00  0.00    -0.338 N 
ATOM      2  H2  UNL     1      14.544  -2.883   5.618  1.00  0.00     0.164 HD
HETATM    3  C9  UNL     1      14.618  -1.245   4.357  1.00  0.00     0.317 C 
HETATM    4  O2  UNL     1      15.303  -0.735   3.403  1.00  0.00    -0.247 OA
HETATM    5  N3  UNL     1      13.500  -0.529   4.781  1.00  0.00    -0.333 N 
ATOM      6  H3  UNL     1      12.971  -0.955   5.542  1.00  0.00     0.165 HD
ENDROOT
BRANCH   1   7
HETATM    7  C8  UNL     1      16.232  -3.193   4.413  1.00  0.00     0.094 C 
HETATM    8  C6  UNL     1      16.526  -4.293   5.410  1.00  0.00     0.010 C 
HETATM    9  C5  UNL     1      15.469  -5.343   5.287  1.00  0.00     0.011 C 
HETATM   10  C7  UNL     1      17.901  -4.890   5.167  1.00  0.00     0.025 C 
HETATM   11  C4  UNL     1      15.474  -5.926   3.892  1.00  0.00    -0.013 C 
HETATM   12  C3  UNL     1      16.856  -6.527   3.689  1.00  0.00     0.023 C 
HETATM   13  C20 UNL     1      15.242  -4.896   2.838  1.00  0.00     0.011 C 
HETATM   14  C2  UNL     1      17.895  -5.428   3.739  1.00  0.00     0.040 C 
HETATM   15  C21 UNL     1      17.588  -4.311   2.783  1.00  0.00     0.025 C 
HETATM   16  C19 UNL     1      16.175  -3.752   3.025  1.00  0.00     0.010 C 
BRANCH  14  17
HETATM   17  C1  UNL     1      19.184  -6.030   3.404  1.00  0.00     0.239 C 
HETATM   18  N1  UNL     1      20.293  -5.856   4.263  1.00  0.00    -0.061 NA
HETATM   19  O1  UNL     1      19.318  -6.701   2.357  1.00  0.00    -0.276 OA
ENDBRANCH  14  17
ENDBRANCH   1   7
BRANCH   5  20
HETATM   20  C10 UNL     1      12.994   0.699   4.312  1.00  0.00     0.042 A 
HETATM   21  C11 UNL     1      13.837   1.906   4.717  1.00  0.00     0.032 A 
HETATM   22  C12 UNL     1      12.621   2.514   5.383  1.00  0.00     0.011 A 
HETATM   23  C13 UNL     1      11.824   1.341   4.884  1.00  0.00     0.038 A 
HETATM   24  C14 UNL     1      11.275   1.595   3.476  1.00  0.00     0.106 C 
HETATM   25  C18 UNL     1      12.421   0.745   2.935  1.00  0.00     0.058 C 
BRANCH  24  26
HETATM   26  N4  UNL     1       9.963   1.079   3.239  1.00  0.00    -0.263 N 
HETATM   27  C15 UNL     1       9.371   0.612   2.036  1.00  0.00     0.245 A 
HETATM   28  O3  UNL     1       9.961   0.605   0.927  1.00  0.00    -0.271 OA
HETATM   29  C16 UNL     1       8.001   0.145   2.268  1.00  0.00     0.227 A 
HETATM   30  N5  UNL     1       7.768   0.401   3.687  1.00  0.00    -0.334 N 
HETATM   31  C17 UNL     1       8.953   0.942   4.252  1.00  0.00     0.325 A 
ATOM     32  H5  UNL     1       6.898   0.221   4.189  1.00  0.00     0.164 HD
HETATM   33  O4  UNL     1       9.066   1.244   5.467  1.00  0.00    -0.247 OA
ENDBRANCH  24  26
ENDBRANCH   5  20
TORSDOF 4
ENDMDL
MODEL 3
REMARK VINA RESULT: -8.133465106      2.137      3.178
REMARK  4 active torsions:
REMARK  status: ('A' for Active; 'I' for Inactive)
REMARK    1  A    between atoms: C1_2  and  C2_4 
REMARK    2  A    between atoms: C8_10  and  N2_11 
REMARK       I    between atoms: N2_11  and  C9_13 
REMARK       I    between atoms: C9_13  and  N3_15 
REMARK    3  A    between atoms: N3_15  and  C10_17 
REMARK    4  A    between atoms: C14_21  and  N4_22 
ROOT
HETATM    1  N2  UNL     1      15.766  -2.851   4.911  1.00  0.00    -0.338 N 
ATOM      2  H2  UNL     1      16.620  -2.931   5.464  1.00  0.00     0.164 HD
HETATM    3  C9  UNL     1      14.950  -1.745   5.173  1.00  0.00     0.317 C 
HETATM    4  O2  UNL     1      13.883  -1.657   4.472  1.00  0.00    -0.247 OA
HETATM    5  N3  UNL     1      15.173  -0.735   6.110  1.00  0.00    -0.333 N 
ATOM      6  H3  UNL     1      16.029  -0.827   6.656  1.00  0.00     0.165 HD
ENDROOT
BRANCH   1   7
HETATM    7  C8  UNL     1      15.527  -3.881   3.947  1.00  0.00     0.094 C 
HETATM    8  C6  UNL     1      16.568  -3.775   2.854  1.00  0.00     0.010 C 
HETATM    9  C5  UNL     1      17.886  -4.211   3.408  1.00  0.00     0.011 C 
HETATM   10  C7  UNL     1      16.184  -4.626   1.656  1.00  0.00     0.025 C 
HETATM   11  C4  UNL     1      17.805  -5.647   3.874  1.00  0.00    -0.013 C 
HETATM   12  C3  UNL     1      17.436  -6.470   2.650  1.00  0.00     0.023 C 
HETATM   13  C20 UNL     1      16.763  -5.853   4.921  1.00  0.00     0.011 C 
HETATM   14  C2  UNL     1      16.063  -6.059   2.163  1.00  0.00     0.040 C 
HETATM   15  C21 UNL     1      15.031  -6.122   3.253  1.00  0.00     0.025 C 
HETATM   16  C19 UNL     1      15.464  -5.283   4.469  1.00  0.00     0.010 C 
BRANCH  14  17
HETATM   17  C1  UNL     1      15.695  -6.967   1.077  1.00  0.00     0.239 C 
HETATM   18  N1  UNL     1      16.289  -6.824  -0.197  1.00  0.00    -0.061 NA
HETATM   19  O1  UNL     1      14.854  -7.874   1.266  1.00  0.00    -0.276 OA
ENDBRANCH  14  17
ENDBRANCH   1   7
BRANCH   5  20
HETATM   20  C10 UNL     1      14.386   0.393   6.411  1.00  0.00     0.042 A 
HETATM   21  C11 UNL     1      14.449   0.812   7.877  1.00  0.00     0.032 A 
HETATM   22  C12 UNL     1      12.944   0.669   7.969  1.00  0.00     0.011 A 
HETATM   23  C13 UNL     1      12.937   0.344   6.501  1.00  0.00     0.038 A 
HETATM   24  C14 UNL     1      12.841   1.612   5.646  1.00  0.00     0.106 C 
HETATM   25  C18 UNL     1      14.347   1.509   5.422  1.00  0.00     0.058 C 
BRANCH  24  26
HETATM   26  N4  UNL     1      12.034   1.488   4.473  1.00  0.00    -0.263 N 
HETATM   27  C15 UNL     1      12.418   1.297   3.120  1.00  0.00     0.245 A 
HETATM   28  O3  UNL     1      13.613   1.225   2.738  1.00  0.00    -0.271 OA
HETATM   29  C16 UNL     1      11.244   1.197   2.247  1.00  0.00     0.227 A 
HETATM   30  N5  UNL     1      10.109   1.388   3.146  1.00  0.00    -0.334 N 
HETATM   31  C17 UNL     1      10.598   1.542   4.469  1.00  0.00     0.325 A 
ATOM     32  H5  UNL     1       9.128   1.406   2.868  1.00  0.00     0.164 HD
HETATM   33  O4  UNL     1       9.853   1.702   5.469  1.00  0.00    -0.247 OA
ENDBRANCH  24  26
ENDBRANCH   5  20
TORSDOF 4
ENDMDL
MODEL 4
REMARK VINA RESULT: -8.109246588      3.156      8.626
REMARK  4 active torsions:
REMARK  status: ('A' for Active; 'I' for Inactive)
REMARK    1  A    between atoms: C1_2  and  C2_4 
REMARK    2  A    between atoms: C8_10  and  N2_11 
REMARK       I    between atoms: N2_11  and  C9_13 
REMARK       I    between atoms: C9_13  and  N3_15 
REMARK    3  A    between atoms: N3_15  and  C10_17 
REMARK    4  A    between atoms: C14_21  and  N4_22 
ROOT
HETATM    1  N2  UNL     1      14.493  -0.347   3.448  1.00  0.00    -0.338 N 
ATOM      2  H2  UNL     1      14.240  -0.506   2.473  1.00  0.00     0.164 HD
HETATM    3  C9  UNL     1      15.063  -1.427   4.132  1.00  0.00     0.317 C 
HETATM    4  O2  UNL     1      15.375  -1.213   5.355  1.00  0.00    -0.247 OA
HETATM    5  N3  UNL     1      15.324  -2.701   3.630  1.00  0.00    -0.333 N 
ATOM      6  H3  UNL     1      15.066  -2.847   2.654  1.00  0.00     0.165 HD
ENDROOT
BRANCH   1   7
HETATM    7  C8  UNL     1      14.229   0.957   3.975  1.00  0.00     0.094 C 
HETATM    8  C6  UNL     1      13.262   1.667   3.052  1.00  0.00     0.010 C 
HETATM    9  C5  UNL     1      11.917   1.031   3.193  1.00  0.00     0.011 C 
HETATM   10  C7  UNL     1      13.190   3.148   3.380  1.00  0.00     0.025 C 
HETATM   11  C4  UNL     1      11.425   1.162   4.617  1.00  0.00    -0.013 C 
HETATM   12  C3  UNL     1      11.350   2.653   4.904  1.00  0.00     0.023 C 
HETATM   13  C20 UNL     1      12.350   0.531   5.603  1.00  0.00     0.011 C 
HETATM   14  C2  UNL     1      12.738   3.249   4.833  1.00  0.00     0.040 C 
HETATM   15  C21 UNL     1      13.716   2.524   5.715  1.00  0.00     0.025 C 
HETATM   16  C19 UNL     1      13.739   1.021   5.389  1.00  0.00     0.010 C 
BRANCH  14  17
HETATM   17  C1  UNL     1      12.635   4.647   5.251  1.00  0.00     0.239 C 
HETATM   18  N1  UNL     1      12.375   5.654   4.294  1.00  0.00    -0.061 NA
HETATM   19  O1  UNL     1      12.775   4.962   6.453  1.00  0.00    -0.276 OA
ENDBRANCH  14  17
ENDBRANCH   1   7
BRANCH   5  20
HETATM   20  C10 UNL     1      15.893  -3.816   4.274  1.00  0.00     0.042 A 
HETATM   21  C11 UNL     1      16.431  -4.873   3.312  1.00  0.00     0.032 A 
HETATM   22  C12 UNL     1      15.528  -5.902   3.959  1.00  0.00     0.011 A 
HETATM   23  C13 UNL     1      15.098  -4.839   4.931  1.00  0.00     0.038 A 
HETATM   24  C14 UNL     1      16.029  -4.782   6.147  1.00  0.00     0.106 C 
HETATM   25  C18 UNL     1      16.712  -3.581   5.498  1.00  0.00     0.058 C 
BRANCH  24  26
HETATM   26  N4  UNL     1      15.379  -4.521   7.393  1.00  0.00    -0.263 N 
HETATM   27  C15 UNL     1      14.162  -3.840   7.659  1.00  0.00     0.245 A 
HETATM   28  O3  UNL     1      13.447  -3.318   6.769  1.00  0.00    -0.271 OA
HETATM   29  C16 UNL     1      13.864  -3.834   9.095  1.00  0.00     0.227 A 
HETATM   30  N5  UNL     1      15.004  -4.515   9.703  1.00  0.00    -0.334 N 
HETATM   31  C17 UNL     1      15.887  -4.932   8.672  1.00  0.00     0.325 A 
ATOM     32  H5  UNL     1      15.143  -4.667  10.702  1.00  0.00     0.164 HD
HETATM   33  O4  UNL     1      16.951  -5.566   8.885  1.00  0.00    -0.247 OA
ENDBRANCH  24  26
ENDBRANCH   5  20
TORSDOF 4
ENDMDL
MODEL 5
REMARK VINA RESULT: -8.033056933      2.118      3.072
REMARK  4 active torsions:
REMARK  status: ('A' for Active; 'I' for Inactive)
REMARK    1  A    between atoms: C1_2  and  C2_4 
REMARK    2  A    between atoms: C8_10  and  N2_11 
REMARK       I    between atoms: N2_11  and  C9_13 
REMARK       I    between atoms: C9_13  and  N3_15 
REMARK    3  A    between atoms: N3_15  and  C10_17 
REMARK    4  A    between atoms: C14_21  and  N4_22 
ROOT
HETATM    1  N2  UNL     1      16.215  -2.515   4.998  1.00  0.00    -0.338 N 
ATOM      2  H2  UNL     1      17.014  -2.639   5.620  1.00  0.00     0.164 HD
HETATM    3  C9  UNL     1      15.314  -1.497   5.331  1.00  0.00     0.317 C 
HETATM    4  O2  UNL     1      14.316  -1.352   4.541  1.00  0.00    -0.247 OA
HETATM    5  N3  UNL     1      15.384  -0.630   6.420  1.00  0.00    -0.333 N 
ATOM      6  H3  UNL     1      16.187  -0.765   7.034  1.00  0.00     0.165 HD
ENDROOT
BRANCH   1   7
HETATM    7  C8  UNL     1      16.131  -3.400   3.877  1.00  0.00     0.094 C 
HETATM    8  C6  UNL     1      17.381  -4.251   3.837  1.00  0.00     0.010 C 
HETATM    9  C5  UNL     1      17.328  -5.228   4.967  1.00  0.00     0.011 C 
HETATM   10  C7  UNL     1      17.498  -4.978   2.508  1.00  0.00     0.025 C 
HETATM   11  C4  UNL     1      16.117  -6.122   4.825  1.00  0.00    -0.013 C 
HETATM   12  C3  UNL     1      16.276  -6.844   3.497  1.00  0.00     0.023 C 
HETATM   13  C20 UNL     1      14.837  -5.356   4.804  1.00  0.00     0.011 C 
HETATM   14  C2  UNL     1      16.244  -5.835   2.370  1.00  0.00     0.040 C 
HETATM   15  C21 UNL     1      15.027  -4.956   2.426  1.00  0.00     0.025 C 
HETATM   16  C19 UNL     1      14.912  -4.264   3.796  1.00  0.00     0.010 C 
BRANCH  14  17
HETATM   17  C1  UNL     1      16.260  -6.582   1.113  1.00  0.00     0.239 C 
HETATM   18  N1  UNL     1      15.207  -7.475   0.807  1.00  0.00    -0.061 NA
HETATM   19  O1  UNL     1      17.200  -6.439   0.301  1.00  0.00    -0.276 OA
ENDBRANCH  14  17
ENDBRANCH   1   7
BRANCH   5  20
HETATM   20  C10 UNL     1      14.507   0.406   6.796  1.00  0.00     0.042 A 
HETATM   21  C11 UNL     1      14.458   0.652   8.302  1.00  0.00     0.032 A 
HETATM   22  C12 UNL     1      12.964   0.409   8.280  1.00  0.00     0.011 A 
HETATM   23  C13 UNL     1      13.063   0.259   6.787  1.00  0.00     0.038 A 
HETATM   24  C14 UNL     1      12.930   1.611   6.078  1.00  0.00     0.106 C 
HETATM   25  C18 UNL     1      14.450   1.626   5.941  1.00  0.00     0.058 C 
BRANCH  24  26
HETATM   26  N4  UNL     1      12.202   1.578   4.848  1.00  0.00    -0.263 N 
HETATM   27  C15 UNL     1      12.675   1.563   3.510  1.00  0.00     0.245 A 
HETATM   28  O3  UNL     1      13.892   1.600   3.201  1.00  0.00    -0.271 OA
HETATM   29  C16 UNL     1      11.562   1.499   2.557  1.00  0.00     0.227 A 
HETATM   30  N5  UNL     1      10.367   1.525   3.396  1.00  0.00    -0.334 N 
HETATM   31  C17 UNL     1      10.768   1.554   4.758  1.00  0.00     0.325 A 
ATOM     32  H5  UNL     1       9.404   1.522   3.060  1.00  0.00     0.164 HD
HETATM   33  O4  UNL     1       9.958   1.559   5.719  1.00  0.00    -0.247 OA
ENDBRANCH  24  26
ENDBRANCH   5  20
TORSDOF 4
ENDMDL
