MODEL 1
REMARK VINA RESULT: -6.770057830      0.000      0.000
REMARK  10 active torsions:
REMARK  status: ('A' for Active; 'I' for Inactive)
REMARK    1  A    between atoms: C2_2  and  C3_3 
REMARK    2  A    between atoms: C3_3  and  C4_4 
REMARK    3  A    between atoms: C4_4  and  C5_5 
REMARK    4  A    between atoms: C5_5  and  C6_6 
REMARK    5  A    between atoms: C7_7  and  O1_8 
REMARK    6  A    between atoms: C12_14  and  C13_15 
REMARK    7  A    between atoms: N2_19  and  C15_20 
REMARK    8  A    between atoms: C15_20  and  C16_21 
REMARK    9  A    between atoms: C16_21  and  C17_22 
REMARK   10  A    between atoms: C17_22  and  N3_23 
ROOT
HETATM    1  C6  UNL     1      15.305   9.203  12.516  1.00  0.00     0.253 C 
HETATM    2  C7  UNL     1      15.954  10.194  11.591  1.00  0.00     0.162 C 
HETATM    3  C8  UNL     1      16.628   9.335  10.604  1.00  0.00     0.024 A 
HETATM    4  C9  UNL     1      16.453   9.584   9.161  1.00  0.00     0.015 A 
HETATM    5  C10 UNL     1      17.953   9.381   8.979  1.00  0.00     0.007 A 
HETATM    6  C11 UNL     1      18.067   9.265  10.473  1.00  0.00     0.014 A 
HETATM    7  C12 UNL     1      18.068   7.827  10.907  1.00  0.00     0.114 A 
HETATM    8  C14 UNL     1      16.575   7.922  11.093  1.00  0.00     0.248 A 
HETATM    9  N2  UNL     1      16.138   8.044  12.444  1.00  0.00     0.102 N 
ENDROOT
BRANCH   9  10
HETATM   10  C15 UNL     1      15.582   6.878  13.039  1.00  0.00     0.275 C 
BRANCH  10  11
HETATM   11  C16 UNL     1      15.658   5.635  12.186  1.00  0.00     0.057 C 
BRANCH  11  12
HETATM   12  C17 UNL     1      15.823   4.434  13.116  1.00  0.00     0.231 C 
BRANCH  12  13
HETATM   13  N3  UNL     1      14.526   3.947  13.479  1.00  0.00    -0.079 N 
ATOM     14  H33 UNL     1      13.783   4.604  13.240  1.00  0.00     0.274 HD
ATOM     15  H32 UNL     1      14.223   3.170  12.891  1.00  0.00     0.274 HD
ATOM     16  H31 UNL     1      14.529   3.706  14.471  1.00  0.00     0.274 HD
ENDBRANCH  12  13
ENDBRANCH  11  12
ENDBRANCH  10  11
ENDBRANCH   9  10
BRANCH   1  17
HETATM   17  C5  UNL     1      15.104   9.721  13.900  1.00  0.00     0.039 C 
BRANCH  17  18
HETATM   18  C4  UNL     1      13.861  10.570  14.016  1.00  0.00     0.006 C 
BRANCH  18  19
HETATM   19  C3  UNL     1      13.347  10.677  15.436  1.00  0.00     0.026 C 
BRANCH  19  20
HETATM   20  C2  UNL     1      12.563  11.925  15.574  1.00  0.00    -0.037 C 
HETATM   21  C1  UNL     1      11.824  12.147  16.631  1.00  0.00     0.007 C 
ENDBRANCH  19  20
ENDBRANCH  18  19
ENDBRANCH  17  18
ENDBRANCH   1  17
BRANCH   2  22
HETATM   22  O1  UNL     1      16.723  11.141  12.200  1.00  0.00    -0.393 OA
ATOM     23  H1  UNL     1      17.588  11.263  11.827  1.00  0.00     0.210 HD
ENDBRANCH   2  22
BRANCH   7  24
HETATM   24  C13 UNL     1      18.868   7.496  12.078  1.00  0.00     0.237 C 
HETATM   25  N1  UNL     1      19.370   8.431  13.022  1.00  0.00    -0.062 NA
HETATM   26  O2  UNL     1      19.159   6.292  12.303  1.00  0.00    -0.276 OA
ENDBRANCH   7  24
TORSDOF 10
ENDMDL
MODEL 2
REMARK VINA RESULT: -6.752095679      3.643      5.554
REMARK  10 active torsions:
REMARK  status: ('A' for Active; 'I' for Inactive)
REMARK    1  A    between atoms: C2_2  and  C3_3 
REMARK    2  A    between atoms: C3_3  and  C4_4 
REMARK    3  A    between atoms: C4_4  and  C5_5 
REMARK    4  A    between atoms: C5_5  and  C6_6 
REMARK    5  A    between atoms: C7_7  and  O1_8 
REMARK    6  A    between atoms: C12_14  and  C13_15 
REMARK    7  A    between atoms: N2_19  and  C15_20 
REMARK    8  A    between atoms: C15_20  and  C16_21 
REMARK    9  A    between atoms: C16_21  and  C17_22 
REMARK   10  A    between atoms: C17_22  and  N3_23 
ROOT
HETATM    1  C6  UNL     1      16.947   6.555  10.145  1.00  0.00     0.253 C 
HETATM    2  C7  UNL     1      17.760   7.600  10.856  1.00  0.00     0.162 C 
HETATM    3  C8  UNL     1      17.387   8.842  10.160  1.00  0.00     0.024 A 
HETATM    4  C9  UNL     1      16.988  10.034  10.932  1.00  0.00     0.015 A 
HETATM    5  C10 UNL     1      17.861  10.879  10.013  1.00  0.00     0.007 A 
HETATM    6  C11 UNL     1      18.319   9.606   9.359  1.00  0.00     0.014 A 
HETATM    7  C12 UNL     1      17.530   9.321   8.113  1.00  0.00     0.114 A 
HETATM    8  C14 UNL     1      16.593   8.482   8.945  1.00  0.00     0.248 A 
HETATM    9  N2  UNL     1      16.770   7.074   8.824  1.00  0.00     0.102 N 
ENDROOT
BRANCH   9  10
HETATM   10  C15 UNL     1      15.811   6.377   8.039  1.00  0.00     0.275 C 
BRANCH  10  11
HETATM   11  C16 UNL     1      16.382   5.287   7.164  1.00  0.00     0.057 C 
BRANCH  11  12
HETATM   12  C17 UNL     1      16.427   5.809   5.728  1.00  0.00     0.231 C 
BRANCH  12  13
HETATM   13  N3  UNL     1      17.775   5.731   5.250  1.00  0.00    -0.079 N 
ATOM     14  H33 UNL     1      18.412   5.340   5.944  1.00  0.00     0.274 HD
ATOM     15  H32 UNL     1      17.892   5.017   4.532  1.00  0.00     0.274 HD
ATOM     16  H31 UNL     1      18.066   6.656   4.932  1.00  0.00     0.274 HD
ENDBRANCH  12  13
ENDBRANCH  11  12
ENDBRANCH  10  11
ENDBRANCH   9  10
BRANCH   1  17
HETATM   17  C5  UNL     1      17.555   5.194  10.186  1.00  0.00     0.039 C 
BRANCH  17  18
HETATM   18  C4  UNL     1      17.177   4.439  11.438  1.00  0.00     0.006 C 
BRANCH  18  19
HETATM   19  C3  UNL     1      15.692   4.160  11.536  1.00  0.00     0.026 C 
BRANCH  19  20
HETATM   20  C2  UNL     1      15.223   4.508  12.897  1.00  0.00    -0.037 C 
HETATM   21  C1  UNL     1      15.111   5.755  13.276  1.00  0.00     0.007 C 
ENDBRANCH  19  20
ENDBRANCH  18  19
ENDBRANCH  17  18
ENDBRANCH   1  17
BRANCH   2  22
HETATM   22  O1  UNL     1      19.094   7.332  10.953  1.00  0.00    -0.393 OA
ATOM     23  H1  UNL     1      19.518   7.087  10.139  1.00  0.00     0.210 HD
ENDBRANCH   2  22
BRANCH   7  24
HETATM   24  C13 UNL     1      18.237   8.657   7.027  1.00  0.00     0.237 C 
HETATM   25  N1  UNL     1      19.355   7.796   7.179  1.00  0.00    -0.062 NA
HETATM   26  O2  UNL     1      17.852   8.839   5.843  1.00  0.00    -0.276 OA
ENDBRANCH   7  24
TORSDOF 10
ENDMDL
MODEL 3
REMARK VINA RESULT: -6.749114371      4.016      5.970
REMARK  10 active torsions:
REMARK  status: ('A' for Active; 'I' for Inactive)
REMARK    1  A    between atoms: C2_2  and  C3_3 
REMARK    2  A    between atoms: C3_3  and  C4_4 
REMARK    3  A    between atoms: C4_4  and  C5_5 
REMARK    4  A    between atoms: C5_5  and  C6_6 
REMARK    5  A    between atoms: C7_7  and  O1_8 
REMARK    6  A    between atoms: C12_14  and  C13_15 
REMARK    7  A    between atoms: N2_19  and  C15_20 
REMARK    8  A    between atoms: C15_20  and  C16_21 
REMARK    9  A    between atoms: C16_21  and  C17_22 
REMARK   10  A    between atoms: C17_22  and  N3_23 
ROOT
HETATM    1  C6  UNL     1      17.116   6.004   9.633  1.00  0.00     0.253 C 
HETATM    2  C7  UNL     1      17.498   7.346  10.190  1.00  0.00     0.162 C 
HETATM    3  C8  UNL     1      16.989   8.284   9.176  1.00  0.00     0.024 A 
HETATM    4  C9  UNL     1      16.172   9.443   9.580  1.00  0.00     0.015 A 
HETATM    5  C10 UNL     1      16.987  10.307   8.625  1.00  0.00     0.007 A 
HETATM    6  C11 UNL     1      17.855   9.110   8.362  1.00  0.00     0.014 A 
HETATM    7  C12 UNL     1      17.424   8.389   7.117  1.00  0.00     0.114 A 
HETATM    8  C14 UNL     1      16.564   7.497   7.976  1.00  0.00     0.248 A 
HETATM    9  N2  UNL     1      17.091   6.195   8.217  1.00  0.00     0.102 N 
ENDROOT
BRANCH   9  10
HETATM   10  C15 UNL     1      16.504   5.127   7.486  1.00  0.00     0.275 C 
BRANCH  10  11
HETATM   11  C16 UNL     1      17.488   4.224   6.783  1.00  0.00     0.057 C 
BRANCH  11  12
HETATM   12  C17 UNL     1      16.995   4.008   5.353  1.00  0.00     0.231 C 
BRANCH  12  13
HETATM   13  N3  UNL     1      17.975   4.520   4.443  1.00  0.00    -0.079 N 
ATOM     14  H33 UNL     1      18.928   4.374   4.775  1.00  0.00     0.274 HD
ATOM     15  H32 UNL     1      18.037   3.968   3.587  1.00  0.00     0.274 HD
ATOM     16  H31 UNL     1      17.773   5.503   4.259  1.00  0.00     0.274 HD
ENDBRANCH  12  13
ENDBRANCH  11  12
ENDBRANCH  10  11
ENDBRANCH   9  10
BRANCH   1  17
HETATM   17  C5  UNL     1      18.009   4.896  10.080  1.00  0.00     0.039 C 
BRANCH  17  18
HETATM   18  C4  UNL     1      17.363   4.038  11.141  1.00  0.00     0.006 C 
BRANCH  18  19
HETATM   19  C3  UNL     1      15.851   4.106  11.119  1.00  0.00     0.026 C 
BRANCH  19  20
HETATM   20  C2  UNL     1      15.357   4.351  12.494  1.00  0.00    -0.037 C 
HETATM   21  C1  UNL     1      15.249   5.566  12.967  1.00  0.00     0.007 C 
ENDBRANCH  19  20
ENDBRANCH  18  19
ENDBRANCH  17  18
ENDBRANCH   1  17
BRANCH   2  22
HETATM   22  O1  UNL     1      18.809   7.479  10.540  1.00  0.00    -0.393 OA
ATOM     23  H1  UNL     1      18.995   8.174  11.162  1.00  0.00     0.210 HD
ENDBRANCH   2  22
BRANCH   7  24
HETATM   24  C13 UNL     1      18.472   7.753   6.331  1.00  0.00     0.237 C 
HETATM   25  N1  UNL     1      19.799   7.511   6.773  1.00  0.00    -0.062 NA
HETATM   26  O2  UNL     1      18.216   7.375   5.158  1.00  0.00    -0.276 OA
ENDBRANCH   7  24
TORSDOF 10
ENDMDL
MODEL 4
REMARK VINA RESULT: -6.741434189      1.304      1.422
REMARK  10 active torsions:
REMARK  status: ('A' for Active; 'I' for Inactive)
REMARK    1  A    between atoms: C2_2  and  C3_3 
REMARK    2  A    between atoms: C3_3  and  C4_4 
REMARK    3  A    between atoms: C4_4  and  C5_5 
REMARK    4  A    between atoms: C5_5  and  C6_6 
REMARK    5  A    between atoms: C7_7  and  O1_8 
REMARK    6  A    between atoms: C12_14  and  C13_15 
REMARK    7  A    between atoms: N2_19  and  C15_20 
REMARK    8  A    between atoms: C15_20  and  C16_21 
REMARK    9  A    between atoms: C16_21  and  C17_22 
REMARK   10  A    between atoms: C17_22  and  N3_23 
ROOT
HETATM    1  C6  UNL     1      15.295   9.660  11.921  1.00  0.00     0.253 C 
HETATM    2  C7  UNL     1      16.044  10.319  10.797  1.00  0.00     0.162 C 
HETATM    3  C8  UNL     1      16.658   9.181  10.095  1.00  0.00     0.024 A 
HETATM    4  C9  UNL     1      16.532   9.055   8.631  1.00  0.00     0.015 A 
HETATM    5  C10 UNL     1      18.011   8.694   8.569  1.00  0.00     0.007 A 
HETATM    6  C11 UNL     1      18.088   8.966  10.045  1.00  0.00     0.014 A 
HETATM    7  C12 UNL     1      17.958   7.697  10.838  1.00  0.00     0.114 A 
HETATM    8  C14 UNL     1      16.475   7.955  10.933  1.00  0.00     0.248 A 
HETATM    9  N2  UNL     1      16.026   8.461  12.187  1.00  0.00     0.102 N 
ENDROOT
BRANCH   9  10
HETATM   10  C15 UNL     1      15.361   7.540  13.042  1.00  0.00     0.275 C 
BRANCH  10  11
HETATM   11  C16 UNL     1      15.982   7.386  14.409  1.00  0.00     0.057 C 
BRANCH  11  12
HETATM   12  C17 UNL     1      15.853   5.920  14.824  1.00  0.00     0.231 C 
BRANCH  12  13
HETATM   13  N3  UNL     1      14.865   5.291  13.999  1.00  0.00    -0.079 N 
ATOM     14  H33 UNL     1      15.266   4.883  13.155  1.00  0.00     0.274 HD
ATOM     15  H32 UNL     1      14.502   4.433  14.414  1.00  0.00     0.274 HD
ATOM     16  H31 UNL     1      14.129   5.967  13.794  1.00  0.00     0.274 HD
ENDBRANCH  12  13
ENDBRANCH  11  12
ENDBRANCH  10  11
ENDBRANCH   9  10
BRANCH   1  17
HETATM   17  C5  UNL     1      15.115  10.537  13.114  1.00  0.00     0.039 C 
BRANCH  17  18
HETATM   18  C4  UNL     1      13.838  11.340  13.043  1.00  0.00     0.006 C 
BRANCH  18  19
HETATM   19  C3  UNL     1      13.102  11.401  14.364  1.00  0.00     0.026 C 
BRANCH  19  20
HETATM   20  C2  UNL     1      13.579  10.302  15.234  1.00  0.00    -0.037 C 
HETATM   21  C1  UNL     1      13.363  10.318  16.525  1.00  0.00     0.007 C 
ENDBRANCH  19  20
ENDBRANCH  18  19
ENDBRANCH  17  18
ENDBRANCH   1  17
BRANCH   2  22
HETATM   22  O1  UNL     1      16.880  11.330  11.169  1.00  0.00    -0.393 OA
ATOM     23  H1  UNL     1      16.537  12.207  11.042  1.00  0.00     0.210 HD
ENDBRANCH   2  22
BRANCH   7  24
HETATM   24  C13 UNL     1      18.705   7.624  12.085  1.00  0.00     0.237 C 
HETATM   25  N1  UNL     1      19.025   6.430  12.784  1.00  0.00    -0.062 NA
HETATM   26  O2  UNL     1      19.117   8.688  12.617  1.00  0.00    -0.276 OA
ENDBRANCH   7  24
TORSDOF 10
ENDMDL
MODEL 5
REMARK VINA RESULT: -6.725855938      4.647      6.948
REMARK  10 active torsions:
REMARK  status: ('A' for Active; 'I' for Inactive)
REMARK    1  A    between atoms: C2_2  and  C3_3 
REMARK    2  A    between atoms: C3_3  and  C4_4 
REMARK    3  A    between atoms: C4_4  and  C5_5 
REMARK    4  A    between atoms: C5_5  and  C6_6 
REMARK    5  A    between atoms: C7_7  and  O1_8 
REMARK    6  A    between atoms: C12_14  and  C13_15 
REMARK    7  A    between atoms: N2_19  and  C15_20 
REMARK    8  A    between atoms: C15_20  and  C16_21 
REMARK    9  A    between atoms: C16_21  and  C17_22 
REMARK   10  A    between atoms: C17_22  and  N3_23 
ROOT
HETATM    1  C6  UNL     1      17.412   4.918   8.660  1.00  0.00     0.253 C 
HETATM    2  C7  UNL     1      17.900   4.052   7.533  1.00  0.00     0.162 C 
HETATM    3  C8  UNL     1      18.868   4.919   6.843  1.00  0.00     0.024 A 
HETATM    4  C9  UNL     1      20.214   4.413   6.511  1.00  0.00     0.015 A 
HETATM    5  C10 UNL     1      20.073   5.044   5.131  1.00  0.00     0.007 A 
HETATM    6  C11 UNL     1      18.664   5.414   5.499  1.00  0.00     0.014 A 
HETATM    7  C12 UNL     1      18.586   6.829   5.997  1.00  0.00     0.114 A 
HETATM    8  C14 UNL     1      18.746   6.302   7.401  1.00  0.00     0.248 A 
HETATM    9  N2  UNL     1      17.548   6.255   8.172  1.00  0.00     0.102 N 
ENDROOT
BRANCH   9  10
HETATM   10  C15 UNL     1      17.388   7.264   9.160  1.00  0.00     0.275 C 
BRANCH  10  11
HETATM   11  C16 UNL     1      16.221   8.194   8.931  1.00  0.00     0.057 C 
BRANCH  11  12
HETATM   12  C17 UNL     1      16.617   9.582   9.432  1.00  0.00     0.231 C 
BRANCH  12  13
HETATM   13  N3  UNL     1      17.077  10.361   8.322  1.00  0.00    -0.079 N 
ATOM     14  H33 UNL     1      17.967  10.027   7.954  1.00  0.00     0.274 HD
ATOM     15  H32 UNL     1      16.513  10.215   7.484  1.00  0.00     0.274 HD
ATOM     16  H31 UNL     1      17.114  11.342   8.600  1.00  0.00     0.274 HD
ENDBRANCH  12  13
ENDBRANCH  11  12
ENDBRANCH  10  11
ENDBRANCH   9  10
BRANCH   1  17
HETATM   17  C5  UNL     1      16.035   4.578   9.121  1.00  0.00     0.039 C 
BRANCH  17  18
HETATM   18  C4  UNL     1      16.030   3.982  10.508  1.00  0.00     0.006 C 
BRANCH  18  19
HETATM   19  C3  UNL     1      16.296   5.005  11.593  1.00  0.00     0.026 C 
BRANCH  19  20
HETATM   20  C2  UNL     1      15.273   4.863  12.654  1.00  0.00    -0.037 C 
HETATM   21  C1  UNL     1      14.881   3.683  13.063  1.00  0.00     0.007 C 
ENDBRANCH  19  20
ENDBRANCH  18  19
ENDBRANCH  17  18
ENDBRANCH   1  17
BRANCH   2  22
HETATM   22  O1  UNL     1      16.923   3.494   6.763  1.00  0.00    -0.393 OA
ATOM     23  H1  UNL     1      17.233   2.954   6.044  1.00  0.00     0.210 HD
ENDBRANCH   2  22
BRANCH   7  24
HETATM   24  C13 UNL     1      17.366   7.564   5.694  1.00  0.00     0.237 C 
HETATM   25  N1  UNL     1      16.112   6.981   5.376  1.00  0.00    -0.062 NA
HETATM   26  O2  UNL     1      17.390   8.823   5.704  1.00  0.00    -0.276 OA
ENDBRANCH   7  24
TORSDOF 10
ENDMDL
