MODEL 1
REMARK VINA RESULT: -6.868963768      0.000      0.000
REMARK  1 active torsions:
REMARK  status: ('A' for Active; 'I' for Inactive)
REMARK    1  A    between atoms: C2_7  and  C3_8 
ROOT
HETATM    1  C3  UNL     1      16.354  -1.994  50.510  1.00  0.00     0.099 C 
HETATM    2  C4  UNL     1      15.568  -2.898  51.254  1.00  0.00     0.205 C 
HETATM    3  N3  UNL     1      16.216  -3.768  50.710  1.00  0.00    -0.014 N 
HETATM    4  C5  UNL     1      17.296  -3.767  49.753  1.00  0.00     0.285 A 
HETATM    5  C6  UNL     1      17.612  -4.314  50.546  1.00  0.00     0.285 A 
HETATM    6  C7  UNL     1      17.157  -3.032  51.164  1.00  0.00     0.224 A 
HETATM    7  N4  UNL     1      17.315  -3.050  52.479  1.00  0.00    -0.370 N 
ATOM      8  H4  UNL     1      17.908  -3.808  52.819  1.00  0.00     0.161 HD
HETATM    9  C8  UNL     1      16.819  -2.225  53.476  1.00  0.00     0.058 C 
HETATM   10  C9  UNL     1      15.303  -2.245  53.583  1.00  0.00     0.046 C 
HETATM   11  C10 UNL     1      14.648  -2.899  52.296  1.00  0.00     0.039 C 
ENDROOT
BRANCH   1  12
HETATM   12  C2  UNL     1      16.434  -0.645  50.499  1.00  0.00     0.119 C 
HETATM   13  N2  UNL     1      17.296   0.285  49.831  1.00  0.00    -0.349 N 
HETATM   14  C1  UNL     1      16.484   1.009  48.871  1.00  0.00     0.213 C 
ATOM     15  H2  UNL     1      18.293   0.414  49.998  1.00  0.00     0.163 HD
HETATM   16  N1  UNL     1      16.933   1.721  47.979  1.00  0.00    -0.365 N 
HETATM   17  O1  UNL     1      15.143   0.731  49.172  1.00  0.00    -0.321 OA
ATOM     18  H12 UNL     1      17.909   1.923  47.760  1.00  0.00     0.159 HD
ATOM     19  H11 UNL     1      16.363   2.230  47.304  1.00  0.00     0.159 HD
HETATM   20  C11 UNL     1      15.069   0.102  50.425  1.00  0.00     0.204 C 
ENDBRANCH   1  12
TORSDOF 1
ENDMDL
MODEL 2
REMARK VINA RESULT: -6.828473317      2.024      3.379
REMARK  1 active torsions:
REMARK  status: ('A' for Active; 'I' for Inactive)
REMARK    1  A    between atoms: C2_7  and  C3_8 
ROOT
HETATM    1  C3  UNL     1      14.909   0.603  49.815  1.00  0.00     0.099 C 
HETATM    2  C4  UNL     1      14.614  -0.301  50.857  1.00  0.00     0.205 C 
HETATM    3  N3  UNL     1      13.624  -0.580  50.213  1.00  0.00    -0.014 N 
HETATM    4  C5  UNL     1      13.088  -0.133  48.950  1.00  0.00     0.285 A 
HETATM    5  C6  UNL     1      13.156  -1.143  48.895  1.00  0.00     0.285 A 
HETATM    6  C7  UNL     1      14.526  -0.723  49.319  1.00  0.00     0.224 A 
HETATM    7  N4  UNL     1      15.323  -1.769  49.471  1.00  0.00    -0.370 N 
ATOM      8  H4  UNL     1      14.960  -2.634  49.070  1.00  0.00     0.161 HD
HETATM    9  C8  UNL     1      16.563  -1.899  50.077  1.00  0.00     0.058 C 
HETATM   10  C9  UNL     1      16.544  -1.602  51.568  1.00  0.00     0.046 C 
HETATM   11  C10 UNL     1      15.210  -0.854  51.985  1.00  0.00     0.039 C 
ENDROOT
BRANCH   1  12
HETATM   12  C2  UNL     1      15.971   1.402  49.569  1.00  0.00     0.119 C 
HETATM   13  N2  UNL     1      17.032   1.361  48.606  1.00  0.00    -0.349 N 
HETATM   14  C1  UNL     1      16.845   2.490  47.714  1.00  0.00     0.213 C 
ATOM     15  H2  UNL     1      17.778   0.668  48.557  1.00  0.00     0.163 HD
HETATM   16  N1  UNL     1      17.434   2.637  46.649  1.00  0.00    -0.365 N 
HETATM   17  O1  UNL     1      15.892   3.331  48.306  1.00  0.00    -0.321 OA
ATOM     18  H12 UNL     1      18.127   2.025  46.218  1.00  0.00     0.159 HD
ATOM     19  H11 UNL     1      17.304   3.430  46.022  1.00  0.00     0.159 HD
HETATM   20  C11 UNL     1      15.683   2.931  49.636  1.00  0.00     0.204 C 
ENDBRANCH   1  12
TORSDOF 1
ENDMDL
MODEL 3
REMARK VINA RESULT: -6.737831963      2.125      3.918
REMARK  1 active torsions:
REMARK  status: ('A' for Active; 'I' for Inactive)
REMARK    1  A    between atoms: C2_7  and  C3_8 
ROOT
HETATM    1  C3  UNL     1      15.138  -1.472  50.265  1.00  0.00     0.099 C 
HETATM    2  C4  UNL     1      16.277  -2.224  49.907  1.00  0.00     0.205 C 
HETATM    3  N3  UNL     1      16.716  -1.181  49.468  1.00  0.00    -0.014 N 
HETATM    4  C5  UNL     1      16.216   0.171  49.402  1.00  0.00     0.285 A 
HETATM    5  C6  UNL     1      17.123   0.219  49.852  1.00  0.00     0.285 A 
HETATM    6  C7  UNL     1      16.391  -0.813  50.648  1.00  0.00     0.224 A 
HETATM    7  N4  UNL     1      17.146  -1.291  51.625  1.00  0.00    -0.370 N 
ATOM      8  H4  UNL     1      17.983  -0.740  51.815  1.00  0.00     0.161 HD
HETATM    9  C8  UNL     1      17.002  -2.405  52.437  1.00  0.00     0.058 C 
HETATM   10  C9  UNL     1      17.027  -3.719  51.674  1.00  0.00     0.046 C 
HETATM   11  C10 UNL     1      16.829  -3.482  50.119  1.00  0.00     0.039 C 
ENDROOT
BRANCH   1  12
HETATM   12  C2  UNL     1      14.017  -1.780  50.953  1.00  0.00     0.119 C 
HETATM   13  N2  UNL     1      13.723  -2.737  51.979  1.00  0.00    -0.349 N 
HETATM   14  C1  UNL     1      13.440  -1.993  53.192  1.00  0.00     0.213 C 
ATOM     15  H2  UNL     1      13.714  -3.751  51.875  1.00  0.00     0.163 HD
HETATM   16  N1  UNL     1      13.367  -2.491  54.310  1.00  0.00    -0.365 N 
HETATM   17  O1  UNL     1      13.278  -0.649  52.824  1.00  0.00    -0.321 OA
ATOM     18  H12 UNL     1      13.485  -3.468  54.577  1.00  0.00     0.159 HD
ATOM     19  H11 UNL     1      13.169  -1.969  55.163  1.00  0.00     0.159 HD
HETATM   20  C11 UNL     1      13.170  -0.561  51.427  1.00  0.00     0.204 C 
ENDBRANCH   1  12
TORSDOF 1
ENDMDL
MODEL 4
REMARK VINA RESULT: -6.585497238      2.180      4.608
REMARK  1 active torsions:
REMARK  status: ('A' for Active; 'I' for Inactive)
REMARK    1  A    between atoms: C2_7  and  C3_8 
ROOT
HETATM    1  C3  UNL     1      15.737  -1.132  50.257  1.00  0.00     0.099 C 
HETATM    2  C4  UNL     1      14.779  -0.270  50.830  1.00  0.00     0.205 C 
HETATM    3  N3  UNL     1      15.481   0.633  50.423  1.00  0.00    -0.014 N 
HETATM    4  C5  UNL     1      16.718   0.688  49.684  1.00  0.00     0.285 A 
HETATM    5  C6  UNL     1      16.051   1.255  49.174  1.00  0.00     0.285 A 
HETATM    6  C7  UNL     1      15.341  -0.049  49.351  1.00  0.00     0.224 A 
HETATM    7  N4  UNL     1      14.135  -0.017  48.805  1.00  0.00    -0.370 N 
ATOM      8  H4  UNL     1      13.979   0.773  48.179  1.00  0.00     0.161 HD
HETATM    9  C8  UNL     1      13.046  -0.866  48.932  1.00  0.00     0.058 C 
HETATM   10  C9  UNL     1      12.488  -0.929  50.344  1.00  0.00     0.046 C 
HETATM   11  C10 UNL     1      13.508  -0.316  51.391  1.00  0.00     0.039 C 
ENDROOT
BRANCH   1  12
HETATM   12  C2  UNL     1      15.790  -2.475  50.112  1.00  0.00     0.119 C 
HETATM   13  N2  UNL     1      16.728  -3.361  49.488  1.00  0.00    -0.349 N 
HETATM   14  C1  UNL     1      17.350  -4.138  50.542  1.00  0.00     0.213 C 
ATOM     15  H2  UNL     1      16.921  -3.433  48.489  1.00  0.00     0.163 HD
HETATM   16  N1  UNL     1      18.351  -4.832  50.395  1.00  0.00    -0.365 N 
HETATM   17  O1  UNL     1      16.597  -3.932  51.707  1.00  0.00    -0.321 OA
ATOM     18  H12 UNL     1      18.899  -4.981  49.548  1.00  0.00     0.159 HD
ATOM     19  H11 UNL     1      18.789  -5.378  51.136  1.00  0.00     0.159 HD
HETATM   20  C11 UNL     1      15.391  -3.297  51.373  1.00  0.00     0.204 C 
ENDBRANCH   1  12
TORSDOF 1
ENDMDL
MODEL 5
REMARK VINA RESULT: -6.556970734      1.450      1.722
REMARK  1 active torsions:
REMARK  status: ('A' for Active; 'I' for Inactive)
REMARK    1  A    between atoms: C2_7  and  C3_8 
ROOT
HETATM    1  C3  UNL     1      16.310  -3.155  50.615  1.00  0.00     0.099 C 
HETATM    2  C4  UNL     1      15.533  -3.568  51.718  1.00  0.00     0.205 C 
HETATM    3  N3  UNL     1      16.410  -4.384  51.914  1.00  0.00    -0.014 N 
HETATM    4  C5  UNL     1      17.654  -4.700  51.256  1.00  0.00     0.285 A 
HETATM    5  C6  UNL     1      17.875  -4.535  52.232  1.00  0.00     0.285 A 
HETATM    6  C7  UNL     1      17.106  -3.316  51.836  1.00  0.00     0.224 A 
HETATM    7  N4  UNL     1      16.982  -2.476  52.852  1.00  0.00    -0.370 N 
ATOM      8  H4  UNL     1      17.599  -2.677  53.639  1.00  0.00     0.161 HD
HETATM    9  C8  UNL     1      16.164  -1.373  53.038  1.00  0.00     0.058 C 
HETATM   10  C9  UNL     1      14.682  -1.709  53.038  1.00  0.00     0.046 C 
HETATM   11  C10 UNL     1      14.425  -3.159  52.450  1.00  0.00     0.039 C 
ENDROOT
BRANCH   1  12
HETATM   12  C2  UNL     1      16.180  -2.139  49.733  1.00  0.00     0.119 C 
HETATM   13  N2  UNL     1      15.139  -1.191  49.470  1.00  0.00    -0.349 N 
HETATM   14  C1  UNL     1      15.640   0.115  49.854  1.00  0.00     0.213 C 
ATOM     15  H2  UNL     1      14.217  -1.395  49.085  1.00  0.00     0.163 HD
HETATM   16  N1  UNL     1      14.945   1.118  49.972  1.00  0.00    -0.365 N 
HETATM   17  O1  UNL     1      17.023  -0.015  50.051  1.00  0.00    -0.321 OA
ATOM     18  H12 UNL     1      13.939   1.213  49.829  1.00  0.00     0.159 HD
ATOM     19  H11 UNL     1      15.297   2.036  50.242  1.00  0.00     0.159 HD
HETATM   20  C11 UNL     1      17.448  -1.254  49.546  1.00  0.00     0.204 C 
ENDBRANCH   1  12
TORSDOF 1
ENDMDL
