MODEL 1
REMARK VINA RESULT: -6.153338354      0.000      0.000
REMARK  18 active torsions:
REMARK  status: ('A' for Active; 'I' for Inactive)
REMARK    1  A    between atoms: C2_2  and  O1_3 
REMARK    2  A    between atoms: C3_6  and  C4_7 
REMARK    3  A    between atoms: C4_7  and  N1_8 
REMARK    4  A    between atoms: C4_7  and  C5_12 
REMARK    5  A    between atoms: C5_12  and  O3_13 
REMARK    6  A    between atoms: C5_12  and  C6_15 
REMARK    7  A    between atoms: C7_17  and  C8_18 
REMARK    8  A    between atoms: N2_19  and  C9_21 
REMARK    9  A    between atoms: C9_21  and  O5_22 
REMARK   10  A    between atoms: C9_21  and  C10_24 
REMARK   11  A    between atoms: C10_24  and  O6_25 
REMARK   12  A    between atoms: C10_24  and  C11_27 
REMARK   13  A    between atoms: C11_27  and  O7_28 
REMARK   14  A    between atoms: C11_27  and  C12_30 
REMARK   15  A    between atoms: C12_30  and  O8_31 
REMARK   16  A    between atoms: C12_30  and  C13_33 
REMARK   17  A    between atoms: C13_33  and  O9_34 
REMARK   18  A    between atoms: C17_45  and  O11_46 
ROOT
HETATM    1  C6  UNL     1      30.076  27.852 -40.879  1.00  0.00     0.185 C 
HETATM    2  O4  UNL     1      29.364  27.729 -39.667  1.00  0.00    -0.343 OA
HETATM    3  C7  UNL     1      30.388  27.655 -38.708  1.00  0.00     0.197 C 
HETATM    4  N3  UNL     1      30.904  29.001 -38.600  1.00  0.00    -0.318 N 
ATOM      5  H3  UNL     1      31.438  29.038 -37.731  1.00  0.00     0.166 HD
HETATM    6  C14 UNL     1      30.986  30.251 -39.162  1.00  0.00     0.215 C 
HETATM    7  N4  UNL     1      31.059  31.337 -39.653  1.00  0.00    -0.365 N 
ATOM      8  H41 UNL     1      31.119  32.266 -40.071  1.00  0.00     0.159 HD
ATOM      9  H42 UNL     1      30.702  31.618 -38.740  1.00  0.00     0.159 HD
HETATM   10  O10 UNL     1      31.668  29.716 -40.907  1.00  0.00    -0.314 OA
HETATM   11  C15 UNL     1      31.424  28.401 -40.569  1.00  0.00     0.166 C 
HETATM   12  C16 UNL     1      32.328  27.733 -39.860  1.00  0.00     0.072 C 
HETATM   13  C17 UNL     1      31.442  26.556 -39.398  1.00  0.00     0.182 C 
ENDROOT
BRANCH   3  14
HETATM   14  C8  UNL     1      29.922  27.033 -37.507  1.00  0.00     0.121 C 
HETATM   15  N2  UNL     1      28.746  26.978 -37.219  1.00  0.00    -0.370 N 
ATOM     16  H2  UNL     1      28.316  27.457 -38.011  1.00  0.00     0.161 HD
BRANCH  15  17
HETATM   17  C9  UNL     1      27.677  26.663 -36.481  1.00  0.00     0.248 C 
BRANCH  17  18
HETATM   18  O5  UNL     1      27.285  25.290 -36.582  1.00  0.00    -0.374 OA
ATOM     19  H5  UNL     1      27.729  24.812 -37.272  1.00  0.00     0.212 HD
ENDBRANCH  17  18
BRANCH  17  20
HETATM   20  C10 UNL     1      26.417  27.496 -36.604  1.00  0.00     0.197 C 
BRANCH  20  21
HETATM   21  O6  UNL     1      25.423  26.870 -35.797  1.00  0.00    -0.389 OA
ATOM     22  H6  UNL     1      24.673  27.451 -35.779  1.00  0.00     0.210 HD
ENDBRANCH  20  21
BRANCH  20  23
HETATM   23  C11 UNL     1      25.818  27.500 -37.991  1.00  0.00     0.181 C 
BRANCH  23  24
HETATM   24  O7  UNL     1      26.566  26.779 -38.913  1.00  0.00    -0.390 OA
ATOM     25  H7  UNL     1      26.241  25.897 -39.050  1.00  0.00     0.210 HD
ENDBRANCH  23  24
BRANCH  23  26
HETATM   26  C12 UNL     1      25.877  28.956 -38.508  1.00  0.00     0.173 C 
BRANCH  26  27
HETATM   27  O8  UNL     1      27.040  29.049 -39.267  1.00  0.00    -0.391 OA
ATOM     28  H8  UNL     1      26.760  29.177 -40.166  1.00  0.00     0.210 HD
ENDBRANCH  26  27
BRANCH  26  29
HETATM   29  C13 UNL     1      24.698  29.193 -39.426  1.00  0.00     0.198 C 
BRANCH  29  30
HETATM   30  O9  UNL     1      24.650  28.294 -40.479  1.00  0.00    -0.398 OA
ATOM     31  H9  UNL     1      23.839  27.799 -40.503  1.00  0.00     0.209 HD
ENDBRANCH  29  30
ENDBRANCH  26  29
ENDBRANCH  23  26
ENDBRANCH  20  23
ENDBRANCH  17  20
ENDBRANCH  15  17
ENDBRANCH   3  14
BRANCH  13  32
HETATM   32  O11 UNL     1      31.969  25.956 -38.297  1.00  0.00    -0.390 OA
ATOM     33  H11 UNL     1      31.475  25.144 -38.269  1.00  0.00     0.210 HD
ENDBRANCH  13  32
BRANCH   1  34
HETATM   34  C5  UNL     1      29.332  28.578 -41.948  1.00  0.00     0.183 C 
BRANCH  34  35
HETATM   35  C4  UNL     1      28.317  27.712 -42.640  1.00  0.00     0.253 C 
BRANCH  35  36
HETATM   36  C3  UNL     1      28.653  26.261 -42.762  1.00  0.00     0.228 C 
HETATM   37  O2  UNL     1      27.953  25.730 -43.833  1.00  0.00    -0.330 OA
HETATM   38  C2  UNL     1      28.386  24.516 -44.228  1.00  0.00     0.233 C 
HETATM   39  C1  UNL     1      28.124  24.472 -45.753  1.00  0.00     0.089 C 
HETATM   40  C18 UNL     1      29.846  24.342 -44.100  1.00  0.00     0.250 C 
HETATM   41  S1  UNL     1      30.333  25.849 -43.277  1.00  0.00    -0.052 SA
HETATM   42  O12 UNL     1      30.527  23.442 -44.451  1.00  0.00    -0.279 OA
BRANCH  38  43
HETATM   43  O1  UNL     1      27.715  23.450 -43.625  1.00  0.00    -0.359 OA
ATOM     44  H1  UNL     1      26.930  23.781 -43.205  1.00  0.00     0.213 HD
ENDBRANCH  38  43
ENDBRANCH  35  36
BRANCH  35  45
HETATM   45  N1  UNL     1      27.085  27.702 -41.796  1.00  0.00    -0.069 N 
ATOM     46  H13 UNL     1      27.257  27.686 -40.791  1.00  0.00     0.275 HD
ATOM     47  H12 UNL     1      26.562  28.577 -41.798  1.00  0.00     0.275 HD
ATOM     48  H11 UNL     1      26.569  26.897 -42.152  1.00  0.00     0.275 HD
ENDBRANCH  35  45
ENDBRANCH  34  35
BRANCH  34  49
HETATM   49  O3  UNL     1      28.976  29.870 -41.804  1.00  0.00    -0.391 OA
ATOM     50  H3  UNL     1      29.430  30.478 -42.377  1.00  0.00     0.210 HD
ENDBRANCH  34  49
ENDBRANCH   1  34
TORSDOF 18
ENDMDL
MODEL 2
REMARK VINA RESULT: -6.123332432      3.649      8.429
REMARK  18 active torsions:
REMARK  status: ('A' for Active; 'I' for Inactive)
REMARK    1  A    between atoms: C2_2  and  O1_3 
REMARK    2  A    between atoms: C3_6  and  C4_7 
REMARK    3  A    between atoms: C4_7  and  N1_8 
REMARK    4  A    between atoms: C4_7  and  C5_12 
REMARK    5  A    between atoms: C5_12  and  O3_13 
REMARK    6  A    between atoms: C5_12  and  C6_15 
REMARK    7  A    between atoms: C7_17  and  C8_18 
REMARK    8  A    between atoms: N2_19  and  C9_21 
REMARK    9  A    between atoms: C9_21  and  O5_22 
REMARK   10  A    between atoms: C9_21  and  C10_24 
REMARK   11  A    between atoms: C10_24  and  O6_25 
REMARK   12  A    between atoms: C10_24  and  C11_27 
REMARK   13  A    between atoms: C11_27  and  O7_28 
REMARK   14  A    between atoms: C11_27  and  C12_30 
REMARK   15  A    between atoms: C12_30  and  O8_31 
REMARK   16  A    between atoms: C12_30  and  C13_33 
REMARK   17  A    between atoms: C13_33  and  O9_34 
REMARK   18  A    between atoms: C17_45  and  O11_46 
ROOT
HETATM    1  C6  UNL     1      26.326  28.421 -37.313  1.00  0.00     0.185 C 
HETATM    2  O4  UNL     1      26.144  27.258 -38.091  1.00  0.00    -0.343 OA
HETATM    3  C7  UNL     1      26.757  27.597 -39.309  1.00  0.00     0.197 C 
HETATM    4  N3  UNL     1      28.178  27.544 -39.045  1.00  0.00    -0.318 N 
ATOM      5  H3  UNL     1      28.640  27.505 -39.954  1.00  0.00     0.166 HD
HETATM    6  C14 UNL     1      29.173  27.523 -38.099  1.00  0.00     0.215 C 
HETATM    7  N4  UNL     1      30.038  27.507 -37.276  1.00  0.00    -0.365 N 
ATOM      8  H41 UNL     1      30.777  27.492 -36.572  1.00  0.00     0.159 HD
ATOM      9  H42 UNL     1      30.305  26.662 -37.779  1.00  0.00     0.159 HD
HETATM   10  O10 UNL     1      28.663  29.139 -37.138  1.00  0.00    -0.314 OA
HETATM   11  C15 UNL     1      27.490  29.168 -37.863  1.00  0.00     0.166 C 
HETATM   12  C16 UNL     1      27.484  29.722 -39.071  1.00  0.00     0.072 C 
HETATM   13  C17 UNL     1      26.157  29.131 -39.595  1.00  0.00     0.182 C 
ENDROOT
BRANCH   3  14
HETATM   14  C8  UNL     1      26.258  26.789 -40.378  1.00  0.00     0.121 C 
HETATM   15  N2  UNL     1      26.991  26.238 -41.172  1.00  0.00    -0.370 N 
ATOM     16  H2  UNL     1      27.911  26.528 -40.839  1.00  0.00     0.161 HD
BRANCH  15  17
HETATM   17  C9  UNL     1      27.312  25.478 -42.223  1.00  0.00     0.248 C 
BRANCH  17  18
HETATM   18  O5  UNL     1      27.076  24.080 -42.022  1.00  0.00    -0.374 OA
ATOM     19  H5  UNL     1      26.212  23.879 -41.684  1.00  0.00     0.212 HD
ENDBRANCH  17  18
BRANCH  17  20
HETATM   20  C10 UNL     1      28.685  25.612 -42.848  1.00  0.00     0.197 C 
BRANCH  20  21
HETATM   21  O6  UNL     1      29.002  27.000 -42.865  1.00  0.00    -0.389 OA
ATOM     22  H6  UNL     1      29.585  27.144 -43.601  1.00  0.00     0.210 HD
ENDBRANCH  20  21
BRANCH  20  23
HETATM   23  C11 UNL     1      28.740  25.202 -44.302  1.00  0.00     0.181 C 
BRANCH  23  24
HETATM   24  O7  UNL     1      27.584  24.565 -44.735  1.00  0.00    -0.390 OA
ATOM     25  H7  UNL     1      27.565  23.640 -44.523  1.00  0.00     0.210 HD
ENDBRANCH  23  24
BRANCH  23  26
HETATM   26  C12 UNL     1      29.840  24.124 -44.430  1.00  0.00     0.173 C 
BRANCH  26  27
HETATM   27  O8  UNL     1      29.504  23.119 -43.526  1.00  0.00    -0.391 OA
ATOM     28  H8  UNL     1      30.263  22.552 -43.467  1.00  0.00     0.210 HD
ENDBRANCH  26  27
BRANCH  26  29
HETATM   29  C13 UNL     1      29.785  23.537 -45.824  1.00  0.00     0.198 C 
BRANCH  29  30
HETATM   30  O9  UNL     1      29.083  22.343 -45.875  1.00  0.00    -0.398 OA
ATOM     31  H9  UNL     1      29.624  21.590 -45.665  1.00  0.00     0.209 HD
ENDBRANCH  29  30
ENDBRANCH  26  29
ENDBRANCH  23  26
ENDBRANCH  20  23
ENDBRANCH  17  20
ENDBRANCH  15  17
ENDBRANCH   3  14
BRANCH  13  32
HETATM   32  O11 UNL     1      26.117  29.159 -40.954  1.00  0.00    -0.390 OA
ATOM     33  H11 UNL     1      26.343  30.065 -41.132  1.00  0.00     0.210 HD
ENDBRANCH  13  32
BRANCH   1  34
HETATM   34  C5  UNL     1      26.379  28.164 -35.845  1.00  0.00     0.183 C 
BRANCH  34  35
HETATM   35  C4  UNL     1      25.080  28.470 -35.154  1.00  0.00     0.253 C 
BRANCH  35  36
HETATM   36  C3  UNL     1      24.890  29.875 -34.685  1.00  0.00     0.228 C 
HETATM   37  O2  UNL     1      23.763  30.400 -35.294  1.00  0.00    -0.330 OA
HETATM   38  C2  UNL     1      23.319  31.547 -34.739  1.00  0.00     0.233 C 
HETATM   39  C1  UNL     1      21.784  31.522 -34.940  1.00  0.00     0.089 C 
HETATM   40  C18 UNL     1      23.498  31.599 -33.276  1.00  0.00     0.250 C 
HETATM   41  S1  UNL     1      24.424  30.107 -32.957  1.00  0.00    -0.052 SA
HETATM   42  O12 UNL     1      23.126  32.414 -32.504  1.00  0.00    -0.279 OA
BRANCH  38  43
HETATM   43  O1  UNL     1      23.832  32.701 -35.334  1.00  0.00    -0.359 OA
ATOM     44  H1  UNL     1      23.638  33.445 -34.777  1.00  0.00     0.213 HD
ENDBRANCH  38  43
ENDBRANCH  35  36
BRANCH  35  45
HETATM   45  N1  UNL     1      23.987  28.299 -36.157  1.00  0.00    -0.069 N 
ATOM     46  H13 UNL     1      23.072  28.627 -35.849  1.00  0.00     0.275 HD
ATOM     47  H12 UNL     1      24.051  28.916 -36.966  1.00  0.00     0.275 HD
ATOM     48  H11 UNL     1      24.030  27.304 -36.378  1.00  0.00     0.275 HD
ENDBRANCH  35  45
ENDBRANCH  34  35
BRANCH  34  49
HETATM   49  O3  UNL     1      27.064  27.119 -35.338  1.00  0.00    -0.391 OA
ATOM     50  H3  UNL     1      27.273  27.187 -34.414  1.00  0.00     0.210 HD
ENDBRANCH  34  49
ENDBRANCH   1  34
TORSDOF 18
ENDMDL
MODEL 3
REMARK VINA RESULT: -5.985280109      3.041      4.689
REMARK  18 active torsions:
REMARK  status: ('A' for Active; 'I' for Inactive)
REMARK    1  A    between atoms: C2_2  and  O1_3 
REMARK    2  A    between atoms: C3_6  and  C4_7 
REMARK    3  A    between atoms: C4_7  and  N1_8 
REMARK    4  A    between atoms: C4_7  and  C5_12 
REMARK    5  A    between atoms: C5_12  and  O3_13 
REMARK    6  A    between atoms: C5_12  and  C6_15 
REMARK    7  A    between atoms: C7_17  and  C8_18 
REMARK    8  A    between atoms: N2_19  and  C9_21 
REMARK    9  A    between atoms: C9_21  and  O5_22 
REMARK   10  A    between atoms: C9_21  and  C10_24 
REMARK   11  A    between atoms: C10_24  and  O6_25 
REMARK   12  A    between atoms: C10_24  and  C11_27 
REMARK   13  A    between atoms: C11_27  and  O7_28 
REMARK   14  A    between atoms: C11_27  and  C12_30 
REMARK   15  A    between atoms: C12_30  and  O8_31 
REMARK   16  A    between atoms: C12_30  and  C13_33 
REMARK   17  A    between atoms: C13_33  and  O9_34 
REMARK   18  A    between atoms: C17_45  and  O11_46 
ROOT
HETATM    1  C6  UNL     1      26.872  27.679 -39.764  1.00  0.00     0.185 C 
HETATM    2  O4  UNL     1      25.578  28.233 -39.852  1.00  0.00    -0.343 OA
HETATM    3  C7  UNL     1      25.263  28.508 -38.510  1.00  0.00     0.197 C 
HETATM    4  N3  UNL     1      26.049  29.672 -38.167  1.00  0.00    -0.318 N 
ATOM      5  H3  UNL     1      25.640  30.058 -37.316  1.00  0.00     0.166 HD
HETATM    6  C14 UNL     1      27.108  30.483 -38.494  1.00  0.00     0.215 C 
HETATM    7  N4  UNL     1      28.031  31.186 -38.777  1.00  0.00    -0.365 N 
ATOM      8  H41 UNL     1      28.818  31.788 -39.020  1.00  0.00     0.159 HD
ATOM      9  H42 UNL     1      27.312  31.908 -38.729  1.00  0.00     0.159 HD
HETATM   10  O10 UNL     1      28.482  29.104 -38.586  1.00  0.00    -0.314 OA
HETATM   11  C15 UNL     1      27.491  28.149 -38.494  1.00  0.00     0.166 C 
HETATM   12  C16 UNL     1      27.031  27.801 -37.297  1.00  0.00     0.072 C 
HETATM   13  C17 UNL     1      25.729  27.099 -37.740  1.00  0.00     0.182 C 
ENDROOT
BRANCH   3  14
HETATM   14  C8  UNL     1      23.848  28.594 -38.322  1.00  0.00     0.121 C 
HETATM   15  N2  UNL     1      23.348  29.296 -37.469  1.00  0.00    -0.370 N 
ATOM     16  H2  UNL     1      24.172  29.708 -37.032  1.00  0.00     0.161 HD
BRANCH  15  17
HETATM   17  C9  UNL     1      22.360  29.851 -36.760  1.00  0.00     0.248 C 
BRANCH  17  18
HETATM   18  O5  UNL     1      21.449  30.629 -37.543  1.00  0.00    -0.374 OA
ATOM     19  H5  UNL     1      20.549  30.587 -37.244  1.00  0.00     0.212 HD
ENDBRANCH  17  18
BRANCH  17  20
HETATM   20  C10 UNL     1      22.695  30.666 -35.528  1.00  0.00     0.197 C 
BRANCH  20  21
HETATM   21  O6  UNL     1      22.599  32.038 -35.896  1.00  0.00    -0.389 OA
ATOM     22  H6  UNL     1      21.679  32.224 -36.040  1.00  0.00     0.210 HD
ENDBRANCH  20  21
BRANCH  20  23
HETATM   23  C11 UNL     1      24.123  30.508 -35.058  1.00  0.00     0.181 C 
BRANCH  23  24
HETATM   24  O7  UNL     1      24.473  29.187 -34.804  1.00  0.00    -0.390 OA
ATOM     25  H7  UNL     1      25.365  29.090 -34.495  1.00  0.00     0.210 HD
ENDBRANCH  23  24
BRANCH  23  26
HETATM   26  C12 UNL     1      24.228  31.201 -33.680  1.00  0.00     0.173 C 
BRANCH  26  27
HETATM   27  O8  UNL     1      22.940  31.207 -33.151  1.00  0.00    -0.391 OA
ATOM     28  H8  UNL     1      22.394  31.648 -33.791  1.00  0.00     0.210 HD
ENDBRANCH  26  27
BRANCH  26  29
HETATM   29  C13 UNL     1      25.102  30.357 -32.777  1.00  0.00     0.198 C 
BRANCH  29  30
HETATM   30  O9  UNL     1      26.453  30.517 -33.038  1.00  0.00    -0.398 OA
ATOM     31  H9  UNL     1      26.967  29.756 -32.794  1.00  0.00     0.209 HD
ENDBRANCH  29  30
ENDBRANCH  26  29
ENDBRANCH  23  26
ENDBRANCH  20  23
ENDBRANCH  17  20
ENDBRANCH  15  17
ENDBRANCH   3  14
BRANCH  13  32
HETATM   32  O11 UNL     1      24.837  27.042 -36.715  1.00  0.00    -0.390 OA
ATOM     33  H11 UNL     1      25.378  26.701 -36.011  1.00  0.00     0.210 HD
ENDBRANCH  13  32
BRANCH   1  34
HETATM   34  C5  UNL     1      27.704  27.886 -40.984  1.00  0.00     0.183 C 
BRANCH  34  35
HETATM   35  C4  UNL     1      27.457  26.845 -42.039  1.00  0.00     0.253 C 
BRANCH  35  36
HETATM   36  C3  UNL     1      28.622  25.989 -42.414  1.00  0.00     0.228 C 
HETATM   37  O2  UNL     1      28.184  24.988 -43.266  1.00  0.00    -0.330 OA
HETATM   38  C2  UNL     1      29.175  24.332 -43.904  1.00  0.00     0.233 C 
HETATM   39  C1  UNL     1      28.572  23.920 -45.268  1.00  0.00     0.089 C 
HETATM   40  C18 UNL     1      30.320  25.195 -44.253  1.00  0.00     0.250 C 
HETATM   41  S1  UNL     1      29.885  26.736 -43.465  1.00  0.00    -0.052 SA
HETATM   42  O12 UNL     1      31.281  24.941 -44.892  1.00  0.00    -0.279 OA
BRANCH  38  43
HETATM   43  O1  UNL     1      29.615  23.185 -43.240  1.00  0.00    -0.359 OA
ATOM     44  H1  UNL     1      30.565  23.186 -43.223  1.00  0.00     0.213 HD
ENDBRANCH  38  43
ENDBRANCH  35  36
BRANCH  35  45
HETATM   45  N1  UNL     1      26.482  25.862 -41.480  1.00  0.00    -0.069 N 
ATOM     46  H13 UNL     1      26.058  26.138 -40.595  1.00  0.00     0.275 HD
ATOM     47  H12 UNL     1      25.605  25.792 -41.997  1.00  0.00     0.275 HD
ATOM     48  H11 UNL     1      27.022  24.998 -41.441  1.00  0.00     0.275 HD
ENDBRANCH  35  45
ENDBRANCH  34  35
BRANCH  34  49
HETATM   49  O3  UNL     1      27.970  29.122 -41.452  1.00  0.00    -0.391 OA
ATOM     50  H3  UNL     1      28.382  29.708 -40.829  1.00  0.00     0.210 HD
ENDBRANCH  34  49
ENDBRANCH   1  34
TORSDOF 18
ENDMDL
MODEL 4
REMARK VINA RESULT: -5.883101744      4.554      6.657
REMARK  18 active torsions:
REMARK  status: ('A' for Active; 'I' for Inactive)
REMARK    1  A    between atoms: C2_2  and  O1_3 
REMARK    2  A    between atoms: C3_6  and  C4_7 
REMARK    3  A    between atoms: C4_7  and  N1_8 
REMARK    4  A    between atoms: C4_7  and  C5_12 
REMARK    5  A    between atoms: C5_12  and  O3_13 
REMARK    6  A    between atoms: C5_12  and  C6_15 
REMARK    7  A    between atoms: C7_17  and  C8_18 
REMARK    8  A    between atoms: N2_19  and  C9_21 
REMARK    9  A    between atoms: C9_21  and  O5_22 
REMARK   10  A    between atoms: C9_21  and  C10_24 
REMARK   11  A    between atoms: C10_24  and  O6_25 
REMARK   12  A    between atoms: C10_24  and  C11_27 
REMARK   13  A    between atoms: C11_27  and  O7_28 
REMARK   14  A    between atoms: C11_27  and  C12_30 
REMARK   15  A    between atoms: C12_30  and  O8_31 
REMARK   16  A    between atoms: C12_30  and  C13_33 
REMARK   17  A    between atoms: C13_33  and  O9_34 
REMARK   18  A    between atoms: C17_45  and  O11_46 
ROOT
HETATM    1  C6  UNL     1      29.981  25.027 -47.072  1.00  0.00     0.185 C 
HETATM    2  O4  UNL     1      28.910  25.477 -46.270  1.00  0.00    -0.343 OA
HETATM    3  C7  UNL     1      29.341  25.166 -44.969  1.00  0.00     0.197 C 
HETATM    4  N3  UNL     1      30.358  26.147 -44.662  1.00  0.00    -0.318 N 
ATOM      5  H3  UNL     1      30.483  26.128 -43.650  1.00  0.00     0.166 HD
HETATM    6  C14 UNL     1      31.228  27.093 -45.146  1.00  0.00     0.215 C 
HETATM    7  N4  UNL     1      31.985  27.914 -45.568  1.00  0.00    -0.365 N 
ATOM      8  H41 UNL     1      32.631  28.617 -45.928  1.00  0.00     0.159 HD
ATOM      9  H42 UNL     1      31.500  28.503 -44.890  1.00  0.00     0.159 HD
HETATM   10  O10 UNL     1      32.154  25.970 -46.441  1.00  0.00    -0.314 OA
HETATM   11  C15 UNL     1      31.206  24.990 -46.228  1.00  0.00     0.166 C 
HETATM   12  C16 UNL     1      31.348  24.158 -45.201  1.00  0.00     0.072 C 
HETATM   13  C17 UNL     1      29.908  23.604 -45.146  1.00  0.00     0.182 C 
ENDROOT
BRANCH   3  14
HETATM   14  C8  UNL     1      28.232  25.069 -44.071  1.00  0.00     0.121 C 
HETATM   15  N2  UNL     1      28.172  25.708 -43.042  1.00  0.00    -0.370 N 
ATOM     16  H2  UNL     1      29.049  26.229 -43.072  1.00  0.00     0.161 HD
BRANCH  15  17
HETATM   17  C9  UNL     1      27.641  26.137 -41.893  1.00  0.00     0.248 C 
BRANCH  17  18
HETATM   18  O5  UNL     1      26.604  25.293 -41.382  1.00  0.00    -0.374 OA
ATOM     19  H5  UNL     1      26.396  25.448 -40.468  1.00  0.00     0.212 HD
ENDBRANCH  17  18
BRANCH  17  20
HETATM   20  C10 UNL     1      27.145  27.564 -41.790  1.00  0.00     0.197 C 
BRANCH  20  21
HETATM   21  O6  UNL     1      27.796  28.308 -42.815  1.00  0.00    -0.389 OA
ATOM     22  H6  UNL     1      27.985  29.167 -42.458  1.00  0.00     0.210 HD
ENDBRANCH  20  21
BRANCH  20  23
HETATM   23  C11 UNL     1      27.549  28.263 -40.512  1.00  0.00     0.181 C 
BRANCH  23  24
HETATM   24  O7  UNL     1      28.345  27.478 -39.687  1.00  0.00    -0.390 OA
ATOM     25  H7  UNL     1      29.211  27.841 -39.547  1.00  0.00     0.210 HD
ENDBRANCH  23  24
BRANCH  23  26
HETATM   26  C12 UNL     1      26.260  28.494 -39.691  1.00  0.00     0.173 C 
BRANCH  26  27
HETATM   27  O8  UNL     1      25.224  27.933 -40.433  1.00  0.00    -0.391 OA
ATOM     28  H8  UNL     1      24.620  28.642 -40.620  1.00  0.00     0.210 HD
ENDBRANCH  26  27
BRANCH  26  29
HETATM   29  C13 UNL     1      26.371  27.730 -38.389  1.00  0.00     0.198 C 
BRANCH  29  30
HETATM   30  O9  UNL     1      26.154  26.370 -38.546  1.00  0.00    -0.398 OA
ATOM     31  H9  UNL     1      26.881  25.844 -38.233  1.00  0.00     0.209 HD
ENDBRANCH  29  30
ENDBRANCH  26  29
ENDBRANCH  23  26
ENDBRANCH  20  23
ENDBRANCH  17  20
ENDBRANCH  15  17
ENDBRANCH   3  14
BRANCH  13  32
HETATM   32  O11 UNL     1      29.638  23.076 -43.922  1.00  0.00    -0.390 OA
ATOM     33  H11 UNL     1      30.510  22.855 -43.614  1.00  0.00     0.210 HD
ENDBRANCH  13  32
BRANCH   1  34
HETATM   34  C5  UNL     1      30.125  25.766 -48.358  1.00  0.00     0.183 C 
BRANCH  34  35
HETATM   35  C4  UNL     1      29.297  25.174 -49.464  1.00  0.00     0.253 C 
BRANCH  35  36
HETATM   36  C3  UNL     1      30.045  24.496 -50.566  1.00  0.00     0.228 C 
HETATM   37  O2  UNL     1      30.513  25.458 -51.445  1.00  0.00    -0.330 OA
HETATM   38  C2  UNL     1      31.442  25.008 -52.313  1.00  0.00     0.233 C 
HETATM   39  C1  UNL     1      32.360  26.224 -52.586  1.00  0.00     0.089 C 
HETATM   40  C18 UNL     1      32.341  23.990 -51.736  1.00  0.00     0.250 C 
HETATM   41  S1  UNL     1      31.611  23.710 -50.132  1.00  0.00    -0.052 SA
HETATM   42  O12 UNL     1      33.301  23.486 -52.206  1.00  0.00    -0.279 OA
BRANCH  38  43
HETATM   43  O1  UNL     1      30.915  24.560 -53.527  1.00  0.00    -0.359 OA
ATOM     44  H1  UNL     1      30.669  23.647 -53.435  1.00  0.00     0.213 HD
ENDBRANCH  38  43
ENDBRANCH  35  36
BRANCH  35  45
HETATM   45  N1  UNL     1      28.487  24.066 -48.876  1.00  0.00    -0.069 N 
ATOM     46  H13 UNL     1      28.414  24.086 -47.859  1.00  0.00     0.275 HD
ATOM     47  H12 UNL     1      27.486  24.132 -49.053  1.00  0.00     0.275 HD
ATOM     48  H11 UNL     1      28.932  23.230 -49.253  1.00  0.00     0.275 HD
ENDBRANCH  35  45
ENDBRANCH  34  35
BRANCH  34  49
HETATM   49  O3  UNL     1      30.243  27.109 -48.390  1.00  0.00    -0.391 OA
ATOM     50  H3  UNL     1      31.057  27.449 -48.038  1.00  0.00     0.210 HD
ENDBRANCH  34  49
ENDBRANCH   1  34
TORSDOF 18
ENDMDL
MODEL 5
REMARK VINA RESULT: -5.881386775      2.029      3.208
REMARK  18 active torsions:
REMARK  status: ('A' for Active; 'I' for Inactive)
REMARK    1  A    between atoms: C2_2  and  O1_3 
REMARK    2  A    between atoms: C3_6  and  C4_7 
REMARK    3  A    between atoms: C4_7  and  N1_8 
REMARK    4  A    between atoms: C4_7  and  C5_12 
REMARK    5  A    between atoms: C5_12  and  O3_13 
REMARK    6  A    between atoms: C5_12  and  C6_15 
REMARK    7  A    between atoms: C7_17  and  C8_18 
REMARK    8  A    between atoms: N2_19  and  C9_21 
REMARK    9  A    between atoms: C9_21  and  O5_22 
REMARK   10  A    between atoms: C9_21  and  C10_24 
REMARK   11  A    between atoms: C10_24  and  O6_25 
REMARK   12  A    between atoms: C10_24  and  C11_27 
REMARK   13  A    between atoms: C11_27  and  O7_28 
REMARK   14  A    between atoms: C11_27  and  C12_30 
REMARK   15  A    between atoms: C12_30  and  O8_31 
REMARK   16  A    between atoms: C12_30  and  C13_33 
REMARK   17  A    between atoms: C13_33  and  O9_34 
REMARK   18  A    between atoms: C17_45  and  O11_46 
ROOT
HETATM    1  C6  UNL     1      30.118  27.748 -42.021  1.00  0.00     0.185 C 
HETATM    2  O4  UNL     1      30.269  27.120 -40.767  1.00  0.00    -0.343 OA
HETATM    3  C7  UNL     1      29.294  27.755 -39.979  1.00  0.00     0.197 C 
HETATM    4  N3  UNL     1      28.032  27.206 -40.423  1.00  0.00    -0.318 N 
ATOM      5  H3  UNL     1      27.349  27.426 -39.698  1.00  0.00     0.166 HD
HETATM    6  C14 UNL     1      27.357  26.517 -41.400  1.00  0.00     0.215 C 
HETATM    7  N4  UNL     1      26.770  25.919 -42.251  1.00  0.00    -0.365 N 
ATOM      8  H41 UNL     1      26.268  25.406 -42.977  1.00  0.00     0.159 HD
ATOM      9  H42 UNL     1      26.518  25.325 -41.461  1.00  0.00     0.159 HD
HETATM   10  O10 UNL     1      27.835  27.651 -42.910  1.00  0.00    -0.314 OA
HETATM   11  C15 UNL     1      28.739  28.304 -42.097  1.00  0.00     0.166 C 
HETATM   12  C16 UNL     1      28.317  29.292 -41.314  1.00  0.00     0.072 C 
HETATM   13  C17 UNL     1      29.526  29.367 -40.357  1.00  0.00     0.182 C 
ENDROOT
BRANCH   3  14
HETATM   14  C8  UNL     1      29.604  27.642 -38.588  1.00  0.00     0.121 C 
HETATM   15  N2  UNL     1      28.769  27.350 -37.758  1.00  0.00    -0.370 N 
ATOM     16  H2  UNL     1      27.934  27.245 -38.334  1.00  0.00     0.161 HD
BRANCH  15  17
HETATM   17  C9  UNL     1      28.292  27.085 -36.538  1.00  0.00     0.248 C 
BRANCH  17  18
HETATM   18  O5  UNL     1      28.291  25.693 -36.205  1.00  0.00    -0.374 OA
ATOM     19  H5  UNL     1      28.774  25.485 -35.414  1.00  0.00     0.212 HD
ENDBRANCH  17  18
BRANCH  17  20
HETATM   20  C10 UNL     1      26.943  27.640 -36.130  1.00  0.00     0.197 C 
BRANCH  20  21
HETATM   21  O6  UNL     1      26.806  27.415 -34.730  1.00  0.00    -0.389 OA
ATOM     22  H6  UNL     1      27.619  27.029 -34.429  1.00  0.00     0.210 HD
ENDBRANCH  20  21
BRANCH  20  23
HETATM   23  C11 UNL     1      25.769  26.908 -36.739  1.00  0.00     0.181 C 
BRANCH  23  24
HETATM   24  O7  UNL     1      26.077  26.286 -37.942  1.00  0.00    -0.390 OA
ATOM     25  H7  UNL     1      25.426  26.436 -38.618  1.00  0.00     0.210 HD
ENDBRANCH  23  24
BRANCH  23  26
HETATM   26  C12 UNL     1      24.716  27.974 -37.119  1.00  0.00     0.173 C 
BRANCH  26  27
HETATM   27  O8  UNL     1      24.007  28.251 -35.953  1.00  0.00    -0.391 OA
ATOM     28  H8  UNL     1      24.182  29.162 -35.748  1.00  0.00     0.210 HD
ENDBRANCH  26  27
BRANCH  26  29
HETATM   29  C13 UNL     1      25.435  29.238 -37.542  1.00  0.00     0.198 C 
BRANCH  29  30
HETATM   30  O9  UNL     1      26.145  29.080 -38.721  1.00  0.00    -0.398 OA
ATOM     31  H9  UNL     1      26.375  29.909 -39.125  1.00  0.00     0.209 HD
ENDBRANCH  29  30
ENDBRANCH  26  29
ENDBRANCH  23  26
ENDBRANCH  20  23
ENDBRANCH  17  20
ENDBRANCH  15  17
ENDBRANCH   3  14
BRANCH  13  32
HETATM   32  O11 UNL     1      29.182  29.973 -39.189  1.00  0.00    -0.390 OA
ATOM     33  H11 UNL     1      29.669  30.787 -39.246  1.00  0.00     0.210 HD
ENDBRANCH  13  32
BRANCH   1  34
HETATM   34  C5  UNL     1      30.518  26.896 -43.177  1.00  0.00     0.183 C 
BRANCH  34  35
HETATM   35  C4  UNL     1      30.645  25.444 -42.812  1.00  0.00     0.253 C 
BRANCH  35  36
HETATM   36  C3  UNL     1      30.778  24.481 -43.947  1.00  0.00     0.228 C 
HETATM   37  O2  UNL     1      29.601  24.489 -44.677  1.00  0.00    -0.330 OA
HETATM   38  C2  UNL     1      29.696  23.890 -45.882  1.00  0.00     0.233 C 
HETATM   39  C1  UNL     1      28.700  24.653 -46.789  1.00  0.00     0.089 C 
HETATM   40  C18 UNL     1      31.007  24.082 -46.532  1.00  0.00     0.250 C 
HETATM   41  S1  UNL     1      31.940  24.914 -45.258  1.00  0.00    -0.052 SA
HETATM   42  O12 UNL     1      31.358  23.770 -47.617  1.00  0.00    -0.279 OA
BRANCH  38  43
HETATM   43  O1  UNL     1      29.350  22.537 -45.873  1.00  0.00    -0.359 OA
ATOM     44  H1  UNL     1      29.330  22.232 -44.974  1.00  0.00     0.213 HD
ENDBRANCH  38  43
ENDBRANCH  35  36
BRANCH  35  45
HETATM   45  N1  UNL     1      31.934  25.277 -42.076  1.00  0.00    -0.069 N 
ATOM     46  H13 UNL     1      32.333  24.340 -42.125  1.00  0.00     0.275 HD
ATOM     47  H12 UNL     1      32.730  25.751 -42.500  1.00  0.00     0.275 HD
ATOM     48  H11 UNL     1      31.704  25.593 -41.134  1.00  0.00     0.275 HD
ENDBRANCH  35  45
ENDBRANCH  34  35
BRANCH  34  49
HETATM   49  O3  UNL     1      30.053  27.134 -44.420  1.00  0.00    -0.391 OA
ATOM     50  H3  UNL     1      30.395  27.918 -44.834  1.00  0.00     0.210 HD
ENDBRANCH  34  49
ENDBRANCH   1  34
TORSDOF 18
ENDMDL
