MODEL 1
REMARK VINA RESULT: -8.892781849      0.000      0.000
REMARK  7 active torsions:
REMARK  status: ('A' for Active; 'I' for Inactive)
REMARK    1  A    between atoms: C2_2  and  C4_4 
REMARK    2  A    between atoms: C4_4  and  C5_5 
REMARK    3  A    between atoms: C5_5  and  C6_6 
REMARK    4  A    between atoms: C5_5  and  C7_8 
REMARK    5  A    between atoms: C7_8  and  O2_10 
REMARK    6  A    between atoms: O2_10  and  C8_11 
REMARK    7  A    between atoms: C33_41  and  O6_42 
ROOT
HETATM    1  C8  UNL     1      27.082   5.133  37.067  1.00  0.00     0.147 C 
HETATM    2  C9  UNL     1      26.878   4.047  37.998  1.00  0.00     0.021 C 
HETATM    3  C10 UNL     1      27.161   2.630  37.913  1.00  0.00    -0.069 C 
HETATM    4  C11 UNL     1      25.966   1.675  37.850  1.00  0.00     0.038 C 
HETATM    5  C12 UNL     1      25.906   0.978  36.482  1.00  0.00     0.050 C 
HETATM    6  C13 UNL     1      25.347   1.744  35.408  1.00  0.00     0.146 C 
HETATM    7  C14 UNL     1      23.814   1.724  35.507  1.00  0.00     0.054 C 
HETATM    8  O3  UNL     1      25.658   1.350  34.104  1.00  0.00    -0.222 OA
HETATM    9  O4  UNL     1      25.010   2.505  33.859  1.00  0.00    -0.203 OA
HETATM   10  C15 UNL     1      25.925   2.993  34.863  1.00  0.00     0.205 C 
HETATM   11  N1  UNL     1      27.168   3.003  34.198  1.00  0.00    -0.376 N 
ATOM     12  H1  UNL     1      27.428   2.211  33.608  1.00  0.00     0.157 HD
HETATM   13  C16 UNL     1      28.065   4.097  34.335  1.00  0.00     0.047 A 
HETATM   14  C17 UNL     1      28.691   4.726  33.162  1.00  0.00     0.044 A 
HETATM   15  C18 UNL     1      27.383   5.163  33.628  1.00  0.00    -0.006 A 
HETATM   16  C19 UNL     1      26.547   4.990  32.349  1.00  0.00     0.018 C 
HETATM   17  C20 UNL     1      26.832   5.990  34.661  1.00  0.00     0.069 C 
HETATM   18  C21 UNL     1      27.724   7.174  35.082  1.00  0.00     0.061 C 
HETATM   19  C22 UNL     1      26.922   8.370  35.479  1.00  0.00     0.046 C 
HETATM   20  C23 UNL     1      28.287   7.704  33.744  1.00  0.00     0.046 C 
HETATM   21  O5  UNL     1      28.582   6.617  35.916  1.00  0.00    -0.371 OA
HETATM   22  C24 UNL     1      28.450   5.282  36.408  1.00  0.00     0.175 C 
HETATM   23  C25 UNL     1      28.968   4.345  35.474  1.00  0.00     0.015 C 
HETATM   24  C26 UNL     1      30.331   5.035  35.130  1.00  0.00     0.021 C 
HETATM   25  C27 UNL     1      29.587   2.997  35.787  1.00  0.00     0.041 C 
HETATM   26  C28 UNL     1      30.091   2.679  37.100  1.00  0.00    -0.029 C 
HETATM   27  C29 UNL     1      29.542   2.804  38.414  1.00  0.00    -0.017 C 
HETATM   28  C30 UNL     1      28.263   2.133  38.824  1.00  0.00    -0.007 C 
HETATM   29  C31 UNL     1      27.937   2.579  40.239  1.00  0.00     0.024 C 
HETATM   30  C32 UNL     1      28.485   0.680  38.841  1.00  0.00     0.024 C 
HETATM   31  C33 UNL     1      26.190   5.339  35.898  1.00  0.00     0.111 C 
HETATM   32  C34 UNL     1      25.343   4.183  35.471  1.00  0.00     0.081 C 
HETATM   33  C35 UNL     1      24.034   4.677  34.854  1.00  0.00     0.018 C 
ENDROOT
BRANCH   1  34
HETATM   34  O2  UNL     1      27.263   6.242  37.945  1.00  0.00    -0.300 OA
BRANCH  34  35
HETATM   35  C7  UNL     1      27.823   6.386  39.139  1.00  0.00     0.265 C 
HETATM   36  O1  UNL     1      27.009   6.532  40.053  1.00  0.00    -0.265 OA
BRANCH  35  37
HETATM   37  C5  UNL     1      29.259   6.385  39.511  1.00  0.00     0.100 C 
BRANCH  37  38
HETATM   38  C4  UNL     1      29.997   7.563  38.929  1.00  0.00     0.019 C 
BRANCH  38  39
HETATM   39  C2  UNL     1      29.418   8.886  39.261  1.00  0.00    -0.022 C 
HETATM   40  C1  UNL     1      30.512   9.700  39.966  1.00  0.00     0.009 C 
HETATM   41  C3  UNL     1      28.959   9.686  38.090  1.00  0.00     0.009 C 
ENDBRANCH  38  39
ENDBRANCH  37  38
BRANCH  37  42
HETATM   42  C6  UNL     1      29.463   6.173  40.972  1.00  0.00     0.129 C 
HETATM   43 CL1  UNL     1      30.744   4.928  41.140  1.00  0.00    -0.130 Cl
ENDBRANCH  37  42
ENDBRANCH  35  37
ENDBRANCH  34  35
ENDBRANCH   1  34
BRANCH  31  44
HETATM   44  O6  UNL     1      25.224   6.251  36.389  1.00  0.00    -0.385 OA
ATOM     45  H6  UNL     1      24.423   5.740  36.383  1.00  0.00     0.210 HD
ENDBRANCH  31  44
TORSDOF 7
ENDMDL
MODEL 2
REMARK VINA RESULT: -8.788138040      2.358      4.538
REMARK  7 active torsions:
REMARK  status: ('A' for Active; 'I' for Inactive)
REMARK    1  A    between atoms: C2_2  and  C4_4 
REMARK    2  A    between atoms: C4_4  and  C5_5 
REMARK    3  A    between atoms: C5_5  and  C6_6 
REMARK    4  A    between atoms: C5_5  and  C7_8 
REMARK    5  A    between atoms: C7_8  and  O2_10 
REMARK    6  A    between atoms: O2_10  and  C8_11 
REMARK    7  A    between atoms: C33_41  and  O6_42 
ROOT
HETATM    1  C8  UNL     1      27.567   5.912  36.960  1.00  0.00     0.147 C 
HETATM    2  C9  UNL     1      28.738   6.198  37.758  1.00  0.00     0.021 C 
HETATM    3  C10 UNL     1      29.905   5.407  38.086  1.00  0.00    -0.069 C 
HETATM    4  C11 UNL     1      30.067   4.958  39.542  1.00  0.00     0.038 C 
HETATM    5  C12 UNL     1      29.932   3.432  39.651  1.00  0.00     0.050 C 
HETATM    6  C13 UNL     1      28.597   2.914  39.643  1.00  0.00     0.146 C 
HETATM    7  C14 UNL     1      27.969   3.088  41.034  1.00  0.00     0.054 C 
HETATM    8  O3  UNL     1      28.428   1.568  39.307  1.00  0.00    -0.222 OA
HETATM    9  O4  UNL     1      27.143   1.967  39.357  1.00  0.00    -0.203 OA
HETATM   10  C15 UNL     1      27.650   3.020  38.510  1.00  0.00     0.205 C 
HETATM   11  N1  UNL     1      27.891   2.368  37.283  1.00  0.00    -0.376 N 
ATOM     12  H1  UNL     1      28.335   1.449  37.282  1.00  0.00     0.157 HD
HETATM   13  C16 UNL     1      27.524   2.968  36.048  1.00  0.00     0.047 A 
HETATM   14  C17 UNL     1      26.778   2.221  35.024  1.00  0.00     0.044 A 
HETATM   15  C18 UNL     1      26.075   2.925  36.087  1.00  0.00    -0.006 A 
HETATM   16  C19 UNL     1      25.235   1.783  36.684  1.00  0.00     0.018 C 
HETATM   17  C20 UNL     1      25.680   4.264  36.409  1.00  0.00     0.069 C 
HETATM   18  C21 UNL     1      25.374   5.155  35.190  1.00  0.00     0.061 C 
HETATM   19  C22 UNL     1      24.288   6.142  35.471  1.00  0.00     0.046 C 
HETATM   20  C23 UNL     1      24.599   4.220  34.235  1.00  0.00     0.046 C 
HETATM   21  O5  UNL     1      26.573   5.549  34.802  1.00  0.00    -0.371 OA
HETATM   22  C24 UNL     1      27.761   5.327  35.565  1.00  0.00     0.175 C 
HETATM   23  C25 UNL     1      28.272   4.020  35.337  1.00  0.00     0.015 C 
HETATM   24  C26 UNL     1      28.197   3.974  33.772  1.00  0.00     0.021 C 
HETATM   25  C27 UNL     1      29.722   3.587  35.404  1.00  0.00     0.041 C 
HETATM   26  C28 UNL     1      30.804   4.537  35.315  1.00  0.00    -0.029 C 
HETATM   27  C29 UNL     1      31.076   5.774  35.978  1.00  0.00    -0.017 C 
HETATM   28  C30 UNL     1      31.204   5.881  37.470  1.00  0.00    -0.007 C 
HETATM   29  C31 UNL     1      31.378   7.349  37.817  1.00  0.00     0.024 C 
HETATM   30  C32 UNL     1      32.418   5.164  37.885  1.00  0.00     0.024 C 
HETATM   31  C33 UNL     1      26.464   5.057  37.467  1.00  0.00     0.111 C 
HETATM   32  C34 UNL     1      26.765   4.171  38.634  1.00  0.00     0.081 C 
HETATM   33  C35 UNL     1      25.514   3.964  39.487  1.00  0.00     0.018 C 
ENDROOT
BRANCH   1  34
HETATM   34  O2  UNL     1      27.213   7.209  36.485  1.00  0.00    -0.300 OA
BRANCH  34  35
HETATM   35  C7  UNL     1      27.584   8.440  36.812  1.00  0.00     0.265 C 
HETATM   36  O1  UNL     1      27.216   8.786  37.937  1.00  0.00    -0.265 OA
BRANCH  35  37
HETATM   37  C5  UNL     1      28.371   9.425  36.030  1.00  0.00     0.100 C 
BRANCH  37  38
HETATM   38  C4  UNL     1      27.843   9.587  34.628  1.00  0.00     0.019 C 
BRANCH  38  39
HETATM   39  C2  UNL     1      28.620   8.877  33.585  1.00  0.00    -0.022 C 
HETATM   40  C1  UNL     1      27.641   7.975  32.820  1.00  0.00     0.009 C 
HETATM   41  C3  UNL     1      29.284   9.757  32.582  1.00  0.00     0.009 C 
ENDBRANCH  38  39
ENDBRANCH  37  38
BRANCH  37  42
HETATM   42  C6  UNL     1      28.583  10.699  36.775  1.00  0.00     0.129 C 
HETATM   43 CL1  UNL     1      28.557  12.019  35.561  1.00  0.00    -0.130 Cl
ENDBRANCH  37  42
ENDBRANCH  35  37
ENDBRANCH  34  35
ENDBRANCH   1  34
BRANCH  31  44
HETATM   44  O6  UNL     1      25.565   5.996  38.030  1.00  0.00    -0.385 OA
ATOM     45  H6  UNL     1      25.668   6.755  37.468  1.00  0.00     0.210 HD
ENDBRANCH  31  44
TORSDOF 7
ENDMDL
MODEL 3
REMARK VINA RESULT: -8.762378406      2.208      4.992
REMARK  7 active torsions:
REMARK  status: ('A' for Active; 'I' for Inactive)
REMARK    1  A    between atoms: C2_2  and  C4_4 
REMARK    2  A    between atoms: C4_4  and  C5_5 
REMARK    3  A    between atoms: C5_5  and  C6_6 
REMARK    4  A    between atoms: C5_5  and  C7_8 
REMARK    5  A    between atoms: C7_8  and  O2_10 
REMARK    6  A    between atoms: O2_10  and  C8_11 
REMARK    7  A    between atoms: C33_41  and  O6_42 
ROOT
HETATM    1  C8  UNL     1      27.839   4.889  35.769  1.00  0.00     0.147 C 
HETATM    2  C9  UNL     1      28.886   5.566  36.499  1.00  0.00     0.021 C 
HETATM    3  C10 UNL     1      29.853   5.095  37.467  1.00  0.00    -0.069 C 
HETATM    4  C11 UNL     1      29.700   5.583  38.911  1.00  0.00     0.038 C 
HETATM    5  C12 UNL     1      29.327   4.414  39.836  1.00  0.00     0.050 C 
HETATM    6  C13 UNL     1      27.951   4.017  39.828  1.00  0.00     0.146 C 
HETATM    7  C14 UNL     1      27.130   4.986  40.690  1.00  0.00     0.054 C 
HETATM    8  O3  UNL     1      27.647   2.733  40.289  1.00  0.00    -0.222 OA
HETATM    9  O4  UNL     1      26.444   3.110  39.816  1.00  0.00    -0.203 OA
HETATM   10  C15 UNL     1      27.235   3.456  38.659  1.00  0.00     0.205 C 
HETATM   11  N1  UNL     1      27.581   2.203  38.112  1.00  0.00    -0.376 N 
ATOM     12  H1  UNL     1      27.881   1.450  38.733  1.00  0.00     0.157 HD
HETATM   13  C16 UNL     1      27.520   1.972  36.711  1.00  0.00     0.047 A 
HETATM   14  C17 UNL     1      26.857   0.781  36.159  1.00  0.00     0.044 A 
HETATM   15  C18 UNL     1      26.095   1.988  36.445  1.00  0.00    -0.006 A 
HETATM   16  C19 UNL     1      25.008   1.431  37.380  1.00  0.00     0.018 C 
HETATM   17  C20 UNL     1      25.851   3.269  35.850  1.00  0.00     0.069 C 
HETATM   18  C21 UNL     1      25.889   3.281  34.310  1.00  0.00     0.061 C 
HETATM   19  C22 UNL     1      24.927   4.266  33.729  1.00  0.00     0.046 C 
HETATM   20  C23 UNL     1      25.158   1.980  33.913  1.00  0.00     0.046 C 
HETATM   21  O5  UNL     1      27.181   3.349  34.045  1.00  0.00    -0.371 OA
HETATM   22  C24 UNL     1      28.177   3.593  35.040  1.00  0.00     0.175 C 
HETATM   23  C25 UNL     1      28.523   2.391  35.715  1.00  0.00     0.015 C 
HETATM   24  C26 UNL     1      28.708   1.437  34.486  1.00  0.00     0.021 C 
HETATM   25  C27 UNL     1      29.862   2.051  36.338  1.00  0.00     0.041 C 
HETATM   26  C28 UNL     1      31.071   2.746  35.968  1.00  0.00    -0.029 C 
HETATM   27  C29 UNL     1      31.404   4.131  35.850  1.00  0.00    -0.017 C 
HETATM   28  C30 UNL     1      31.293   5.091  36.998  1.00  0.00    -0.007 C 
HETATM   29  C31 UNL     1      31.619   6.480  36.477  1.00  0.00     0.024 C 
HETATM   30  C32 UNL     1      32.302   4.731  38.005  1.00  0.00     0.024 C 
HETATM   31  C33 UNL     1      26.553   4.517  36.411  1.00  0.00     0.111 C 
HETATM   32  C34 UNL     1      26.520   4.478  37.906  1.00  0.00     0.081 C 
HETATM   33  C35 UNL     1      25.126   4.836  38.421  1.00  0.00     0.018 C 
ENDROOT
BRANCH   1  34
HETATM   34  O2  UNL     1      27.763   5.668  34.576  1.00  0.00    -0.300 OA
BRANCH  34  35
HETATM   35  C7  UNL     1      28.506   6.641  34.066  1.00  0.00     0.265 C 
HETATM   36  O1  UNL     1      29.507   6.240  33.469  1.00  0.00    -0.265 OA
BRANCH  35  37
HETATM   37  C5  UNL     1      28.292   8.109  34.109  1.00  0.00     0.100 C 
BRANCH  37  38
HETATM   38  C4  UNL     1      27.851   8.657  32.777  1.00  0.00     0.019 C 
BRANCH  38  39
HETATM   39  C2  UNL     1      28.673   9.777  32.261  1.00  0.00    -0.022 C 
HETATM   40  C1  UNL     1      28.199  10.071  30.831  1.00  0.00     0.009 C 
HETATM   41  C3  UNL     1      28.563  11.048  33.032  1.00  0.00     0.009 C 
ENDBRANCH  38  39
ENDBRANCH  37  38
BRANCH  37  42
HETATM   42  C6  UNL     1      27.456   8.524  35.271  1.00  0.00     0.129 C 
HETATM   43 CL1  UNL     1      28.570   9.237  36.482  1.00  0.00    -0.130 Cl
ENDBRANCH  37  42
ENDBRANCH  35  37
ENDBRANCH  34  35
ENDBRANCH   1  34
BRANCH  31  44
HETATM   44  O6  UNL     1      25.718   5.625  36.123  1.00  0.00    -0.385 OA
ATOM     45  H6  UNL     1      26.323   6.259  35.755  1.00  0.00     0.210 HD
ENDBRANCH  31  44
TORSDOF 7
ENDMDL
MODEL 4
REMARK VINA RESULT: -8.686530880      2.365      5.936
REMARK  7 active torsions:
REMARK  status: ('A' for Active; 'I' for Inactive)
REMARK    1  A    between atoms: C2_2  and  C4_4 
REMARK    2  A    between atoms: C4_4  and  C5_5 
REMARK    3  A    between atoms: C5_5  and  C6_6 
REMARK    4  A    between atoms: C5_5  and  C7_8 
REMARK    5  A    between atoms: C7_8  and  O2_10 
REMARK    6  A    between atoms: O2_10  and  C8_11 
REMARK    7  A    between atoms: C33_41  and  O6_42 
ROOT
HETATM    1  C8  UNL     1      28.550   4.354  36.757  1.00  0.00     0.147 C 
HETATM    2  C9  UNL     1      28.621   3.769  38.076  1.00  0.00     0.021 C 
HETATM    3  C10 UNL     1      28.088   4.189  39.354  1.00  0.00    -0.069 C 
HETATM    4  C11 UNL     1      29.090   4.634  40.424  1.00  0.00     0.038 C 
HETATM    5  C12 UNL     1      28.935   6.135  40.715  1.00  0.00     0.050 C 
HETATM    6  C13 UNL     1      29.548   7.026  39.776  1.00  0.00     0.146 C 
HETATM    7  C14 UNL     1      31.056   7.108  40.054  1.00  0.00     0.054 C 
HETATM    8  O3  UNL     1      29.086   8.345  39.741  1.00  0.00    -0.222 OA
HETATM    9  O4  UNL     1      29.909   8.350  38.675  1.00  0.00    -0.203 OA
HETATM   10  C15 UNL     1      29.163   7.156  38.352  1.00  0.00     0.205 C 
HETATM   11  N1  UNL     1      27.900   7.652  37.970  1.00  0.00    -0.376 N 
ATOM     12  H1  UNL     1      27.466   8.396  38.518  1.00  0.00     0.157 HD
HETATM   13  C16 UNL     1      27.221   7.133  36.834  1.00  0.00     0.047 A 
HETATM   14  C17 UNL     1      26.639   8.023  35.817  1.00  0.00     0.044 A 
HETATM   15  C18 UNL     1      28.032   7.608  35.730  1.00  0.00    -0.006 A 
HETATM   16  C19 UNL     1      28.738   8.973  35.666  1.00  0.00     0.018 C 
HETATM   17  C20 UNL     1      28.787   6.463  35.315  1.00  0.00     0.069 C 
HETATM   18  C21 UNL     1      28.148   5.650  34.173  1.00  0.00     0.061 C 
HETATM   19  C22 UNL     1      29.173   5.045  33.269  1.00  0.00     0.046 C 
HETATM   20  C23 UNL     1      27.600   6.729  33.214  1.00  0.00     0.046 C 
HETATM   21  O5  UNL     1      27.262   4.900  34.803  1.00  0.00    -0.371 OA
HETATM   22  C24 UNL     1      27.190   4.793  36.226  1.00  0.00     0.175 C 
HETATM   23  C25 UNL     1      26.454   5.876  36.778  1.00  0.00     0.015 C 
HETATM   24  C26 UNL     1      25.214   5.872  35.821  1.00  0.00     0.021 C 
HETATM   25  C27 UNL     1      25.629   5.861  38.049  1.00  0.00     0.041 C 
HETATM   26  C28 UNL     1      25.165   4.629  38.639  1.00  0.00    -0.029 C 
HETATM   27  C29 UNL     1      25.814   3.398  38.968  1.00  0.00    -0.017 C 
HETATM   28  C30 UNL     1      26.979   3.324  39.912  1.00  0.00    -0.007 C 
HETATM   29  C31 UNL     1      27.471   1.887  39.930  1.00  0.00     0.024 C 
HETATM   30  C32 UNL     1      26.506   3.664  41.262  1.00  0.00     0.024 C 
HETATM   31  C33 UNL     1      29.385   5.520  36.372  1.00  0.00     0.111 C 
HETATM   32  C34 UNL     1      29.985   6.327  37.479  1.00  0.00     0.081 C 
HETATM   33  C35 UNL     1      31.317   6.935  37.038  1.00  0.00     0.018 C 
ENDROOT
BRANCH   1  34
HETATM   34  O2  UNL     1      28.627   3.201  35.921  1.00  0.00    -0.300 OA
BRANCH  34  35
HETATM   35  C7  UNL     1      28.397   1.909  36.115  1.00  0.00     0.265 C 
HETATM   36  O1  UNL     1      29.409   1.210  36.042  1.00  0.00    -0.265 OA
BRANCH  35  37
HETATM   37  C5  UNL     1      27.119   1.214  36.410  1.00  0.00     0.100 C 
BRANCH  37  38
HETATM   38  C4  UNL     1      26.159   1.276  35.250  1.00  0.00     0.019 C 
BRANCH  38  39
HETATM   39  C2  UNL     1      25.026   2.213  35.429  1.00  0.00    -0.022 C 
HETATM   40  C1  UNL     1      24.756   2.870  34.068  1.00  0.00     0.009 C 
HETATM   41  C3  UNL     1      23.750   1.585  35.875  1.00  0.00     0.009 C 
ENDBRANCH  38  39
ENDBRANCH  37  38
BRANCH  37  42
HETATM   42  C6  UNL     1      27.335  -0.146  36.979  1.00  0.00     0.129 C 
HETATM   43 CL1  UNL     1      25.835  -0.581  37.862  1.00  0.00    -0.130 Cl
ENDBRANCH  37  42
ENDBRANCH  35  37
ENDBRANCH  34  35
ENDBRANCH   1  34
BRANCH  31  44
HETATM   44  O6  UNL     1      30.528   4.917  35.790  1.00  0.00    -0.385 OA
ATOM     45  H6  UNL     1      30.914   5.628  35.290  1.00  0.00     0.210 HD
ENDBRANCH  31  44
TORSDOF 7
ENDMDL
MODEL 5
REMARK VINA RESULT: -8.686097200      1.771      2.877
REMARK  7 active torsions:
REMARK  status: ('A' for Active; 'I' for Inactive)
REMARK    1  A    between atoms: C2_2  and  C4_4 
REMARK    2  A    between atoms: C4_4  and  C5_5 
REMARK    3  A    between atoms: C5_5  and  C6_6 
REMARK    4  A    between atoms: C5_5  and  C7_8 
REMARK    5  A    between atoms: C7_8  and  O2_10 
REMARK    6  A    between atoms: O2_10  and  C8_11 
REMARK    7  A    between atoms: C33_41  and  O6_42 
ROOT
HETATM    1  C8  UNL     1      27.625   4.849  37.650  1.00  0.00     0.147 C 
HETATM    2  C9  UNL     1      28.302   4.531  38.887  1.00  0.00     0.021 C 
HETATM    3  C10 UNL     1      29.337   3.571  39.207  1.00  0.00    -0.069 C 
HETATM    4  C11 UNL     1      28.951   2.391  40.105  1.00  0.00     0.038 C 
HETATM    5  C12 UNL     1      29.020   1.073  39.319  1.00  0.00     0.050 C 
HETATM    6  C13 UNL     1      27.904   0.786  38.468  1.00  0.00     0.146 C 
HETATM    7  C14 UNL     1      26.740   0.245  39.311  1.00  0.00     0.054 C 
HETATM    8  O3  UNL     1      28.099  -0.136  37.436  1.00  0.00    -0.222 OA
HETATM    9  O4  UNL     1      26.863   0.305  37.135  1.00  0.00    -0.203 OA
HETATM   10  C15 UNL     1      27.506   1.589  37.289  1.00  0.00     0.205 C 
HETATM   11  N1  UNL     1      28.329   1.683  36.148  1.00  0.00    -0.376 N 
ATOM     12  H1  UNL     1      28.870   0.870  35.851  1.00  0.00     0.157 HD
HETATM   13  C16 UNL     1      28.416   2.891  35.404  1.00  0.00     0.047 A 
HETATM   14  C17 UNL     1      28.284   2.901  33.939  1.00  0.00     0.044 A 
HETATM   15  C18 UNL     1      27.106   2.987  34.791  1.00  0.00    -0.006 A 
HETATM   16  C19 UNL     1      26.281   1.800  34.264  1.00  0.00     0.018 C 
HETATM   17  C20 UNL     1      26.412   3.971  35.566  1.00  0.00     0.069 C 
HETATM   18  C21 UNL     1      26.503   5.407  35.015  1.00  0.00     0.061 C 
HETATM   19  C22 UNL     1      25.260   6.193  35.278  1.00  0.00     0.046 C 
HETATM   20  C23 UNL     1      26.345   5.226  33.489  1.00  0.00     0.046 C 
HETATM   21  O5  UNL     1      27.679   5.819  35.452  1.00  0.00    -0.371 OA
HETATM   22  C24 UNL     1      28.464   5.095  36.401  1.00  0.00     0.175 C 
HETATM   23  C25 UNL     1      29.219   4.075  35.760  1.00  0.00     0.015 C 
HETATM   24  C26 UNL     1      29.805   4.892  34.558  1.00  0.00     0.021 C 
HETATM   25  C27 UNL     1      30.560   3.524  36.200  1.00  0.00     0.041 C 
HETATM   26  C28 UNL     1      31.422   4.250  37.101  1.00  0.00    -0.029 C 
HETATM   27  C29 UNL     1      31.201   4.894  38.357  1.00  0.00    -0.017 C 
HETATM   28  C30 UNL     1      30.684   4.163  39.562  1.00  0.00    -0.007 C 
HETATM   29  C31 UNL     1      30.471   5.181  40.668  1.00  0.00     0.024 C 
HETATM   30  C32 UNL     1      31.714   3.212  40.006  1.00  0.00     0.024 C 
HETATM   31  C33 UNL     1      26.557   3.977  37.097  1.00  0.00     0.111 C 
HETATM   32  C34 UNL     1      26.483   2.575  37.611  1.00  0.00     0.081 C 
HETATM   33  C35 UNL     1      25.039   2.072  37.592  1.00  0.00     0.018 C 
ENDROOT
BRANCH   1  34
HETATM   34  O2  UNL     1      27.303   6.225  37.838  1.00  0.00    -0.300 OA
BRANCH  34  35
HETATM   35  C7  UNL     1      27.680   7.145  38.716  1.00  0.00     0.265 C 
HETATM   36  O1  UNL     1      26.844   7.361  39.596  1.00  0.00    -0.265 OA
BRANCH  35  37
HETATM   37  C5  UNL     1      28.943   7.920  38.784  1.00  0.00     0.100 C 
BRANCH  37  38
HETATM   38  C4  UNL     1      29.284   8.566  37.466  1.00  0.00     0.019 C 
BRANCH  38  39
HETATM   39  C2  UNL     1      28.183   9.345  36.852  1.00  0.00    -0.022 C 
HETATM   40  C1  UNL     1      28.529  10.832  37.014  1.00  0.00     0.009 C 
HETATM   41  C3  UNL     1      27.969   9.098  35.398  1.00  0.00     0.009 C 
ENDBRANCH  38  39
ENDBRANCH  37  38
BRANCH  37  42
HETATM   42  C6  UNL     1      28.984   8.831  39.963  1.00  0.00     0.129 C 
HETATM   43 CL1  UNL     1      30.511   9.765  39.842  1.00  0.00    -0.130 Cl
ENDBRANCH  37  42
ENDBRANCH  35  37
ENDBRANCH  34  35
ENDBRANCH   1  34
BRANCH  31  44
HETATM   44  O6  UNL     1      25.372   4.551  37.622  1.00  0.00    -0.385 OA
ATOM     45  H6  UNL     1      25.421   4.334  38.547  1.00  0.00     0.210 HD
ENDBRANCH  31  44
TORSDOF 7
ENDMDL
