MODEL 1
REMARK VINA RESULT: -8.223259845      0.000      0.000
REMARK  10 active torsions:
REMARK  status: ('A' for Active; 'I' for Inactive)
REMARK    1  A    between atoms: C2_2  and  C3_3 
REMARK    2  A    between atoms: C11_13  and  C12_14 
REMARK    3  A    between atoms: C12_14  and  O3_15 
REMARK    4  A    between atoms: O3_15  and  C13_16 
REMARK    5  A    between atoms: C16_20  and  C18_22 
REMARK    6  A    between atoms: C18_22  and  C19_23 
REMARK    7  A    between atoms: C19_23  and  C20_24 
REMARK    8  A    between atoms: C22_27  and  O6_28 
REMARK    9  A    between atoms: C26_33  and  C28_35 
REMARK   10  A    between atoms: C30_37  and  O7_38 
ROOT
HETATM    1  C3  UNL     1      52.622  44.613  65.432  1.00  0.00     0.007 C 
HETATM    2  C4  UNL     1      52.670  43.836  66.781  1.00  0.00     0.022 C 
HETATM    3  C5  UNL     1      51.569  45.635  65.677  1.00  0.00     0.099 C 
HETATM    4  C6  UNL     1      51.139  46.211  64.407  1.00  0.00     0.154 C 
HETATM    5  O1  UNL     1      51.574  47.351  64.256  1.00  0.00    -0.293 OA
HETATM    6  C7  UNL     1      50.275  45.599  63.327  1.00  0.00    -0.020 C 
HETATM    7  C8  UNL     1      48.963  45.145  63.812  1.00  0.00     0.030 C 
HETATM    8  C9  UNL     1      48.310  43.925  63.342  1.00  0.00     0.042 C 
HETATM    9  C10 UNL     1      47.681  43.828  62.046  1.00  0.00     0.133 C 
HETATM   10  O2  UNL     1      46.420  44.479  62.020  1.00  0.00    -0.371 OA
HETATM   11  C11 UNL     1      47.022  45.552  61.456  1.00  0.00     0.092 C 
HETATM   12  C15 UNL     1      47.476  46.607  62.393  1.00  0.00     0.050 C 
HETATM   13  C16 UNL     1      47.864  46.218  63.775  1.00  0.00    -0.033 C 
HETATM   14  C17 UNL     1      48.395  47.544  64.372  1.00  0.00     0.016 C 
HETATM   15  C21 UNL     1      48.027  44.602  60.889  1.00  0.00     0.080 C 
HETATM   16  C22 UNL     1      49.409  45.020  60.630  1.00  0.00     0.128 C 
HETATM   17  C23 UNL     1      50.443  44.156  61.281  1.00  0.00     0.047 C 
HETATM   18  C24 UNL     1      51.148  44.807  62.477  1.00  0.00    -0.001 C 
HETATM   19  C25 UNL     1      52.000  45.889  61.737  1.00  0.00     0.021 C 
HETATM   20  C26 UNL     1      52.147  43.842  63.002  1.00  0.00     0.011 C 
HETATM   21  C27 UNL     1      51.843  42.415  62.500  1.00  0.00     0.023 C 
HETATM   22  C30 UNL     1      52.295  43.579  64.444  1.00  0.00     0.143 C 
ENDROOT
BRANCH  11  23
HETATM   23  C12 UNL     1      46.245  46.212  60.343  1.00  0.00     0.217 C 
BRANCH  23  24
HETATM   24  O3  UNL     1      44.893  45.976  60.356  1.00  0.00    -0.319 OA
BRANCH  24  25
HETATM   25  C13 UNL     1      43.905  46.611  61.034  1.00  0.00     0.254 C 
HETATM   26  C14 UNL     1      43.495  46.163  62.431  1.00  0.00     0.126 C 
HETATM   27  O4  UNL     1      43.311  47.587  60.509  1.00  0.00    -0.266 OA
ENDBRANCH  24  25
ENDBRANCH  23  24
ENDBRANCH  11  23
BRANCH  13  28
HETATM   28  C18 UNL     1      46.694  45.904  64.619  1.00  0.00     0.016 C 
BRANCH  28  29
HETATM   29  C19 UNL     1      46.279  46.992  65.583  1.00  0.00     0.070 C 
BRANCH  29  30
HETATM   30  C20 UNL     1      45.099  46.507  66.382  1.00  0.00     0.231 C 
HETATM   31  O5  UNL     1      43.977  46.610  65.921  1.00  0.00    -0.307 OA
ENDBRANCH  29  30
ENDBRANCH  28  29
ENDBRANCH  13  28
BRANCH  16  32
HETATM   32  O6  UNL     1      49.640  45.006  59.220  1.00  0.00    -0.395 OA
ATOM     33  H6  UNL     1      50.248  45.702  59.001  1.00  0.00     0.210 HD
ENDBRANCH  16  32
BRANCH  20  34
HETATM   34  C28 UNL     1      53.525  44.053  62.462  1.00  0.00    -0.024 C 
HETATM   35  C29 UNL     1      54.430  43.109  62.264  1.00  0.00     0.008 C 
ENDBRANCH  20  34
BRANCH  22  36
HETATM   36  O7  UNL     1      51.329  42.728  65.006  1.00  0.00    -0.393 OA
ATOM     37  H7  UNL     1      51.383  42.804  65.951  1.00  0.00     0.210 HD
ENDBRANCH  22  36
BRANCH   1  38
HETATM   38  C2  UNL     1      54.007  45.132  65.312  1.00  0.00    -0.025 C 
HETATM   39  C1  UNL     1      54.525  46.159  65.919  1.00  0.00     0.008 C 
ENDBRANCH   1  38
TORSDOF 10
ENDMDL
MODEL 2
REMARK VINA RESULT: -7.550304940      2.856      5.363
REMARK  10 active torsions:
REMARK  status: ('A' for Active; 'I' for Inactive)
REMARK    1  A    between atoms: C2_2  and  C3_3 
REMARK    2  A    between atoms: C11_13  and  C12_14 
REMARK    3  A    between atoms: C12_14  and  O3_15 
REMARK    4  A    between atoms: O3_15  and  C13_16 
REMARK    5  A    between atoms: C16_20  and  C18_22 
REMARK    6  A    between atoms: C18_22  and  C19_23 
REMARK    7  A    between atoms: C19_23  and  C20_24 
REMARK    8  A    between atoms: C22_27  and  O6_28 
REMARK    9  A    between atoms: C26_33  and  C28_35 
REMARK   10  A    between atoms: C30_37  and  O7_38 
ROOT
HETATM    1  C3  UNL     1      55.093  46.988  67.415  1.00  0.00     0.007 C 
HETATM    2  C4  UNL     1      54.872  46.392  68.837  1.00  0.00     0.022 C 
HETATM    3  C5  UNL     1      53.706  47.120  66.895  1.00  0.00     0.099 C 
HETATM    4  C6  UNL     1      53.742  47.318  65.449  1.00  0.00     0.154 C 
HETATM    5  O1  UNL     1      53.484  48.482  65.144  1.00  0.00    -0.293 OA
HETATM    6  C7  UNL     1      54.042  46.317  64.356  1.00  0.00    -0.020 C 
HETATM    7  C8  UNL     1      53.169  45.133  64.389  1.00  0.00     0.030 C 
HETATM    8  C9  UNL     1      53.637  43.781  64.093  1.00  0.00     0.042 C 
HETATM    9  C10 UNL     1      53.921  43.331  62.752  1.00  0.00     0.133 C 
HETATM   10  O2  UNL     1      52.734  43.049  62.025  1.00  0.00    -0.371 OA
HETATM   11  C11 UNL     1      52.832  44.270  61.452  1.00  0.00     0.092 C 
HETATM   12  C15 UNL     1      52.088  45.363  62.122  1.00  0.00     0.050 C 
HETATM   13  C16 UNL     1      51.865  45.282  63.590  1.00  0.00    -0.033 C 
HETATM   14  C17 UNL     1      51.194  46.639  63.914  1.00  0.00     0.016 C 
HETATM   15  C21 UNL     1      54.311  44.169  61.654  1.00  0.00     0.080 C 
HETATM   16  C22 UNL     1      55.136  45.364  61.856  1.00  0.00     0.128 C 
HETATM   17  C23 UNL     1      55.973  45.329  63.095  1.00  0.00     0.047 C 
HETATM   18  C24 UNL     1      55.487  46.260  64.212  1.00  0.00    -0.001 C 
HETATM   19  C25 UNL     1      55.837  47.648  63.584  1.00  0.00     0.021 C 
HETATM   20  C26 UNL     1      56.419  46.126  65.360  1.00  0.00     0.011 C 
HETATM   21  C27 UNL     1      57.250  44.831  65.240  1.00  0.00     0.023 C 
HETATM   22  C30 UNL     1      55.937  45.991  66.746  1.00  0.00     0.143 C 
ENDROOT
BRANCH  11  23
HETATM   23  C12 UNL     1      52.511  44.315  59.978  1.00  0.00     0.217 C 
BRANCH  23  24
HETATM   24  O3  UNL     1      51.364  43.657  59.611  1.00  0.00    -0.319 OA
BRANCH  24  25
HETATM   25  C13 UNL     1      50.181  44.151  59.170  1.00  0.00     0.254 C 
HETATM   26  C14 UNL     1      49.731  45.560  59.532  1.00  0.00     0.126 C 
HETATM   27  O4  UNL     1      49.435  43.441  58.448  1.00  0.00    -0.266 OA
ENDBRANCH  24  25
ENDBRANCH  23  24
ENDBRANCH  11  23
BRANCH  13  28
HETATM   28  C18 UNL     1      50.830  44.292  63.947  1.00  0.00     0.016 C 
BRANCH  28  29
HETATM   29  C19 UNL     1      49.404  44.787  63.871  1.00  0.00     0.070 C 
BRANCH  29  30
HETATM   30  C20 UNL     1      48.710  44.091  62.731  1.00  0.00     0.231 C 
HETATM   31  O5  UNL     1      47.655  44.530  62.311  1.00  0.00    -0.307 OA
ENDBRANCH  29  30
ENDBRANCH  28  29
ENDBRANCH  13  28
BRANCH  16  32
HETATM   32  O6  UNL     1      56.006  45.519  60.733  1.00  0.00    -0.395 OA
ATOM     33  H6  UNL     1      56.140  46.446  60.573  1.00  0.00     0.210 HD
ENDBRANCH  16  32
BRANCH  20  34
HETATM   34  C28 UNL     1      57.497  47.162  65.380  1.00  0.00    -0.024 C 
HETATM   35  C29 UNL     1      58.734  46.981  65.812  1.00  0.00     0.008 C 
ENDBRANCH  20  34
BRANCH  22  36
HETATM   36  O7  UNL     1      55.475  44.715  67.104  1.00  0.00    -0.393 OA
ATOM     37  H7  UNL     1      54.653  44.561  66.654  1.00  0.00     0.210 HD
ENDBRANCH  22  36
BRANCH   1  38
HETATM   38  C2  UNL     1      55.796  48.261  67.708  1.00  0.00    -0.025 C 
HETATM   39  C1  UNL     1      55.275  49.377  68.127  1.00  0.00     0.008 C 
ENDBRANCH   1  38
TORSDOF 10
ENDMDL
MODEL 3
REMARK VINA RESULT: -7.437096492      4.370      7.339
REMARK  10 active torsions:
REMARK  status: ('A' for Active; 'I' for Inactive)
REMARK    1  A    between atoms: C2_2  and  C3_3 
REMARK    2  A    between atoms: C11_13  and  C12_14 
REMARK    3  A    between atoms: C12_14  and  O3_15 
REMARK    4  A    between atoms: O3_15  and  C13_16 
REMARK    5  A    between atoms: C16_20  and  C18_22 
REMARK    6  A    between atoms: C18_22  and  C19_23 
REMARK    7  A    between atoms: C19_23  and  C20_24 
REMARK    8  A    between atoms: C22_27  and  O6_28 
REMARK    9  A    between atoms: C26_33  and  C28_35 
REMARK   10  A    between atoms: C30_37  and  O7_38 
ROOT
HETATM    1  C3  UNL     1      54.040  46.887  69.249  1.00  0.00     0.007 C 
HETATM    2  C4  UNL     1      54.234  48.385  69.631  1.00  0.00     0.022 C 
HETATM    3  C5  UNL     1      55.240  46.602  68.417  1.00  0.00     0.099 C 
HETATM    4  C6  UNL     1      55.040  45.360  67.677  1.00  0.00     0.154 C 
HETATM    5  O1  UNL     1      55.706  44.439  68.148  1.00  0.00    -0.293 OA
HETATM    6  C7  UNL     1      54.160  45.097  66.475  1.00  0.00    -0.020 C 
HETATM    7  C8  UNL     1      54.445  45.983  65.335  1.00  0.00     0.030 C 
HETATM    8  C9  UNL     1      53.408  46.528  64.462  1.00  0.00     0.042 C 
HETATM    9  C10 UNL     1      52.732  45.734  63.465  1.00  0.00     0.133 C 
HETATM   10  O2  UNL     1      53.543  45.519  62.320  1.00  0.00    -0.371 OA
HETATM   11  C11 UNL     1      53.869  44.304  62.818  1.00  0.00     0.092 C 
HETATM   12  C15 UNL     1      55.109  44.248  63.629  1.00  0.00     0.050 C 
HETATM   13  C16 UNL     1      55.530  45.461  64.379  1.00  0.00    -0.033 C 
HETATM   14  C17 UNL     1      56.754  44.963  65.185  1.00  0.00     0.016 C 
HETATM   15  C21 UNL     1      52.546  44.312  63.514  1.00  0.00     0.080 C 
HETATM   16  C22 UNL     1      52.349  43.607  64.784  1.00  0.00     0.128 C 
HETATM   17  C23 UNL     1      51.806  44.464  65.884  1.00  0.00     0.047 C 
HETATM   18  C24 UNL     1      52.825  44.815  66.974  1.00  0.00    -0.001 C 
HETATM   19  C25 UNL     1      52.988  43.419  67.657  1.00  0.00     0.021 C 
HETATM   20  C26 UNL     1      52.139  45.650  67.992  1.00  0.00     0.011 C 
HETATM   21  C27 UNL     1      50.834  46.244  67.422  1.00  0.00     0.023 C 
HETATM   22  C30 UNL     1      52.753  46.871  68.545  1.00  0.00     0.143 C 
ENDROOT
BRANCH  11  23
HETATM   23  C12 UNL     1      53.917  43.187  61.804  1.00  0.00     0.217 C 
BRANCH  23  24
HETATM   24  O3  UNL     1      53.316  43.464  60.602  1.00  0.00    -0.319 OA
BRANCH  24  25
HETATM   25  C13 UNL     1      52.073  43.155  60.159  1.00  0.00     0.254 C 
HETATM   26  C14 UNL     1      50.985  44.217  60.063  1.00  0.00     0.126 C 
HETATM   27  O4  UNL     1      51.803  41.975  59.820  1.00  0.00    -0.266 OA
ENDBRANCH  24  25
ENDBRANCH  23  24
ENDBRANCH  11  23
BRANCH  13  28
HETATM   28  C18 UNL     1      56.096  46.499  63.496  1.00  0.00     0.016 C 
BRANCH  28  29
HETATM   29  C19 UNL     1      57.359  47.160  63.999  1.00  0.00     0.070 C 
BRANCH  29  30
HETATM   30  C20 UNL     1      57.049  48.588  64.359  1.00  0.00     0.231 C 
HETATM   31  O5  UNL     1      56.026  49.104  63.945  1.00  0.00    -0.307 OA
ENDBRANCH  29  30
ENDBRANCH  28  29
ENDBRANCH  13  28
BRANCH  16  32
HETATM   32  O6  UNL     1      51.444  42.521  64.576  1.00  0.00    -0.395 OA
ATOM     33  H6  UNL     1      51.549  41.893  65.281  1.00  0.00     0.210 HD
ENDBRANCH  16  32
BRANCH  20  34
HETATM   34  C28 UNL     1      51.618  44.868  69.156  1.00  0.00    -0.024 C 
HETATM   35  C29 UNL     1      50.538  45.159  69.861  1.00  0.00     0.008 C 
ENDBRANCH  20  34
BRANCH  22  36
HETATM   36  O7  UNL     1      52.690  48.005  67.721  1.00  0.00    -0.393 OA
ATOM     37  H7  UNL     1      53.570  48.204  67.424  1.00  0.00     0.210 HD
ENDBRANCH  22  36
BRANCH   1  38
HETATM   38  C2  UNL     1      54.002  46.221  70.574  1.00  0.00    -0.025 C 
HETATM   39  C1  UNL     1      53.532  46.698  71.689  1.00  0.00     0.008 C 
ENDBRANCH   1  38
TORSDOF 10
ENDMDL
MODEL 4
REMARK VINA RESULT: -7.405574239      3.742      5.589
REMARK  10 active torsions:
REMARK  status: ('A' for Active; 'I' for Inactive)
REMARK    1  A    between atoms: C2_2  and  C3_3 
REMARK    2  A    between atoms: C11_13  and  C12_14 
REMARK    3  A    between atoms: C12_14  and  O3_15 
REMARK    4  A    between atoms: O3_15  and  C13_16 
REMARK    5  A    between atoms: C16_20  and  C18_22 
REMARK    6  A    between atoms: C18_22  and  C19_23 
REMARK    7  A    between atoms: C19_23  and  C20_24 
REMARK    8  A    between atoms: C22_27  and  O6_28 
REMARK    9  A    between atoms: C26_33  and  C28_35 
REMARK   10  A    between atoms: C30_37  and  O7_38 
ROOT
HETATM    1  C3  UNL     1      55.582  45.715  66.565  1.00  0.00     0.007 C 
HETATM    2  C4  UNL     1      56.406  44.949  67.642  1.00  0.00     0.022 C 
HETATM    3  C5  UNL     1      54.261  45.033  66.616  1.00  0.00     0.099 C 
HETATM    4  C6  UNL     1      53.485  45.376  65.428  1.00  0.00     0.154 C 
HETATM    5  O1  UNL     1      52.580  46.167  65.690  1.00  0.00    -0.293 OA
HETATM    6  C7  UNL     1      53.662  44.899  64.004  1.00  0.00    -0.020 C 
HETATM    7  C8  UNL     1      53.627  43.435  63.867  1.00  0.00     0.030 C 
HETATM    8  C9  UNL     1      54.485  42.694  62.945  1.00  0.00     0.042 C 
HETATM    9  C10 UNL     1      54.258  42.668  61.519  1.00  0.00     0.133 C 
HETATM   10  O2  UNL     1      53.185  41.806  61.170  1.00  0.00    -0.371 OA
HETATM   11  C11 UNL     1      52.378  42.890  61.105  1.00  0.00     0.092 C 
HETATM   12  C15 UNL     1      51.630  43.216  62.343  1.00  0.00     0.050 C 
HETATM   13  C16 UNL     1      52.223  42.848  63.656  1.00  0.00    -0.033 C 
HETATM   14  C17 UNL     1      51.230  43.467  64.670  1.00  0.00     0.016 C 
HETATM   15  C21 UNL     1      53.594  43.689  60.760  1.00  0.00     0.080 C 
HETATM   16  C22 UNL     1      53.703  45.106  61.120  1.00  0.00     0.128 C 
HETATM   17  C23 UNL     1      54.928  45.447  61.908  1.00  0.00     0.047 C 
HETATM   18  C24 UNL     1      54.664  45.752  63.387  1.00  0.00    -0.001 C 
HETATM   19  C25 UNL     1      53.930  47.126  63.256  1.00  0.00     0.021 C 
HETATM   20  C26 UNL     1      55.962  46.083  64.027  1.00  0.00     0.011 C 
HETATM   21  C27 UNL     1      57.139  45.588  63.160  1.00  0.00     0.023 C 
HETATM   22  C30 UNL     1      56.355  45.525  65.333  1.00  0.00     0.143 C 
ENDROOT
BRANCH  11  23
HETATM   23  C12 UNL     1      51.406  42.899  59.950  1.00  0.00     0.217 C 
BRANCH  23  24
HETATM   24  O3  UNL     1      50.263  43.630  60.155  1.00  0.00    -0.319 OA
BRANCH  24  25
HETATM   25  C13 UNL     1      49.906  44.842  59.665  1.00  0.00     0.254 C 
HETATM   26  C14 UNL     1      48.448  45.285  59.645  1.00  0.00     0.126 C 
HETATM   27  O4  UNL     1      50.785  45.622  59.216  1.00  0.00    -0.266 OA
ENDBRANCH  24  25
ENDBRANCH  23  24
ENDBRANCH  11  23
BRANCH  13  28
HETATM   28  C18 UNL     1      52.135  41.400  63.925  1.00  0.00     0.016 C 
BRANCH  28  29
HETATM   29  C19 UNL     1      51.934  41.021  65.375  1.00  0.00     0.070 C 
BRANCH  29  30
HETATM   30  C20 UNL     1      51.213  39.701  65.435  1.00  0.00     0.231 C 
HETATM   31  O5  UNL     1      50.873  39.249  66.513  1.00  0.00    -0.307 OA
ENDBRANCH  29  30
ENDBRANCH  28  29
ENDBRANCH  13  28
BRANCH  16  32
HETATM   32  O6  UNL     1      53.709  45.888  59.924  1.00  0.00    -0.395 OA
ATOM     33  H6  UNL     1      53.475  46.783  60.140  1.00  0.00     0.210 HD
ENDBRANCH  16  32
BRANCH  20  34
HETATM   34  C28 UNL     1      56.243  47.551  64.087  1.00  0.00    -0.024 C 
HETATM   35  C29 UNL     1      57.442  48.108  64.102  1.00  0.00     0.008 C 
ENDBRANCH  20  34
BRANCH  22  36
HETATM   36  O7  UNL     1      56.821  44.201  65.309  1.00  0.00    -0.393 OA
ATOM     37  H7  UNL     1      57.665  44.192  64.873  1.00  0.00     0.210 HD
ENDBRANCH  22  36
BRANCH   1  38
HETATM   38  C2  UNL     1      55.607  47.108  67.074  1.00  0.00    -0.025 C 
HETATM   39  C1  UNL     1      54.861  47.627  68.004  1.00  0.00     0.008 C 
ENDBRANCH   1  38
TORSDOF 10
ENDMDL
MODEL 5
REMARK VINA RESULT: -7.398041037      2.625      6.242
REMARK  10 active torsions:
REMARK  status: ('A' for Active; 'I' for Inactive)
REMARK    1  A    between atoms: C2_2  and  C3_3 
REMARK    2  A    between atoms: C11_13  and  C12_14 
REMARK    3  A    between atoms: C12_14  and  O3_15 
REMARK    4  A    between atoms: O3_15  and  C13_16 
REMARK    5  A    between atoms: C16_20  and  C18_22 
REMARK    6  A    between atoms: C18_22  and  C19_23 
REMARK    7  A    between atoms: C19_23  and  C20_24 
REMARK    8  A    between atoms: C22_27  and  O6_28 
REMARK    9  A    between atoms: C26_33  and  C28_35 
REMARK   10  A    between atoms: C30_37  and  O7_38 
ROOT
HETATM    1  C3  UNL     1      49.010  48.852  66.937  1.00  0.00     0.007 C 
HETATM    2  C4  UNL     1      47.798  48.457  67.832  1.00  0.00     0.022 C 
HETATM    3  C5  UNL     1      48.574  48.418  65.582  1.00  0.00     0.099 C 
HETATM    4  C6  UNL     1      49.726  48.377  64.686  1.00  0.00     0.154 C 
HETATM    5  O1  UNL     1      49.717  49.318  63.893  1.00  0.00    -0.293 OA
HETATM    6  C7  UNL     1      50.855  47.373  64.630  1.00  0.00    -0.020 C 
HETATM    7  C8  UNL     1      50.398  45.985  64.455  1.00  0.00     0.030 C 
HETATM    8  C9  UNL     1      51.025  44.843  65.116  1.00  0.00     0.042 C 
HETATM    9  C10 UNL     1      52.297  44.304  64.699  1.00  0.00     0.133 C 
HETATM   10  O2  UNL     1      52.179  43.520  63.521  1.00  0.00    -0.371 OA
HETATM   11  C11 UNL     1      52.593  44.591  62.806  1.00  0.00     0.092 C 
HETATM   12  C15 UNL     1      51.524  45.460  62.260  1.00  0.00     0.050 C 
HETATM   13  C16 UNL     1      50.231  45.549  62.991  1.00  0.00    -0.033 C 
HETATM   14  C17 UNL     1      49.459  46.632  62.198  1.00  0.00     0.016 C 
HETATM   15  C21 UNL     1      53.335  45.032  64.028  1.00  0.00     0.080 C 
HETATM   16  C22 UNL     1      53.576  46.452  64.301  1.00  0.00     0.128 C 
HETATM   17  C23 UNL     1      53.102  46.907  65.645  1.00  0.00     0.047 C 
HETATM   18  C24 UNL     1      51.847  47.787  65.608  1.00  0.00    -0.001 C 
HETATM   19  C25 UNL     1      52.443  49.089  64.980  1.00  0.00     0.021 C 
HETATM   20  C26 UNL     1      51.510  48.167  67.003  1.00  0.00     0.011 C 
HETATM   21  C27 UNL     1      52.213  47.230  68.008  1.00  0.00     0.023 C 
HETATM   22  C30 UNL     1      50.132  48.106  67.519  1.00  0.00     0.143 C 
ENDROOT
BRANCH  11  23
HETATM   23  C12 UNL     1      53.565  44.282  61.692  1.00  0.00     0.217 C 
BRANCH  23  24
HETATM   24  O3  UNL     1      52.989  43.917  60.501  1.00  0.00    -0.319 OA
BRANCH  24  25
HETATM   25  C13 UNL     1      52.766  42.684  59.984  1.00  0.00     0.254 C 
HETATM   26  C14 UNL     1      53.909  41.849  59.420  1.00  0.00     0.126 C 
HETATM   27  O4  UNL     1      51.601  42.212  59.965  1.00  0.00    -0.266 OA
ENDBRANCH  24  25
ENDBRANCH  23  24
ENDBRANCH  11  23
BRANCH  13  28
HETATM   28  C18 UNL     1      49.405  44.339  62.819  1.00  0.00     0.016 C 
BRANCH  28  29
HETATM   29  C19 UNL     1      47.922  44.529  63.045  1.00  0.00     0.070 C 
BRANCH  29  30
HETATM   30  C20 UNL     1      47.179  44.024  61.837  1.00  0.00     0.231 C 
HETATM   31  O5  UNL     1      47.743  43.981  60.759  1.00  0.00    -0.307 OA
ENDBRANCH  29  30
ENDBRANCH  28  29
ENDBRANCH  13  28
BRANCH  16  32
HETATM   32  O6  UNL     1      54.979  46.708  64.213  1.00  0.00    -0.395 OA
ATOM     33  H6  UNL     1      55.197  47.432  64.789  1.00  0.00     0.210 HD
ENDBRANCH  16  32
BRANCH  20  34
HETATM   34  C28 UNL     1      52.062  49.496  67.411  1.00  0.00    -0.024 C 
HETATM   35  C29 UNL     1      52.615  49.778  68.579  1.00  0.00     0.008 C 
ENDBRANCH  20  34
BRANCH  22  36
HETATM   36  O7  UNL     1      49.672  46.826  67.866  1.00  0.00    -0.393 OA
ATOM     37  H7  UNL     1      49.869  46.236  67.147  1.00  0.00     0.210 HD
ENDBRANCH  22  36
BRANCH   1  38
HETATM   38  C2  UNL     1      49.099  50.318  67.146  1.00  0.00    -0.025 C 
HETATM   39  C1  UNL     1      48.348  51.058  67.907  1.00  0.00     0.008 C 
ENDBRANCH   1  38
TORSDOF 10
ENDMDL
