MODEL 1
REMARK VINA RESULT: -8.282301283      0.000      0.000
REMARK  10 active torsions:
REMARK  status: ('A' for Active; 'I' for Inactive)
REMARK    1  A    between atoms: C2_2  and  C4_4 
REMARK    2  A    between atoms: C4_4  and  C5_5 
REMARK    3  A    between atoms: C5_5  and  C6_6 
REMARK    4  A    between atoms: C5_5  and  C14_19 
REMARK    5  A    between atoms: C6_6  and  O1_7 
REMARK    6  A    between atoms: O1_7  and  C7_8 
REMARK    7  A    between atoms: C7_8  and  C8_12 
REMARK    8  A    between atoms: C14_19  and  C15_20 
REMARK    9  A    between atoms: C15_20  and  C17_22 
REMARK   10  A    between atoms: C18_23  and  O3_24 
ROOT
HETATM    1  C5  UNL     1       1.361  -9.855  36.234  1.00  0.00     0.014 C 
ENDROOT
BRANCH   1   2
HETATM    2  C4  UNL     1      -0.061 -10.065  36.626  1.00  0.00     0.039 C 
BRANCH   2   3
HETATM    3  C2  UNL     1      -0.491  -9.788  37.995  1.00  0.00    -0.093 C 
HETATM    4  C1  UNL     1      -1.402  -8.977  38.324  1.00  0.00     0.014 C 
HETATM    5  C3  UNL     1       0.231 -10.457  39.154  1.00  0.00     0.042 C 
ENDBRANCH   2   3
ENDBRANCH   1   2
BRANCH   1   6
HETATM    6  C6  UNL     1       1.577  -8.586  35.447  1.00  0.00     0.182 C 
BRANCH   6   7
HETATM    7  O1  UNL     1       2.167  -8.790  34.213  1.00  0.00    -0.338 OA
BRANCH   7   8
HETATM    8  C7  UNL     1       1.448  -8.896  33.033  1.00  0.00     0.125 C 
HETATM    9  N1  UNL     1       0.307  -8.247  33.103  1.00  0.00    -0.383 N 
ATOM     10  H12 UNL     1       0.016  -7.736  33.937  1.00  0.00     0.158 HD
ATOM     11  H11 UNL     1      -0.223  -8.325  32.235  1.00  0.00     0.158 HD
BRANCH   8  12
HETATM   12  C8  UNL     1       1.863  -9.622  31.846  1.00  0.00     0.078 C 
HETATM   13  C9  UNL     1       1.165 -10.957  31.600  1.00  0.00     0.190 C 
HETATM   14  O2  UNL     1       1.521 -10.690  30.285  1.00  0.00    -0.377 OA
HETATM   15  C10 UNL     1       1.520  -9.274  30.509  1.00  0.00     0.082 A 
HETATM   16  C11 UNL     1       2.106  -8.627  29.370  1.00  0.00     0.047 A 
HETATM   17  C12 UNL     1       2.955  -8.617  30.499  1.00  0.00     0.026 A 
HETATM   18  C13 UNL     1       3.288  -9.726  31.460  1.00  0.00     0.031 C 
ENDBRANCH   8  12
ENDBRANCH   7   8
ENDBRANCH   6   7
ENDBRANCH   1   6
BRANCH   1  19
HETATM   19  C14 UNL     1       1.984 -11.066  35.708  1.00  0.00     0.011 C 
BRANCH  19  20
HETATM   20  C15 UNL     1       1.257 -12.355  35.951  1.00  0.00    -0.011 C 
HETATM   21  C16 UNL     1       1.079 -13.118  34.675  1.00  0.00     0.010 C 
BRANCH  20  22
HETATM   22  C17 UNL     1       1.841 -13.157  37.048  1.00  0.00     0.023 C 
HETATM   23  C18 UNL     1       1.824 -14.618  36.972  1.00  0.00     0.123 C 
HETATM   24  C19 UNL     1       3.261 -15.133  37.164  1.00  0.00     0.042 C 
HETATM   25  C20 UNL     1       4.132 -13.946  36.932  1.00  0.00     0.029 C 
HETATM   26  C21 UNL     1       5.290 -13.979  37.887  1.00  0.00    -0.017 C 
HETATM   27  C25 UNL     1       3.282 -12.785  37.295  1.00  0.00     0.008 C 
HETATM   28  C22 UNL     1       6.461 -14.496  37.630  1.00  0.00     0.023 C 
HETATM   29  C23 UNL     1       4.779 -13.314  39.076  1.00  0.00     0.155 C 
HETATM   30  O4  UNL     1       5.318 -13.450  40.216  1.00  0.00    -0.293 OA
HETATM   31  C24 UNL     1       3.586 -12.500  38.720  1.00  0.00     0.089 C 
BRANCH  23  32
HETATM   32  O3  UNL     1       1.018 -15.174  37.984  1.00  0.00    -0.395 OA
ATOM     33  H3  UNL     1       1.172 -16.106  38.076  1.00  0.00     0.210 HD
ENDBRANCH  23  32
ENDBRANCH  20  22
ENDBRANCH  19  20
ENDBRANCH   1  19
TORSDOF 10
ENDMDL
MODEL 2
REMARK VINA RESULT: -8.267888388      1.744      5.195
REMARK  10 active torsions:
REMARK  status: ('A' for Active; 'I' for Inactive)
REMARK    1  A    between atoms: C2_2  and  C4_4 
REMARK    2  A    between atoms: C4_4  and  C5_5 
REMARK    3  A    between atoms: C5_5  and  C6_6 
REMARK    4  A    between atoms: C5_5  and  C14_19 
REMARK    5  A    between atoms: C6_6  and  O1_7 
REMARK    6  A    between atoms: O1_7  and  C7_8 
REMARK    7  A    between atoms: C7_8  and  C8_12 
REMARK    8  A    between atoms: C14_19  and  C15_20 
REMARK    9  A    between atoms: C15_20  and  C17_22 
REMARK   10  A    between atoms: C18_23  and  O3_24 
ROOT
HETATM    1  C5  UNL     1       1.072 -10.418  34.671  1.00  0.00     0.014 C 
ENDROOT
BRANCH   1   2
HETATM    2  C4  UNL     1       1.990  -9.657  33.777  1.00  0.00     0.039 C 
BRANCH   2   3
HETATM    3  C2  UNL     1       1.815  -9.717  32.328  1.00  0.00    -0.093 C 
HETATM    4  C1  UNL     1       1.890  -8.730  31.542  1.00  0.00     0.014 C 
HETATM    5  C3  UNL     1       1.450 -11.040  31.673  1.00  0.00     0.042 C 
ENDBRANCH   2   3
ENDBRANCH   1   2
BRANCH   1   6
HETATM    6  C6  UNL     1      -0.031  -9.567  35.250  1.00  0.00     0.182 C 
BRANCH   6   7
HETATM    7  O1  UNL     1       0.425  -8.518  36.029  1.00  0.00    -0.338 OA
BRANCH   7   8
HETATM    8  C7  UNL     1       0.760  -8.653  37.366  1.00  0.00     0.125 C 
HETATM    9  N1  UNL     1       1.962  -8.179  37.613  1.00  0.00    -0.383 N 
ATOM     10  H12 UNL     1       2.550  -7.769  36.887  1.00  0.00     0.158 HD
ATOM     11  H11 UNL     1       2.209  -8.279  38.598  1.00  0.00     0.158 HD
BRANCH   8  12
HETATM   12  C8  UNL     1      -0.077  -9.237  38.398  1.00  0.00     0.078 C 
HETATM   13  C9  UNL     1       0.494 -10.462  39.110  1.00  0.00     0.190 C 
HETATM   14  O2  UNL     1      -0.362 -10.043  40.120  1.00  0.00    -0.377 OA
HETATM   15  C10 UNL     1      -0.301  -8.678  39.688  1.00  0.00     0.082 A 
HETATM   16  C11 UNL     1      -1.305  -7.928  40.388  1.00  0.00     0.047 A 
HETATM   17  C12 UNL     1      -1.635  -8.147  39.033  1.00  0.00     0.026 A 
HETATM   18  C13 UNL     1      -1.535  -9.405  38.211  1.00  0.00     0.031 C 
ENDBRANCH   8  12
ENDBRANCH   7   8
ENDBRANCH   6   7
ENDBRANCH   1   6
BRANCH   1  19
HETATM   19  C14 UNL     1       1.785 -11.288  35.602  1.00  0.00     0.011 C 
BRANCH  19  20
HETATM   20  C15 UNL     1       1.158 -12.621  35.888  1.00  0.00    -0.011 C 
HETATM   21  C16 UNL     1       1.079 -13.453  34.647  1.00  0.00     0.010 C 
BRANCH  20  22
HETATM   22  C17 UNL     1       1.776 -13.321  37.036  1.00  0.00     0.023 C 
HETATM   23  C18 UNL     1       1.787 -14.783  37.078  1.00  0.00     0.123 C 
HETATM   24  C19 UNL     1       3.237 -15.253  37.286  1.00  0.00     0.042 C 
HETATM   25  C20 UNL     1       4.080 -14.072  36.945  1.00  0.00     0.029 C 
HETATM   26  C21 UNL     1       5.253 -14.006  37.879  1.00  0.00    -0.017 C 
HETATM   27  C25 UNL     1       3.213 -12.902  37.227  1.00  0.00     0.008 C 
HETATM   28  C22 UNL     1       6.431 -14.520  37.644  1.00  0.00     0.023 C 
HETATM   29  C23 UNL     1       4.747 -13.257  39.020  1.00  0.00     0.155 C 
HETATM   30  O4  UNL     1       5.307 -13.292  40.158  1.00  0.00    -0.293 OA
HETATM   31  C24 UNL     1       3.533 -12.498  38.620  1.00  0.00     0.089 C 
BRANCH  23  32
HETATM   32  O3  UNL     1       1.008 -15.271  38.145  1.00  0.00    -0.395 OA
ATOM     33  H3  UNL     1       1.091 -16.213  38.230  1.00  0.00     0.210 HD
ENDBRANCH  23  32
ENDBRANCH  20  22
ENDBRANCH  19  20
ENDBRANCH   1  19
TORSDOF 10
ENDMDL
MODEL 3
REMARK VINA RESULT: -8.136112654      2.696      7.702
REMARK  10 active torsions:
REMARK  status: ('A' for Active; 'I' for Inactive)
REMARK    1  A    between atoms: C2_2  and  C4_4 
REMARK    2  A    between atoms: C4_4  and  C5_5 
REMARK    3  A    between atoms: C5_5  and  C6_6 
REMARK    4  A    between atoms: C5_5  and  C14_19 
REMARK    5  A    between atoms: C6_6  and  O1_7 
REMARK    6  A    between atoms: O1_7  and  C7_8 
REMARK    7  A    between atoms: C7_8  and  C8_12 
REMARK    8  A    between atoms: C14_19  and  C15_20 
REMARK    9  A    between atoms: C15_20  and  C17_22 
REMARK   10  A    between atoms: C18_23  and  O3_24 
ROOT
HETATM    1  C5  UNL     1       1.478 -10.466  37.728  1.00  0.00     0.014 C 
ENDROOT
BRANCH   1   2
HETATM    2  C4  UNL     1       1.405 -11.423  38.867  1.00  0.00     0.039 C 
BRANCH   2   3
HETATM    3  C2  UNL     1       2.310 -12.569  38.919  1.00  0.00    -0.093 C 
HETATM    4  C1  UNL     1       3.551 -12.510  39.148  1.00  0.00     0.014 C 
HETATM    5  C3  UNL     1       1.772 -13.959  38.615  1.00  0.00     0.042 C 
ENDBRANCH   2   3
ENDBRANCH   1   2
BRANCH   1   6
HETATM    6  C6  UNL     1       1.285  -9.030  38.148  1.00  0.00     0.182 C 
BRANCH   6   7
HETATM    7  O1  UNL     1       0.015  -8.541  37.894  1.00  0.00    -0.338 OA
BRANCH   7   8
HETATM    8  C7  UNL     1      -1.048  -8.693  38.769  1.00  0.00     0.125 C 
HETATM    9  N1  UNL     1      -2.023  -9.390  38.228  1.00  0.00    -0.383 N 
ATOM     10  H12 UNL     1      -1.972  -9.760  37.279  1.00  0.00     0.158 HD
ATOM     11  H11 UNL     1      -2.806  -9.501  38.872  1.00  0.00     0.158 HD
BRANCH   8  12
HETATM   12  C8  UNL     1      -1.120  -8.166  40.120  1.00  0.00     0.078 C 
HETATM   13  C9  UNL     1      -2.225  -7.146  40.383  1.00  0.00     0.190 C 
HETATM   14  O2  UNL     1      -2.075  -7.597  41.688  1.00  0.00    -0.377 OA
HETATM   15  C10 UNL     1      -1.601  -8.878  41.255  1.00  0.00     0.082 A 
HETATM   16  C11 UNL     1      -1.085  -9.587  42.391  1.00  0.00     0.047 A 
HETATM   17  C12 UNL     1      -0.067  -9.126  41.529  1.00  0.00     0.026 A 
HETATM   18  C13 UNL     1       0.099  -7.784  40.869  1.00  0.00     0.031 C 
ENDBRANCH   8  12
ENDBRANCH   7   8
ENDBRANCH   6   7
ENDBRANCH   1   6
BRANCH   1  19
HETATM   19  C14 UNL     1       0.719 -10.916  36.565  1.00  0.00     0.011 C 
BRANCH  19  20
HETATM   20  C15 UNL     1       1.503 -11.184  35.314  1.00  0.00    -0.011 C 
HETATM   21  C16 UNL     1       1.816 -12.641  35.181  1.00  0.00     0.010 C 
BRANCH  20  22
HETATM   22  C17 UNL     1       0.890 -10.593  34.104  1.00  0.00     0.023 C 
HETATM   23  C18 UNL     1       0.411  -9.211  34.131  1.00  0.00     0.123 C 
HETATM   24  C19 UNL     1       1.061  -8.448  32.964  1.00  0.00     0.042 C 
HETATM   25  C20 UNL     1       2.214  -9.293  32.543  1.00  0.00     0.029 C 
HETATM   26  C21 UNL     1       2.349  -9.250  31.049  1.00  0.00    -0.017 C 
HETATM   27  C25 UNL     1       1.821 -10.673  32.920  1.00  0.00     0.008 C 
HETATM   28  C22 UNL     1       3.116  -8.425  30.387  1.00  0.00     0.023 C 
HETATM   29  C23 UNL     1       1.465 -10.310  30.589  1.00  0.00     0.155 C 
HETATM   30  O4  UNL     1       1.029 -10.363  29.399  1.00  0.00    -0.293 OA
HETATM   31  C24 UNL     1       1.191 -11.252  31.707  1.00  0.00     0.089 C 
BRANCH  23  32
HETATM   32  O3  UNL     1      -0.987  -9.151  33.972  1.00  0.00    -0.395 OA
ATOM     33  H3  UNL     1      -1.327  -8.301  34.224  1.00  0.00     0.210 HD
ENDBRANCH  23  32
ENDBRANCH  20  22
ENDBRANCH  19  20
ENDBRANCH   1  19
TORSDOF 10
ENDMDL
MODEL 4
REMARK VINA RESULT: -8.091296677      2.397      6.209
REMARK  10 active torsions:
REMARK  status: ('A' for Active; 'I' for Inactive)
REMARK    1  A    between atoms: C2_2  and  C4_4 
REMARK    2  A    between atoms: C4_4  and  C5_5 
REMARK    3  A    between atoms: C5_5  and  C6_6 
REMARK    4  A    between atoms: C5_5  and  C14_19 
REMARK    5  A    between atoms: C6_6  and  O1_7 
REMARK    6  A    between atoms: O1_7  and  C7_8 
REMARK    7  A    between atoms: C7_8  and  C8_12 
REMARK    8  A    between atoms: C14_19  and  C15_20 
REMARK    9  A    between atoms: C15_20  and  C17_22 
REMARK   10  A    between atoms: C18_23  and  O3_24 
ROOT
HETATM    1  C5  UNL     1      -0.269  -9.288  37.670  1.00  0.00     0.014 C 
ENDROOT
BRANCH   1   2
HETATM    2  C4  UNL     1       0.110  -8.528  38.894  1.00  0.00     0.039 C 
BRANCH   2   3
HETATM    3  C2  UNL     1      -0.856  -8.354  39.976  1.00  0.00    -0.093 C 
HETATM    4  C1  UNL     1      -1.864  -7.592  39.940  1.00  0.00     0.014 C 
HETATM    5  C3  UNL     1      -0.639  -9.079  41.295  1.00  0.00     0.042 C 
ENDBRANCH   2   3
ENDBRANCH   1   2
BRANCH   1   6
HETATM    6  C6  UNL     1      -0.706 -10.702  37.961  1.00  0.00     0.182 C 
BRANCH   6   7
HETATM    7  O1  UNL     1       0.094 -11.665  37.372  1.00  0.00    -0.338 OA
BRANCH   7   8
HETATM    8  C7  UNL     1       1.065 -12.374  38.061  1.00  0.00     0.125 C 
HETATM    9  N1  UNL     1       1.219 -11.919  39.285  1.00  0.00    -0.383 N 
ATOM     10  H12 UNL     1       0.674 -11.138  39.653  1.00  0.00     0.158 HD
ATOM     11  H11 UNL     1       1.933 -12.441  39.793  1.00  0.00     0.158 HD
BRANCH   8  12
HETATM   12  C8  UNL     1       1.839 -13.485  37.538  1.00  0.00     0.078 C 
HETATM   13  C9  UNL     1       2.693 -14.243  38.551  1.00  0.00     0.190 C 
HETATM   14  O2  UNL     1       2.552 -15.268  37.625  1.00  0.00    -0.377 OA
HETATM   15  C10 UNL     1       1.305 -14.746  37.148  1.00  0.00     0.082 A 
HETATM   16  C11 UNL     1       0.940 -15.448  35.950  1.00  0.00     0.047 A 
HETATM   17  C12 UNL     1       1.376 -14.129  35.696  1.00  0.00     0.026 A 
HETATM   18  C13 UNL     1       2.563 -13.387  36.250  1.00  0.00     0.031 C 
ENDBRANCH   8  12
ENDBRANCH   7   8
ENDBRANCH   6   7
ENDBRANCH   1   6
BRANCH   1  19
HETATM   19  C14 UNL     1       0.683  -9.108  36.577  1.00  0.00     0.011 C 
BRANCH  19  20
HETATM   20  C15 UNL     1       0.130  -9.187  35.185  1.00  0.00    -0.011 C 
HETATM   21  C16 UNL     1       0.012  -7.824  34.578  1.00  0.00     0.010 C 
BRANCH  20  22
HETATM   22  C17 UNL     1       0.842 -10.161  34.329  1.00  0.00     0.023 C 
HETATM   23  C18 UNL     1       0.135 -10.820  33.231  1.00  0.00     0.123 C 
HETATM   24  C19 UNL     1       0.934 -10.600  31.935  1.00  0.00     0.042 C 
HETATM   25  C20 UNL     1       1.861  -9.473  32.239  1.00  0.00     0.029 C 
HETATM   26  C21 UNL     1       3.184  -9.718  31.574  1.00  0.00    -0.017 C 
HETATM   27  C25 UNL     1       2.072  -9.549  33.705  1.00  0.00     0.008 C 
HETATM   28  C22 UNL     1       3.528  -9.271  30.396  1.00  0.00     0.023 C 
HETATM   29  C23 UNL     1       3.916 -10.520  32.543  1.00  0.00     0.155 C 
HETATM   30  O4  UNL     1       4.923 -11.222  32.222  1.00  0.00    -0.293 OA
HETATM   31  C24 UNL     1       3.299 -10.365  33.887  1.00  0.00     0.089 C 
BRANCH  23  32
HETATM   32  O3  UNL     1       0.027 -12.207  33.452  1.00  0.00    -0.395 OA
ATOM     33  H3  UNL     1      -0.854 -12.448  33.710  1.00  0.00     0.210 HD
ENDBRANCH  23  32
ENDBRANCH  20  22
ENDBRANCH  19  20
ENDBRANCH   1  19
TORSDOF 10
ENDMDL
MODEL 5
REMARK VINA RESULT: -8.019213310      2.076      6.471
REMARK  10 active torsions:
REMARK  status: ('A' for Active; 'I' for Inactive)
REMARK    1  A    between atoms: C2_2  and  C4_4 
REMARK    2  A    between atoms: C4_4  and  C5_5 
REMARK    3  A    between atoms: C5_5  and  C6_6 
REMARK    4  A    between atoms: C5_5  and  C14_19 
REMARK    5  A    between atoms: C6_6  and  O1_7 
REMARK    6  A    between atoms: O1_7  and  C7_8 
REMARK    7  A    between atoms: C7_8  and  C8_12 
REMARK    8  A    between atoms: C14_19  and  C15_20 
REMARK    9  A    between atoms: C15_20  and  C17_22 
REMARK   10  A    between atoms: C18_23  and  O3_24 
ROOT
HETATM    1  C5  UNL     1       0.103  -9.419  37.449  1.00  0.00     0.014 C 
ENDROOT
BRANCH   1   2
HETATM    2  C4  UNL     1       0.352  -8.735  38.749  1.00  0.00     0.039 C 
BRANCH   2   3
HETATM    3  C2  UNL     1      -0.688  -8.712  39.775  1.00  0.00    -0.093 C 
HETATM    4  C1  UNL     1      -1.680  -7.929  39.792  1.00  0.00     0.014 C 
HETATM    5  C3  UNL     1      -0.577  -9.642  40.972  1.00  0.00     0.042 C 
ENDBRANCH   2   3
ENDBRANCH   1   2
BRANCH   1   6
HETATM    6  C6  UNL     1       0.357 -10.905  37.503  1.00  0.00     0.182 C 
BRANCH   6   7
HETATM    7  O1  UNL     1       1.657 -11.259  37.184  1.00  0.00    -0.338 OA
BRANCH   7   8
HETATM    8  C7  UNL     1       2.064 -12.571  37.000  1.00  0.00     0.125 C 
HETATM    9  N1  UNL     1       1.983 -12.929  35.737  1.00  0.00    -0.383 N 
ATOM     10  H12 UNL     1       1.656 -12.295  35.007  1.00  0.00     0.158 HD
ATOM     11  H11 UNL     1       2.283 -13.894  35.601  1.00  0.00     0.158 HD
BRANCH   8  12
HETATM   12  C8  UNL     1       2.529 -13.471  38.039  1.00  0.00     0.078 C 
HETATM   13  C9  UNL     1       1.732 -14.762  38.213  1.00  0.00     0.190 C 
HETATM   14  O2  UNL     1       2.934 -15.215  38.739  1.00  0.00    -0.377 OA
HETATM   15  C10 UNL     1       3.695 -14.284  37.960  1.00  0.00     0.082 A 
HETATM   16  C11 UNL     1       5.051 -14.288  38.432  1.00  0.00     0.047 A 
HETATM   17  C12 UNL     1       4.350 -13.120  38.801  1.00  0.00     0.026 A 
HETATM   18  C13 UNL     1       2.961 -12.970  39.363  1.00  0.00     0.031 C 
ENDBRANCH   8  12
ENDBRANCH   7   8
ENDBRANCH   6   7
ENDBRANCH   1   6
BRANCH   1  19
HETATM   19  C14 UNL     1       0.673  -8.697  36.315  1.00  0.00     0.011 C 
BRANCH  19  20
HETATM   20  C15 UNL     1       0.070  -8.978  34.970  1.00  0.00    -0.011 C 
HETATM   21  C16 UNL     1      -0.158  -7.709  34.211  1.00  0.00     0.010 C 
BRANCH  20  22
HETATM   22  C17 UNL     1       0.808 -10.006  34.204  1.00  0.00     0.023 C 
HETATM   23  C18 UNL     1       0.124 -10.767  33.159  1.00  0.00     0.123 C 
HETATM   24  C19 UNL     1       0.932 -10.640  31.856  1.00  0.00     0.042 C 
HETATM   25  C20 UNL     1       1.836  -9.475  32.073  1.00  0.00     0.029 C 
HETATM   26  C21 UNL     1       3.170  -9.751  31.442  1.00  0.00    -0.017 C 
HETATM   27  C25 UNL     1       2.034  -9.426  33.542  1.00  0.00     0.008 C 
HETATM   28  C22 UNL     1       3.518  -9.396  30.234  1.00  0.00     0.023 C 
HETATM   29  C23 UNL     1       3.906 -10.456  32.481  1.00  0.00     0.155 C 
HETATM   30  O4  UNL     1       4.928 -11.164  32.228  1.00  0.00    -0.293 OA
HETATM   31  C24 UNL     1       3.272 -10.202  33.802  1.00  0.00     0.089 C 
BRANCH  23  32
HETATM   32  O3  UNL     1       0.038 -12.133  33.492  1.00  0.00    -0.395 OA
ATOM     33  H3  UNL     1      -0.645 -12.567  32.996  1.00  0.00     0.210 HD
ENDBRANCH  23  32
ENDBRANCH  20  22
ENDBRANCH  19  20
ENDBRANCH   1  19
TORSDOF 10
ENDMDL
