MODEL 1
REMARK VINA RESULT: -9.671033154      0.000      0.000
REMARK  4 active torsions:
REMARK  status: ('A' for Active; 'I' for Inactive)
REMARK    1  A    between atoms: C2_2  and  C3_3 
REMARK    2  A    between atoms: C3_3  and  O1_5 
REMARK    3  A    between atoms: C3_3  and  C5_7 
REMARK    4  A    between atoms: C8_10  and  C18_20 
ROOT
HETATM    1  C5  UNL     1      13.513  -3.910  31.794  1.00  0.00     0.008 C 
HETATM    2  C6  UNL     1      13.082  -4.852  30.663  1.00  0.00     0.023 C 
HETATM    3  C7  UNL     1      14.923  -4.132  32.159  1.00  0.00    -0.008 C 
HETATM    4  C8  UNL     1      15.599  -4.977  33.082  1.00  0.00    -0.039 C 
HETATM    5  C9  UNL     1      16.128  -4.191  34.310  1.00  0.00     0.036 C 
HETATM    6  C10 UNL     1      17.214  -3.204  33.841  1.00  0.00     0.019 C 
HETATM    7  C11 UNL     1      15.061  -3.456  34.963  1.00  0.00    -0.012 C 
HETATM    8  C12 UNL     1      13.640  -3.886  34.908  1.00  0.00    -0.050 C 
HETATM    9  C13 UNL     1      13.062  -3.842  36.351  1.00  0.00     0.046 C 
HETATM   10  C14 UNL     1      13.112  -4.874  34.025  1.00  0.00     0.120 C 
HETATM   11  C15 UNL     1      12.334  -5.836  34.870  1.00  0.00     0.046 C 
HETATM   12  C16 UNL     1      13.399  -6.843  35.333  1.00  0.00     0.007 C 
HETATM   13  C17 UNL     1      14.837  -6.560  34.995  1.00  0.00     0.046 C 
HETATM   14  C18 UNL     1      15.271  -6.318  33.616  1.00  0.00     0.116 C 
HETATM   15  C19 UNL     1      16.263  -7.417  33.162  1.00  0.00     0.054 C 
HETATM   16  O2  UNL     1      14.085  -6.734  32.949  1.00  0.00    -0.224 OA
HETATM   17  O3  UNL     1      13.447  -5.785  33.190  1.00  0.00    -0.224 OA
HETATM   18  C20 UNL     1      12.435  -4.107  32.875  1.00  0.00     0.062 C 
ENDROOT
BRANCH   1  19
HETATM   19  C3  UNL     1      13.340  -2.511  31.250  1.00  0.00     0.065 C 
HETATM   20  C4  UNL     1      14.462  -1.665  31.795  1.00  0.00     0.047 C 
BRANCH  19  21
HETATM   21  C2  UNL     1      12.051  -1.840  31.386  1.00  0.00     0.034 C 
HETATM   22  C1  UNL     1      11.099  -1.661  30.292  1.00  0.00     0.008 C 
ENDBRANCH  19  21
BRANCH  19  23
HETATM   23  O1  UNL     1      13.569  -2.479  29.841  1.00  0.00    -0.389 OA
ATOM     24  H1  UNL     1      13.887  -1.595  29.699  1.00  0.00     0.210 HD
ENDBRANCH  19  23
ENDBRANCH   1  19
TORSDOF 4
ENDMDL
MODEL 2
REMARK VINA RESULT: -9.498845832      2.255      4.807
REMARK  4 active torsions:
REMARK  status: ('A' for Active; 'I' for Inactive)
REMARK    1  A    between atoms: C2_2  and  C3_3 
REMARK    2  A    between atoms: C3_3  and  O1_5 
REMARK    3  A    between atoms: C3_3  and  C5_7 
REMARK    4  A    between atoms: C8_10  and  C18_20 
ROOT
HETATM    1  C5  UNL     1      14.939  -7.719  33.917  1.00  0.00     0.008 C 
HETATM    2  C6  UNL     1      15.852  -8.163  35.066  1.00  0.00     0.023 C 
HETATM    3  C7  UNL     1      15.560  -6.633  33.138  1.00  0.00    -0.008 C 
HETATM    4  C8  UNL     1      15.558  -5.212  33.220  1.00  0.00    -0.039 C 
HETATM    5  C9  UNL     1      14.683  -4.568  32.113  1.00  0.00     0.036 C 
HETATM    6  C10 UNL     1      15.317  -4.864  30.740  1.00  0.00     0.019 C 
HETATM    7  C11 UNL     1      13.330  -5.092  32.140  1.00  0.00    -0.012 C 
HETATM    8  C12 UNL     1      12.698  -5.620  33.377  1.00  0.00    -0.050 C 
HETATM    9  C13 UNL     1      11.282  -4.993  33.505  1.00  0.00     0.046 C 
HETATM   10  C14 UNL     1      13.388  -5.926  34.587  1.00  0.00     0.120 C 
HETATM   11  C15 UNL     1      12.646  -5.239  35.692  1.00  0.00     0.046 C 
HETATM   12  C16 UNL     1      13.265  -3.832  35.714  1.00  0.00     0.007 C 
HETATM   13  C17 UNL     1      14.247  -3.472  34.634  1.00  0.00     0.046 C 
HETATM   14  C18 UNL     1      15.435  -4.290  34.370  1.00  0.00     0.116 C 
HETATM   15  C19 UNL     1      16.723  -3.473  34.639  1.00  0.00     0.054 C 
HETATM   16  O2  UNL     1      15.387  -5.107  35.534  1.00  0.00    -0.224 OA
HETATM   17  O3  UNL     1      14.514  -5.800  35.184  1.00  0.00    -0.224 OA
HETATM   18  C20 UNL     1      13.584  -7.452  34.598  1.00  0.00     0.062 C 
ENDROOT
BRANCH   1  19
HETATM   19  C3  UNL     1      14.759  -8.937  33.042  1.00  0.00     0.065 C 
HETATM   20  C4  UNL     1      15.333  -8.617  31.685  1.00  0.00     0.047 C 
BRANCH  19  21
HETATM   21  C2  UNL     1      13.442  -9.557  32.932  1.00  0.00     0.034 C 
HETATM   22  C1  UNL     1      13.181 -10.975  33.164  1.00  0.00     0.008 C 
ENDBRANCH  19  21
BRANCH  19  23
HETATM   23  O1  UNL     1      15.582 -10.015  33.491  1.00  0.00    -0.389 OA
ATOM     24  H1  UNL     1      15.794  -9.761  34.382  1.00  0.00     0.210 HD
ENDBRANCH  19  23
ENDBRANCH   1  19
TORSDOF 4
ENDMDL
MODEL 3
REMARK VINA RESULT: -9.468816677      2.254      3.892
REMARK  4 active torsions:
REMARK  status: ('A' for Active; 'I' for Inactive)
REMARK    1  A    between atoms: C2_2  and  C3_3 
REMARK    2  A    between atoms: C3_3  and  O1_5 
REMARK    3  A    between atoms: C3_3  and  C5_7 
REMARK    4  A    between atoms: C8_10  and  C18_20 
ROOT
HETATM    1  C5  UNL     1      13.262  -5.180  34.216  1.00  0.00     0.008 C 
HETATM    2  C6  UNL     1      11.761  -4.998  33.961  1.00  0.00     0.023 C 
HETATM    3  C7  UNL     1      14.016  -5.196  32.950  1.00  0.00    -0.008 C 
HETATM    4  C8  UNL     1      14.409  -6.206  32.029  1.00  0.00    -0.039 C 
HETATM    5  C9  UNL     1      15.923  -6.527  32.130  1.00  0.00     0.036 C 
HETATM    6  C10 UNL     1      16.726  -5.287  31.692  1.00  0.00     0.019 C 
HETATM    7  C11 UNL     1      16.296  -6.886  33.486  1.00  0.00    -0.012 C 
HETATM    8  C12 UNL     1      15.340  -7.493  34.447  1.00  0.00    -0.050 C 
HETATM    9  C13 UNL     1      16.027  -8.721  35.106  1.00  0.00     0.046 C 
HETATM   10  C14 UNL     1      13.925  -7.552  34.274  1.00  0.00     0.120 C 
HETATM   11  C15 UNL     1      13.522  -8.977  34.505  1.00  0.00     0.046 C 
HETATM   12  C16 UNL     1      13.701  -9.625  33.123  1.00  0.00     0.007 C 
HETATM   13  C17 UNL     1      14.324  -8.802  32.029  1.00  0.00     0.046 C 
HETATM   14  C18 UNL     1      13.784  -7.493  31.649  1.00  0.00     0.116 C 
HETATM   15  C19 UNL     1      13.283  -7.521  30.184  1.00  0.00     0.054 C 
HETATM   16  O2  UNL     1      12.552  -7.563  32.357  1.00  0.00    -0.224 OA
HETATM   17  O3  UNL     1      12.988  -7.363  33.422  1.00  0.00    -0.224 OA
HETATM   18  C20 UNL     1      13.338  -6.417  35.131  1.00  0.00     0.062 C 
ENDROOT
BRANCH   1  19
HETATM   19  C3  UNL     1      13.683  -3.992  35.048  1.00  0.00     0.065 C 
HETATM   20  C4  UNL     1      13.267  -2.745  34.310  1.00  0.00     0.047 C 
BRANCH  19  21
HETATM   21  C2  UNL     1      15.060  -3.897  35.523  1.00  0.00     0.034 C 
HETATM   22  C1  UNL     1      16.094  -3.084  34.888  1.00  0.00     0.008 C 
ENDBRANCH  19  21
BRANCH  19  23
HETATM   23  O1  UNL     1      12.924  -3.918  36.255  1.00  0.00    -0.389 OA
ATOM     24  H1  UNL     1      13.017  -3.007  36.507  1.00  0.00     0.210 HD
ENDBRANCH  19  23
ENDBRANCH   1  19
TORSDOF 4
ENDMDL
MODEL 4
REMARK VINA RESULT: -9.397114431      1.442      5.053
REMARK  4 active torsions:
REMARK  status: ('A' for Active; 'I' for Inactive)
REMARK    1  A    between atoms: C2_2  and  C3_3 
REMARK    2  A    between atoms: C3_3  and  O1_5 
REMARK    3  A    between atoms: C3_3  and  C5_7 
REMARK    4  A    between atoms: C8_10  and  C18_20 
ROOT
HETATM    1  C5  UNL     1      14.228  -6.555  33.193  1.00  0.00     0.008 C 
HETATM    2  C6  UNL     1      13.605  -7.052  31.883  1.00  0.00     0.023 C 
HETATM    3  C7  UNL     1      13.335  -5.600  33.874  1.00  0.00    -0.008 C 
HETATM    4  C8  UNL     1      13.159  -4.189  33.834  1.00  0.00    -0.039 C 
HETATM    5  C9  UNL     1      13.725  -3.496  35.101  1.00  0.00     0.036 C 
HETATM    6  C10 UNL     1      12.901  -3.943  36.324  1.00  0.00     0.019 C 
HETATM    7  C11 UNL     1      15.119  -3.840  35.310  1.00  0.00    -0.012 C 
HETATM    8  C12 UNL     1      16.028  -4.216  34.197  1.00  0.00    -0.050 C 
HETATM    9  C13 UNL     1      17.346  -3.406  34.349  1.00  0.00     0.046 C 
HETATM   10  C14 UNL     1      15.614  -4.545  32.871  1.00  0.00     0.120 C 
HETATM   11  C15 UNL     1      16.443  -3.711  31.942  1.00  0.00     0.046 C 
HETATM   12  C16 UNL     1      15.652  -2.396  31.845  1.00  0.00     0.007 C 
HETATM   13  C17 UNL     1      14.453  -2.223  32.735  1.00  0.00     0.046 C 
HETATM   14  C18 UNL     1      13.359  -3.200  32.752  1.00  0.00     0.116 C 
HETATM   15  C19 UNL     1      12.041  -2.542  32.273  1.00  0.00     0.054 C 
HETATM   16  O2  UNL     1      13.725  -3.942  31.595  1.00  0.00    -0.224 OA
HETATM   17  O3  UNL     1      14.608  -4.534  32.080  1.00  0.00    -0.224 OA
HETATM   18  C20 UNL     1      15.634  -6.081  32.782  1.00  0.00     0.062 C 
ENDROOT
BRANCH   1  19
HETATM   19  C3  UNL     1      14.412  -7.784  34.052  1.00  0.00     0.065 C 
HETATM   20  C4  UNL     1      13.223  -7.883  34.974  1.00  0.00     0.047 C 
BRANCH  19  21
HETATM   21  C2  UNL     1      15.666  -7.977  34.774  1.00  0.00     0.034 C 
HETATM   22  C1  UNL     1      16.179  -9.277  35.196  1.00  0.00     0.008 C 
ENDBRANCH  19  21
BRANCH  19  23
HETATM   23  O1  UNL     1      14.309  -8.974  33.270  1.00  0.00    -0.389 OA
ATOM     24  H1  UNL     1      15.032  -9.500  33.589  1.00  0.00     0.210 HD
ENDBRANCH  19  23
ENDBRANCH   1  19
TORSDOF 4
ENDMDL
MODEL 5
REMARK VINA RESULT: -9.377399792      2.350      5.002
REMARK  4 active torsions:
REMARK  status: ('A' for Active; 'I' for Inactive)
REMARK    1  A    between atoms: C2_2  and  C3_3 
REMARK    2  A    between atoms: C3_3  and  O1_5 
REMARK    3  A    between atoms: C3_3  and  C5_7 
REMARK    4  A    between atoms: C8_10  and  C18_20 
ROOT
HETATM    1  C5  UNL     1      14.698  -7.982  34.047  1.00  0.00     0.008 C 
HETATM    2  C6  UNL     1      15.629  -8.404  35.189  1.00  0.00     0.023 C 
HETATM    3  C7  UNL     1      15.360  -7.014  33.154  1.00  0.00    -0.008 C 
HETATM    4  C8  UNL     1      15.471  -5.596  33.117  1.00  0.00    -0.039 C 
HETATM    5  C9  UNL     1      14.594  -4.974  31.999  1.00  0.00     0.036 C 
HETATM    6  C10 UNL     1      15.136  -5.428  30.630  1.00  0.00     0.019 C 
HETATM    7  C11 UNL     1      13.208  -5.384  32.127  1.00  0.00    -0.012 C 
HETATM    8  C12 UNL     1      12.600  -5.760  33.430  1.00  0.00    -0.050 C 
HETATM    9  C13 UNL     1      11.244  -5.012  33.566  1.00  0.00     0.046 C 
HETATM   10  C14 UNL     1      13.323  -6.023  34.631  1.00  0.00     0.120 C 
HETATM   11  C15 UNL     1      12.690  -5.192  35.705  1.00  0.00     0.046 C 
HETATM   12  C16 UNL     1      13.415  -3.842  35.584  1.00  0.00     0.007 C 
HETATM   13  C17 UNL     1      14.368  -3.649  34.436  1.00  0.00     0.046 C 
HETATM   14  C18 UNL     1      15.476  -4.578  34.191  1.00  0.00     0.116 C 
HETATM   15  C19 UNL     1      16.834  -3.848  34.336  1.00  0.00     0.054 C 
HETATM   16  O2  UNL     1      15.423  -5.293  35.420  1.00  0.00    -0.224 OA
HETATM   17  O3  UNL     1      14.483  -5.940  35.167  1.00  0.00    -0.224 OA
HETATM   18  C20 UNL     1      13.402  -7.554  34.760  1.00  0.00     0.062 C 
ENDROOT
BRANCH   1  19
HETATM   19  C3  UNL     1      14.382  -9.247  33.285  1.00  0.00     0.065 C 
HETATM   20  C4  UNL     1      14.191 -10.354  34.291  1.00  0.00     0.047 C 
BRANCH  19  21
HETATM   21  C2  UNL     1      15.254  -9.665  32.190  1.00  0.00     0.034 C 
HETATM   22  C1  UNL     1      15.921 -10.962  32.121  1.00  0.00     0.008 C 
ENDBRANCH  19  21
BRANCH  19  23
HETATM   23  O1  UNL     1      13.102  -9.160  32.657  1.00  0.00    -0.389 OA
ATOM     24  H1  UNL     1      13.016 -10.006  32.235  1.00  0.00     0.210 HD
ENDBRANCH  19  23
ENDBRANCH   1  19
TORSDOF 4
ENDMDL
