MODEL 1
REMARK VINA RESULT: -7.802542132      0.000      0.000
REMARK  3 active torsions:
REMARK  status: ('A' for Active; 'I' for Inactive)
REMARK    1  A    between atoms: C7_7  and  C8_8 
REMARK    2  A    between atoms: C11_12  and  N1_13 
REMARK       I    between atoms: N1_13  and  C12_14 
REMARK    3  A    between atoms: C12_14  and  C13_16 
ROOT
HETATM    1  C1  UNL     1     -21.788  62.122  27.722  1.00  0.00     0.012 C 
HETATM    2  C2  UNL     1     -22.525  62.541  26.879  1.00  0.00    -0.112 C 
HETATM    3  C3  UNL     1     -23.412  63.047  25.879  1.00  0.00     0.072 C 
HETATM    4  C4  UNL     1     -24.554  63.856  26.520  1.00  0.00     0.023 C 
HETATM    5  C5  UNL     1     -24.945  64.878  25.492  1.00  0.00    -0.000 C 
HETATM    6  C6  UNL     1     -24.028  66.039  25.406  1.00  0.00     0.037 C 
HETATM    7  C7  UNL     1     -24.075  65.891  23.914  1.00  0.00     0.059 C 
HETATM    8  C9  UNL     1     -24.156  64.447  24.234  1.00  0.00     0.010 C 
HETATM    9  C10 UNL     1     -22.844  64.101  24.976  1.00  0.00     0.043 C 
HETATM   10  C11 UNL     1     -22.630  65.399  25.708  1.00  0.00     0.178 C 
ENDROOT
BRANCH  10  11
HETATM   11  N1  UNL     1     -21.694  66.290  25.290  1.00  0.00    -0.400 NA
HETATM   12  C12 UNL     1     -20.743  67.195  24.864  1.00  0.00     0.394 C 
HETATM   13  O2  UNL     1     -20.328  67.323  23.709  1.00  0.00    -0.245 OA
BRANCH  12  14
HETATM   14  C13 UNL     1     -20.104  68.173  25.844  1.00  0.00     0.397 C 
HETATM   15  O3  UNL     1     -19.181  68.794  25.265  1.00  0.00    -0.244 OA
HETATM   16  N2  UNL     1     -20.535  68.271  27.114  1.00  0.00    -0.386 NA
HETATM   17  C14 UNL     1     -20.973  68.370  28.406  1.00  0.00     0.233 C 
ENDBRANCH  12  14
ENDBRANCH  10  11
BRANCH   7  18
HETATM   18  C8  UNL     1     -25.299  66.390  23.259  1.00  0.00     0.236 C 
HETATM   19  O1  UNL     1     -25.237  67.368  22.545  1.00  0.00    -0.306 OA
ENDBRANCH   7  18
TORSDOF 2
ENDMDL
MODEL 2
REMARK VINA RESULT: -7.785148308      3.055      5.090
REMARK  3 active torsions:
REMARK  status: ('A' for Active; 'I' for Inactive)
REMARK    1  A    between atoms: C7_7  and  C8_8 
REMARK    2  A    between atoms: C11_12  and  N1_13 
REMARK       I    between atoms: N1_13  and  C12_14 
REMARK    3  A    between atoms: C12_14  and  C13_16 
ROOT
HETATM    1  C1  UNL     1     -25.368  64.884  25.333  1.00  0.00     0.012 C 
HETATM    2  C2  UNL     1     -24.378  65.554  25.348  1.00  0.00    -0.112 C 
HETATM    3  C3  UNL     1     -23.190  66.349  25.374  1.00  0.00     0.072 C 
HETATM    4  C4  UNL     1     -22.315  65.983  26.587  1.00  0.00     0.023 C 
HETATM    5  C5  UNL     1     -20.904  66.271  26.160  1.00  0.00    -0.000 C 
HETATM    6  C6  UNL     1     -20.308  65.235  25.283  1.00  0.00     0.037 C 
HETATM    7  C7  UNL     1     -19.805  66.346  24.411  1.00  0.00     0.059 C 
HETATM    8  C9  UNL     1     -21.075  66.998  24.808  1.00  0.00     0.010 C 
HETATM    9  C10 UNL     1     -22.205  66.087  24.274  1.00  0.00     0.043 C 
HETATM   10  C11 UNL     1     -21.536  64.749  24.438  1.00  0.00     0.178 C 
ENDROOT
BRANCH  10  11
HETATM   11  N1  UNL     1     -21.033  64.084  23.366  1.00  0.00    -0.400 NA
HETATM   12  C12 UNL     1     -20.525  63.406  22.277  1.00  0.00     0.394 C 
HETATM   13  O2  UNL     1     -21.165  62.690  21.502  1.00  0.00    -0.245 OA
BRANCH  12  14
HETATM   14  C13 UNL     1     -19.046  63.506  21.918  1.00  0.00     0.397 C 
HETATM   15  O3  UNL     1     -18.919  63.463  20.672  1.00  0.00    -0.244 OA
HETATM   16  N2  UNL     1     -18.103  63.615  22.870  1.00  0.00    -0.386 NA
HETATM   17  C14 UNL     1     -17.143  63.725  23.839  1.00  0.00     0.233 C 
ENDBRANCH  12  14
ENDBRANCH  10  11
BRANCH   7  18
HETATM   18  C8  UNL     1     -18.622  67.070  24.915  1.00  0.00     0.236 C 
HETATM   19  O1  UNL     1     -17.748  67.397  24.140  1.00  0.00    -0.306 OA
ENDBRANCH   7  18
TORSDOF 2
ENDMDL
MODEL 3
REMARK VINA RESULT: -7.785055950      1.452      2.415
REMARK  3 active torsions:
REMARK  status: ('A' for Active; 'I' for Inactive)
REMARK    1  A    between atoms: C7_7  and  C8_8 
REMARK    2  A    between atoms: C11_12  and  N1_13 
REMARK       I    between atoms: N1_13  and  C12_14 
REMARK    3  A    between atoms: C12_14  and  C13_16 
ROOT
HETATM    1  C1  UNL     1     -21.937  62.096  27.756  1.00  0.00     0.012 C 
HETATM    2  C2  UNL     1     -22.704  62.540  26.954  1.00  0.00    -0.112 C 
HETATM    3  C3  UNL     1     -23.623  63.077  26.001  1.00  0.00     0.072 C 
HETATM    4  C4  UNL     1     -24.575  64.087  26.671  1.00  0.00     0.023 C 
HETATM    5  C5  UNL     1     -24.943  65.063  25.590  1.00  0.00    -0.000 C 
HETATM    6  C6  UNL     1     -23.900  66.075  25.301  1.00  0.00     0.037 C 
HETATM    7  C7  UNL     1     -24.131  65.811  23.843  1.00  0.00     0.059 C 
HETATM    8  C9  UNL     1     -24.361  64.424  24.310  1.00  0.00     0.010 C 
HETATM    9  C10 UNL     1     -23.029  63.963  24.948  1.00  0.00     0.043 C 
HETATM   10  C11 UNL     1     -22.570  65.276  25.524  1.00  0.00     0.178 C 
ENDROOT
BRANCH  10  11
HETATM   11  N1  UNL     1     -21.581  65.992  24.931  1.00  0.00    -0.400 NA
HETATM   12  C12 UNL     1     -20.576  66.722  24.329  1.00  0.00     0.394 C 
HETATM   13  O2  UNL     1     -20.345  67.922  24.502  1.00  0.00    -0.245 OA
BRANCH  12  14
HETATM   14  C13 UNL     1     -19.609  66.059  23.353  1.00  0.00     0.397 C 
HETATM   15  O3  UNL     1     -18.733  66.888  23.013  1.00  0.00    -0.244 OA
HETATM   16  N2  UNL     1     -19.767  64.778  22.977  1.00  0.00    -0.386 NA
HETATM   17  C14 UNL     1     -19.927  63.474  22.593  1.00  0.00     0.233 C 
ENDBRANCH  12  14
ENDBRANCH  10  11
BRANCH   7  18
HETATM   18  C8  UNL     1     -25.347  66.417  23.266  1.00  0.00     0.236 C 
HETATM   19  O1  UNL     1     -25.243  67.368  22.521  1.00  0.00    -0.306 OA
ENDBRANCH   7  18
TORSDOF 2
ENDMDL
MODEL 4
REMARK VINA RESULT: -7.700351667      3.812      5.694
REMARK  3 active torsions:
REMARK  status: ('A' for Active; 'I' for Inactive)
REMARK    1  A    between atoms: C7_7  and  C8_8 
REMARK    2  A    between atoms: C11_12  and  N1_13 
REMARK       I    between atoms: N1_13  and  C12_14 
REMARK    3  A    between atoms: C12_14  and  C13_16 
ROOT
HETATM    1  C1  UNL     1     -27.192  64.275  25.673  1.00  0.00     0.012 C 
HETATM    2  C2  UNL     1     -26.452  63.994  26.568  1.00  0.00    -0.112 C 
HETATM    3  C3  UNL     1     -25.569  63.649  27.638  1.00  0.00     0.072 C 
HETATM    4  C4  UNL     1     -25.676  62.149  27.971  1.00  0.00     0.023 C 
HETATM    5  C5  UNL     1     -24.325  61.762  28.501  1.00  0.00    -0.000 C 
HETATM    6  C6  UNL     1     -23.293  61.565  27.455  1.00  0.00     0.037 C 
HETATM    7  C7  UNL     1     -22.359  62.370  28.308  1.00  0.00     0.059 C 
HETATM    8  C9  UNL     1     -23.592  63.115  28.651  1.00  0.00     0.010 C 
HETATM    9  C10 UNL     1     -24.104  63.726  27.326  1.00  0.00     0.043 C 
HETATM   10  C11 UNL     1     -23.683  62.635  26.378  1.00  0.00     0.178 C 
ENDROOT
BRANCH  10  11
HETATM   11  N1  UNL     1     -22.601  62.789  25.572  1.00  0.00    -0.400 NA
HETATM   12  C12 UNL     1     -21.500  62.946  24.755  1.00  0.00     0.394 C 
HETATM   13  O2  UNL     1     -20.319  62.892  25.108  1.00  0.00    -0.245 OA
BRANCH  12  14
HETATM   14  C13 UNL     1     -21.669  63.201  23.260  1.00  0.00     0.397 C 
HETATM   15  O3  UNL     1     -22.885  63.130  22.964  1.00  0.00    -0.244 OA
HETATM   16  N2  UNL     1     -20.609  63.449  22.471  1.00  0.00    -0.386 NA
HETATM   17  C14 UNL     1     -19.530  63.700  21.667  1.00  0.00     0.233 C 
ENDBRANCH  12  14
ENDBRANCH  10  11
BRANCH   7  18
HETATM   18  C8  UNL     1     -21.786  61.667  29.472  1.00  0.00     0.236 C 
HETATM   19  O1  UNL     1     -20.651  61.916  29.820  1.00  0.00    -0.306 OA
ENDBRANCH   7  18
TORSDOF 2
ENDMDL
MODEL 5
REMARK VINA RESULT: -7.627696264      2.277      5.095
REMARK  3 active torsions:
REMARK  status: ('A' for Active; 'I' for Inactive)
REMARK    1  A    between atoms: C7_7  and  C8_8 
REMARK    2  A    between atoms: C11_12  and  N1_13 
REMARK       I    between atoms: N1_13  and  C12_14 
REMARK    3  A    between atoms: C12_14  and  C13_16 
ROOT
HETATM    1  C1  UNL     1     -26.061  62.737  27.728  1.00  0.00     0.012 C 
HETATM    2  C2  UNL     1     -25.057  63.323  27.449  1.00  0.00    -0.112 C 
HETATM    3  C3  UNL     1     -23.854  64.015  27.110  1.00  0.00     0.072 C 
HETATM    4  C4  UNL     1     -22.952  63.139  26.220  1.00  0.00     0.023 C 
HETATM    5  C5  UNL     1     -22.173  64.103  25.372  1.00  0.00    -0.000 C 
HETATM    6  C6  UNL     1     -22.935  64.666  24.231  1.00  0.00     0.037 C 
HETATM    7  C7  UNL     1     -22.391  66.012  24.608  1.00  0.00     0.059 C 
HETATM    8  C9  UNL     1     -22.510  65.481  25.985  1.00  0.00     0.010 C 
HETATM    9  C10 UNL     1     -24.015  65.199  26.204  1.00  0.00     0.043 C 
HETATM   10  C11 UNL     1     -24.388  64.780  24.808  1.00  0.00     0.178 C 
ENDROOT
BRANCH  10  11
HETATM   11  N1  UNL     1     -25.070  65.618  23.985  1.00  0.00    -0.400 NA
HETATM   12  C12 UNL     1     -25.760  66.472  23.149  1.00  0.00     0.394 C 
HETATM   13  O2  UNL     1     -25.339  67.537  22.689  1.00  0.00    -0.245 OA
BRANCH  12  14
HETATM   14  C13 UNL     1     -27.177  66.139  22.693  1.00  0.00     0.397 C 
HETATM   15  O3  UNL     1     -27.366  66.617  21.550  1.00  0.00    -0.244 OA
HETATM   16  N2  UNL     1     -28.016  65.439  23.477  1.00  0.00    -0.386 NA
HETATM   17  C14 UNL     1     -28.870  64.728  24.276  1.00  0.00     0.233 C 
ENDBRANCH  12  14
ENDBRANCH  10  11
BRANCH   7  18
HETATM   18  C8  UNL     1     -20.988  66.266  24.224  1.00  0.00     0.236 C 
HETATM   19  O1  UNL     1     -20.664  67.373  23.850  1.00  0.00    -0.306 OA
ENDBRANCH   7  18
TORSDOF 2
ENDMDL
