MODEL 1
REMARK VINA RESULT: -4.382554991      0.000      0.000
REMARK  1 active torsions:
REMARK  status: ('A' for Active; 'I' for Inactive)
REMARK    1  A    between atoms: C1_2  and  C2_4 
ROOT
HETATM    1  C2  UNL     1      16.592  18.757  21.441  1.00  0.00     0.252 C 
HETATM    2  O3  UNL     1      15.828  18.416  20.366  1.00  0.00    -0.364 OA
HETATM    3  C3  UNL     1      16.234  17.226  19.837  1.00  0.00     0.158 C 
HETATM    4  C4  UNL     1      16.197  16.031  20.805  1.00  0.00     0.152 C 
HETATM    5  C5  UNL     1      17.565  15.690  20.186  1.00  0.00     0.044 C 
HETATM    6  C6  UNL     1      17.727  17.174  20.235  1.00  0.00     0.052 C 
HETATM    7  C7  UNL     1      17.468  17.550  21.671  1.00  0.00     0.168 C 
HETATM    8  O4  UNL     1      16.577  16.506  22.028  1.00  0.00    -0.374 OA
ENDROOT
BRANCH   1   9
HETATM    9  C1  UNL     1      15.706  19.038  22.596  1.00  0.00     0.205 C 
HETATM   10  O1  UNL     1      14.604  19.162  22.534  1.00  0.00    -0.646 OA
HETATM   11  O2  UNL     1      16.321  19.150  23.840  1.00  0.00    -0.646 OA
ENDBRANCH   1   9
TORSDOF 1
ENDMDL
MODEL 2
REMARK VINA RESULT: -3.995903170      1.552      3.610
REMARK  1 active torsions:
REMARK  status: ('A' for Active; 'I' for Inactive)
REMARK    1  A    between atoms: C1_2  and  C2_4 
ROOT
HETATM    1  C2  UNL     1      16.769  16.508  20.342  1.00  0.00     0.252 C 
HETATM    2  O3  UNL     1      17.737  17.455  20.491  1.00  0.00    -0.364 OA
HETATM    3  C3  UNL     1      17.326  18.444  21.337  1.00  0.00     0.158 C 
HETATM    4  C4  UNL     1      16.938  17.979  22.750  1.00  0.00     0.152 C 
HETATM    5  C5  UNL     1      15.750  18.942  22.570  1.00  0.00     0.044 C 
HETATM    6  C6  UNL     1      15.788  18.402  21.178  1.00  0.00     0.052 C 
HETATM    7  C7  UNL     1      15.705  16.906  21.335  1.00  0.00     0.168 C 
HETATM    8  O4  UNL     1      16.315  16.771  22.607  1.00  0.00    -0.374 OA
ENDROOT
BRANCH   1   9
HETATM    9  C1  UNL     1      17.345  15.174  20.638  1.00  0.00     0.205 C 
HETATM   10  O1  UNL     1      16.980  14.489  21.432  1.00  0.00    -0.646 OA
HETATM   11  O2  UNL     1      18.421  14.771  19.851  1.00  0.00    -0.646 OA
ENDBRANCH   1   9
TORSDOF 1
ENDMDL
MODEL 3
REMARK VINA RESULT: -3.855720704      6.251      7.341
REMARK  1 active torsions:
REMARK  status: ('A' for Active; 'I' for Inactive)
REMARK    1  A    between atoms: C1_2  and  C2_4 
ROOT
HETATM    1  C2  UNL     1      15.617  12.544  25.638  1.00  0.00     0.252 C 
HETATM    2  O3  UNL     1      14.529  12.325  24.848  1.00  0.00    -0.364 OA
HETATM    3  C3  UNL     1      13.389  12.265  25.595  1.00  0.00     0.158 C 
HETATM    4  C4  UNL     1      13.086  13.518  26.432  1.00  0.00     0.152 C 
HETATM    5  C5  UNL     1      12.732  12.504  27.535  1.00  0.00     0.044 C 
HETATM    6  C6  UNL     1      13.914  11.787  26.969  1.00  0.00     0.052 C 
HETATM    7  C7  UNL     1      15.037  12.790  27.009  1.00  0.00     0.168 C 
HETATM    8  O4  UNL     1      14.286  13.986  26.886  1.00  0.00    -0.374 OA
ENDROOT
BRANCH   1   9
HETATM    9  C1  UNL     1      16.362  13.718  25.123  1.00  0.00     0.205 C 
HETATM   10  O1  UNL     1      16.111  14.269  24.191  1.00  0.00    -0.646 OA
HETATM   11  O2  UNL     1      17.451  14.145  25.878  1.00  0.00    -0.646 OA
ENDBRANCH   1   9
TORSDOF 1
ENDMDL
MODEL 4
REMARK VINA RESULT: -3.802277620      5.905      7.083
REMARK  1 active torsions:
REMARK  status: ('A' for Active; 'I' for Inactive)
REMARK    1  A    between atoms: C1_2  and  C2_4 
ROOT
HETATM    1  C2  UNL     1      15.823  12.555  25.398  1.00  0.00     0.252 C 
HETATM    2  O3  UNL     1      14.918  12.451  24.384  1.00  0.00    -0.364 OA
HETATM    3  C3  UNL     1      13.651  12.320  24.873  1.00  0.00     0.158 C 
HETATM    4  C4  UNL     1      13.175  13.469  25.776  1.00  0.00     0.152 C 
HETATM    5  C5  UNL     1      12.614  12.336  26.655  1.00  0.00     0.044 C 
HETATM    6  C6  UNL     1      13.891  11.673  26.256  1.00  0.00     0.052 C 
HETATM    7  C7  UNL     1      14.975  12.645  26.643  1.00  0.00     0.168 C 
HETATM    8  O4  UNL     1      14.255  13.859  26.516  1.00  0.00    -0.374 OA
ENDROOT
BRANCH   1   9
HETATM    9  C1  UNL     1      16.647  13.770  25.189  1.00  0.00     0.205 C 
HETATM   10  O1  UNL     1      17.427  14.134  25.892  1.00  0.00    -0.646 OA
HETATM   11  O2  UNL     1      16.412  14.490  24.021  1.00  0.00    -0.646 OA
ENDBRANCH   1   9
TORSDOF 1
ENDMDL
MODEL 5
REMARK VINA RESULT: -3.797343527      4.777      6.207
REMARK  1 active torsions:
REMARK  status: ('A' for Active; 'I' for Inactive)
REMARK    1  A    between atoms: C1_2  and  C2_4 
ROOT
HETATM    1  C2  UNL     1      15.267  12.925  23.119  1.00  0.00     0.252 C 
HETATM    2  O3  UNL     1      14.407  13.737  23.797  1.00  0.00    -0.364 OA
HETATM    3  C3  UNL     1      14.337  13.382  25.112  1.00  0.00     0.158 C 
HETATM    4  C4  UNL     1      15.673  13.416  25.872  1.00  0.00     0.152 C 
HETATM    5  C5  UNL     1      15.188  12.081  26.467  1.00  0.00     0.044 C 
HETATM    6  C6  UNL     1      14.691  11.877  25.073  1.00  0.00     0.052 C 
HETATM    7  C7  UNL     1      15.898  12.074  24.193  1.00  0.00     0.168 C 
HETATM    8  O4  UNL     1      16.631  12.980  25.002  1.00  0.00    -0.374 OA
ENDROOT
BRANCH   1   9
HETATM    9  C1  UNL     1      16.262  13.761  22.405  1.00  0.00     0.205 C 
HETATM   10  O1  UNL     1      16.272  14.872  22.404  1.00  0.00    -0.646 OA
HETATM   11  O2  UNL     1      17.247  13.084  21.691  1.00  0.00    -0.646 OA
ENDBRANCH   1   9
TORSDOF 1
ENDMDL
