MODEL 1
REMARK VINA RESULT: -5.560123551      0.000      0.000
REMARK  6 active torsions:
REMARK  status: ('A' for Active; 'I' for Inactive)
REMARK       I    between atoms: C1_2  and  N1_3 
REMARK    1  A    between atoms: C1_2  and  C4_7 
REMARK    2  A    between atoms: N1_3  and  C2_4 
REMARK    3  A    between atoms: C2_4  and  C3_5 
REMARK    4  A    between atoms: C8_14  and  C9_15 
REMARK    5  A    between atoms: C12_19  and  C13_20 
REMARK    6  A    between atoms: C13_20  and  O3_21 
ROOT
HETATM    1  C4  UNL     1      13.493  -8.115  18.151  1.00  0.00     0.119 C 
HETATM    2  C5  UNL     1      12.081  -7.725  18.136  1.00  0.00     0.040 C 
HETATM    3  C6  UNL     1      11.128  -8.518  19.069  1.00  0.00     0.165 C 
HETATM    4 BR1  UNL     1      11.602  -8.619  20.878  1.00  0.00    -0.068 Br
HETATM    5  N2  UNL     1      11.124  -9.719  18.270  1.00  0.00    -0.330 N 
HETATM    6  C7  UNL     1      12.365 -10.364  18.206  1.00  0.00     0.232 C 
HETATM    7  O2  UNL     1      12.946 -11.388  18.581  1.00  0.00    -0.272 OA
HETATM    8  C8  UNL     1      13.172  -9.316  17.346  1.00  0.00     0.071 C 
HETATM    9  C10 UNL     1      12.072  -8.410  16.754  1.00  0.00     0.015 C 
HETATM   10  C11 UNL     1      10.881  -9.047  16.221  1.00  0.00     0.034 C 
HETATM   11  C12 UNL     1      10.096  -9.920  17.347  1.00  0.00     0.112 C 
ENDROOT
BRANCH   1  12
HETATM   12  C1  UNL     1      14.250  -8.305  19.425  1.00  0.00     0.296 C 
HETATM   13  O1  UNL     1      14.487  -9.063  19.602  1.00  0.00    -0.257 OA
HETATM   14  N1  UNL     1      14.502  -7.130  20.215  1.00  0.00    -0.386 NA
BRANCH  14  15
HETATM   15  C2  UNL     1      14.729  -6.065  20.931  1.00  0.00     0.174 C 
BRANCH  15  16
HETATM   16  C3  UNL     1      13.572  -5.371  21.679  1.00  0.00     0.174 C 
HETATM   17 CL1  UNL     1      12.193  -5.082  20.606  1.00  0.00    -0.124 Cl
ENDBRANCH  15  16
ENDBRANCH  14  15
ENDBRANCH   1  12
BRANCH   8  18
HETATM   18  C9  UNL     1      14.091  -9.906  16.384  1.00  0.00     0.135 C 
HETATM   19 CL2  UNL     1      13.400 -11.280  15.527  1.00  0.00    -0.129 Cl
ENDBRANCH   8  18
BRANCH  11  20
HETATM   20  C13 UNL     1       8.781  -9.226  17.469  1.00  0.00     0.189 C 
BRANCH  20  21
HETATM   21  O3  UNL     1       7.827  -9.565  16.514  1.00  0.00    -0.399 OA
ATOM     22  H3  UNL     1       7.091  -8.969  16.435  1.00  0.00     0.209 HD
ENDBRANCH  20  21
ENDBRANCH  11  20
TORSDOF 6
ENDMDL
MODEL 2
REMARK VINA RESULT: -5.504546727      2.577      3.192
REMARK  6 active torsions:
REMARK  status: ('A' for Active; 'I' for Inactive)
REMARK       I    between atoms: C1_2  and  N1_3 
REMARK    1  A    between atoms: C1_2  and  C4_7 
REMARK    2  A    between atoms: N1_3  and  C2_4 
REMARK    3  A    between atoms: C2_4  and  C3_5 
REMARK    4  A    between atoms: C8_14  and  C9_15 
REMARK    5  A    between atoms: C12_19  and  C13_20 
REMARK    6  A    between atoms: C13_20  and  O3_21 
ROOT
HETATM    1  C4  UNL     1      13.040 -10.301  17.457  1.00  0.00     0.119 C 
HETATM    2  C5  UNL     1      12.974  -9.688  16.129  1.00  0.00     0.040 C 
HETATM    3  C6  UNL     1      11.635  -9.006  15.740  1.00  0.00     0.165 C 
HETATM    4 BR1  UNL     1      10.965  -7.717  16.923  1.00  0.00    -0.068 Br
HETATM    5  N2  UNL     1      10.907 -10.237  15.548  1.00  0.00    -0.330 N 
HETATM    6  C7  UNL     1      10.732 -10.984  16.719  1.00  0.00     0.232 C 
HETATM    7  O2  UNL     1       9.862 -11.348  17.517  1.00  0.00    -0.272 OA
HETATM    8  C8  UNL     1      12.222 -11.438  16.976  1.00  0.00     0.071 C 
HETATM    9  C10 UNL     1      12.925 -11.147  15.633  1.00  0.00     0.015 C 
HETATM   10  C11 UNL     1      12.236 -11.521  14.411  1.00  0.00     0.034 C 
HETATM   11  C12 UNL     1      10.800 -10.772  14.263  1.00  0.00     0.112 C 
ENDROOT
BRANCH   1  12
HETATM   12  C1  UNL     1      12.588  -9.582  18.687  1.00  0.00     0.296 C 
HETATM   13  O1  UNL     1      11.933  -9.880  19.067  1.00  0.00    -0.257 OA
HETATM   14  N1  UNL     1      13.358  -8.437  19.092  1.00  0.00    -0.386 NA
BRANCH  14  15
HETATM   15  C2  UNL     1      14.055  -7.398  19.459  1.00  0.00     0.174 C 
BRANCH  15  16
HETATM   16  C3  UNL     1      13.448  -6.355  20.419  1.00  0.00     0.174 C 
HETATM   17 CL1  UNL     1      11.813  -5.893  19.918  1.00  0.00    -0.124 Cl
ENDBRANCH  15  16
ENDBRANCH  14  15
ENDBRANCH   1  12
BRANCH   8  18
HETATM   18  C9  UNL     1      12.359 -12.796  17.481  1.00  0.00     0.135 C 
HETATM   19 CL2  UNL     1      11.325 -13.949  16.644  1.00  0.00    -0.129 Cl
ENDBRANCH   8  18
BRANCH  11  20
HETATM   20  C13 UNL     1      10.972  -9.930  13.042  1.00  0.00     0.189 C 
BRANCH  20  21
HETATM   21  O3  UNL     1      11.549 -10.564  11.947  1.00  0.00    -0.399 OA
ATOM     22  H3  UNL     1      11.906  -9.990  11.278  1.00  0.00     0.209 HD
ENDBRANCH  20  21
ENDBRANCH  11  20
TORSDOF 6
ENDMDL
MODEL 3
REMARK VINA RESULT: -5.432289559      3.249      6.502
REMARK  6 active torsions:
REMARK  status: ('A' for Active; 'I' for Inactive)
REMARK       I    between atoms: C1_2  and  N1_3 
REMARK    1  A    between atoms: C1_2  and  C4_7 
REMARK    2  A    between atoms: N1_3  and  C2_4 
REMARK    3  A    between atoms: C2_4  and  C3_5 
REMARK    4  A    between atoms: C8_14  and  C9_15 
REMARK    5  A    between atoms: C12_19  and  C13_20 
REMARK    6  A    between atoms: C13_20  and  O3_21 
ROOT
HETATM    1  C4  UNL     1      11.833  -6.658  20.485  1.00  0.00     0.119 C 
HETATM    2  C5  UNL     1      12.465  -5.347  20.636  1.00  0.00     0.040 C 
HETATM    3  C6  UNL     1      13.787  -5.298  21.448  1.00  0.00     0.165 C 
HETATM    4 BR1  UNL     1      15.156  -6.458  20.910  1.00  0.00    -0.068 Br
HETATM    5  N2  UNL     1      13.163  -5.489  22.735  1.00  0.00    -0.330 N 
HETATM    6  C7  UNL     1      12.558  -6.741  22.894  1.00  0.00     0.232 C 
HETATM    7  O2  UNL     1      12.674  -7.803  23.514  1.00  0.00    -0.272 OA
HETATM    8  C8  UNL     1      11.353  -6.591  21.885  1.00  0.00     0.071 C 
HETATM    9  C10 UNL     1      11.300  -5.074  21.609  1.00  0.00     0.015 C 
HETATM   10  C11 UNL     1      11.438  -4.172  22.738  1.00  0.00     0.034 C 
HETATM   11  C12 UNL     1      12.853  -4.373  23.514  1.00  0.00     0.112 C 
ENDROOT
BRANCH   1  12
HETATM   12  C1  UNL     1      12.603  -7.868  20.064  1.00  0.00     0.296 C 
HETATM   13  O1  UNL     1      12.797  -8.401  20.647  1.00  0.00    -0.257 OA
HETATM   14  N1  UNL     1      12.919  -7.984  18.666  1.00  0.00    -0.386 NA
BRANCH  14  15
HETATM   15  C2  UNL     1      13.208  -8.089  17.399  1.00  0.00     0.174 C 
BRANCH  15  16
HETATM   16  C3  UNL     1      12.082  -8.262  16.358  1.00  0.00     0.174 C 
HETATM   17 CL1  UNL     1      10.563  -7.550  16.928  1.00  0.00    -0.124 Cl
ENDBRANCH  15  16
ENDBRANCH  14  15
ENDBRANCH   1  12
BRANCH   8  18
HETATM   18  C9  UNL     1      10.109  -7.196  22.337  1.00  0.00     0.135 C 
HETATM   19 CL2  UNL     1       9.749  -6.846  24.025  1.00  0.00    -0.129 Cl
ENDBRANCH   8  18
BRANCH  11  20
HETATM   20  C13 UNL     1      13.542  -3.063  23.323  1.00  0.00     0.189 C 
BRANCH  20  21
HETATM   21  O3  UNL     1      14.709  -2.879  24.058  1.00  0.00    -0.399 OA
ATOM     22  H3  UNL     1      15.475  -2.620  23.559  1.00  0.00     0.209 HD
ENDBRANCH  20  21
ENDBRANCH  11  20
TORSDOF 6
ENDMDL
MODEL 4
REMARK VINA RESULT: -5.378619603      2.321      2.756
REMARK  6 active torsions:
REMARK  status: ('A' for Active; 'I' for Inactive)
REMARK       I    between atoms: C1_2  and  N1_3 
REMARK    1  A    between atoms: C1_2  and  C4_7 
REMARK    2  A    between atoms: N1_3  and  C2_4 
REMARK    3  A    between atoms: C2_4  and  C3_5 
REMARK    4  A    between atoms: C8_14  and  C9_15 
REMARK    5  A    between atoms: C12_19  and  C13_20 
REMARK    6  A    between atoms: C13_20  and  O3_21 
ROOT
HETATM    1  C4  UNL     1      13.411  -8.313  17.755  1.00  0.00     0.119 C 
HETATM    2  C5  UNL     1      12.731  -8.625  16.497  1.00  0.00     0.040 C 
HETATM    3  C6  UNL     1      11.315  -9.251  16.604  1.00  0.00     0.165 C 
HETATM    4 BR1  UNL     1      10.056  -8.327  17.639  1.00  0.00    -0.068 Br
HETATM    5  N2  UNL     1      11.772 -10.549  17.038  1.00  0.00    -0.330 N 
HETATM    6  C7  UNL     1      12.382 -10.545  18.298  1.00  0.00     0.232 C 
HETATM    7  O2  UNL     1      12.213 -10.932  19.458  1.00  0.00    -0.272 OA
HETATM    8  C8  UNL     1      13.703  -9.751  17.958  1.00  0.00     0.071 C 
HETATM    9  C10 UNL     1      13.754  -9.777  16.416  1.00  0.00     0.015 C 
HETATM   10  C11 UNL     1      13.449 -11.029  15.747  1.00  0.00     0.034 C 
HETATM   11  C12 UNL     1      11.950 -11.559  16.091  1.00  0.00     0.112 C 
ENDROOT
BRANCH   1  12
HETATM   12  C1  UNL     1      12.732  -7.572  18.862  1.00  0.00     0.296 C 
HETATM   13  O1  UNL     1      12.170  -7.024  18.646  1.00  0.00    -0.257 OA
HETATM   14  N1  UNL     1      13.126  -7.902  20.204  1.00  0.00    -0.386 NA
BRANCH  14  15
HETATM   15  C2  UNL     1      13.483  -8.200  21.422  1.00  0.00     0.174 C 
BRANCH  15  16
HETATM   16  C3  UNL     1      14.732  -7.545  22.047  1.00  0.00     0.174 C 
HETATM   17 CL1  UNL     1      15.535  -6.462  20.898  1.00  0.00    -0.124 Cl
ENDBRANCH  15  16
ENDBRANCH  14  15
ENDBRANCH   1  12
BRANCH   8  18
HETATM   18  C9  UNL     1      14.893 -10.240  18.638  1.00  0.00     0.135 C 
HETATM   19 CL2  UNL     1      15.037 -11.994  18.595  1.00  0.00    -0.129 Cl
ENDBRANCH   8  18
BRANCH  11  20
HETATM   20  C13 UNL     1      11.260 -11.531  14.769  1.00  0.00     0.189 C 
BRANCH  20  21
HETATM   21  O3  UNL     1      12.052 -11.181  13.680  1.00  0.00    -0.399 OA
ATOM     22  H3  UNL     1      11.591 -10.810  12.936  1.00  0.00     0.209 HD
ENDBRANCH  20  21
ENDBRANCH  11  20
TORSDOF 6
ENDMDL
MODEL 5
REMARK VINA RESULT: -5.273470500      2.621      5.163
REMARK  6 active torsions:
REMARK  status: ('A' for Active; 'I' for Inactive)
REMARK       I    between atoms: C1_2  and  N1_3 
REMARK    1  A    between atoms: C1_2  and  C4_7 
REMARK    2  A    between atoms: N1_3  and  C2_4 
REMARK    3  A    between atoms: C2_4  and  C3_5 
REMARK    4  A    between atoms: C8_14  and  C9_15 
REMARK    5  A    between atoms: C12_19  and  C13_20 
REMARK    6  A    between atoms: C13_20  and  O3_21 
ROOT
HETATM    1  C4  UNL     1      12.888  -9.020  16.374  1.00  0.00     0.119 C 
HETATM    2  C5  UNL     1      13.459  -8.211  17.452  1.00  0.00     0.040 C 
HETATM    3  C6  UNL     1      13.840  -8.958  18.758  1.00  0.00     0.165 C 
HETATM    4 BR1  UNL     1      14.974 -10.439  18.588  1.00  0.00    -0.068 Br
HETATM    5  N2  UNL     1      12.482  -9.153  19.205  1.00  0.00    -0.330 N 
HETATM    6  C7  UNL     1      11.728  -9.998  18.382  1.00  0.00     0.232 C 
HETATM    7  O2  UNL     1      11.199 -11.114  18.363  1.00  0.00    -0.272 OA
HETATM    8  C8  UNL     1      11.599  -9.086  17.101  1.00  0.00     0.071 C 
HETATM    9  C10 UNL     1      12.016  -7.689  17.608  1.00  0.00     0.015 C 
HETATM   10  C11 UNL     1      11.493  -7.248  18.889  1.00  0.00     0.034 C 
HETATM   11  C12 UNL     1      11.923  -8.242  20.102  1.00  0.00     0.112 C 
ENDROOT
BRANCH   1  12
HETATM   12  C1  UNL     1      13.511 -10.305  15.930  1.00  0.00     0.296 C 
HETATM   13  O1  UNL     1      14.315 -10.376  16.029  1.00  0.00    -0.257 OA
HETATM   14  N1  UNL     1      12.630 -11.299  15.380  1.00  0.00    -0.386 NA
BRANCH  14  15
HETATM   15  C2  UNL     1      11.832 -12.201  14.881  1.00  0.00     0.174 C 
BRANCH  15  16
HETATM   16  C3  UNL     1      11.192 -11.988  13.493  1.00  0.00     0.174 C 
HETATM   17 CL1  UNL     1      11.237 -10.283  13.017  1.00  0.00    -0.124 Cl
ENDBRANCH  15  16
ENDBRANCH  14  15
ENDBRANCH   1  12
BRANCH   8  18
HETATM   18  C9  UNL     1      10.306  -9.158  16.437  1.00  0.00     0.135 C 
HETATM   19 CL2  UNL     1       8.952  -9.046  17.557  1.00  0.00    -0.129 Cl
ENDBRANCH   8  18
BRANCH  11  20
HETATM   20  C13 UNL     1      12.768  -7.376  20.977  1.00  0.00     0.189 C 
BRANCH  20  21
HETATM   21  O3  UNL     1      12.911  -6.056  20.564  1.00  0.00    -0.399 OA
ATOM     22  H3  UNL     1      13.805  -5.747  20.469  1.00  0.00     0.209 HD
ENDBRANCH  20  21
ENDBRANCH  11  20
TORSDOF 6
ENDMDL
