MODEL 1
REMARK VINA RESULT: -4.917777070      0.000      0.000
REMARK  15 active torsions:
REMARK  status: ('A' for Active; 'I' for Inactive)
REMARK    1  A    between atoms: C2_2  and  C3_3 
REMARK    2  A    between atoms: C3_3  and  C4_4 
REMARK    3  A    between atoms: C4_4  and  C5_5 
REMARK    4  A    between atoms: C5_5  and  C6_6 
REMARK    5  A    between atoms: C6_6  and  C7_7 
REMARK    6  A    between atoms: C7_7  and  C8_8 
REMARK    7  A    between atoms: C8_8  and  C9_9 
REMARK    8  A    between atoms: C9_9  and  C10_10 
REMARK    9  A    between atoms: C10_10  and  O1_11 
REMARK   10  A    between atoms: O1_11  and  C11_12 
REMARK   11  A    between atoms: C12_13  and  O2_14 
REMARK   12  A    between atoms: C12_13  and  C13_16 
REMARK   13  A    between atoms: C16_22  and  O6_23 
REMARK   14  A    between atoms: O6_23  and  C17_24 
REMARK   15  A    between atoms: C20_29  and  C21_30 
ROOT
HETATM    1  C11 UNL     1      21.704  38.749  16.692  1.00  0.00     0.184 C 
HETATM    2  C12 UNL     1      20.909  39.874  16.130  1.00  0.00     0.233 C 
HETATM    3  C14 UNL     1      20.369  40.893  17.018  1.00  0.00     0.178 C 
HETATM    4  O5  UNL     1      19.326  41.343  16.517  1.00  0.00    -0.294 OA
HETATM    5  C15 UNL     1      20.665  41.547  18.299  1.00  0.00     0.130 C 
HETATM    6  C16 UNL     1      20.815  40.591  19.476  1.00  0.00     0.148 A 
HETATM    7  C19 UNL     1      20.439  39.239  19.094  1.00  0.00     0.184 A 
HETATM    8  O8  UNL     1      19.324  38.808  18.811  1.00  0.00    -0.293 OA
HETATM    9  C20 UNL     1      21.856  38.827  19.231  1.00  0.00     0.133 A 
HETATM   10  C22 UNL     1      22.596  38.951  17.881  1.00  0.00     0.017 C 
HETATM   11  C23 UNL     1      23.531  37.716  17.831  1.00  0.00     0.020 C 
HETATM   12  C24 UNL     1      23.135  40.184  18.347  1.00  0.00     0.019 C 
HETATM   13  C25 UNL     1      24.534  40.556  18.600  1.00  0.00    -0.042 C 
HETATM   14  C26 UNL     1      25.194  40.886  17.236  1.00  0.00     0.015 C 
HETATM   15  C27 UNL     1      25.543  39.838  19.316  1.00  0.00     0.015 C 
HETATM   16  C28 UNL     1      24.462  41.984  19.223  1.00  0.00     0.009 C 
HETATM   17  C29 UNL     1      23.577  42.026  20.387  1.00  0.00     0.002 C 
HETATM   18  C30 UNL     1      22.915  40.684  20.759  1.00  0.00     0.015 C 
HETATM   19  C31 UNL     1      22.249  40.145  19.603  1.00  0.00     0.030 A 
ENDROOT
BRANCH   1  20
HETATM   20  O1  UNL     1      21.048  37.607  16.904  1.00  0.00    -0.381 OA
BRANCH  20  21
HETATM   21  C10 UNL     1      21.237  36.392  16.435  1.00  0.00     0.168 C 
BRANCH  21  22
HETATM   22  C9  UNL     1      20.861  35.164  17.166  1.00  0.00     0.026 C 
BRANCH  22  23
HETATM   23  C8  UNL     1      19.419  34.815  17.226  1.00  0.00     0.002 C 
BRANCH  23  24
HETATM   24  C7  UNL     1      18.906  33.625  16.557  1.00  0.00     0.000 C 
BRANCH  24  25
HETATM   25  C6  UNL     1      18.896  33.481  15.097  1.00  0.00     0.000 C 
BRANCH  25  26
HETATM   26  C5  UNL     1      17.750  32.452  14.790  1.00  0.00     0.000 C 
BRANCH  26  27
HETATM   27  C4  UNL     1      17.054  32.091  16.039  1.00  0.00     0.000 C 
BRANCH  27  28
HETATM   28  C3  UNL     1      15.617  32.454  16.125  1.00  0.00    -0.000 C 
BRANCH  28  29
HETATM   29  C2  UNL     1      15.235  33.831  16.485  1.00  0.00    -0.005 C 
HETATM   30  C1  UNL     1      15.263  34.206  17.925  1.00  0.00     0.005 C 
ENDBRANCH  28  29
ENDBRANCH  27  28
ENDBRANCH  26  27
ENDBRANCH  25  26
ENDBRANCH  24  25
ENDBRANCH  23  24
ENDBRANCH  22  23
ENDBRANCH  21  22
ENDBRANCH  20  21
ENDBRANCH   1  20
BRANCH   2  31
HETATM   31  O2  UNL     1      19.757  39.218  15.595  1.00  0.00    -0.370 OA
ATOM     32  H2  UNL     1      19.048  39.801  15.838  1.00  0.00     0.212 HD
ENDBRANCH   2  31
BRANCH   2  33
HETATM   33  C13 UNL     1      21.480  40.473  14.873  1.00  0.00     0.220 C 
HETATM   34  O3  UNL     1      21.309  39.868  13.792  1.00  0.00    -0.645 OA
HETATM   35  O4  UNL     1      22.187  41.667  14.860  1.00  0.00    -0.645 OA
ENDBRANCH   2  33
BRANCH   9  36
HETATM   36  C21 UNL     1      22.068  37.608  19.971  1.00  0.00     0.191 C 
HETATM   37  O9  UNL     1      21.069  36.808  20.086  1.00  0.00    -0.647 OA
HETATM   38  O10 UNL     1      23.197  37.140  20.600  1.00  0.00    -0.647 OA
ENDBRANCH   9  36
BRANCH   6  39
HETATM   39  O6  UNL     1      20.187  41.160  20.543  1.00  0.00    -0.301 OA
BRANCH  39  40
HETATM   40  C17 UNL     1      18.943  41.460  20.869  1.00  0.00     0.256 C 
HETATM   41  C18 UNL     1      17.895  42.001  19.935  1.00  0.00     0.126 C 
HETATM   42  O7  UNL     1      18.575  41.291  22.044  1.00  0.00    -0.266 OA
ENDBRANCH  39  40
ENDBRANCH   6  39
TORSDOF 15
ENDMDL
MODEL 2
REMARK VINA RESULT: -4.784391669      2.530      5.500
REMARK  15 active torsions:
REMARK  status: ('A' for Active; 'I' for Inactive)
REMARK    1  A    between atoms: C2_2  and  C3_3 
REMARK    2  A    between atoms: C3_3  and  C4_4 
REMARK    3  A    between atoms: C4_4  and  C5_5 
REMARK    4  A    between atoms: C5_5  and  C6_6 
REMARK    5  A    between atoms: C6_6  and  C7_7 
REMARK    6  A    between atoms: C7_7  and  C8_8 
REMARK    7  A    between atoms: C8_8  and  C9_9 
REMARK    8  A    between atoms: C9_9  and  C10_10 
REMARK    9  A    between atoms: C10_10  and  O1_11 
REMARK   10  A    between atoms: O1_11  and  C11_12 
REMARK   11  A    between atoms: C12_13  and  O2_14 
REMARK   12  A    between atoms: C12_13  and  C13_16 
REMARK   13  A    between atoms: C16_22  and  O6_23 
REMARK   14  A    between atoms: O6_23  and  C17_24 
REMARK   15  A    between atoms: C20_29  and  C21_30 
ROOT
HETATM    1  C11 UNL     1      21.398  38.314  19.365  1.00  0.00     0.184 C 
HETATM    2  C12 UNL     1      22.576  39.186  19.105  1.00  0.00     0.233 C 
HETATM    3  C14 UNL     1      22.663  39.930  17.858  1.00  0.00     0.178 C 
HETATM    4  O5  UNL     1      23.861  40.079  17.567  1.00  0.00    -0.294 OA
HETATM    5  C15 UNL     1      21.794  40.551  16.848  1.00  0.00     0.130 C 
HETATM    6  C16 UNL     1      20.779  39.604  16.221  1.00  0.00     0.148 A 
HETATM    7  C19 UNL     1      21.030  38.232  16.633  1.00  0.00     0.184 A 
HETATM    8  O8  UNL     1      21.977  37.506  16.337  1.00  0.00    -0.293 OA
HETATM    9  C20 UNL     1      19.769  38.256  17.411  1.00  0.00     0.133 A 
HETATM   10  C22 UNL     1      20.033  38.691  18.869  1.00  0.00     0.017 C 
HETATM   11  C23 UNL     1      19.094  37.800  19.721  1.00  0.00     0.020 C 
HETATM   12  C24 UNL     1      19.582  39.993  18.510  1.00  0.00     0.019 C 
HETATM   13  C25 UNL     1      18.423  40.750  19.002  1.00  0.00    -0.042 C 
HETATM   14  C26 UNL     1      18.798  41.357  20.378  1.00  0.00     0.015 C 
HETATM   15  C27 UNL     1      17.068  40.319  19.164  1.00  0.00     0.015 C 
HETATM   16  C28 UNL     1      18.389  42.042  18.129  1.00  0.00     0.009 C 
HETATM   17  C29 UNL     1      18.382  41.734  16.700  1.00  0.00     0.002 C 
HETATM   18  C30 UNL     1      18.402  40.233  16.350  1.00  0.00     0.015 C 
HETATM   19  C31 UNL     1      19.504  39.602  17.025  1.00  0.00     0.030 A 
ENDROOT
BRANCH   1  20
HETATM   20  O1  UNL     1      21.550  37.016  19.099  1.00  0.00    -0.381 OA
BRANCH  20  21
HETATM   21  C10 UNL     1      21.816  35.990  19.879  1.00  0.00     0.168 C 
BRANCH  21  22
HETATM   22  C9  UNL     1      21.838  34.589  19.412  1.00  0.00     0.026 C 
BRANCH  22  23
HETATM   23  C8  UNL     1      21.775  34.353  17.948  1.00  0.00     0.002 C 
BRANCH  23  24
HETATM   24  C7  UNL     1      22.620  33.348  17.312  1.00  0.00     0.000 C 
BRANCH  24  25
HETATM   25  C6  UNL     1      22.090  32.336  16.392  1.00  0.00     0.000 C 
BRANCH  25  26
HETATM   26  C5  UNL     1      23.038  32.375  15.142  1.00  0.00     0.000 C 
BRANCH  26  27
HETATM   27  C4  UNL     1      22.729  31.246  14.244  1.00  0.00     0.000 C 
BRANCH  27  28
HETATM   28  C3  UNL     1      21.631  31.458  13.267  1.00  0.00    -0.000 C 
BRANCH  28  29
HETATM   29  C2  UNL     1      21.342  30.420  12.261  1.00  0.00    -0.005 C 
HETATM   30  C1  UNL     1      21.991  29.091  12.429  1.00  0.00     0.005 C 
ENDBRANCH  28  29
ENDBRANCH  27  28
ENDBRANCH  26  27
ENDBRANCH  25  26
ENDBRANCH  24  25
ENDBRANCH  23  24
ENDBRANCH  22  23
ENDBRANCH  21  22
ENDBRANCH  20  21
ENDBRANCH   1  20
BRANCH   2  31
HETATM   31  O2  UNL     1      23.657  38.252  19.042  1.00  0.00    -0.370 OA
ATOM     32  H2  UNL     1      24.381  38.739  19.420  1.00  0.00     0.212 HD
ENDBRANCH   2  31
BRANCH   2  33
HETATM   33  C13 UNL     1      23.010  40.015  20.283  1.00  0.00     0.220 C 
HETATM   34  O3  UNL     1      22.208  40.851  20.753  1.00  0.00    -0.645 OA
HETATM   35  O4  UNL     1      24.260  39.892  20.871  1.00  0.00    -0.645 OA
ENDBRANCH   2  33
BRANCH   9  36
HETATM   36  C21 UNL     1      18.916  37.108  17.228  1.00  0.00     0.191 C 
HETATM   37  O9  UNL     1      17.669  37.331  17.010  1.00  0.00    -0.647 OA
HETATM   38  O10 UNL     1      19.220  35.768  17.250  1.00  0.00    -0.647 OA
ENDBRANCH   9  36
BRANCH   6  39
HETATM   39  O6  UNL     1      20.737  39.881  14.888  1.00  0.00    -0.301 OA
BRANCH  39  40
HETATM   40  C17 UNL     1      21.612  39.954  13.900  1.00  0.00     0.256 C 
HETATM   41  C18 UNL     1      22.634  41.040  13.710  1.00  0.00     0.126 C 
HETATM   42  O7  UNL     1      21.613  39.060  13.036  1.00  0.00    -0.266 OA
ENDBRANCH  39  40
ENDBRANCH   6  39
TORSDOF 15
ENDMDL
MODEL 3
REMARK VINA RESULT: -4.697084013      1.811      4.840
REMARK  15 active torsions:
REMARK  status: ('A' for Active; 'I' for Inactive)
REMARK    1  A    between atoms: C2_2  and  C3_3 
REMARK    2  A    between atoms: C3_3  and  C4_4 
REMARK    3  A    between atoms: C4_4  and  C5_5 
REMARK    4  A    between atoms: C5_5  and  C6_6 
REMARK    5  A    between atoms: C6_6  and  C7_7 
REMARK    6  A    between atoms: C7_7  and  C8_8 
REMARK    7  A    between atoms: C8_8  and  C9_9 
REMARK    8  A    between atoms: C9_9  and  C10_10 
REMARK    9  A    between atoms: C10_10  and  O1_11 
REMARK   10  A    between atoms: O1_11  and  C11_12 
REMARK   11  A    between atoms: C12_13  and  O2_14 
REMARK   12  A    between atoms: C12_13  and  C13_16 
REMARK   13  A    between atoms: C16_22  and  O6_23 
REMARK   14  A    between atoms: O6_23  and  C17_24 
REMARK   15  A    between atoms: C20_29  and  C21_30 
ROOT
HETATM    1  C11 UNL     1      20.706  36.989  17.895  1.00  0.00     0.184 C 
HETATM    2  C12 UNL     1      21.489  36.668  19.120  1.00  0.00     0.233 C 
HETATM    3  C14 UNL     1      22.307  37.697  19.745  1.00  0.00     0.178 C 
HETATM    4  O5  UNL     1      23.270  37.151  20.307  1.00  0.00    -0.294 OA
HETATM    5  C15 UNL     1      22.352  39.155  19.919  1.00  0.00     0.130 C 
HETATM    6  C16 UNL     1      22.340  39.946  18.616  1.00  0.00     0.148 A 
HETATM    7  C19 UNL     1      22.479  39.059  17.473  1.00  0.00     0.184 A 
HETATM    8  O8  UNL     1      23.459  38.401  17.131  1.00  0.00    -0.293 OA
HETATM    9  C20 UNL     1      21.084  39.371  17.085  1.00  0.00     0.133 A 
HETATM   10  C22 UNL     1      20.103  38.347  17.697  1.00  0.00     0.017 C 
HETATM   11  C23 UNL     1      19.047  38.103  16.589  1.00  0.00     0.020 C 
HETATM   12  C24 UNL     1      19.808  39.308  18.706  1.00  0.00     0.019 C 
HETATM   13  C25 UNL     1      18.540  39.984  19.012  1.00  0.00    -0.042 C 
HETATM   14  C26 UNL     1      17.657  38.998  19.819  1.00  0.00     0.015 C 
HETATM   15  C27 UNL     1      17.624  40.630  18.122  1.00  0.00     0.015 C 
HETATM   16  C28 UNL     1      18.894  41.014  20.128  1.00  0.00     0.009 C 
HETATM   17  C29 UNL     1      19.995  41.890  19.731  1.00  0.00     0.002 C 
HETATM   18  C30 UNL     1      20.568  41.631  18.323  1.00  0.00     0.015 C 
HETATM   19  C31 UNL     1      20.921  40.241  18.201  1.00  0.00     0.030 A 
ENDROOT
BRANCH   1  20
HETATM   20  O1  UNL     1      21.262  36.651  16.731  1.00  0.00    -0.381 OA
BRANCH  20  21
HETATM   21  C10 UNL     1      21.274  35.515  16.067  1.00  0.00     0.168 C 
BRANCH  21  22
HETATM   22  C9  UNL     1      20.531  34.310  16.488  1.00  0.00     0.026 C 
BRANCH  22  23
HETATM   23  C8  UNL     1      19.633  33.674  15.492  1.00  0.00     0.002 C 
BRANCH  23  24
HETATM   24  C7  UNL     1      18.196  33.583  15.725  1.00  0.00     0.000 C 
BRANCH  24  25
HETATM   25  C6  UNL     1      17.205  34.015  14.733  1.00  0.00     0.000 C 
BRANCH  25  26
HETATM   26  C5  UNL     1      16.438  35.207  15.406  1.00  0.00     0.000 C 
BRANCH  26  27
HETATM   27  C4  UNL     1      16.378  35.004  16.866  1.00  0.00     0.000 C 
BRANCH  27  28
HETATM   28  C3  UNL     1      16.236  36.224  17.700  1.00  0.00    -0.000 C 
BRANCH  28  29
HETATM   29  C2  UNL     1      14.976  36.466  18.426  1.00  0.00    -0.005 C 
HETATM   30  C1  UNL     1      13.792  35.644  18.056  1.00  0.00     0.005 C 
ENDBRANCH  28  29
ENDBRANCH  27  28
ENDBRANCH  26  27
ENDBRANCH  25  26
ENDBRANCH  24  25
ENDBRANCH  23  24
ENDBRANCH  22  23
ENDBRANCH  21  22
ENDBRANCH  20  21
ENDBRANCH   1  20
BRANCH   2  31
HETATM   31  O2  UNL     1      22.429  35.696  18.655  1.00  0.00    -0.370 OA
ATOM     32  H2  UNL     1      23.260  36.043  18.956  1.00  0.00     0.212 HD
ENDBRANCH   2  31
BRANCH   2  33
HETATM   33  C13 UNL     1      20.744  35.849  20.139  1.00  0.00     0.220 C 
HETATM   34  O3  UNL     1      19.539  35.589  19.931  1.00  0.00    -0.645 OA
HETATM   35  O4  UNL     1      21.335  35.370  21.299  1.00  0.00    -0.645 OA
ENDBRANCH   2  33
BRANCH   9  36
HETATM   36  C21 UNL     1      20.893  39.689  15.692  1.00  0.00     0.191 C 
HETATM   37  O9  UNL     1      19.998  40.565  15.405  1.00  0.00    -0.647 OA
HETATM   38  O10 UNL     1      21.527  39.194  14.577  1.00  0.00    -0.647 OA
ENDBRANCH   9  36
BRANCH   6  39
HETATM   39  O6  UNL     1      23.231  40.967  18.755  1.00  0.00    -0.301 OA
BRANCH  39  40
HETATM   40  C17 UNL     1      24.416  41.273  18.261  1.00  0.00     0.256 C 
HETATM   41  C18 UNL     1      24.669  42.042  16.994  1.00  0.00     0.126 C 
HETATM   42  O7  UNL     1      25.433  40.907  18.875  1.00  0.00    -0.266 OA
ENDBRANCH  39  40
ENDBRANCH   6  39
TORSDOF 15
ENDMDL
MODEL 4
REMARK VINA RESULT: -4.609448194      1.705      4.788
REMARK  15 active torsions:
REMARK  status: ('A' for Active; 'I' for Inactive)
REMARK    1  A    between atoms: C2_2  and  C3_3 
REMARK    2  A    between atoms: C3_3  and  C4_4 
REMARK    3  A    between atoms: C4_4  and  C5_5 
REMARK    4  A    between atoms: C5_5  and  C6_6 
REMARK    5  A    between atoms: C6_6  and  C7_7 
REMARK    6  A    between atoms: C7_7  and  C8_8 
REMARK    7  A    between atoms: C8_8  and  C9_9 
REMARK    8  A    between atoms: C9_9  and  C10_10 
REMARK    9  A    between atoms: C10_10  and  O1_11 
REMARK   10  A    between atoms: O1_11  and  C11_12 
REMARK   11  A    between atoms: C12_13  and  O2_14 
REMARK   12  A    between atoms: C12_13  and  C13_16 
REMARK   13  A    between atoms: C16_22  and  O6_23 
REMARK   14  A    between atoms: O6_23  and  C17_24 
REMARK   15  A    between atoms: C20_29  and  C21_30 
ROOT
HETATM    1  C11 UNL     1      20.707  37.036  17.931  1.00  0.00     0.184 C 
HETATM    2  C12 UNL     1      21.487  36.682  19.149  1.00  0.00     0.233 C 
HETATM    3  C14 UNL     1      22.352  37.676  19.766  1.00  0.00     0.178 C 
HETATM    4  O5  UNL     1      23.298  37.090  20.319  1.00  0.00    -0.294 OA
HETATM    5  C15 UNL     1      22.460  39.130  19.940  1.00  0.00     0.130 C 
HETATM    6  C16 UNL     1      22.469  39.922  18.637  1.00  0.00     0.148 A 
HETATM    7  C19 UNL     1      22.560  39.030  17.492  1.00  0.00     0.184 A 
HETATM    8  O8  UNL     1      23.509  38.332  17.142  1.00  0.00    -0.293 OA
HETATM    9  C20 UNL     1      21.176  39.400  17.117  1.00  0.00     0.133 A 
HETATM   10  C22 UNL     1      20.159  38.418  17.739  1.00  0.00     0.017 C 
HETATM   11  C23 UNL     1      19.084  38.218  16.641  1.00  0.00     0.020 C 
HETATM   12  C24 UNL     1      19.914  39.390  18.750  1.00  0.00     0.019 C 
HETATM   13  C25 UNL     1      18.677  40.118  19.068  1.00  0.00    -0.042 C 
HETATM   14  C26 UNL     1      17.762  39.169  19.883  1.00  0.00     0.015 C 
HETATM   15  C27 UNL     1      17.781  40.802  18.187  1.00  0.00     0.015 C 
HETATM   16  C28 UNL     1      19.084  41.132  20.181  1.00  0.00     0.009 C 
HETATM   17  C29 UNL     1      20.218  41.961  19.774  1.00  0.00     0.002 C 
HETATM   18  C30 UNL     1      20.766  41.679  18.360  1.00  0.00     0.015 C 
HETATM   19  C31 UNL     1      21.060  40.276  18.236  1.00  0.00     0.030 A 
ENDROOT
BRANCH   1  20
HETATM   20  O1  UNL     1      21.238  36.675  16.762  1.00  0.00    -0.381 OA
BRANCH  20  21
HETATM   21  C10 UNL     1      21.220  35.532  16.111  1.00  0.00     0.168 C 
BRANCH  21  22
HETATM   22  C9  UNL     1      20.321  34.409  16.449  1.00  0.00     0.026 C 
BRANCH  22  23
HETATM   23  C8  UNL     1      19.945  33.478  15.355  1.00  0.00     0.002 C 
BRANCH  23  24
HETATM   24  C7  UNL     1      19.273  32.215  15.642  1.00  0.00     0.000 C 
BRANCH  24  25
HETATM   25  C6  UNL     1      18.082  32.129  16.493  1.00  0.00     0.000 C 
BRANCH  25  26
HETATM   26  C5  UNL     1      16.867  32.066  15.501  1.00  0.00     0.000 C 
BRANCH  26  27
HETATM   27  C4  UNL     1      15.945  33.186  15.767  1.00  0.00     0.000 C 
BRANCH  27  28
HETATM   28  C3  UNL     1      16.358  34.519  15.260  1.00  0.00    -0.000 C 
BRANCH  28  29
HETATM   29  C2  UNL     1      16.381  35.672  16.178  1.00  0.00    -0.005 C 
HETATM   30  C1  UNL     1      16.836  35.436  17.576  1.00  0.00     0.005 C 
ENDBRANCH  28  29
ENDBRANCH  27  28
ENDBRANCH  26  27
ENDBRANCH  25  26
ENDBRANCH  24  25
ENDBRANCH  23  24
ENDBRANCH  22  23
ENDBRANCH  21  22
ENDBRANCH  20  21
ENDBRANCH   1  20
BRANCH   2  31
HETATM   31  O2  UNL     1      22.381  35.672  18.675  1.00  0.00    -0.370 OA
ATOM     32  H2  UNL     1      23.141  36.172  18.400  1.00  0.00     0.212 HD
ENDBRANCH   2  31
BRANCH   2  33
HETATM   33  C13 UNL     1      20.718  35.895  20.174  1.00  0.00     0.220 C 
HETATM   34  O3  UNL     1      19.508  35.659  19.963  1.00  0.00    -0.645 OA
HETATM   35  O4  UNL     1      21.292  35.418  21.344  1.00  0.00    -0.645 OA
ENDBRANCH   2  33
BRANCH   9  36
HETATM   36  C21 UNL     1      20.986  39.726  15.726  1.00  0.00     0.191 C 
HETATM   37  O9  UNL     1      20.127  40.641  15.449  1.00  0.00    -0.647 OA
HETATM   38  O10 UNL     1      21.585  39.204  14.605  1.00  0.00    -0.647 OA
ENDBRANCH   9  36
BRANCH   6  39
HETATM   39  O6  UNL     1      23.403  40.905  18.768  1.00  0.00    -0.301 OA
BRANCH  39  40
HETATM   40  C17 UNL     1      24.686  41.045  18.492  1.00  0.00     0.256 C 
HETATM   41  C18 UNL     1      25.824  40.458  19.282  1.00  0.00     0.126 C 
HETATM   42  O7  UNL     1      25.015  41.716  17.499  1.00  0.00    -0.266 OA
ENDBRANCH  39  40
ENDBRANCH   6  39
TORSDOF 15
ENDMDL
MODEL 5
REMARK VINA RESULT: -4.592828472      2.132      5.061
REMARK  15 active torsions:
REMARK  status: ('A' for Active; 'I' for Inactive)
REMARK    1  A    between atoms: C2_2  and  C3_3 
REMARK    2  A    between atoms: C3_3  and  C4_4 
REMARK    3  A    between atoms: C4_4  and  C5_5 
REMARK    4  A    between atoms: C5_5  and  C6_6 
REMARK    5  A    between atoms: C6_6  and  C7_7 
REMARK    6  A    between atoms: C7_7  and  C8_8 
REMARK    7  A    between atoms: C8_8  and  C9_9 
REMARK    8  A    between atoms: C9_9  and  C10_10 
REMARK    9  A    between atoms: C10_10  and  O1_11 
REMARK   10  A    between atoms: O1_11  and  C11_12 
REMARK   11  A    between atoms: C12_13  and  O2_14 
REMARK   12  A    between atoms: C12_13  and  C13_16 
REMARK   13  A    between atoms: C16_22  and  O6_23 
REMARK   14  A    between atoms: O6_23  and  C17_24 
REMARK   15  A    between atoms: C20_29  and  C21_30 
ROOT
HETATM    1  C11 UNL     1      20.885  37.212  17.851  1.00  0.00     0.184 C 
HETATM    2  C12 UNL     1      21.601  36.808  19.091  1.00  0.00     0.233 C 
HETATM    3  C14 UNL     1      22.421  37.779  19.800  1.00  0.00     0.178 C 
HETATM    4  O5  UNL     1      23.340  37.175  20.377  1.00  0.00    -0.294 OA
HETATM    5  C15 UNL     1      22.504  39.225  20.047  1.00  0.00     0.130 C 
HETATM    6  C16 UNL     1      22.575  40.077  18.785  1.00  0.00     0.148 A 
HETATM    7  C19 UNL     1      22.738  39.240  17.607  1.00  0.00     0.184 A 
HETATM    8  O8  UNL     1      23.712  38.566  17.277  1.00  0.00    -0.293 OA
HETATM    9  C20 UNL     1      21.372  39.616  17.174  1.00  0.00     0.133 A 
HETATM   10  C22 UNL     1      20.333  38.598  17.693  1.00  0.00     0.017 C 
HETATM   11  C23 UNL     1      19.322  38.441  16.529  1.00  0.00     0.020 C 
HETATM   12  C24 UNL     1      20.023  39.520  18.733  1.00  0.00     0.019 C 
HETATM   13  C25 UNL     1      18.764  40.222  19.016  1.00  0.00    -0.042 C 
HETATM   14  C26 UNL     1      17.815  39.229  19.734  1.00  0.00     0.015 C 
HETATM   15  C27 UNL     1      17.910  40.939  18.119  1.00  0.00     0.015 C 
HETATM   16  C28 UNL     1      19.099  41.186  20.194  1.00  0.00     0.009 C 
HETATM   17  C29 UNL     1      20.244  42.042  19.889  1.00  0.00     0.002 C 
HETATM   18  C30 UNL     1      20.871  41.831  18.497  1.00  0.00     0.015 C 
HETATM   19  C31 UNL     1      21.187  40.438  18.323  1.00  0.00     0.030 A 
ENDROOT
BRANCH   1  20
HETATM   20  O1  UNL     1      21.482  36.911  16.697  1.00  0.00    -0.381 OA
BRANCH  20  21
HETATM   21  C10 UNL     1      21.606  35.772  16.049  1.00  0.00     0.168 C 
BRANCH  21  22
HETATM   22  C9  UNL     1      20.753  34.591  16.296  1.00  0.00     0.026 C 
BRANCH  22  23
HETATM   23  C8  UNL     1      21.415  33.263  16.334  1.00  0.00     0.002 C 
BRANCH  23  24
HETATM   24  C7  UNL     1      22.776  33.088  15.840  1.00  0.00     0.000 C 
BRANCH  24  25
HETATM   25  C6  UNL     1      23.071  32.685  14.461  1.00  0.00     0.000 C 
BRANCH  25  26
HETATM   26  C5  UNL     1      22.463  31.245  14.310  1.00  0.00     0.000 C 
BRANCH  26  27
HETATM   27  C4  UNL     1      21.713  31.148  13.044  1.00  0.00     0.000 C 
BRANCH  27  28
HETATM   28  C3  UNL     1      20.237  31.033  13.155  1.00  0.00    -0.000 C 
BRANCH  28  29
HETATM   29  C2  UNL     1      19.426  32.247  13.359  1.00  0.00    -0.005 C 
HETATM   30  C1  UNL     1      18.258  32.156  14.277  1.00  0.00     0.005 C 
ENDBRANCH  28  29
ENDBRANCH  27  28
ENDBRANCH  26  27
ENDBRANCH  25  26
ENDBRANCH  24  25
ENDBRANCH  23  24
ENDBRANCH  22  23
ENDBRANCH  21  22
ENDBRANCH  20  21
ENDBRANCH   1  20
BRANCH   2  31
HETATM   31  O2  UNL     1      22.530  35.829  18.621  1.00  0.00    -0.370 OA
ATOM     32  H2  UNL     1      23.367  36.268  18.712  1.00  0.00     0.212 HD
ENDBRANCH   2  31
BRANCH   2  33
HETATM   33  C13 UNL     1      20.785  35.968  20.036  1.00  0.00     0.220 C 
HETATM   34  O3  UNL     1      19.586  35.748  19.757  1.00  0.00    -0.645 OA
HETATM   35  O4  UNL     1      21.305  35.424  21.202  1.00  0.00    -0.645 OA
ENDBRANCH   2  33
BRANCH   9  36
HETATM   36  C21 UNL     1      21.255  40.005  15.791  1.00  0.00     0.191 C 
HETATM   37  O9  UNL     1      20.804  41.184  15.548  1.00  0.00    -0.647 OA
HETATM   38  O10 UNL     1      21.551  39.304  14.646  1.00  0.00    -0.647 OA
ENDBRANCH   9  36
BRANCH   6  39
HETATM   39  O6  UNL     1      23.490  41.060  19.012  1.00  0.00    -0.301 OA
BRANCH  39  40
HETATM   40  C17 UNL     1      24.619  41.175  19.687  1.00  0.00     0.256 C 
HETATM   41  C18 UNL     1      25.904  40.456  19.380  1.00  0.00     0.126 C 
HETATM   42  O7  UNL     1      24.654  41.938  20.668  1.00  0.00    -0.266 OA
ENDBRANCH  39  40
ENDBRANCH   6  39
TORSDOF 15
ENDMDL
