MODEL 1
REMARK VINA RESULT: -7.062899064      0.000      0.000
REMARK  10 active torsions:
REMARK  status: ('A' for Active; 'I' for Inactive)
REMARK    1  A    between atoms: C2_2  and  O2_4 
REMARK    2  A    between atoms: O2_4  and  C3_5 
REMARK    3  A    between atoms: C3_5  and  C4_6 
REMARK    4  A    between atoms: C4_6  and  C5_7 
REMARK    5  A    between atoms: C5_7  and  C6_8 
REMARK    6  A    between atoms: C6_8  and  C7_9 
REMARK    7  A    between atoms: C10_12  and  C11_13 
REMARK    8  A    between atoms: C11_13  and  O3_14 
REMARK    9  A    between atoms: C12_16  and  O4_17 
REMARK   10  A    between atoms: C13_19  and  O5_20 
ROOT
HETATM    1  C7  UNL     1      46.745  59.854   4.631  1.00  0.00     0.106 C 
HETATM    2  C8  UNL     1      46.083  58.981   3.670  1.00  0.00     0.037 C 
HETATM    3  C9  UNL     1      45.025  57.913   3.705  1.00  0.00     0.016 C 
HETATM    4  C10 UNL     1      43.899  57.701   4.684  1.00  0.00    -0.004 C 
HETATM    5  C12 UNL     1      43.928  58.088   6.185  1.00  0.00     0.188 C 
HETATM    6  C13 UNL     1      45.103  58.430   7.029  1.00  0.00     0.123 C 
HETATM    7  C14 UNL     1      45.964  59.631   7.270  1.00  0.00     0.079 C 
HETATM    8  C15 UNL     1      47.018  59.854   6.132  1.00  0.00     0.164 C 
HETATM    9  O6  UNL     1      47.297  58.694   6.097  1.00  0.00    -0.366 OA
HETATM   10  C16 UNL     1      45.858  58.533   5.847  1.00  0.00     0.117 C 
HETATM   11  C17 UNL     1      46.157  57.184   5.676  1.00  0.00     0.058 C 
HETATM   12  C18 UNL     1      46.747  56.586   4.444  1.00  0.00     0.098 C 
HETATM   13  N1  UNL     1      45.741  56.624   3.444  1.00  0.00    -0.287 NA
HETATM   14  C19 UNL     1      46.295  56.641   2.114  1.00  0.00     0.116 C 
HETATM   15  C20 UNL     1      45.140  59.774   5.443  1.00  0.00     0.210 C 
HETATM   16  O7  UNL     1      45.893  60.899   4.999  1.00  0.00    -0.370 OA
ENDROOT
BRANCH   1  17
HETATM   17  C6  UNL     1      47.893  60.519   3.998  1.00  0.00     0.045 C 
BRANCH  17  18
HETATM   18  C5  UNL     1      48.583  59.874   2.865  1.00  0.00     0.006 C 
BRANCH  18  19
HETATM   19  C4  UNL     1      49.911  59.329   3.420  1.00  0.00     0.027 C 
BRANCH  19  20
HETATM   20  C3  UNL     1      49.850  57.858   3.640  1.00  0.00     0.178 C 
BRANCH  20  21
HETATM   21  O2  UNL     1      50.247  57.506   4.927  1.00  0.00    -0.322 OA
BRANCH  21  22
HETATM   22  C2  UNL     1      50.438  56.218   5.357  1.00  0.00     0.254 C 
HETATM   23  C1  UNL     1      51.379  55.359   4.556  1.00  0.00     0.126 C 
HETATM   24  O1  UNL     1      49.846  55.787   6.376  1.00  0.00    -0.266 OA
ENDBRANCH  21  22
ENDBRANCH  20  21
ENDBRANCH  19  20
ENDBRANCH  18  19
ENDBRANCH  17  18
ENDBRANCH   1  17
BRANCH   4  25
HETATM   25  C11 UNL     1      42.483  57.854   4.170  1.00  0.00     0.203 C 
BRANCH  25  26
HETATM   26  O3  UNL     1      41.647  56.793   4.299  1.00  0.00    -0.397 OA
ATOM     27  H3  UNL     1      41.843  56.012   3.793  1.00  0.00     0.209 HD
ENDBRANCH  25  26
ENDBRANCH   4  25
BRANCH   6  28
HETATM   28  O5  UNL     1      45.354  57.424   7.979  1.00  0.00    -0.384 OA
ATOM     29  H5  UNL     1      45.916  56.747   7.619  1.00  0.00     0.210 HD
ENDBRANCH   6  28
BRANCH   5  30
HETATM   30  O4  UNL     1      43.270  57.039   6.883  1.00  0.00    -0.388 OA
ATOM     31  H4  UNL     1      43.948  56.548   7.331  1.00  0.00     0.210 HD
ENDBRANCH   5  30
TORSDOF 10
ENDMDL
MODEL 2
REMARK VINA RESULT: -7.043410924      1.791      5.590
REMARK  10 active torsions:
REMARK  status: ('A' for Active; 'I' for Inactive)
REMARK    1  A    between atoms: C2_2  and  O2_4 
REMARK    2  A    between atoms: O2_4  and  C3_5 
REMARK    3  A    between atoms: C3_5  and  C4_6 
REMARK    4  A    between atoms: C4_6  and  C5_7 
REMARK    5  A    between atoms: C5_7  and  C6_8 
REMARK    6  A    between atoms: C6_8  and  C7_9 
REMARK    7  A    between atoms: C10_12  and  C11_13 
REMARK    8  A    between atoms: C11_13  and  O3_14 
REMARK    9  A    between atoms: C12_16  and  O4_17 
REMARK   10  A    between atoms: C13_19  and  O5_20 
ROOT
HETATM    1  C7  UNL     1      45.751  58.524   4.533  1.00  0.00     0.106 C 
HETATM    2  C8  UNL     1      46.306  57.394   3.799  1.00  0.00     0.037 C 
HETATM    3  C9  UNL     1      47.671  56.817   3.542  1.00  0.00     0.016 C 
HETATM    4  C10 UNL     1      48.930  56.913   4.364  1.00  0.00    -0.004 C 
HETATM    5  C12 UNL     1      49.319  58.103   5.278  1.00  0.00     0.188 C 
HETATM    6  C13 UNL     1      48.746  59.474   5.304  1.00  0.00     0.123 C 
HETATM    7  C14 UNL     1      47.536  60.143   5.878  1.00  0.00     0.079 C 
HETATM    8  C15 UNL     1      46.244  59.878   5.033  1.00  0.00     0.164 C 
HETATM    9  O6  UNL     1      46.819  60.066   4.005  1.00  0.00    -0.366 OA
HETATM   10  C16 UNL     1      47.696  58.996   4.500  1.00  0.00     0.117 C 
HETATM   11  C17 UNL     1      48.323  59.096   3.261  1.00  0.00     0.058 C 
HETATM   12  C18 UNL     1      47.813  58.505   1.991  1.00  0.00     0.098 C 
HETATM   13  N1  UNL     1      47.964  57.098   2.101  1.00  0.00    -0.287 NA
HETATM   14  C19 UNL     1      47.028  56.384   1.270  1.00  0.00     0.116 C 
HETATM   15  C20 UNL     1      47.143  58.189   5.623  1.00  0.00     0.210 C 
HETATM   16  O7  UNL     1      45.748  58.254   5.904  1.00  0.00    -0.370 OA
ENDROOT
BRANCH   1  17
HETATM   17  C6  UNL     1      44.332  58.697   4.188  1.00  0.00     0.045 C 
BRANCH  17  18
HETATM   18  C5  UNL     1      43.309  58.680   5.250  1.00  0.00     0.006 C 
BRANCH  18  19
HETATM   19  C4  UNL     1      42.214  57.706   4.782  1.00  0.00     0.027 C 
BRANCH  19  20
HETATM   20  C3  UNL     1      42.203  57.566   3.300  1.00  0.00     0.178 C 
BRANCH  20  21
HETATM   21  O2  UNL     1      41.941  56.258   2.902  1.00  0.00    -0.322 OA
BRANCH  21  22
HETATM   22  C2  UNL     1      42.349  55.711   1.713  1.00  0.00     0.254 C 
HETATM   23  C1  UNL     1      42.950  56.645   0.697  1.00  0.00     0.126 C 
HETATM   24  O1  UNL     1      42.221  54.483   1.494  1.00  0.00    -0.266 OA
ENDBRANCH  21  22
ENDBRANCH  20  21
ENDBRANCH  19  20
ENDBRANCH  18  19
ENDBRANCH  17  18
ENDBRANCH   1  17
BRANCH   4  25
HETATM   25  C11 UNL     1      49.470  55.635   4.971  1.00  0.00     0.203 C 
BRANCH  25  26
HETATM   26  O3  UNL     1      49.792  55.651   6.290  1.00  0.00    -0.397 OA
ATOM     27  H3  UNL     1      49.098  55.837   6.912  1.00  0.00     0.209 HD
ENDBRANCH  25  26
ENDBRANCH   4  25
BRANCH   6  28
HETATM   28  O5  UNL     1      49.671  60.418   4.824  1.00  0.00    -0.384 OA
ATOM     29  H5  UNL     1      49.730  61.167   5.406  1.00  0.00     0.210 HD
ENDBRANCH   6  28
BRANCH   5  30
HETATM   30  O4  UNL     1      50.718  58.294   5.115  1.00  0.00    -0.388 OA
ATOM     31  H4  UNL     1      50.834  58.730   4.279  1.00  0.00     0.210 HD
ENDBRANCH   5  30
TORSDOF 10
ENDMDL
MODEL 3
REMARK VINA RESULT: -7.030630690      1.886      3.618
REMARK  10 active torsions:
REMARK  status: ('A' for Active; 'I' for Inactive)
REMARK    1  A    between atoms: C2_2  and  O2_4 
REMARK    2  A    between atoms: O2_4  and  C3_5 
REMARK    3  A    between atoms: C3_5  and  C4_6 
REMARK    4  A    between atoms: C4_6  and  C5_7 
REMARK    5  A    between atoms: C5_7  and  C6_8 
REMARK    6  A    between atoms: C6_8  and  C7_9 
REMARK    7  A    between atoms: C10_12  and  C11_13 
REMARK    8  A    between atoms: C11_13  and  O3_14 
REMARK    9  A    between atoms: C12_16  and  O4_17 
REMARK   10  A    between atoms: C13_19  and  O5_20 
ROOT
HETATM    1  C7  UNL     1      47.035  59.321   6.312  1.00  0.00     0.106 C 
HETATM    2  C8  UNL     1      46.749  59.435   7.736  1.00  0.00     0.037 C 
HETATM    3  C9  UNL     1      45.612  59.089   8.658  1.00  0.00     0.016 C 
HETATM    4  C10 UNL     1      44.542  58.037   8.519  1.00  0.00    -0.004 C 
HETATM    5  C12 UNL     1      43.957  57.522   7.179  1.00  0.00     0.188 C 
HETATM    6  C13 UNL     1      44.065  58.132   5.827  1.00  0.00     0.123 C 
HETATM    7  C14 UNL     1      45.081  58.182   4.729  1.00  0.00     0.079 C 
HETATM    8  C15 UNL     1      46.231  59.205   5.020  1.00  0.00     0.164 C 
HETATM    9  O6  UNL     1      45.464  60.034   5.406  1.00  0.00    -0.366 OA
HETATM   10  C16 UNL     1      45.063  58.976   6.345  1.00  0.00     0.117 C 
HETATM   11  C17 UNL     1      44.239  59.949   6.905  1.00  0.00     0.058 C 
HETATM   12  C18 UNL     1      44.691  61.025   7.834  1.00  0.00     0.098 C 
HETATM   13  N1  UNL     1      45.010  60.397   9.067  1.00  0.00    -0.287 NA
HETATM   14  C19 UNL     1      45.971  61.153   9.829  1.00  0.00     0.116 C 
HETATM   15  C20 UNL     1      46.020  57.844   6.473  1.00  0.00     0.210 C 
HETATM   16  O7  UNL     1      47.351  57.999   5.987  1.00  0.00    -0.370 OA
ENDROOT
BRANCH   1  17
HETATM   17  C6  UNL     1      48.249  60.083   5.982  1.00  0.00     0.045 C 
BRANCH  17  18
HETATM   18  C5  UNL     1      48.657  60.241   4.574  1.00  0.00     0.006 C 
BRANCH  18  19
HETATM   19  C4  UNL     1      50.110  59.743   4.485  1.00  0.00     0.027 C 
BRANCH  19  20
HETATM   20  C3  UNL     1      50.173  58.284   4.202  1.00  0.00     0.178 C 
BRANCH  20  21
HETATM   21  O2  UNL     1      50.588  57.554   5.312  1.00  0.00    -0.322 OA
BRANCH  21  22
HETATM   22  C2  UNL     1      50.458  56.196   5.442  1.00  0.00     0.254 C 
HETATM   23  C1  UNL     1      51.162  55.337   4.427  1.00  0.00     0.126 C 
HETATM   24  O1  UNL     1      49.777  55.702   6.374  1.00  0.00    -0.266 OA
ENDBRANCH  21  22
ENDBRANCH  20  21
ENDBRANCH  19  20
ENDBRANCH  18  19
ENDBRANCH  17  18
ENDBRANCH   1  17
BRANCH   4  25
HETATM   25  C11 UNL     1      44.540  56.901   9.520  1.00  0.00     0.203 C 
BRANCH  25  26
HETATM   26  O3  UNL     1      44.503  55.633   9.036  1.00  0.00    -0.397 OA
ATOM     27  H3  UNL     1      44.537  54.920   9.662  1.00  0.00     0.209 HD
ENDBRANCH  25  26
ENDBRANCH   4  25
BRANCH   6  28
HETATM   28  O5  UNL     1      42.824  58.633   5.398  1.00  0.00    -0.384 OA
ATOM     29  H5  UNL     1      42.138  57.984   5.501  1.00  0.00     0.210 HD
ENDBRANCH   6  28
BRANCH   5  30
HETATM   30  O4  UNL     1      42.562  57.348   7.391  1.00  0.00    -0.388 OA
ATOM     31  H4  UNL     1      42.462  56.527   7.859  1.00  0.00     0.210 HD
ENDBRANCH   5  30
TORSDOF 10
ENDMDL
MODEL 4
REMARK VINA RESULT: -7.010944955      1.746      5.399
REMARK  10 active torsions:
REMARK  status: ('A' for Active; 'I' for Inactive)
REMARK    1  A    between atoms: C2_2  and  O2_4 
REMARK    2  A    between atoms: O2_4  and  C3_5 
REMARK    3  A    between atoms: C3_5  and  C4_6 
REMARK    4  A    between atoms: C4_6  and  C5_7 
REMARK    5  A    between atoms: C5_7  and  C6_8 
REMARK    6  A    between atoms: C6_8  and  C7_9 
REMARK    7  A    between atoms: C10_12  and  C11_13 
REMARK    8  A    between atoms: C11_13  and  O3_14 
REMARK    9  A    between atoms: C12_16  and  O4_17 
REMARK   10  A    between atoms: C13_19  and  O5_20 
ROOT
HETATM    1  C7  UNL     1      45.734  59.046   5.782  1.00  0.00     0.106 C 
HETATM    2  C8  UNL     1      45.766  57.735   5.145  1.00  0.00     0.037 C 
HETATM    3  C9  UNL     1      46.798  56.856   4.495  1.00  0.00     0.016 C 
HETATM    4  C10 UNL     1      48.289  56.797   4.709  1.00  0.00    -0.004 C 
HETATM    5  C12 UNL     1      49.186  57.991   5.120  1.00  0.00     0.188 C 
HETATM    6  C13 UNL     1      48.868  59.443   5.080  1.00  0.00     0.123 C 
HETATM    7  C14 UNL     1      48.122  60.422   5.932  1.00  0.00     0.079 C 
HETATM    8  C15 UNL     1      46.570  60.322   5.747  1.00  0.00     0.164 C 
HETATM    9  O6  UNL     1      46.668  60.243   4.560  1.00  0.00    -0.366 OA
HETATM   10  C16 UNL     1      47.522  59.090   4.881  1.00  0.00     0.117 C 
HETATM   11  C17 UNL     1      47.564  58.888   3.503  1.00  0.00     0.058 C 
HETATM   12  C18 UNL     1      46.485  58.250   2.697  1.00  0.00     0.098 C 
HETATM   13  N1  UNL     1      46.480  56.871   3.032  1.00  0.00    -0.287 NA
HETATM   14  C19 UNL     1      45.192  56.262   2.813  1.00  0.00     0.116 C 
HETATM   15  C20 UNL     1      47.401  58.578   6.273  1.00  0.00     0.210 C 
HETATM   16  O7  UNL     1      46.284  58.971   7.065  1.00  0.00    -0.370 OA
ENDROOT
BRANCH   1  17
HETATM   17  C6  UNL     1      44.342  59.464   6.000  1.00  0.00     0.045 C 
BRANCH  17  18
HETATM   18  C5  UNL     1      43.236  58.634   5.486  1.00  0.00     0.006 C 
BRANCH  18  19
HETATM   19  C4  UNL     1      42.563  57.999   6.716  1.00  0.00     0.027 C 
BRANCH  19  20
HETATM   20  C3  UNL     1      42.303  59.007   7.780  1.00  0.00     0.178 C 
BRANCH  20  21
HETATM   21  O2  UNL     1      42.637  58.531   9.044  1.00  0.00    -0.322 OA
BRANCH  21  22
HETATM   22  C2  UNL     1      43.909  58.508   9.555  1.00  0.00     0.254 C 
HETATM   23  C1  UNL     1      44.563  57.162   9.711  1.00  0.00     0.126 C 
HETATM   24  O1  UNL     1      44.491  59.573   9.874  1.00  0.00    -0.266 OA
ENDBRANCH  21  22
ENDBRANCH  20  21
ENDBRANCH  19  20
ENDBRANCH  18  19
ENDBRANCH  17  18
ENDBRANCH   1  17
BRANCH   4  25
HETATM   25  C11 UNL     1      48.862  55.529   5.307  1.00  0.00     0.203 C 
BRANCH  25  26
HETATM   26  O3  UNL     1      49.756  55.657   6.320  1.00  0.00    -0.397 OA
ATOM     27  H3  UNL     1      50.171  54.867   6.646  1.00  0.00     0.209 HD
ENDBRANCH  25  26
ENDBRANCH   4  25
BRANCH   6  28
HETATM   28  O5  UNL     1      49.615  60.097   4.085  1.00  0.00    -0.384 OA
ATOM     29  H5  UNL     1      50.238  60.704   4.468  1.00  0.00     0.210 HD
ENDBRANCH   6  28
BRANCH   5  30
HETATM   30  O4  UNL     1      50.392  57.861   4.378  1.00  0.00    -0.388 OA
ATOM     31  H4  UNL     1      50.879  58.666   4.514  1.00  0.00     0.210 HD
ENDBRANCH   5  30
TORSDOF 10
ENDMDL
MODEL 5
REMARK VINA RESULT: -6.904497331      2.045      5.850
REMARK  10 active torsions:
REMARK  status: ('A' for Active; 'I' for Inactive)
REMARK    1  A    between atoms: C2_2  and  O2_4 
REMARK    2  A    between atoms: O2_4  and  C3_5 
REMARK    3  A    between atoms: C3_5  and  C4_6 
REMARK    4  A    between atoms: C4_6  and  C5_7 
REMARK    5  A    between atoms: C5_7  and  C6_8 
REMARK    6  A    between atoms: C6_8  and  C7_9 
REMARK    7  A    between atoms: C10_12  and  C11_13 
REMARK    8  A    between atoms: C11_13  and  O3_14 
REMARK    9  A    between atoms: C12_16  and  O4_17 
REMARK   10  A    between atoms: C13_19  and  O5_20 
ROOT
HETATM    1  C7  UNL     1      46.112  57.289   3.010  1.00  0.00     0.106 C 
HETATM    2  C8  UNL     1      46.484  58.644   2.625  1.00  0.00     0.037 C 
HETATM    3  C9  UNL     1      47.644  59.572   2.859  1.00  0.00     0.016 C 
HETATM    4  C10 UNL     1      49.084  59.257   3.173  1.00  0.00    -0.004 C 
HETATM    5  C12 UNL     1      49.583  58.014   3.953  1.00  0.00     0.188 C 
HETATM    6  C13 UNL     1      48.799  57.079   4.801  1.00  0.00     0.123 C 
HETATM    7  C14 UNL     1      47.902  55.899   4.586  1.00  0.00     0.079 C 
HETATM    8  C15 UNL     1      46.462  56.313   4.130  1.00  0.00     0.164 C 
HETATM    9  O6  UNL     1      46.407  57.193   4.934  1.00  0.00    -0.366 OA
HETATM   10  C16 UNL     1      47.632  57.649   4.262  1.00  0.00     0.117 C 
HETATM   11  C17 UNL     1      47.539  58.758   5.100  1.00  0.00     0.058 C 
HETATM   12  C18 UNL     1      46.628  59.919   4.889  1.00  0.00     0.098 C 
HETATM   13  N1  UNL     1      47.130  60.639   3.774  1.00  0.00    -0.287 NA
HETATM   14  C19 UNL     1      46.101  61.394   3.105  1.00  0.00     0.116 C 
HETATM   15  C20 UNL     1      47.892  57.037   2.930  1.00  0.00     0.210 C 
HETATM   16  O7  UNL     1      46.835  56.358   2.258  1.00  0.00    -0.370 OA
ENDROOT
BRANCH   1  17
HETATM   17  C6  UNL     1      44.707  57.035   2.659  1.00  0.00     0.045 C 
BRANCH  17  18
HETATM   18  C5  UNL     1      43.720  58.129   2.739  1.00  0.00     0.006 C 
BRANCH  18  19
HETATM   19  C4  UNL     1      42.815  57.808   3.942  1.00  0.00     0.027 C 
BRANCH  19  20
HETATM   20  C3  UNL     1      43.209  58.587   5.147  1.00  0.00     0.178 C 
BRANCH  20  21
HETATM   21  O2  UNL     1      42.625  58.086   6.307  1.00  0.00    -0.322 OA
BRANCH  21  22
HETATM   22  C2  UNL     1      42.502  58.784   7.480  1.00  0.00     0.254 C 
HETATM   23  C1  UNL     1      43.569  59.798   7.791  1.00  0.00     0.126 C 
HETATM   24  O1  UNL     1      41.535  58.577   8.252  1.00  0.00    -0.266 OA
ENDBRANCH  21  22
ENDBRANCH  20  21
ENDBRANCH  19  20
ENDBRANCH  18  19
ENDBRANCH  17  18
ENDBRANCH   1  17
BRANCH   4  25
HETATM   25  C11 UNL     1      50.126  59.635   2.141  1.00  0.00     0.203 C 
BRANCH  25  26
HETATM   26  O3  UNL     1      49.690  60.002   0.909  1.00  0.00    -0.397 OA
ATOM     27  H3  UNL     1      50.232  59.774   0.163  1.00  0.00     0.209 HD
ENDBRANCH  25  26
ENDBRANCH   4  25
BRANCH   6  28
HETATM   28  O5  UNL     1      49.132  57.226   6.159  1.00  0.00    -0.384 OA
ATOM     29  H5  UNL     1      49.462  56.411   6.521  1.00  0.00     0.210 HD
ENDBRANCH   6  28
BRANCH   5  30
HETATM   30  O4  UNL     1      50.643  58.463   4.788  1.00  0.00    -0.388 OA
ATOM     31  H4  UNL     1      51.425  58.011   4.495  1.00  0.00     0.210 HD
ENDBRANCH   5  30
TORSDOF 10
ENDMDL
