MODEL 1
REMARK VINA RESULT: -8.402013405      0.000      0.000
REMARK  6 active torsions:
REMARK  status: ('A' for Active; 'I' for Inactive)
REMARK    1  A    between atoms: C2_2  and  C3_3 
REMARK    2  A    between atoms: C9_10  and  O1_11 
REMARK    3  A    between atoms: C13_16  and  N2_17 
REMARK       I    between atoms: N2_17  and  C14_18 
REMARK    4  A    between atoms: C14_18  and  C15_20 
REMARK    5  A    between atoms: C15_20  and  C16_21 
REMARK    6  A    between atoms: C16_21  and  N3_22 
ROOT
HETATM    1  C3  UNL     1      12.086  -9.691  21.756  1.00  0.00     0.085 C 
HETATM    2  N1  UNL     1      13.060 -10.159  20.931  1.00  0.00    -0.382 N 
HETATM    3  C4  UNL     1      14.343  -9.535  20.799  1.00  0.00     0.135 C 
HETATM    4  C5  UNL     1      15.185 -10.691  20.564  1.00  0.00     0.016 C 
HETATM    5  C6  UNL     1      16.446 -10.731  19.901  1.00  0.00     0.022 C 
HETATM    6  C7  UNL     1      16.484 -12.270  19.753  1.00  0.00     0.026 C 
HETATM    7  C8  UNL     1      15.090 -12.496  19.080  1.00  0.00     0.048 C 
HETATM    8  C9  UNL     1      14.287 -11.367  19.477  1.00  0.00     0.088 C 
HETATM    9  C10 UNL     1      13.146 -11.513  20.465  1.00  0.00     0.119 C 
HETATM   10  C11 UNL     1      13.839 -12.388  21.518  1.00  0.00     0.037 C 
HETATM   11  C12 UNL     1      15.205 -11.736  21.625  1.00  0.00     0.037 C 
HETATM   12  C13 UNL     1      16.275 -12.747  21.107  1.00  0.00     0.176 C 
ENDROOT
BRANCH  12  13
HETATM   13  N2  UNL     1      17.286 -12.948  22.062  1.00  0.00    -0.409 NA
HETATM   14  C14 UNL     1      18.248 -13.143  22.979  1.00  0.00     0.288 C 
HETATM   15  O2  UNL     1      18.122 -13.841  24.022  1.00  0.00    -0.258 OA
BRANCH  14  16
HETATM   16  C15 UNL     1      19.618 -12.539  22.844  1.00  0.00     0.146 C 
BRANCH  16  17
HETATM   17  C16 UNL     1      20.775 -13.317  23.255  1.00  0.00     0.247 C 
BRANCH  17  18
HETATM   18  N3  UNL     1      21.717 -12.947  24.221  1.00  0.00    -0.070 N 
HETATM   19  C17 UNL     1      23.102 -12.871  23.868  1.00  0.00     0.272 C 
HETATM   20  C18 UNL     1      21.668 -14.036  25.248  1.00  0.00     0.237 C 
HETATM   21  C19 UNL     1      21.868 -13.384  26.574  1.00  0.00     0.029 C 
HETATM   22  C20 UNL     1      21.078 -12.103  26.382  1.00  0.00     0.029 C 
HETATM   23  C21 UNL     1      21.281 -11.746  24.946  1.00  0.00     0.237 C 
ENDBRANCH  17  18
ENDBRANCH  16  17
ENDBRANCH  14  16
ENDBRANCH  12  13
BRANCH   8  24
HETATM   24  O1  UNL     1      13.979 -10.448  18.476  1.00  0.00    -0.387 OA
ATOM     25  H1  UNL     1      13.216  -9.941  18.727  1.00  0.00     0.210 HD
ENDBRANCH   8  24
BRANCH   1  26
HETATM   26  C2  UNL     1      12.297  -9.703  23.226  1.00  0.00     0.007 C 
HETATM   27  C1  UNL     1      11.349  -9.951  24.109  1.00  0.00     0.012 C 
ENDBRANCH   1  26
TORSDOF 6
ENDMDL
MODEL 2
REMARK VINA RESULT: -8.356321522      0.996      1.279
REMARK  6 active torsions:
REMARK  status: ('A' for Active; 'I' for Inactive)
REMARK    1  A    between atoms: C2_2  and  C3_3 
REMARK    2  A    between atoms: C9_10  and  O1_11 
REMARK    3  A    between atoms: C13_16  and  N2_17 
REMARK       I    between atoms: N2_17  and  C14_18 
REMARK    4  A    between atoms: C14_18  and  C15_20 
REMARK    5  A    between atoms: C15_20  and  C16_21 
REMARK    6  A    between atoms: C16_21  and  N3_22 
ROOT
HETATM    1  C3  UNL     1      11.792  -9.236  22.369  1.00  0.00     0.085 C 
HETATM    2  N1  UNL     1      12.650  -9.678  21.412  1.00  0.00    -0.382 N 
HETATM    3  C4  UNL     1      14.014  -9.250  21.324  1.00  0.00     0.135 C 
HETATM    4  C5  UNL     1      14.646 -10.454  20.822  1.00  0.00     0.016 C 
HETATM    5  C6  UNL     1      15.862 -10.560  20.087  1.00  0.00     0.022 C 
HETATM    6  C7  UNL     1      15.639 -12.025  19.646  1.00  0.00     0.026 C 
HETATM    7  C8  UNL     1      14.209 -11.891  19.028  1.00  0.00     0.048 C 
HETATM    8  C9  UNL     1      13.617 -10.752  19.682  1.00  0.00     0.088 C 
HETATM    9  C10 UNL     1      12.496 -10.909  20.691  1.00  0.00     0.119 C 
HETATM   10  C11 UNL     1      13.064 -12.074  21.513  1.00  0.00     0.037 C 
HETATM   11  C12 UNL     1      14.522 -11.679  21.659  1.00  0.00     0.037 C 
HETATM   12  C13 UNL     1      15.393 -12.722  20.894  1.00  0.00     0.176 C 
ENDROOT
BRANCH  12  13
HETATM   13  N2  UNL     1      16.384 -13.266  21.730  1.00  0.00    -0.409 NA
HETATM   14  C14 UNL     1      17.327 -13.791  22.529  1.00  0.00     0.288 C 
HETATM   15  O2  UNL     1      17.301 -14.956  23.011  1.00  0.00    -0.258 OA
BRANCH  14  16
HETATM   16  C15 UNL     1      18.553 -13.021  22.935  1.00  0.00     0.146 C 
BRANCH  16  17
HETATM   17  C16 UNL     1      19.823 -13.720  23.033  1.00  0.00     0.247 C 
BRANCH  17  18
HETATM   18  N3  UNL     1      20.632 -13.804  24.172  1.00  0.00    -0.070 N 
HETATM   19  C17 UNL     1      20.889 -15.080  24.767  1.00  0.00     0.272 C 
HETATM   20  C18 UNL     1      19.885 -13.057  25.235  1.00  0.00     0.237 C 
HETATM   21  C19 UNL     1      20.906 -12.355  26.064  1.00  0.00     0.029 C 
HETATM   22  C20 UNL     1      21.893 -11.927  24.994  1.00  0.00     0.029 C 
HETATM   23  C21 UNL     1      21.871 -13.035  23.994  1.00  0.00     0.237 C 
ENDBRANCH  17  18
ENDBRANCH  16  17
ENDBRANCH  14  16
ENDBRANCH  12  13
BRANCH   8  24
HETATM   24  O1  UNL     1      13.437  -9.615  18.896  1.00  0.00    -0.387 OA
ATOM     25  H1  UNL     1      12.770  -9.777  18.240  1.00  0.00     0.210 HD
ENDBRANCH   8  24
BRANCH   1  26
HETATM   26  C2  UNL     1      12.040  -9.573  23.794  1.00  0.00     0.007 C 
HETATM   27  C1  UNL     1      11.305 -10.414  24.496  1.00  0.00     0.012 C 
ENDBRANCH   1  26
TORSDOF 6
ENDMDL
MODEL 3
REMARK VINA RESULT: -7.967056680      1.735      2.148
REMARK  6 active torsions:
REMARK  status: ('A' for Active; 'I' for Inactive)
REMARK    1  A    between atoms: C2_2  and  C3_3 
REMARK    2  A    between atoms: C9_10  and  O1_11 
REMARK    3  A    between atoms: C13_16  and  N2_17 
REMARK       I    between atoms: N2_17  and  C14_18 
REMARK    4  A    between atoms: C14_18  and  C15_20 
REMARK    5  A    between atoms: C15_20  and  C16_21 
REMARK    6  A    between atoms: C16_21  and  N3_22 
ROOT
HETATM    1  C3  UNL     1      11.966 -10.299  21.985  1.00  0.00     0.085 C 
HETATM    2  N1  UNL     1      12.534 -11.229  21.174  1.00  0.00    -0.382 N 
HETATM    3  C4  UNL     1      13.151 -10.907  19.921  1.00  0.00     0.135 C 
HETATM    4  C5  UNL     1      14.214 -11.892  19.880  1.00  0.00     0.016 C 
HETATM    5  C6  UNL     1      14.876 -12.413  18.731  1.00  0.00     0.022 C 
HETATM    6  C7  UNL     1      15.548 -13.591  19.471  1.00  0.00     0.026 C 
HETATM    7  C8  UNL     1      14.290 -14.213  20.160  1.00  0.00     0.048 C 
HETATM    8  C9  UNL     1      13.345 -13.131  20.275  1.00  0.00     0.088 C 
HETATM    9  C10 UNL     1      13.010 -12.508  21.616  1.00  0.00     0.119 C 
HETATM   10  C11 UNL     1      14.427 -12.372  22.188  1.00  0.00     0.037 C 
HETATM   11  C12 UNL     1      15.206 -11.860  20.990  1.00  0.00     0.037 C 
HETATM   12  C13 UNL     1      16.241 -12.950  20.573  1.00  0.00     0.176 C 
ENDROOT
BRANCH  12  13
HETATM   13  N2  UNL     1      17.541 -12.419  20.515  1.00  0.00    -0.409 NA
HETATM   14  C14 UNL     1      18.781 -11.906  20.457  1.00  0.00     0.288 C 
HETATM   15  O2  UNL     1      19.054 -10.700  20.205  1.00  0.00    -0.258 OA
BRANCH  14  16
HETATM   16  C15 UNL     1      20.007 -12.740  20.706  1.00  0.00     0.146 C 
BRANCH  16  17
HETATM   17  C16 UNL     1      20.840 -12.442  21.859  1.00  0.00     0.247 C 
BRANCH  17  18
HETATM   18  N3  UNL     1      20.933 -13.205  23.028  1.00  0.00    -0.070 N 
HETATM   19  C17 UNL     1      20.708 -14.617  22.974  1.00  0.00     0.272 C 
HETATM   20  C18 UNL     1      19.831 -12.699  23.909  1.00  0.00     0.237 C 
HETATM   21  C19 UNL     1      20.348 -12.736  25.307  1.00  0.00     0.029 C 
HETATM   22  C20 UNL     1      21.785 -12.299  25.088  1.00  0.00     0.029 C 
HETATM   23  C21 UNL     1      22.161 -12.885  23.768  1.00  0.00     0.237 C 
ENDBRANCH  17  18
ENDBRANCH  16  17
ENDBRANCH  14  16
ENDBRANCH  12  13
BRANCH   8  24
HETATM   24  O1  UNL     1      12.221 -13.203  19.454  1.00  0.00    -0.387 OA
ATOM     25  H1  UNL     1      11.503 -12.719  19.844  1.00  0.00     0.210 HD
ENDBRANCH   8  24
BRANCH   1  26
HETATM   26  C2  UNL     1      12.813  -9.255  22.616  1.00  0.00     0.007 C 
HETATM   27  C1  UNL     1      12.398  -8.436  23.564  1.00  0.00     0.012 C 
ENDBRANCH   1  26
TORSDOF 6
ENDMDL
MODEL 4
REMARK VINA RESULT: -7.965501945      2.440      3.929
REMARK  6 active torsions:
REMARK  status: ('A' for Active; 'I' for Inactive)
REMARK    1  A    between atoms: C2_2  and  C3_3 
REMARK    2  A    between atoms: C9_10  and  O1_11 
REMARK    3  A    between atoms: C13_16  and  N2_17 
REMARK       I    between atoms: N2_17  and  C14_18 
REMARK    4  A    between atoms: C14_18  and  C15_20 
REMARK    5  A    between atoms: C15_20  and  C16_21 
REMARK    6  A    between atoms: C16_21  and  N3_22 
ROOT
HETATM    1  C3  UNL     1      13.637 -14.815  18.561  1.00  0.00     0.085 C 
HETATM    2  N1  UNL     1      14.019 -13.802  19.382  1.00  0.00    -0.382 N 
HETATM    3  C4  UNL     1      14.762 -14.009  20.589  1.00  0.00     0.135 C 
HETATM    4  C5  UNL     1      15.569 -12.805  20.621  1.00  0.00     0.016 C 
HETATM    5  C6  UNL     1      16.155 -12.178  21.759  1.00  0.00     0.022 C 
HETATM    6  C7  UNL     1      16.496 -10.855  21.037  1.00  0.00     0.026 C 
HETATM    7  C8  UNL     1      15.092 -10.523  20.434  1.00  0.00     0.048 C 
HETATM    8  C9  UNL     1      14.418 -11.791  20.319  1.00  0.00     0.088 C 
HETATM    9  C10 UNL     1      14.162 -12.435  18.970  1.00  0.00     0.119 C 
HETATM   10  C11 UNL     1      15.539 -12.221  18.328  1.00  0.00     0.037 C 
HETATM   11  C12 UNL     1      16.479 -12.574  19.466  1.00  0.00     0.037 C 
HETATM   12  C13 UNL     1      17.256 -11.285  19.879  1.00  0.00     0.176 C 
ENDROOT
BRANCH  12  13
HETATM   13  N2  UNL     1      18.646 -11.501  19.854  1.00  0.00    -0.409 NA
HETATM   14  C14 UNL     1      19.972 -11.706  19.822  1.00  0.00     0.288 C 
HETATM   15  O2  UNL     1      20.717 -11.473  18.832  1.00  0.00    -0.258 OA
BRANCH  14  16
HETATM   16  C15 UNL     1      20.729 -12.241  21.007  1.00  0.00     0.146 C 
BRANCH  16  17
HETATM   17  C16 UNL     1      19.999 -12.932  22.056  1.00  0.00     0.247 C 
BRANCH  17  18
HETATM   18  N3  UNL     1      20.537 -13.414  23.254  1.00  0.00    -0.070 N 
HETATM   19  C17 UNL     1      20.730 -14.821  23.430  1.00  0.00     0.272 C 
HETATM   20  C18 UNL     1      19.530 -13.056  24.304  1.00  0.00     0.237 C 
HETATM   21  C19 UNL     1      20.297 -12.698  25.531  1.00  0.00     0.029 C 
HETATM   22  C20 UNL     1      21.471 -11.953  24.923  1.00  0.00     0.029 C 
HETATM   23  C21 UNL     1      21.738 -12.656  23.633  1.00  0.00     0.237 C 
ENDBRANCH  17  18
ENDBRANCH  16  17
ENDBRANCH  14  16
ENDBRANCH  12  13
BRANCH   8  24
HETATM   24  O1  UNL     1      13.354 -12.006  21.194  1.00  0.00    -0.387 OA
ATOM     25  H1  UNL     1      12.540 -11.741  20.784  1.00  0.00     0.210 HD
ENDBRANCH   8  24
BRANCH   1  26
HETATM   26  C2  UNL     1      14.667 -15.614  17.848  1.00  0.00     0.007 C 
HETATM   27  C1  UNL     1      15.122 -15.330  16.642  1.00  0.00     0.012 C 
ENDBRANCH   1  26
TORSDOF 6
ENDMDL
MODEL 5
REMARK VINA RESULT: -7.964527894      2.268      7.829
REMARK  6 active torsions:
REMARK  status: ('A' for Active; 'I' for Inactive)
REMARK    1  A    between atoms: C2_2  and  C3_3 
REMARK    2  A    between atoms: C9_10  and  O1_11 
REMARK    3  A    between atoms: C13_16  and  N2_17 
REMARK       I    between atoms: N2_17  and  C14_18 
REMARK    4  A    between atoms: C14_18  and  C15_20 
REMARK    5  A    between atoms: C15_20  and  C16_21 
REMARK    6  A    between atoms: C16_21  and  N3_22 
ROOT
HETATM    1  C3  UNL     1      18.901 -16.491  24.971  1.00  0.00     0.085 C 
HETATM    2  N1  UNL     1      19.591 -15.662  24.142  1.00  0.00    -0.382 N 
HETATM    3  C4  UNL     1      19.596 -15.806  22.717  1.00  0.00     0.135 C 
HETATM    4  C5  UNL     1      19.690 -14.419  22.305  1.00  0.00     0.016 C 
HETATM    5  C6  UNL     1      20.201 -13.906  21.077  1.00  0.00     0.022 C 
HETATM    6  C7  UNL     1      20.288 -12.439  21.556  1.00  0.00     0.026 C 
HETATM    7  C8  UNL     1      21.109 -12.648  22.871  1.00  0.00     0.048 C 
HETATM    8  C9  UNL     1      20.848 -14.007  23.271  1.00  0.00     0.088 C 
HETATM    9  C10 UNL     1      19.995 -14.329  24.482  1.00  0.00     0.119 C 
HETATM   10  C11 UNL     1      18.838 -13.351  24.237  1.00  0.00     0.037 C 
HETATM   11  C12 UNL     1      18.597 -13.509  22.747  1.00  0.00     0.037 C 
HETATM   12  C13 UNL     1      18.951 -12.161  22.046  1.00  0.00     0.176 C 
ENDROOT
BRANCH  12  13
HETATM   13  N2  UNL     1      17.879 -11.701  21.262  1.00  0.00    -0.409 NA
HETATM   14  C14 UNL     1      16.858 -11.255  20.512  1.00  0.00     0.288 C 
HETATM   15  O2  UNL     1      16.927 -10.301  19.690  1.00  0.00    -0.258 OA
BRANCH  14  16
HETATM   16  C15 UNL     1      15.490 -11.876  20.570  1.00  0.00     0.146 C 
BRANCH  16  17
HETATM   17  C16 UNL     1      14.535 -11.386  21.549  1.00  0.00     0.247 C 
BRANCH  17  18
HETATM   18  N3  UNL     1      13.389 -10.629  21.276  1.00  0.00    -0.070 N 
HETATM   19  C17 UNL     1      13.194 -10.083  19.968  1.00  0.00     0.272 C 
HETATM   20  C18 UNL     1      13.503  -9.422  22.156  1.00  0.00     0.237 C 
HETATM   21  C19 UNL     1      12.122  -9.088  22.608  1.00  0.00     0.029 C 
HETATM   22  C20 UNL     1      11.552 -10.478  22.823  1.00  0.00     0.029 C 
HETATM   23  C21 UNL     1      12.181 -11.314  21.758  1.00  0.00     0.237 C 
ENDBRANCH  17  18
ENDBRANCH  16  17
ENDBRANCH  14  16
ENDBRANCH  12  13
BRANCH   8  24
HETATM   24  O1  UNL     1      21.910 -14.901  23.146  1.00  0.00    -0.387 OA
ATOM     25  H1  UNL     1      22.703 -14.513  23.496  1.00  0.00     0.210 HD
ENDBRANCH   8  24
BRANCH   1  26
HETATM   26  C2  UNL     1      17.417 -16.516  24.919  1.00  0.00     0.007 C 
HETATM   27  C1  UNL     1      16.705 -17.566  24.556  1.00  0.00     0.012 C 
ENDBRANCH   1  26
TORSDOF 6
ENDMDL
