MODEL 1
REMARK VINA RESULT: -7.543273446      0.000      0.000
REMARK  6 active torsions:
REMARK  status: ('A' for Active; 'I' for Inactive)
REMARK    1  A    between atoms: C9_9  and  C10_10 
REMARK    2  A    between atoms: C10_10  and  C11_11 
REMARK    3  A    between atoms: C11_11  and  C12_12 
REMARK    4  A    between atoms: C12_12  and  O2_14 
REMARK    5  A    between atoms: O2_14  and  C13_15 
REMARK    6  A    between atoms: C17_20  and  O3_21 
ROOT
HETATM    1  C13 UNL     1      18.813  24.542  60.206  1.00  0.00     0.302 C 
HETATM    2  C14 UNL     1      19.636  25.563  60.849  1.00  0.00     0.085 C 
HETATM    3  N1  UNL     1      20.266  26.373  61.351  1.00  0.00    -0.195 NA
ENDROOT
BRANCH   1   4
HETATM    4  O2  UNL     1      19.212  23.253  60.533  1.00  0.00    -0.307 OA
BRANCH   4   5
HETATM    5  C12 UNL     1      18.742  22.084  60.003  1.00  0.00     0.259 C 
HETATM    6  O1  UNL     1      17.691  22.237  59.276  1.00  0.00    -0.265 OA
BRANCH   5   7
HETATM    7  C11 UNL     1      19.307  20.768  60.187  1.00  0.00     0.111 C 
BRANCH   7   8
HETATM    8  C10 UNL     1      20.807  20.626  60.159  1.00  0.00     0.015 C 
BRANCH   8   9
HETATM    9  C9  UNL     1      21.404  19.934  61.293  1.00  0.00     0.005 C 
HETATM   10  C8  UNL     1      20.979  18.466  61.464  1.00  0.00     0.001 C 
HETATM   11  C7  UNL     1      21.343  17.810  60.171  1.00  0.00     0.009 C 
HETATM   12  C20 UNL     1      21.276  17.890  62.746  1.00  0.00    -0.013 C 
HETATM   13  C6  UNL     1      22.727  18.129  59.647  1.00  0.00     0.039 C 
HETATM   14  C5  UNL     1      23.481  18.533  60.937  1.00  0.00     0.075 C 
HETATM   15  C4  UNL     1      24.956  18.561  60.742  1.00  0.00     0.044 C 
HETATM   16  C15 UNL     1      22.871  19.761  61.454  1.00  0.00     0.018 C 
HETATM   17  O5  UNL     1      23.327  17.309  61.543  1.00  0.00    -0.344 OA
HETATM   18  C3  UNL     1      25.486  17.621  61.831  1.00  0.00     0.071 C 
HETATM   19  C2  UNL     1      24.277  17.081  62.469  1.00  0.00     0.162 C 
HETATM   20  C1  UNL     1      24.346  15.609  62.798  1.00  0.00     0.079 C 
HETATM   21  O4  UNL     1      23.723  17.736  63.533  1.00  0.00    -0.349 OA
HETATM   22  C22 UNL     1      22.400  17.836  63.589  1.00  0.00     0.140 C 
HETATM   23  C18 UNL     1      22.203  19.357  63.866  1.00  0.00     0.046 C 
HETATM   24  C17 UNL     1      23.051  20.048  62.932  1.00  0.00     0.136 C 
HETATM   25  C19 UNL     1      20.835  18.978  63.769  1.00  0.00     0.021 C 
HETATM   26  C16 UNL     1      23.620  20.920  60.765  1.00  0.00     0.021 C 
HETATM   27  C21 UNL     1      20.363  16.648  62.919  1.00  0.00     0.018 C 
BRANCH  24  28
HETATM   28  O3  UNL     1      24.373  20.049  63.347  1.00  0.00    -0.394 OA
ATOM     29  H3  UNL     1      24.546  20.625  64.082  1.00  0.00     0.210 HD
ENDBRANCH  24  28
ENDBRANCH   8   9
ENDBRANCH   7   8
ENDBRANCH   5   7
ENDBRANCH   4   5
ENDBRANCH   1   4
TORSDOF 6
ENDMDL
MODEL 2
REMARK VINA RESULT: -7.200646178      3.321      6.169
REMARK  6 active torsions:
REMARK  status: ('A' for Active; 'I' for Inactive)
REMARK    1  A    between atoms: C9_9  and  C10_10 
REMARK    2  A    between atoms: C10_10  and  C11_11 
REMARK    3  A    between atoms: C11_11  and  C12_12 
REMARK    4  A    between atoms: C12_12  and  O2_14 
REMARK    5  A    between atoms: O2_14  and  C13_15 
REMARK    6  A    between atoms: C17_20  and  O3_21 
ROOT
HETATM    1  C13 UNL     1      18.010  14.512  64.596  1.00  0.00     0.302 C 
HETATM    2  C14 UNL     1      17.794  14.888  65.990  1.00  0.00     0.085 C 
HETATM    3  N1  UNL     1      17.606  15.182  67.079  1.00  0.00    -0.195 NA
ENDROOT
BRANCH   1   4
HETATM    4  O2  UNL     1      19.254  13.932  64.388  1.00  0.00    -0.307 OA
BRANCH   4   5
HETATM    5  C12 UNL     1      20.401  14.561  63.988  1.00  0.00     0.259 C 
HETATM    6  O1  UNL     1      21.455  13.834  64.118  1.00  0.00    -0.265 OA
BRANCH   5   7
HETATM    7  C11 UNL     1      20.508  15.901  63.460  1.00  0.00     0.111 C 
BRANCH   7   8
HETATM    8  C10 UNL     1      21.881  16.507  63.325  1.00  0.00     0.015 C 
BRANCH   8   9
HETATM    9  C9  UNL     1      22.069  17.419  62.207  1.00  0.00     0.005 C 
HETATM   10  C8  UNL     1      21.097  18.610  62.161  1.00  0.00     0.001 C 
HETATM   11  C7  UNL     1      21.283  19.306  63.471  1.00  0.00     0.009 C 
HETATM   12  C20 UNL     1      21.042  19.305  60.904  1.00  0.00    -0.013 C 
HETATM   13  C6  UNL     1      22.719  19.533  63.888  1.00  0.00     0.039 C 
HETATM   14  C5  UNL     1      23.464  19.507  62.531  1.00  0.00     0.075 C 
HETATM   15  C4  UNL     1      24.844  20.050  62.634  1.00  0.00     0.044 C 
HETATM   16  C15 UNL     1      23.336  18.158  61.970  1.00  0.00     0.018 C 
HETATM   17  O5  UNL     1      22.799  20.595  62.019  1.00  0.00    -0.344 OA
HETATM   18  C3  UNL     1      24.879  21.163  61.581  1.00  0.00     0.071 C 
HETATM   19  C2  UNL     1      23.508  21.211  61.055  1.00  0.00     0.162 C 
HETATM   20  C1  UNL     1      22.974  22.605  60.822  1.00  0.00     0.079 C 
HETATM   21  O4  UNL     1      23.166  20.434  59.985  1.00  0.00    -0.349 OA
HETATM   22  C22 UNL     1      21.984  19.826  60.001  1.00  0.00     0.140 C 
HETATM   23  C18 UNL     1      22.369  18.361  59.635  1.00  0.00     0.046 C 
HETATM   24  C17 UNL     1      23.492  18.021  60.468  1.00  0.00     0.136 C 
HETATM   25  C19 UNL     1      20.974  18.172  59.839  1.00  0.00     0.021 C 
HETATM   26  C16 UNL     1      24.528  17.359  62.533  1.00  0.00     0.021 C 
HETATM   27  C21 UNL     1      19.708  20.097  60.872  1.00  0.00     0.018 C 
BRANCH  24  28
HETATM   28  O3  UNL     1      24.673  18.554  59.975  1.00  0.00    -0.394 OA
ATOM     29  H3  UNL     1      24.822  18.374  59.054  1.00  0.00     0.210 HD
ENDBRANCH  24  28
ENDBRANCH   8   9
ENDBRANCH   7   8
ENDBRANCH   5   7
ENDBRANCH   4   5
ENDBRANCH   1   4
TORSDOF 6
ENDMDL
MODEL 3
REMARK VINA RESULT: -6.987397345      3.440      6.328
REMARK  6 active torsions:
REMARK  status: ('A' for Active; 'I' for Inactive)
REMARK    1  A    between atoms: C9_9  and  C10_10 
REMARK    2  A    between atoms: C10_10  and  C11_11 
REMARK    3  A    between atoms: C11_11  and  C12_12 
REMARK    4  A    between atoms: C12_12  and  O2_14 
REMARK    5  A    between atoms: O2_14  and  C13_15 
REMARK    6  A    between atoms: C17_20  and  O3_21 
ROOT
HETATM    1  C13 UNL     1      20.308  12.543  63.702  1.00  0.00     0.302 C 
HETATM    2  C14 UNL     1      21.707  12.910  63.902  1.00  0.00     0.085 C 
HETATM    3  N1  UNL     1      22.807  13.179  64.054  1.00  0.00    -0.195 NA
ENDROOT
BRANCH   1   4
HETATM    4  O2  UNL     1      19.526  13.623  63.315  1.00  0.00    -0.307 OA
BRANCH   4   5
HETATM    5  C12 UNL     1      19.463  14.852  63.910  1.00  0.00     0.259 C 
HETATM    6  O1  UNL     1      19.047  14.813  65.127  1.00  0.00    -0.265 OA
BRANCH   5   7
HETATM    7  C11 UNL     1      19.814  16.118  63.308  1.00  0.00     0.111 C 
BRANCH   7   8
HETATM    8  C10 UNL     1      21.270  16.502  63.251  1.00  0.00     0.015 C 
BRANCH   8   9
HETATM    9  C9  UNL     1      21.652  17.399  62.170  1.00  0.00     0.005 C 
HETATM   10  C8  UNL     1      20.819  18.688  62.061  1.00  0.00     0.001 C 
HETATM   11  C7  UNL     1      20.963  19.348  63.395  1.00  0.00     0.009 C 
HETATM   12  C20 UNL     1      20.949  19.395  60.817  1.00  0.00    -0.013 C 
HETATM   13  C6  UNL     1      22.374  19.415  63.938  1.00  0.00     0.039 C 
HETATM   14  C5  UNL     1      23.227  19.321  62.650  1.00  0.00     0.075 C 
HETATM   15  C4  UNL     1      24.643  19.711  62.882  1.00  0.00     0.044 C 
HETATM   16  C15 UNL     1      23.005  17.999  62.055  1.00  0.00     0.018 C 
HETATM   17  O5  UNL     1      22.729  20.478  62.102  1.00  0.00    -0.344 OA
HETATM   18  C3  UNL     1      24.889  20.823  61.855  1.00  0.00     0.071 C 
HETATM   19  C2  UNL     1      23.582  21.023  61.214  1.00  0.00     0.162 C 
HETATM   20  C1  UNL     1      23.222  22.468  60.961  1.00  0.00     0.079 C 
HETATM   21  O4  UNL     1      23.254  20.296  60.105  1.00  0.00    -0.349 OA
HETATM   22  C22 UNL     1      22.017  19.820  60.008  1.00  0.00     0.140 C 
HETATM   23  C18 UNL     1      22.274  18.325  59.650  1.00  0.00     0.046 C 
HETATM   24  C17 UNL     1      23.277  17.859  60.571  1.00  0.00     0.136 C 
HETATM   25  C19 UNL     1      20.854  18.286  59.730  1.00  0.00     0.021 C 
HETATM   26  C16 UNL     1      24.052  17.071  62.705  1.00  0.00     0.021 C 
HETATM   27  C21 UNL     1      19.715  20.327  60.684  1.00  0.00     0.018 C 
BRANCH  24  28
HETATM   28  O3  UNL     1      24.547  18.265  60.191  1.00  0.00    -0.394 OA
ATOM     29  H3  UNL     1      25.195  17.571  60.208  1.00  0.00     0.210 HD
ENDBRANCH  24  28
ENDBRANCH   8   9
ENDBRANCH   7   8
ENDBRANCH   5   7
ENDBRANCH   4   5
ENDBRANCH   1   4
TORSDOF 6
ENDMDL
MODEL 4
REMARK VINA RESULT: -6.950598534      3.008      5.863
REMARK  6 active torsions:
REMARK  status: ('A' for Active; 'I' for Inactive)
REMARK    1  A    between atoms: C9_9  and  C10_10 
REMARK    2  A    between atoms: C10_10  and  C11_11 
REMARK    3  A    between atoms: C11_11  and  C12_12 
REMARK    4  A    between atoms: C12_12  and  O2_14 
REMARK    5  A    between atoms: O2_14  and  C13_15 
REMARK    6  A    between atoms: C17_20  and  O3_21 
ROOT
HETATM    1  C13 UNL     1      18.424  14.823  64.366  1.00  0.00     0.302 C 
HETATM    2  C14 UNL     1      17.571  15.873  63.815  1.00  0.00     0.085 C 
HETATM    3  N1  UNL     1      16.889  16.688  63.393  1.00  0.00    -0.195 NA
ENDROOT
BRANCH   1   4
HETATM    4  O2  UNL     1      19.758  15.201  64.431  1.00  0.00    -0.307 OA
BRANCH   4   5
HETATM    5  C12 UNL     1      20.837  14.503  63.965  1.00  0.00     0.259 C 
HETATM    6  O1  UNL     1      20.658  13.229  63.955  1.00  0.00    -0.265 OA
BRANCH   5   7
HETATM    7  C11 UNL     1      22.089  15.059  63.509  1.00  0.00     0.111 C 
BRANCH   7   8
HETATM    8  C10 UNL     1      22.341  16.528  63.732  1.00  0.00     0.015 C 
BRANCH   8   9
HETATM    9  C9  UNL     1      22.338  17.365  62.540  1.00  0.00     0.005 C 
HETATM   10  C8  UNL     1      21.245  18.447  62.501  1.00  0.00     0.001 C 
HETATM   11  C7  UNL     1      21.466  19.258  63.737  1.00  0.00     0.009 C 
HETATM   12  C20 UNL     1      21.012  19.032  61.209  1.00  0.00    -0.013 C 
HETATM   13  C6  UNL     1      22.901  19.657  64.004  1.00  0.00     0.039 C 
HETATM   14  C5  UNL     1      23.527  19.598  62.589  1.00  0.00     0.075 C 
HETATM   15  C4  UNL     1      24.847  20.281  62.528  1.00  0.00     0.044 C 
HETATM   16  C15 UNL     1      23.495  18.204  62.137  1.00  0.00     0.018 C 
HETATM   17  O5  UNL     1      22.712  20.572  62.066  1.00  0.00    -0.344 OA
HETATM   18  C3  UNL     1      24.677  21.307  61.401  1.00  0.00     0.071 C 
HETATM   19  C2  UNL     1      23.269  21.178  61.001  1.00  0.00     0.162 C 
HETATM   20  C1  UNL     1      22.574  22.490  60.722  1.00  0.00     0.079 C 
HETATM   21  O4  UNL     1      22.921  20.289  60.023  1.00  0.00    -0.349 OA
HETATM   22  C22 UNL     1      21.816  19.571  60.190  1.00  0.00     0.140 C 
HETATM   23  C18 UNL     1      22.320  18.127  59.892  1.00  0.00     0.046 C 
HETATM   24  C17 UNL     1      23.539  17.966  60.641  1.00  0.00     0.136 C 
HETATM   25  C19 UNL     1      20.975  17.818  60.236  1.00  0.00     0.021 C 
HETATM   26  C16 UNL     1      24.808  17.572  62.643  1.00  0.00     0.021 C 
HETATM   27  C21 UNL     1      19.605  19.684  61.244  1.00  0.00     0.018 C 
BRANCH  24  28
HETATM   28  O3  UNL     1      24.612  18.572  60.006  1.00  0.00    -0.394 OA
ATOM     29  H3  UNL     1      25.430  18.502  60.481  1.00  0.00     0.210 HD
ENDBRANCH  24  28
ENDBRANCH   8   9
ENDBRANCH   7   8
ENDBRANCH   5   7
ENDBRANCH   4   5
ENDBRANCH   1   4
TORSDOF 6
ENDMDL
MODEL 5
REMARK VINA RESULT: -6.641613377      3.824      6.045
REMARK  6 active torsions:
REMARK  status: ('A' for Active; 'I' for Inactive)
REMARK    1  A    between atoms: C9_9  and  C10_10 
REMARK    2  A    between atoms: C10_10  and  C11_11 
REMARK    3  A    between atoms: C11_11  and  C12_12 
REMARK    4  A    between atoms: C12_12  and  O2_14 
REMARK    5  A    between atoms: O2_14  and  C13_15 
REMARK    6  A    between atoms: C17_20  and  O3_21 
ROOT
HETATM    1  C13 UNL     1      18.930  13.539  64.142  1.00  0.00     0.302 C 
HETATM    2  C14 UNL     1      20.089  12.743  63.747  1.00  0.00     0.085 C 
HETATM    3  N1  UNL     1      20.987  12.104  63.445  1.00  0.00    -0.195 NA
ENDROOT
BRANCH   1   4
HETATM    4  O2  UNL     1      18.778  14.679  63.363  1.00  0.00    -0.307 OA
BRANCH   4   5
HETATM    5  C12 UNL     1      18.230  15.871  63.744  1.00  0.00     0.259 C 
HETATM    6  O1  UNL     1      17.315  15.752  64.642  1.00  0.00    -0.265 OA
BRANCH   5   7
HETATM    7  C11 UNL     1      18.582  17.179  63.243  1.00  0.00     0.111 C 
BRANCH   7   8
HETATM    8  C10 UNL     1      19.903  17.771  63.663  1.00  0.00     0.015 C 
BRANCH   8   9
HETATM    9  C9  UNL     1      20.869  17.997  62.597  1.00  0.00     0.005 C 
HETATM   10  C8  UNL     1      21.474  19.410  62.548  1.00  0.00     0.001 C 
HETATM   11  C7  UNL     1      22.091  19.608  63.895  1.00  0.00     0.009 C 
HETATM   12  C20 UNL     1      22.144  19.745  61.322  1.00  0.00    -0.013 C 
HETATM   13  C6  UNL     1      22.930  18.455  64.402  1.00  0.00     0.039 C 
HETATM   14  C5  UNL     1      23.339  17.745  63.088  1.00  0.00     0.075 C 
HETATM   15  C4  UNL     1      24.452  16.779  63.292  1.00  0.00     0.044 C 
HETATM   16  C15 UNL     1      22.124  17.213  62.463  1.00  0.00     0.018 C 
HETATM   17  O5  UNL     1      24.026  18.824  62.587  1.00  0.00    -0.344 OA
HETATM   18  C3  UNL     1      25.520  17.236  62.292  1.00  0.00     0.071 C 
HETATM   19  C2  UNL     1      24.961  18.455  61.692  1.00  0.00     0.162 C 
HETATM   20  C1  UNL     1      25.961  19.569  61.490  1.00  0.00     0.079 C 
HETATM   21  O4  UNL     1      24.184  18.364  60.572  1.00  0.00    -0.349 OA
HETATM   22  C22 UNL     1      23.099  19.127  60.496  1.00  0.00     0.140 C 
HETATM   23  C18 UNL     1      22.006  18.094  60.089  1.00  0.00     0.046 C 
HETATM   24  C17 UNL     1      22.172  16.967  60.968  1.00  0.00     0.136 C 
HETATM   25  C19 UNL     1      21.179  19.246  60.206  1.00  0.00     0.021 C 
HETATM   26  C16 UNL     1      21.933  15.803  63.057  1.00  0.00     0.021 C 
HETATM   27  C21 UNL     1      22.228  21.292  61.248  1.00  0.00     0.018 C 
BRANCH  24  28
HETATM   28  O3  UNL     1      23.221  16.156  60.565  1.00  0.00    -0.394 OA
ATOM     29  H3  UNL     1      23.598  16.400  59.729  1.00  0.00     0.210 HD
ENDBRANCH  24  28
ENDBRANCH   8   9
ENDBRANCH   7   8
ENDBRANCH   5   7
ENDBRANCH   4   5
ENDBRANCH   1   4
TORSDOF 6
ENDMDL
