MODEL 1
REMARK VINA RESULT: -4.341470139      0.000      0.000
REMARK  1 active torsions:
REMARK  status: ('A' for Active; 'I' for Inactive)
REMARK    1  A    between atoms: C1_2  and  C2_4 
ROOT
HETATM    1  C2  UNL     1       0.666 -14.469  15.208  1.00  0.00     0.056 C 
HETATM    2  C3  UNL     1       1.006 -14.671  13.758  1.00  0.00     0.026 C 
HETATM    3  C4  UNL     1       1.622 -13.267  13.876  1.00  0.00    -0.007 C 
HETATM    4  C5  UNL     1       0.302 -12.492  14.059  1.00  0.00     0.011 C 
HETATM    5  C6  UNL     1      -0.029 -13.186  15.394  1.00  0.00     0.006 C 
HETATM    6  C7  UNL     1       1.177 -12.729  16.205  1.00  0.00     0.012 C 
HETATM    7  C8  UNL     1       1.948 -13.615  15.264  1.00  0.00     0.009 C 
ENDROOT
BRANCH   1   8
HETATM    8  C1  UNL     1       0.569 -15.553  16.100  1.00  0.00     0.182 C 
HETATM    9  O1  UNL     1      -0.484 -16.246  16.191  1.00  0.00    -0.647 OA
HETATM   10  O2  UNL     1       1.617 -15.917  16.925  1.00  0.00    -0.647 OA
ENDBRANCH   1   8
TORSDOF 1
ENDMDL
MODEL 2
REMARK VINA RESULT: -4.213374649      2.490      3.504
REMARK  1 active torsions:
REMARK  status: ('A' for Active; 'I' for Inactive)
REMARK    1  A    between atoms: C1_2  and  C2_4 
ROOT
HETATM    1  C2  UNL     1       0.537 -13.084  15.027  1.00  0.00     0.056 C 
HETATM    2  C3  UNL     1       1.107 -12.875  16.402  1.00  0.00     0.026 C 
HETATM    3  C4  UNL     1       1.986 -14.084  16.044  1.00  0.00    -0.007 C 
HETATM    4  C5  UNL     1       0.866 -15.142  16.035  1.00  0.00     0.011 C 
HETATM    5  C6  UNL     1       0.126 -14.486  14.854  1.00  0.00     0.006 C 
HETATM    6  C7  UNL     1       1.217 -14.603  13.796  1.00  0.00     0.012 C 
HETATM    7  C8  UNL     1       1.940 -13.603  14.657  1.00  0.00     0.009 C 
ENDROOT
BRANCH   1   8
HETATM    8  C1  UNL     1       0.022 -12.013  14.272  1.00  0.00     0.182 C 
HETATM    9  O1  UNL     1       0.179 -10.812  14.631  1.00  0.00    -0.647 OA
HETATM   10  O2  UNL     1      -0.685 -12.218  13.102  1.00  0.00    -0.647 OA
ENDBRANCH   1   8
TORSDOF 1
ENDMDL
MODEL 3
REMARK VINA RESULT: -4.181856541      2.138      2.914
REMARK  1 active torsions:
REMARK  status: ('A' for Active; 'I' for Inactive)
REMARK    1  A    between atoms: C1_2  and  C2_4 
ROOT
HETATM    1  C2  UNL     1       0.828 -13.231  15.873  1.00  0.00     0.056 C 
HETATM    2  C3  UNL     1       0.893 -14.662  16.327  1.00  0.00     0.026 C 
HETATM    3  C4  UNL     1       1.471 -14.910  14.925  1.00  0.00    -0.007 C 
HETATM    4  C5  UNL     1       0.185 -14.611  14.130  1.00  0.00     0.011 C 
HETATM    5  C6  UNL     1       0.138 -13.138  14.578  1.00  0.00     0.006 C 
HETATM    6  C7  UNL     1       1.460 -12.667  13.985  1.00  0.00     0.012 C 
HETATM    7  C8  UNL     1       2.067 -13.572  15.023  1.00  0.00     0.009 C 
ENDROOT
BRANCH   1   8
HETATM    8  C1  UNL     1       0.940 -12.163  16.784  1.00  0.00     0.182 C 
HETATM    9  O1  UNL     1       1.798 -12.169  17.712  1.00  0.00    -0.647 OA
HETATM   10  O2  UNL     1       0.118 -11.054  16.714  1.00  0.00    -0.647 OA
ENDBRANCH   1   8
TORSDOF 1
ENDMDL
MODEL 4
REMARK VINA RESULT: -4.151705112      2.004      3.034
REMARK  1 active torsions:
REMARK  status: ('A' for Active; 'I' for Inactive)
REMARK    1  A    between atoms: C1_2  and  C2_4 
ROOT
HETATM    1  C2  UNL     1       0.794 -12.480  14.630  1.00  0.00     0.056 C 
HETATM    2  C3  UNL     1       0.866 -12.007  16.055  1.00  0.00     0.026 C 
HETATM    3  C4  UNL     1       0.121 -10.777  15.512  1.00  0.00    -0.007 C 
HETATM    4  C5  UNL     1       1.273 -10.215  14.656  1.00  0.00     0.011 C 
HETATM    5  C6  UNL     1       1.301 -11.439  13.722  1.00  0.00     0.006 C 
HETATM    6  C7  UNL     1      -0.111 -11.340  13.158  1.00  0.00     0.012 C 
HETATM    7  C8  UNL     1      -0.527 -11.689  14.562  1.00  0.00     0.009 C 
ENDROOT
BRANCH   1   8
HETATM    8  C1  UNL     1       0.748 -13.850  14.309  1.00  0.00     0.182 C 
HETATM    9  O1  UNL     1       0.157 -14.685  15.050  1.00  0.00    -0.647 OA
HETATM   10  O2  UNL     1       1.346 -14.354  13.170  1.00  0.00    -0.647 OA
ENDBRANCH   1   8
TORSDOF 1
ENDMDL
MODEL 5
REMARK VINA RESULT: -4.150701122      1.164      2.261
REMARK  1 active torsions:
REMARK  status: ('A' for Active; 'I' for Inactive)
REMARK    1  A    between atoms: C1_2  and  C2_4 
ROOT
HETATM    1  C2  UNL     1       1.354 -13.491  15.771  1.00  0.00     0.056 C 
HETATM    2  C3  UNL     1       0.891 -12.112  16.147  1.00  0.00     0.026 C 
HETATM    3  C4  UNL     1       0.152 -12.170  14.800  1.00  0.00    -0.007 C 
HETATM    4  C5  UNL     1       1.399 -12.136  13.895  1.00  0.00     0.011 C 
HETATM    5  C6  UNL     1       1.932 -13.483  14.418  1.00  0.00     0.006 C 
HETATM    6  C7  UNL     1       0.774 -14.378  13.992  1.00  0.00     0.012 C 
HETATM    7  C8  UNL     1       0.005 -13.611  15.034  1.00  0.00     0.009 C 
ENDROOT
BRANCH   1   8
HETATM    8  C1  UNL     1       1.649 -14.462  16.747  1.00  0.00     0.182 C 
HETATM    9  O1  UNL     1       1.616 -14.194  17.981  1.00  0.00    -0.647 OA
HETATM   10  O2  UNL     1       1.993 -15.758  16.408  1.00  0.00    -0.647 OA
ENDBRANCH   1   8
TORSDOF 1
ENDMDL
