MODEL 1
REMARK VINA RESULT: -8.782534921      0.000      0.000
REMARK  8 active torsions:
REMARK  status: ('A' for Active; 'I' for Inactive)
REMARK    1  A    between atoms: C2_2  and  C3_3 
REMARK    2  A    between atoms: C3_3  and  N1_4 
REMARK       I    between atoms: N1_4  and  C4_6 
REMARK    3  A    between atoms: C4_6  and  C5_8 
REMARK    4  A    between atoms: C10_13  and  C11_14 
REMARK    5  A    between atoms: C11_14  and  O2_15 
REMARK    6  A    between atoms: C23_28  and  C24_29 
REMARK       I    between atoms: C24_29  and  N2_31 
REMARK    7  A    between atoms: C27_34  and  C28_35 
REMARK       I    between atoms: C28_35  and  N3_37 
REMARK    8  A    between atoms: N3_37  and  C29_39 
ROOT
HETATM    1  C5  UNL     1      43.748  19.842  19.782  1.00  0.00     0.086 C 
HETATM    2  C6  UNL     1      42.852  18.618  20.096  1.00  0.00     0.020 C 
HETATM    3  C7  UNL     1      43.696  17.583  20.580  1.00  0.00     0.002 C 
HETATM    4  C8  UNL     1      45.051  18.107  20.119  1.00  0.00     0.000 C 
HETATM    5  C9  UNL     1      45.478  16.753  20.223  1.00  0.00     0.018 C 
HETATM    6  C10 UNL     1      44.056  16.261  19.958  1.00  0.00    -0.011 C 
HETATM    7  C12 UNL     1      43.869  16.119  18.517  1.00  0.00    -0.002 C 
HETATM    8  C13 UNL     1      43.220  14.897  17.898  1.00  0.00     0.011 C 
HETATM    9  C14 UNL     1      43.046  15.254  16.403  1.00  0.00    -0.000 C 
HETATM   10  C15 UNL     1      44.274  14.879  15.605  1.00  0.00     0.006 C 
HETATM   11  C16 UNL     1      45.006  16.170  15.286  1.00  0.00     0.011 C 
HETATM   12  C17 UNL     1      44.429  17.016  16.390  1.00  0.00    -0.028 C 
HETATM   13  C18 UNL     1      44.927  18.395  16.552  1.00  0.00     0.011 C 
HETATM   14  C19 UNL     1      44.396  19.051  17.744  1.00  0.00     0.011 C 
HETATM   15  C20 UNL     1      44.893  19.063  19.094  1.00  0.00    -0.028 C 
HETATM   16  C21 UNL     1      46.186  19.893  19.059  1.00  0.00     0.016 C 
HETATM   17  C22 UNL     1      45.013  16.330  17.645  1.00  0.00     0.015 C 
HETATM   18  C23 UNL     1      43.008  16.748  16.146  1.00  0.00     0.090 C 
ENDROOT
BRANCH  18  19
HETATM   19  C24 UNL     1      42.598  16.917  14.754  1.00  0.00     0.225 C 
HETATM   20  O3  UNL     1      42.145  15.935  14.068  1.00  0.00    -0.273 OA
HETATM   21  N2  UNL     1      42.647  18.126  14.047  1.00  0.00    -0.352 N 
HETATM   22  C25 UNL     1      43.045  19.403  14.570  1.00  0.00     0.126 C 
HETATM   23  C34 UNL     1      42.269  18.184  12.607  1.00  0.00     0.126 C 
HETATM   24  C26 UNL     1      42.236  20.485  13.848  1.00  0.00     0.034 C 
HETATM   25  C27 UNL     1      42.624  20.583  12.402  1.00  0.00     0.081 C 
HETATM   26  C33 UNL     1      43.184  19.233  12.007  1.00  0.00     0.034 C 
BRANCH  25  27
HETATM   27  C28 UNL     1      43.544  21.687  12.090  1.00  0.00     0.222 C 
HETATM   28  O4  UNL     1      44.790  21.488  12.241  1.00  0.00    -0.273 OA
HETATM   29  N3  UNL     1      43.132  22.955  11.633  1.00  0.00    -0.353 N 
ATOM     30  H3  UNL     1      42.132  23.117  11.513  1.00  0.00     0.163 HD
BRANCH  29  31
HETATM   31  C29 UNL     1      44.030  24.035  11.327  1.00  0.00     0.022 C 
HETATM   32  C30 UNL     1      43.254  25.307  10.967  1.00  0.00     0.037 C 
HETATM   33  C31 UNL     1      44.939  24.379  12.474  1.00  0.00     0.037 C 
HETATM   34  C32 UNL     1      44.868  23.711  10.105  1.00  0.00     0.037 C 
ENDBRANCH  29  31
ENDBRANCH  25  27
ENDBRANCH  18  19
BRANCH   6  35
HETATM   35  C11 UNL     1      43.615  15.077  20.769  1.00  0.00     0.174 C 
BRANCH  35  36
HETATM   36  O2  UNL     1      42.431  15.230  21.442  1.00  0.00    -0.400 OA
ATOM     37  H2  UNL     1      42.507  15.542  22.337  1.00  0.00     0.209 HD
ENDBRANCH  35  36
ENDBRANCH   6  35
BRANCH   1  38
HETATM   38  C4  UNL     1      44.093  20.652  20.906  1.00  0.00     0.222 C 
HETATM   39  N1  UNL     1      44.651  21.939  20.703  1.00  0.00    -0.357 N 
ATOM     40  H1  UNL     1      44.794  22.259  19.745  1.00  0.00     0.162 HD
HETATM   41  O1  UNL     1      43.925  20.283  22.072  1.00  0.00    -0.273 OA
BRANCH  39  42
HETATM   42  C3  UNL     1      45.028  22.822  21.787  1.00  0.00     0.149 C 
BRANCH  42  43
HETATM   43  C2  UNL     1      44.064  23.974  21.765  1.00  0.00    -0.018 C 
HETATM   44  C1  UNL     1      43.940  24.725  20.681  1.00  0.00     0.008 C 
ENDBRANCH  42  43
ENDBRANCH  39  42
ENDBRANCH   1  38
TORSDOF 8
ENDMDL
MODEL 2
REMARK VINA RESULT: -8.613054834      0.944      1.167
REMARK  8 active torsions:
REMARK  status: ('A' for Active; 'I' for Inactive)
REMARK    1  A    between atoms: C2_2  and  C3_3 
REMARK    2  A    between atoms: C3_3  and  N1_4 
REMARK       I    between atoms: N1_4  and  C4_6 
REMARK    3  A    between atoms: C4_6  and  C5_8 
REMARK    4  A    between atoms: C10_13  and  C11_14 
REMARK    5  A    between atoms: C11_14  and  O2_15 
REMARK    6  A    between atoms: C23_28  and  C24_29 
REMARK       I    between atoms: C24_29  and  N2_31 
REMARK    7  A    between atoms: C27_34  and  C28_35 
REMARK       I    between atoms: C28_35  and  N3_37 
REMARK    8  A    between atoms: N3_37  and  C29_39 
ROOT
HETATM    1  C5  UNL     1      43.960  19.757  19.391  1.00  0.00     0.086 C 
HETATM    2  C6  UNL     1      43.017  18.626  19.871  1.00  0.00     0.020 C 
HETATM    3  C7  UNL     1      43.830  17.583  20.390  1.00  0.00     0.002 C 
HETATM    4  C8  UNL     1      45.178  17.976  19.798  1.00  0.00     0.000 C 
HETATM    5  C9  UNL     1      45.530  16.611  19.996  1.00  0.00     0.018 C 
HETATM    6  C10 UNL     1      44.067  16.192  19.868  1.00  0.00    -0.011 C 
HETATM    7  C12 UNL     1      43.771  15.939  18.461  1.00  0.00    -0.002 C 
HETATM    8  C13 UNL     1      43.009  14.713  17.998  1.00  0.00     0.011 C 
HETATM    9  C14 UNL     1      42.752  14.951  16.490  1.00  0.00    -0.000 C 
HETATM   10  C15 UNL     1      43.897  14.431  15.652  1.00  0.00     0.006 C 
HETATM   11  C16 UNL     1      44.680  15.638  15.172  1.00  0.00     0.011 C 
HETATM   12  C17 UNL     1      44.233  16.612  16.230  1.00  0.00    -0.028 C 
HETATM   13  C18 UNL     1      44.822  17.964  16.235  1.00  0.00     0.011 C 
HETATM   14  C19 UNL     1      44.415  18.754  17.395  1.00  0.00     0.011 C 
HETATM   15  C20 UNL     1      45.006  18.848  18.703  1.00  0.00    -0.028 C 
HETATM   16  C21 UNL     1      46.340  19.587  18.510  1.00  0.00     0.016 C 
HETATM   17  C22 UNL     1      44.862  16.000  17.501  1.00  0.00     0.015 C 
HETATM   18  C23 UNL     1      42.785  16.417  16.103  1.00  0.00     0.090 C 
ENDROOT
BRANCH  18  19
HETATM   19  C24 UNL     1      42.289  16.493  14.731  1.00  0.00     0.225 C 
HETATM   20  O3  UNL     1      41.721  15.491  14.171  1.00  0.00    -0.273 OA
HETATM   21  N2  UNL     1      42.372  17.627  13.912  1.00  0.00    -0.352 N 
HETATM   22  C25 UNL     1      42.895  18.911  14.286  1.00  0.00     0.126 C 
HETATM   23  C34 UNL     1      41.897  17.586  12.501  1.00  0.00     0.126 C 
HETATM   24  C26 UNL     1      42.113  19.983  13.520  1.00  0.00     0.034 C 
HETATM   25  C27 UNL     1      42.403  19.922  12.049  1.00  0.00     0.081 C 
HETATM   26  C33 UNL     1      42.837  18.505  11.747  1.00  0.00     0.034 C 
BRANCH  25  27
HETATM   27  C28 UNL     1      43.373  20.921  11.576  1.00  0.00     0.222 C 
HETATM   28  O4  UNL     1      44.384  21.165  12.305  1.00  0.00    -0.273 OA
HETATM   29  N3  UNL     1      43.254  21.627  10.362  1.00  0.00    -0.353 N 
ATOM     30  H3  UNL     1      42.442  21.433   9.775  1.00  0.00     0.163 HD
BRANCH  29  31
HETATM   31  C29 UNL     1      44.202  22.603   9.897  1.00  0.00     0.022 C 
HETATM   32  C30 UNL     1      43.800  23.143   8.520  1.00  0.00     0.037 C 
HETATM   33  C31 UNL     1      44.321  23.784  10.821  1.00  0.00     0.037 C 
HETATM   34  C32 UNL     1      45.571  21.978   9.706  1.00  0.00     0.037 C 
ENDBRANCH  29  31
ENDBRANCH  25  27
ENDBRANCH  18  19
BRANCH   6  35
HETATM   35  C11 UNL     1      43.614  15.112  20.809  1.00  0.00     0.174 C 
BRANCH  35  36
HETATM   36  O2  UNL     1      42.406  15.330  21.419  1.00  0.00    -0.400 OA
ATOM     37  H2  UNL     1      42.084  16.223  21.381  1.00  0.00     0.209 HD
ENDBRANCH  35  36
ENDBRANCH   6  35
BRANCH   1  38
HETATM   38  C4  UNL     1      44.431  20.636  20.413  1.00  0.00     0.222 C 
HETATM   39  N1  UNL     1      44.924  21.919  20.067  1.00  0.00    -0.357 N 
ATOM     40  H1  UNL     1      44.931  22.186  19.082  1.00  0.00     0.162 HD
HETATM   41  O1  UNL     1      44.428  20.331  21.609  1.00  0.00    -0.273 OA
BRANCH  39  42
HETATM   42  C3  UNL     1      45.418  22.869  21.041  1.00  0.00     0.149 C 
BRANCH  42  43
HETATM   43  C2  UNL     1      46.462  23.699  20.349  1.00  0.00    -0.018 C 
HETATM   44  C1  UNL     1      47.403  24.313  21.048  1.00  0.00     0.008 C 
ENDBRANCH  42  43
ENDBRANCH  39  42
ENDBRANCH   1  38
TORSDOF 8
ENDMDL
MODEL 3
REMARK VINA RESULT: -8.344212562      3.629      8.909
REMARK  8 active torsions:
REMARK  status: ('A' for Active; 'I' for Inactive)
REMARK    1  A    between atoms: C2_2  and  C3_3 
REMARK    2  A    between atoms: C3_3  and  N1_4 
REMARK       I    between atoms: N1_4  and  C4_6 
REMARK    3  A    between atoms: C4_6  and  C5_8 
REMARK    4  A    between atoms: C10_13  and  C11_14 
REMARK    5  A    between atoms: C11_14  and  O2_15 
REMARK    6  A    between atoms: C23_28  and  C24_29 
REMARK       I    between atoms: C24_29  and  N2_31 
REMARK    7  A    between atoms: C27_34  and  C28_35 
REMARK       I    between atoms: C28_35  and  N3_37 
REMARK    8  A    between atoms: N3_37  and  C29_39 
ROOT
HETATM    1  C5  UNL     1      45.003  19.813  20.899  1.00  0.00     0.086 C 
HETATM    2  C6  UNL     1      46.047  20.106  19.793  1.00  0.00     0.020 C 
HETATM    3  C7  UNL     1      45.343  20.593  18.659  1.00  0.00     0.002 C 
HETATM    4  C8  UNL     1      43.928  20.154  19.015  1.00  0.00     0.000 C 
HETATM    5  C9  UNL     1      43.672  20.253  17.618  1.00  0.00     0.018 C 
HETATM    6  C10 UNL     1      45.140  19.966  17.306  1.00  0.00    -0.011 C 
HETATM    7  C12 UNL     1      45.323  18.522  17.197  1.00  0.00    -0.002 C 
HETATM    8  C13 UNL     1      46.108  17.886  16.067  1.00  0.00     0.011 C 
HETATM    9  C14 UNL     1      46.217  16.391  16.451  1.00  0.00    -0.000 C 
HETATM   10  C15 UNL     1      45.033  15.607  15.933  1.00  0.00     0.006 C 
HETATM   11  C16 UNL     1      44.144  15.307  17.126  1.00  0.00     0.011 C 
HETATM   12  C17 UNL     1      44.627  16.409  18.030  1.00  0.00    -0.028 C 
HETATM   13  C18 UNL     1      43.966  16.588  19.336  1.00  0.00     0.011 C 
HETATM   14  C19 UNL     1      44.429  17.777  20.046  1.00  0.00     0.011 C 
HETATM   15  C20 UNL     1      43.953  19.134  19.989  1.00  0.00    -0.028 C 
HETATM   16  C21 UNL     1      42.568  19.121  20.654  1.00  0.00     0.016 C 
HETATM   17  C22 UNL     1      44.149  17.666  17.271  1.00  0.00     0.015 C 
HETATM   18  C23 UNL     1      46.067  16.144  17.940  1.00  0.00     0.090 C 
ENDROOT
BRANCH  18  19
HETATM   19  C24 UNL     1      46.434  14.749  18.167  1.00  0.00     0.225 C 
HETATM   20  O3  UNL     1      46.833  14.000  17.207  1.00  0.00    -0.273 OA
HETATM   21  N2  UNL     1      46.398  14.104  19.410  1.00  0.00    -0.352 N 
HETATM   22  C25 UNL     1      46.057  14.702  20.670  1.00  0.00     0.126 C 
HETATM   23  C34 UNL     1      46.728  12.656  19.529  1.00  0.00     0.126 C 
HETATM   24  C26 UNL     1      46.874  14.006  21.763  1.00  0.00     0.034 C 
HETATM   25  C27 UNL     1      46.440  12.581  21.944  1.00  0.00     0.081 C 
HETATM   26  C33 UNL     1      45.826  12.141  20.633  1.00  0.00     0.034 C 
BRANCH  25  27
HETATM   27  C28 UNL     1      45.544  12.356  23.088  1.00  0.00     0.222 C 
HETATM   28  O4  UNL     1      44.293  12.477  22.902  1.00  0.00    -0.273 OA
HETATM   29  N3  UNL     1      45.984  12.014  24.383  1.00  0.00    -0.353 N 
ATOM     30  H3  UNL     1      46.988  11.917  24.535  1.00  0.00     0.163 HD
BRANCH  29  31
HETATM   31  C29 UNL     1      45.110  11.793  25.502  1.00  0.00     0.022 C 
HETATM   32  C30 UNL     1      45.806  12.154  26.820  1.00  0.00     0.037 C 
HETATM   33  C31 UNL     1      43.850  12.611  25.427  1.00  0.00     0.037 C 
HETATM   34  C32 UNL     1      44.746  10.325  25.623  1.00  0.00     0.037 C 
ENDBRANCH  29  31
ENDBRANCH  25  27
ENDBRANCH  18  19
BRANCH   6  35
HETATM   35  C11 UNL     1      45.733  20.763  16.181  1.00  0.00     0.174 C 
BRANCH  35  36
HETATM   36  O2  UNL     1      44.974  20.830  15.041  1.00  0.00    -0.400 OA
ATOM     37  H2  UNL     1      45.426  21.145  14.267  1.00  0.00     0.209 HD
ENDBRANCH  35  36
ENDBRANCH   6  35
BRANCH   1  38
HETATM   38  C4  UNL     1      44.576  20.947  21.654  1.00  0.00     0.222 C 
HETATM   39  N1  UNL     1      45.101  22.230  21.357  1.00  0.00    -0.357 N 
ATOM     40  H1  UNL     1      45.779  22.312  20.600  1.00  0.00     0.162 HD
HETATM   41  O1  UNL     1      43.755  20.867  22.572  1.00  0.00    -0.273 OA
BRANCH  39  42
HETATM   42  C3  UNL     1      44.722  23.429  22.074  1.00  0.00     0.149 C 
BRANCH  42  43
HETATM   43  C2  UNL     1      44.150  24.380  21.062  1.00  0.00    -0.018 C 
HETATM   44  C1  UNL     1      44.388  24.208  19.771  1.00  0.00     0.008 C 
ENDBRANCH  42  43
ENDBRANCH  39  42
ENDBRANCH   1  38
TORSDOF 8
ENDMDL
MODEL 4
REMARK VINA RESULT: -8.316703731      3.957      7.229
REMARK  8 active torsions:
REMARK  status: ('A' for Active; 'I' for Inactive)
REMARK    1  A    between atoms: C2_2  and  C3_3 
REMARK    2  A    between atoms: C3_3  and  N1_4 
REMARK       I    between atoms: N1_4  and  C4_6 
REMARK    3  A    between atoms: C4_6  and  C5_8 
REMARK    4  A    between atoms: C10_13  and  C11_14 
REMARK    5  A    between atoms: C11_14  and  O2_15 
REMARK    6  A    between atoms: C23_28  and  C24_29 
REMARK       I    between atoms: C24_29  and  N2_31 
REMARK    7  A    between atoms: C27_34  and  C28_35 
REMARK       I    between atoms: C28_35  and  N3_37 
REMARK    8  A    between atoms: N3_37  and  C29_39 
ROOT
HETATM    1  C5  UNL     1      44.869  24.204  16.423  1.00  0.00     0.086 C 
HETATM    2  C6  UNL     1      43.676  23.241  16.203  1.00  0.00     0.020 C 
HETATM    3  C7  UNL     1      44.206  21.931  16.054  1.00  0.00     0.002 C 
HETATM    4  C8  UNL     1      45.666  22.265  15.771  1.00  0.00     0.000 C 
HETATM    5  C9  UNL     1      45.724  20.972  15.178  1.00  0.00     0.018 C 
HETATM    6  C10 UNL     1      44.234  21.032  14.848  1.00  0.00    -0.011 C 
HETATM    7  C12 UNL     1      44.068  21.654  13.538  1.00  0.00    -0.002 C 
HETATM    8  C13 UNL     1      43.147  21.082  12.478  1.00  0.00     0.011 C 
HETATM    9  C14 UNL     1      43.124  22.147  11.355  1.00  0.00    -0.000 C 
HETATM   10  C15 UNL     1      44.241  21.918  10.363  1.00  0.00     0.006 C 
HETATM   11  C16 UNL     1      45.293  22.980  10.627  1.00  0.00     0.011 C 
HETATM   12  C17 UNL     1      44.916  23.299  12.049  1.00  0.00    -0.028 C 
HETATM   13  C18 UNL     1      45.747  24.260  12.798  1.00  0.00     0.011 C 
HETATM   14  C19 UNL     1      45.362  24.366  14.203  1.00  0.00     0.011 C 
HETATM   15  C20 UNL     1      45.797  23.602  15.343  1.00  0.00    -0.028 C 
HETATM   16  C21 UNL     1      47.261  24.004  15.583  1.00  0.00     0.016 C 
HETATM   17  C22 UNL     1      45.258  21.974  12.766  1.00  0.00     0.015 C 
HETATM   18  C23 UNL     1      43.484  23.537  11.843  1.00  0.00     0.090 C 
ENDROOT
BRANCH  18  19
HETATM   19  C24 UNL     1      43.180  24.451  10.745  1.00  0.00     0.225 C 
HETATM   20  O3  UNL     1      42.639  24.035   9.661  1.00  0.00    -0.273 OA
HETATM   21  N2  UNL     1      43.434  25.829  10.758  1.00  0.00    -0.352 N 
HETATM   22  C25 UNL     1      43.971  26.586  11.854  1.00  0.00     0.126 C 
HETATM   23  C34 UNL     1      43.151  26.669   9.561  1.00  0.00     0.126 C 
HETATM   24  C26 UNL     1      43.359  27.989  11.808  1.00  0.00     0.034 C 
HETATM   25  C27 UNL     1      43.839  28.754  10.609  1.00  0.00     0.081 C 
HETATM   26  C33 UNL     1      44.232  27.731   9.566  1.00  0.00     0.034 C 
BRANCH  25  27
HETATM   27  C28 UNL     1      44.917  29.715  10.890  1.00  0.00     0.222 C 
HETATM   28  O4  UNL     1      45.010  30.183  12.067  1.00  0.00    -0.273 OA
HETATM   29  N3  UNL     1      45.857  30.150   9.934  1.00  0.00    -0.353 N 
ATOM     30  H3  UNL     1      45.784  29.776   8.988  1.00  0.00     0.163 HD
BRANCH  29  31
HETATM   31  C29 UNL     1      46.912  31.088  10.207  1.00  0.00     0.022 C 
HETATM   32  C30 UNL     1      46.362  32.516  10.311  1.00  0.00     0.037 C 
HETATM   33  C31 UNL     1      47.632  30.795  11.494  1.00  0.00     0.037 C 
HETATM   34  C32 UNL     1      47.915  31.120   9.069  1.00  0.00     0.037 C 
ENDBRANCH  29  31
ENDBRANCH  25  27
ENDBRANCH  18  19
BRANCH   6  35
HETATM   35  C11 UNL     1      43.474  19.751  15.037  1.00  0.00     0.174 C 
BRANCH  35  36
HETATM   36  O2  UNL     1      42.665  19.703  16.143  1.00  0.00    -0.400 OA
ATOM     37  H2  UNL     1      42.082  18.954  16.191  1.00  0.00     0.209 HD
ENDBRANCH  35  36
ENDBRANCH   6  35
BRANCH   1  38
HETATM   38  C4  UNL     1      45.372  24.259  17.759  1.00  0.00     0.222 C 
HETATM   39  N1  UNL     1      44.698  23.566  18.795  1.00  0.00    -0.357 N 
ATOM     40  H1  UNL     1      43.859  23.036  18.558  1.00  0.00     0.162 HD
HETATM   41  O1  UNL     1      46.386  24.892  18.064  1.00  0.00    -0.273 OA
BRANCH  39  42
HETATM   42  C3  UNL     1      45.141  23.571  20.173  1.00  0.00     0.149 C 
BRANCH  42  43
HETATM   43  C2  UNL     1      45.666  22.194  20.467  1.00  0.00    -0.018 C 
HETATM   44  C1  UNL     1      45.366  21.179  19.672  1.00  0.00     0.008 C 
ENDBRANCH  42  43
ENDBRANCH  39  42
ENDBRANCH   1  38
TORSDOF 8
ENDMDL
MODEL 5
REMARK VINA RESULT: -8.313201880      2.600      4.464
REMARK  8 active torsions:
REMARK  status: ('A' for Active; 'I' for Inactive)
REMARK    1  A    between atoms: C2_2  and  C3_3 
REMARK    2  A    between atoms: C3_3  and  N1_4 
REMARK       I    between atoms: N1_4  and  C4_6 
REMARK    3  A    between atoms: C4_6  and  C5_8 
REMARK    4  A    between atoms: C10_13  and  C11_14 
REMARK    5  A    between atoms: C11_14  and  O2_15 
REMARK    6  A    between atoms: C23_28  and  C24_29 
REMARK       I    between atoms: C24_29  and  N2_31 
REMARK    7  A    between atoms: C27_34  and  C28_35 
REMARK       I    between atoms: C28_35  and  N3_37 
REMARK    8  A    between atoms: N3_37  and  C29_39 
ROOT
HETATM    1  C5  UNL     1      44.458  24.716  18.262  1.00  0.00     0.086 C 
HETATM    2  C6  UNL     1      43.505  24.068  19.297  1.00  0.00     0.020 C 
HETATM    3  C7  UNL     1      44.286  23.699  20.425  1.00  0.00     0.002 C 
HETATM    4  C8  UNL     1      45.680  23.759  19.814  1.00  0.00     0.000 C 
HETATM    5  C9  UNL     1      46.055  22.890  20.877  1.00  0.00     0.018 C 
HETATM    6  C10 UNL     1      44.634  22.335  20.954  1.00  0.00    -0.011 C 
HETATM    7  C12 UNL     1      44.521  21.205  20.035  1.00  0.00    -0.002 C 
HETATM    8  C13 UNL     1      43.865  19.897  20.432  1.00  0.00     0.011 C 
HETATM    9  C14 UNL     1      43.785  19.079  19.121  1.00  0.00    -0.000 C 
HETATM   10  C15 UNL     1      45.041  18.267  18.907  1.00  0.00     0.006 C 
HETATM   11  C16 UNL     1      45.833  18.955  17.810  1.00  0.00     0.011 C 
HETATM   12  C17 UNL     1      45.226  20.327  17.943  1.00  0.00    -0.028 C 
HETATM   13  C18 UNL     1      45.761  21.417  17.107  1.00  0.00     0.011 C 
HETATM   14  C19 UNL     1      45.188  22.719  17.440  1.00  0.00     0.011 C 
HETATM   15  C20 UNL     1      45.612  23.696  18.407  1.00  0.00    -0.028 C 
HETATM   16  C21 UNL     1      46.931  24.273  17.871  1.00  0.00     0.016 C 
HETATM   17  C22 UNL     1      45.717  20.749  19.346  1.00  0.00     0.015 C 
HETATM   18  C23 UNL     1      43.813  19.944  17.875  1.00  0.00     0.090 C 
ENDROOT
BRANCH  18  19
HETATM   19  C24 UNL     1      43.484  19.064  16.756  1.00  0.00     0.225 C 
HETATM   20  O3  UNL     1      43.384  17.797  16.910  1.00  0.00    -0.273 OA
HETATM   21  N2  UNL     1      43.246  19.495  15.444  1.00  0.00    -0.352 N 
HETATM   22  C25 UNL     1      43.223  20.856  14.985  1.00  0.00     0.126 C 
HETATM   23  C34 UNL     1      42.984  18.513  14.354  1.00  0.00     0.126 C 
HETATM   24  C26 UNL     1      42.201  20.956  13.848  1.00  0.00     0.034 C 
HETATM   25  C27 UNL     1      42.661  20.204  12.634  1.00  0.00     0.081 C 
HETATM   26  C33 UNL     1      43.610  19.129  13.118  1.00  0.00     0.034 C 
BRANCH  25  27
HETATM   27  C28 UNL     1      43.253  21.045  11.582  1.00  0.00     0.222 C 
HETATM   28  O4  UNL     1      43.938  20.476  10.677  1.00  0.00    -0.273 OA
HETATM   29  N3  UNL     1      43.108  22.445  11.514  1.00  0.00    -0.353 N 
ATOM     30  H3  UNL     1      42.559  22.904  12.240  1.00  0.00     0.163 HD
BRANCH  29  31
HETATM   31  C29 UNL     1      43.685  23.268  10.486  1.00  0.00     0.022 C 
HETATM   32  C30 UNL     1      43.369  24.749  10.728  1.00  0.00     0.037 C 
HETATM   33  C31 UNL     1      45.182  23.140  10.410  1.00  0.00     0.037 C 
HETATM   34  C32 UNL     1      43.087  22.940   9.131  1.00  0.00     0.037 C 
ENDBRANCH  29  31
ENDBRANCH  25  27
ENDBRANCH  18  19
BRANCH   6  35
HETATM   35  C11 UNL     1      44.110  22.075  22.337  1.00  0.00     0.174 C 
BRANCH  35  36
HETATM   36  O2  UNL     1      44.618  20.966  22.962  1.00  0.00    -0.400 OA
ATOM     37  H2  UNL     1      44.254  20.777  23.819  1.00  0.00     0.209 HD
ENDBRANCH  35  36
ENDBRANCH   6  35
BRANCH   1  38
HETATM   38  C4  UNL     1      44.768  26.091  18.493  1.00  0.00     0.222 C 
HETATM   39  N1  UNL     1      43.724  27.045  18.574  1.00  0.00    -0.357 N 
ATOM     40  H1  UNL     1      42.763  26.722  18.466  1.00  0.00     0.162 HD
HETATM   41  O1  UNL     1      45.925  26.499  18.629  1.00  0.00    -0.273 OA
BRANCH  39  42
HETATM   42  C3  UNL     1      43.953  28.456  18.805  1.00  0.00     0.149 C 
BRANCH  42  43
HETATM   43  C2  UNL     1      42.733  28.987  19.502  1.00  0.00    -0.018 C 
HETATM   44  C1  UNL     1      42.555  30.291  19.642  1.00  0.00     0.008 C 
ENDBRANCH  42  43
ENDBRANCH  39  42
ENDBRANCH   1  38
TORSDOF 8
ENDMDL
