MODEL 1
REMARK VINA RESULT: -7.311951929      0.000      0.000
REMARK  4 active torsions:
REMARK  status: ('A' for Active; 'I' for Inactive)
REMARK    1  A    between atoms: C2_2  and  C3_3 
REMARK    2  A    between atoms: C4_4  and  O1_5 
REMARK    3  A    between atoms: C16_19  and  O4_20 
REMARK    4  A    between atoms: O4_20  and  C17_21 
ROOT
HETATM    1  C3  UNL     1      -3.225   3.889  11.948  1.00  0.00     0.080 A 
HETATM    2  C4  UNL     1      -3.686   2.897  12.523  1.00  0.00     0.178 A 
HETATM    3  C6  UNL     1      -4.143   4.306  12.145  1.00  0.00     0.144 A 
HETATM    4  O2  UNL     1      -2.991   5.226  12.332  1.00  0.00     0.000 OA
HETATM    5  C7  UNL     1      -2.597   6.126  13.163  1.00  0.00    -0.009 C 
HETATM    6  C8  UNL     1      -1.346   5.245  13.492  1.00  0.00     0.016 C 
HETATM    7  C9  UNL     1      -2.231   4.717  14.707  1.00  0.00     0.034 C 
HETATM    8  C10 UNL     1      -3.519   4.697  14.301  1.00  0.00    -0.058 C 
HETATM    9  C11 UNL     1      -4.611   4.432  15.041  1.00  0.00     0.009 C 
HETATM   10  C12 UNL     1      -6.029   4.267  14.983  1.00  0.00     0.014 C 
HETATM   11  C13 UNL     1      -4.429   6.175  15.282  1.00  0.00     0.009 C 
HETATM   12  C14 UNL     1      -3.158   6.516  14.463  1.00  0.00     0.013 C 
HETATM   13  C15 UNL     1      -4.121   4.837  12.936  1.00  0.00     0.146 A 
HETATM   14  O3  UNL     1      -5.107   4.174  12.956  1.00  0.00    -0.351 OA
HETATM   15  C16 UNL     1      -4.685   6.090  12.324  1.00  0.00     0.308 C 
HETATM   16  O6  UNL     1      -3.803   6.838  11.465  1.00  0.00    -0.356 OA
HETATM   17  C19 UNL     1      -2.636   7.212  12.239  1.00  0.00     0.181 C 
ENDROOT
BRANCH  15  18
HETATM   18  O4  UNL     1      -5.835   5.928  11.529  1.00  0.00    -0.286 OA
BRANCH  18  19
HETATM   19  C17 UNL     1      -6.451   6.818  10.760  1.00  0.00     0.257 C 
HETATM   20  C18 UNL     1      -6.938   8.150  11.185  1.00  0.00     0.126 C 
HETATM   21  O5  UNL     1      -6.632   6.486   9.561  1.00  0.00    -0.266 OA
ENDBRANCH  18  19
ENDBRANCH  15  18
BRANCH   1  22
HETATM   22  C2  UNL     1      -2.428   3.702  10.941  1.00  0.00    -0.038 C 
HETATM   23  C1  UNL     1      -2.723   4.272   9.623  1.00  0.00     0.032 C 
ENDBRANCH   1  22
BRANCH   2  24
HETATM   24  O1  UNL     1      -4.576   1.996  12.056  1.00  0.00    -0.386 OA
HETATM   25  C5  UNL     1      -4.469   0.834  12.817  1.00  0.00     0.202 C 
ENDBRANCH   2  24
TORSDOF 4
ENDMDL
MODEL 2
REMARK VINA RESULT: -6.845033893      1.284      4.471
REMARK  4 active torsions:
REMARK  status: ('A' for Active; 'I' for Inactive)
REMARK    1  A    between atoms: C2_2  and  C3_3 
REMARK    2  A    between atoms: C4_4  and  O1_5 
REMARK    3  A    between atoms: C16_19  and  O4_20 
REMARK    4  A    between atoms: O4_20  and  C17_21 
ROOT
HETATM    1  C3  UNL     1      -4.646   5.823  13.749  1.00  0.00     0.080 A 
HETATM    2  C4  UNL     1      -5.113   6.357  12.738  1.00  0.00     0.178 A 
HETATM    3  C6  UNL     1      -4.637   4.971  13.175  1.00  0.00     0.144 A 
HETATM    4  O2  UNL     1      -3.440   5.150  14.038  1.00  0.00     0.000 OA
HETATM    5  C7  UNL     1      -2.164   5.006  13.963  1.00  0.00    -0.009 C 
HETATM    6  C8  UNL     1      -1.997   6.541  14.214  1.00  0.00     0.016 C 
HETATM    7  C9  UNL     1      -1.933   6.637  12.625  1.00  0.00     0.034 C 
HETATM    8  C10 UNL     1      -2.746   5.684  12.122  1.00  0.00    -0.058 C 
HETATM    9  C11 UNL     1      -2.904   5.333  10.833  1.00  0.00     0.009 C 
HETATM   10  C12 UNL     1      -3.644   4.486   9.952  1.00  0.00     0.014 C 
HETATM   11  C13 UNL     1      -1.550   4.305  11.321  1.00  0.00     0.009 C 
HETATM   12  C14 UNL     1      -1.319   4.702  12.801  1.00  0.00     0.013 C 
HETATM   13  C15 UNL     1      -3.781   4.825  12.785  1.00  0.00     0.146 A 
HETATM   14  O3  UNL     1      -4.610   4.633  11.956  1.00  0.00    -0.351 OA
HETATM   15  C16 UNL     1      -3.600   3.415  13.276  1.00  0.00     0.308 C 
HETATM   16  O6  UNL     1      -3.296   3.257  14.676  1.00  0.00    -0.356 OA
HETATM   17  C19 UNL     1      -2.070   3.981  14.950  1.00  0.00     0.181 C 
ENDROOT
BRANCH  15  18
HETATM   18  O4  UNL     1      -4.695   2.550  13.095  1.00  0.00    -0.286 OA
BRANCH  18  19
HETATM   19  C17 UNL     1      -4.725   1.344  12.541  1.00  0.00     0.257 C 
HETATM   20  C18 UNL     1      -5.103   1.034  11.144  1.00  0.00     0.126 C 
HETATM   21  O5  UNL     1      -4.399   0.383  13.284  1.00  0.00    -0.266 OA
ENDBRANCH  18  19
ENDBRANCH  15  18
BRANCH   1  22
HETATM   22  C2  UNL     1      -5.074   6.221  14.909  1.00  0.00    -0.038 C 
HETATM   23  C1  UNL     1      -6.072   5.448  15.655  1.00  0.00     0.032 C 
ENDBRANCH   1  22
BRANCH   2  24
HETATM   24  O1  UNL     1      -6.366   6.266  12.244  1.00  0.00    -0.386 OA
HETATM   25  C5  UNL     1      -6.657   7.443  11.557  1.00  0.00     0.202 C 
ENDBRANCH   2  24
TORSDOF 4
ENDMDL
MODEL 3
REMARK VINA RESULT: -6.805303971      1.842      4.292
REMARK  4 active torsions:
REMARK  status: ('A' for Active; 'I' for Inactive)
REMARK    1  A    between atoms: C2_2  and  C3_3 
REMARK    2  A    between atoms: C4_4  and  O1_5 
REMARK    3  A    between atoms: C16_19  and  O4_20 
REMARK    4  A    between atoms: O4_20  and  C17_21 
ROOT
HETATM    1  C3  UNL     1      -3.928   3.770  12.088  1.00  0.00     0.080 A 
HETATM    2  C4  UNL     1      -2.733   3.948  11.825  1.00  0.00     0.178 A 
HETATM    3  C6  UNL     1      -3.588   3.573  13.037  1.00  0.00     0.144 A 
HETATM    4  O2  UNL     1      -4.839   4.374  12.980  1.00  0.00     0.000 OA
HETATM    5  C7  UNL     1      -5.363   5.393  13.565  1.00  0.00    -0.009 C 
HETATM    6  C8  UNL     1      -5.367   6.151  12.195  1.00  0.00     0.016 C 
HETATM    7  C9  UNL     1      -3.982   6.754  12.701  1.00  0.00     0.034 C 
HETATM    8  C10 UNL     1      -3.363   5.805  13.434  1.00  0.00    -0.058 C 
HETATM    9  C11 UNL     1      -2.227   5.927  14.146  1.00  0.00     0.009 C 
HETATM   10  C12 UNL     1      -1.288   5.207  14.947  1.00  0.00     0.014 C 
HETATM   11  C13 UNL     1      -3.445   6.429  15.326  1.00  0.00     0.009 C 
HETATM   12  C14 UNL     1      -4.772   6.328  14.531  1.00  0.00     0.013 C 
HETATM   13  C15 UNL     1      -3.650   4.343  13.594  1.00  0.00     0.146 A 
HETATM   14  O3  UNL     1      -2.593   3.831  13.776  1.00  0.00    -0.351 OA
HETATM   15  C16 UNL     1      -4.427   3.695  14.707  1.00  0.00     0.308 C 
HETATM   16  O6  UNL     1      -5.819   3.429  14.448  1.00  0.00    -0.356 OA
HETATM   17  C19 UNL     1      -6.464   4.690  14.136  1.00  0.00     0.181 C 
ENDROOT
BRANCH  15  18
HETATM   18  O4  UNL     1      -3.948   2.449  15.153  1.00  0.00    -0.286 OA
BRANCH  18  19
HETATM   19  C17 UNL     1      -4.355   1.718  16.185  1.00  0.00     0.257 C 
HETATM   20  C18 UNL     1      -5.430   2.073  17.136  1.00  0.00     0.126 C 
HETATM   21  O5  UNL     1      -3.761   0.623  16.357  1.00  0.00    -0.266 OA
ENDBRANCH  18  19
ENDBRANCH  15  18
BRANCH   1  22
HETATM   22  C2  UNL     1      -4.682   3.224  11.182  1.00  0.00    -0.038 C 
HETATM   23  C1  UNL     1      -5.144   1.839  11.313  1.00  0.00     0.032 C 
ENDBRANCH   1  22
BRANCH   2  24
HETATM   24  O1  UNL     1      -1.766   3.023  11.656  1.00  0.00    -0.386 OA
HETATM   25  C5  UNL     1      -0.612   3.666  11.212  1.00  0.00     0.202 C 
ENDBRANCH   2  24
TORSDOF 4
ENDMDL
MODEL 4
REMARK VINA RESULT: -6.777039748      1.257      2.322
REMARK  4 active torsions:
REMARK  status: ('A' for Active; 'I' for Inactive)
REMARK    1  A    between atoms: C2_2  and  C3_3 
REMARK    2  A    between atoms: C4_4  and  O1_5 
REMARK    3  A    between atoms: C16_19  and  O4_20 
REMARK    4  A    between atoms: O4_20  and  C17_21 
ROOT
HETATM    1  C3  UNL     1      -3.977   3.058  12.772  1.00  0.00     0.080 A 
HETATM    2  C4  UNL     1      -4.124   3.191  13.992  1.00  0.00     0.178 A 
HETATM    3  C6  UNL     1      -4.402   3.992  12.719  1.00  0.00     0.144 A 
HETATM    4  O2  UNL     1      -3.268   3.773  11.784  1.00  0.00     0.000 OA
HETATM    5  C7  UNL     1      -2.236   4.408  11.350  1.00  0.00    -0.009 C 
HETATM    6  C8  UNL     1      -1.319   3.307  11.980  1.00  0.00     0.016 C 
HETATM    7  C9  UNL     1      -1.233   4.307  13.218  1.00  0.00     0.034 C 
HETATM    8  C10 UNL     1      -2.420   4.944  13.316  1.00  0.00    -0.058 C 
HETATM    9  C11 UNL     1      -2.746   5.954  14.144  1.00  0.00     0.009 C 
HETATM   10  C12 UNL     1      -3.820   6.796  14.565  1.00  0.00     0.014 C 
HETATM   11  C13 UNL     1      -2.084   6.827  12.755  1.00  0.00     0.009 C 
HETATM   12  C14 UNL     1      -1.670   5.691  11.786  1.00  0.00     0.013 C 
HETATM   13  C15 UNL     1      -3.739   4.672  12.657  1.00  0.00     0.146 A 
HETATM   14  O3  UNL     1      -4.561   5.019  13.441  1.00  0.00    -0.351 OA
HETATM   15  C16 UNL     1      -4.283   5.339  11.425  1.00  0.00     0.308 C 
HETATM   16  O6  UNL     1      -4.084   4.646  10.178  1.00  0.00    -0.356 OA
HETATM   17  C19 UNL     1      -2.658   4.467   9.989  1.00  0.00     0.181 C 
ENDROOT
BRANCH  15  18
HETATM   18  O4  UNL     1      -5.667   5.600  11.421  1.00  0.00    -0.286 OA
BRANCH  18  19
HETATM   19  C17 UNL     1      -6.333   6.570  10.805  1.00  0.00     0.257 C 
HETATM   20  C18 UNL     1      -6.414   7.983  11.236  1.00  0.00     0.126 C 
HETATM   21  O5  UNL     1      -6.948   6.243   9.758  1.00  0.00    -0.266 OA
ENDBRANCH  18  19
ENDBRANCH  15  18
BRANCH   1  22
HETATM   22  C2  UNL     1      -4.136   1.876  12.258  1.00  0.00    -0.038 C 
HETATM   23  C1  UNL     1      -5.257   1.584  11.360  1.00  0.00     0.032 C 
ENDBRANCH   1  22
BRANCH   2  24
HETATM   24  O1  UNL     1      -5.259   3.090  14.715  1.00  0.00    -0.386 OA
HETATM   25  C5  UNL     1      -4.953   2.492  15.936  1.00  0.00     0.202 C 
ENDBRANCH   2  24
TORSDOF 4
ENDMDL
MODEL 5
REMARK VINA RESULT: -6.621244053      1.980      4.184
REMARK  4 active torsions:
REMARK  status: ('A' for Active; 'I' for Inactive)
REMARK    1  A    between atoms: C2_2  and  C3_3 
REMARK    2  A    between atoms: C4_4  and  O1_5 
REMARK    3  A    between atoms: C16_19  and  O4_20 
REMARK    4  A    between atoms: O4_20  and  C17_21 
ROOT
HETATM    1  C3  UNL     1      -2.919   4.998   8.949  1.00  0.00     0.080 A 
HETATM    2  C4  UNL     1      -1.767   4.554   8.904  1.00  0.00     0.178 A 
HETATM    3  C6  UNL     1      -3.064   4.276   9.665  1.00  0.00     0.144 A 
HETATM    4  O2  UNL     1      -3.709   5.581   9.961  1.00  0.00     0.000 OA
HETATM    5  C7  UNL     1      -3.886   6.367  10.964  1.00  0.00    -0.009 C 
HETATM    6  C8  UNL     1      -3.066   7.471  10.218  1.00  0.00     0.016 C 
HETATM    7  C9  UNL     1      -1.837   6.908  11.061  1.00  0.00     0.034 C 
HETATM    8  C10 UNL     1      -2.014   5.579  11.211  1.00  0.00    -0.058 C 
HETATM    9  C11 UNL     1      -1.280   4.729  11.952  1.00  0.00     0.009 C 
HETATM   10  C12 UNL     1      -1.116   3.354  12.304  1.00  0.00     0.014 C 
HETATM   11  C13 UNL     1      -2.470   5.296  13.132  1.00  0.00     0.009 C 
HETATM   12  C14 UNL     1      -3.322   6.303  12.319  1.00  0.00     0.013 C 
HETATM   13  C15 UNL     1      -2.965   4.632  10.542  1.00  0.00     0.146 A 
HETATM   14  O3  UNL     1      -2.393   3.592  10.492  1.00  0.00    -0.351 OA
HETATM   15  C16 UNL     1      -4.287   4.155  11.078  1.00  0.00     0.308 C 
HETATM   16  O6  UNL     1      -5.457   4.862  10.623  1.00  0.00    -0.356 OA
HETATM   17  C19 UNL     1      -5.308   6.257  10.993  1.00  0.00     0.181 C 
ENDROOT
BRANCH  15  18
HETATM   18  O4  UNL     1      -4.612   2.811  10.817  1.00  0.00    -0.286 OA
BRANCH  18  19
HETATM   19  C17 UNL     1      -4.923   1.845  11.674  1.00  0.00     0.257 C 
HETATM   20  C18 UNL     1      -4.701   1.871  13.136  1.00  0.00     0.126 C 
HETATM   21  O5  UNL     1      -5.456   0.818  11.183  1.00  0.00    -0.266 OA
ENDBRANCH  18  19
ENDBRANCH  15  18
BRANCH   1  22
HETATM   22  C2  UNL     1      -3.463   5.408   7.843  1.00  0.00    -0.038 C 
HETATM   23  C1  UNL     1      -2.689   6.158   6.849  1.00  0.00     0.032 C 
ENDBRANCH   1  22
BRANCH   2  24
HETATM   24  O1  UNL     1      -1.330   3.413   8.331  1.00  0.00    -0.386 OA
HETATM   25  C5  UNL     1      -0.087   3.659   7.749  1.00  0.00     0.202 C 
ENDBRANCH   2  24
TORSDOF 4
ENDMDL
