MODEL 1
REMARK VINA RESULT: -6.218072064      0.000      0.000
REMARK  8 active torsions:
REMARK  status: ('A' for Active; 'I' for Inactive)
REMARK    1  A    between atoms: C2_2  and  C3_3 
REMARK    2  A    between atoms: C3_3  and  C4_4 
REMARK    3  A    between atoms: C4_4  and  C5_5 
REMARK    4  A    between atoms: C5_5  and  N1_6 
REMARK    5  A    between atoms: C8_9  and  O1_10 
REMARK    6  A    between atoms: C9_12  and  O2_13 
REMARK    7  A    between atoms: C16_20  and  O3_21 
REMARK    8  A    between atoms: C17_23  and  O4_24 
ROOT
HETATM    1  N1  UNL     1      -2.411  53.063  11.484  1.00  0.00     0.095 N 
HETATM    2  C6  UNL     1      -1.094  53.366  10.886  1.00  0.00     0.290 C 
HETATM    3  C7  UNL     1      -1.060  52.009  10.407  1.00  0.00     0.074 C 
HETATM    4  C8  UNL     1       0.055  51.066  10.553  1.00  0.00     0.162 C 
HETATM    5  C9  UNL     1      -0.604  49.685  10.692  1.00  0.00     0.158 C 
HETATM    6  C11 UNL     1      -2.062  49.722  10.281  1.00  0.00     0.060 C 
HETATM    7  C12 UNL     1      -2.803  50.568  11.333  1.00  0.00     0.029 C 
HETATM    8  C13 UNL     1      -4.235  50.754  11.001  1.00  0.00     0.007 C 
HETATM    9  C14 UNL     1      -4.573  51.132   9.609  1.00  0.00     0.004 C 
HETATM   10  C15 UNL     1      -3.679  50.549   8.581  1.00  0.00     0.041 C 
HETATM   11  C16 UNL     1      -2.242  50.425   8.967  1.00  0.00     0.091 C 
HETATM   12  C17 UNL     1      -1.655  51.794   9.058  1.00  0.00     0.168 C 
HETATM   13  C18 UNL     1      -1.977  51.740  11.575  1.00  0.00     0.243 C 
ENDROOT
BRANCH   1  14
HETATM   14  C5  UNL     1      -2.702  53.714  12.696  1.00  0.00     0.273 C 
BRANCH  14  15
HETATM   15  C4  UNL     1      -4.107  53.975  13.046  1.00  0.00     0.030 C 
BRANCH  15  16
HETATM   16  C3  UNL     1      -4.708  52.864  13.921  1.00  0.00     0.001 C 
BRANCH  16  17
HETATM   17  C2  UNL     1      -6.173  53.206  14.229  1.00  0.00    -0.005 C 
HETATM   18  C1  UNL     1      -7.075  52.809  13.123  1.00  0.00     0.005 C 
ENDBRANCH  16  17
ENDBRANCH  15  16
ENDBRANCH  14  15
ENDBRANCH   1  14
BRANCH   4  19
HETATM   19  O1  UNL     1       0.989  51.077   9.526  1.00  0.00    -0.392 OA
ATOM     20  H1  UNL     1       0.641  51.233   8.655  1.00  0.00     0.210 HD
ENDBRANCH   4  19
BRANCH  12  21
HETATM   21  O4  UNL     1      -2.477  52.801   8.627  1.00  0.00    -0.392 OA
ATOM     22  H4  UNL     1      -2.577  52.856   7.684  1.00  0.00     0.210 HD
ENDBRANCH  12  21
BRANCH   5  23
HETATM   23  O2  UNL     1       0.121  48.690  10.092  1.00  0.00    -0.388 OA
HETATM   24  C10 UNL     1      -0.152  47.424  10.653  1.00  0.00     0.202 C 
ENDBRANCH   5  23
BRANCH  11  25
HETATM   25  O3  UNL     1      -1.616  49.627   7.992  1.00  0.00    -0.387 OA
ATOM     26  H3  UNL     1      -2.242  49.517   7.285  1.00  0.00     0.210 HD
ENDBRANCH  11  25
TORSDOF 8
ENDMDL
MODEL 2
REMARK VINA RESULT: -6.141691387      3.667      6.816
REMARK  8 active torsions:
REMARK  status: ('A' for Active; 'I' for Inactive)
REMARK    1  A    between atoms: C2_2  and  C3_3 
REMARK    2  A    between atoms: C3_3  and  C4_4 
REMARK    3  A    between atoms: C4_4  and  C5_5 
REMARK    4  A    between atoms: C5_5  and  N1_6 
REMARK    5  A    between atoms: C8_9  and  O1_10 
REMARK    6  A    between atoms: C9_12  and  O2_13 
REMARK    7  A    between atoms: C16_20  and  O3_21 
REMARK    8  A    between atoms: C17_23  and  O4_24 
ROOT
HETATM    1  N1  UNL     1      -3.825  53.469  12.577  1.00  0.00     0.095 N 
HETATM    2  C6  UNL     1      -3.949  54.134  13.890  1.00  0.00     0.290 C 
HETATM    3  C7  UNL     1      -5.332  54.379  13.576  1.00  0.00     0.074 C 
HETATM    4  C8  UNL     1      -6.035  55.662  13.693  1.00  0.00     0.162 C 
HETATM    5  C9  UNL     1      -7.066  55.660  12.555  1.00  0.00     0.158 C 
HETATM    6  C11 UNL     1      -7.249  54.272  11.974  1.00  0.00     0.060 C 
HETATM    7  C12 UNL     1      -5.937  53.910  11.255  1.00  0.00     0.029 C 
HETATM    8  C13 UNL     1      -5.954  52.533  10.709  1.00  0.00     0.007 C 
HETATM    9  C14 UNL     1      -6.449  51.451  11.593  1.00  0.00     0.004 C 
HETATM   10  C15 UNL     1      -7.536  51.861  12.513  1.00  0.00     0.041 C 
HETATM   11  C16 UNL     1      -7.437  53.248  13.056  1.00  0.00     0.091 C 
HETATM   12  C17 UNL     1      -6.280  53.309  13.997  1.00  0.00     0.168 C 
HETATM   13  C18 UNL     1      -4.857  54.304  12.145  1.00  0.00     0.243 C 
ENDROOT
BRANCH   1  14
HETATM   14  C5  UNL     1      -2.587  53.613  11.927  1.00  0.00     0.273 C 
BRANCH  14  15
HETATM   15  C4  UNL     1      -2.108  52.529  11.055  1.00  0.00     0.030 C 
BRANCH  15  16
HETATM   16  C3  UNL     1      -1.450  51.388  11.847  1.00  0.00     0.001 C 
BRANCH  16  17
HETATM   17  C2  UNL     1      -2.405  50.186  11.882  1.00  0.00    -0.005 C 
HETATM   18  C1  UNL     1      -2.888  49.907  13.255  1.00  0.00     0.005 C 
ENDBRANCH  16  17
ENDBRANCH  15  16
ENDBRANCH  14  15
ENDBRANCH   1  14
BRANCH   4  19
HETATM   19  O1  UNL     1      -6.638  55.906  14.920  1.00  0.00    -0.392 OA
ATOM     20  H1  UNL     1      -6.806  56.820  15.121  1.00  0.00     0.210 HD
ENDBRANCH   4  19
BRANCH  12  21
HETATM   21  O4  UNL     1      -5.697  52.100  14.268  1.00  0.00    -0.392 OA
ATOM     22  H4  UNL     1      -5.588  51.910  15.192  1.00  0.00     0.210 HD
ENDBRANCH  12  21
BRANCH   5  23
HETATM   23  O2  UNL     1      -8.237  56.281  12.901  1.00  0.00    -0.388 OA
HETATM   24  C10 UNL     1      -9.047  56.547  11.777  1.00  0.00     0.202 C 
ENDBRANCH   5  23
BRANCH  11  25
HETATM   25  O3  UNL     1      -8.664  53.539  13.680  1.00  0.00    -0.387 OA
ATOM     26  H3  UNL     1      -8.492  54.223  14.317  1.00  0.00     0.210 HD
ENDBRANCH  11  25
TORSDOF 8
ENDMDL
MODEL 3
REMARK VINA RESULT: -6.121378602      4.535      6.887
REMARK  8 active torsions:
REMARK  status: ('A' for Active; 'I' for Inactive)
REMARK    1  A    between atoms: C2_2  and  C3_3 
REMARK    2  A    between atoms: C3_3  and  C4_4 
REMARK    3  A    between atoms: C4_4  and  C5_5 
REMARK    4  A    between atoms: C5_5  and  N1_6 
REMARK    5  A    between atoms: C8_9  and  O1_10 
REMARK    6  A    between atoms: C9_12  and  O2_13 
REMARK    7  A    between atoms: C16_20  and  O3_21 
REMARK    8  A    between atoms: C17_23  and  O4_24 
ROOT
HETATM    1  N1  UNL     1      -7.846  52.639  10.943  1.00  0.00     0.095 N 
HETATM    2  C6  UNL     1      -7.433  51.590  11.897  1.00  0.00     0.290 C 
HETATM    3  C7  UNL     1      -6.601  52.575  12.538  1.00  0.00     0.074 C 
HETATM    4  C8  UNL     1      -5.188  52.415  12.898  1.00  0.00     0.162 C 
HETATM    5  C9  UNL     1      -4.572  53.813  12.735  1.00  0.00     0.158 C 
HETATM    6  C11 UNL     1      -5.641  54.881  12.629  1.00  0.00     0.060 C 
HETATM    7  C12 UNL     1      -6.365  54.662  11.288  1.00  0.00     0.029 C 
HETATM    8  C13 UNL     1      -7.498  55.597  11.098  1.00  0.00     0.007 C 
HETATM    9  C14 UNL     1      -8.429  55.787  12.235  1.00  0.00     0.004 C 
HETATM   10  C15 UNL     1      -7.788  55.714  13.570  1.00  0.00     0.041 C 
HETATM   11  C16 UNL     1      -6.679  54.723  13.702  1.00  0.00     0.091 C 
HETATM   12  C17 UNL     1      -7.257  53.349  13.629  1.00  0.00     0.168 C 
HETATM   13  C18 UNL     1      -6.605  53.231  11.179  1.00  0.00     0.243 C 
ENDROOT
BRANCH   1  14
HETATM   14  C5  UNL     1      -8.098  52.212   9.627  1.00  0.00     0.273 C 
BRANCH  14  15
HETATM   15  C4  UNL     1      -9.270  52.746   8.915  1.00  0.00     0.030 C 
BRANCH  15  16
HETATM   16  C3  UNL     1      -8.960  54.063   8.186  1.00  0.00     0.001 C 
BRANCH  16  17
HETATM   17  C2  UNL     1      -7.536  53.998   7.618  1.00  0.00    -0.005 C 
HETATM   18  C1  UNL     1      -6.948  55.348   7.451  1.00  0.00     0.005 C 
ENDBRANCH  16  17
ENDBRANCH  15  16
ENDBRANCH  14  15
ENDBRANCH   1  14
BRANCH   4  19
HETATM   19  O1  UNL     1      -4.946  51.902  14.165  1.00  0.00    -0.392 OA
ATOM     20  H1  UNL     1      -5.631  52.051  14.806  1.00  0.00     0.210 HD
ENDBRANCH   4  19
BRANCH  12  21
HETATM   21  O4  UNL     1      -8.625  53.302  13.623  1.00  0.00    -0.392 OA
ATOM     22  H4  UNL     1      -9.010  53.037  12.796  1.00  0.00     0.210 HD
ENDBRANCH  12  21
BRANCH   5  23
HETATM   23  O2  UNL     1      -3.606  54.077  13.668  1.00  0.00    -0.388 OA
HETATM   24  C10 UNL     1      -2.307  54.014  13.119  1.00  0.00     0.202 C 
ENDBRANCH   5  23
BRANCH  11  25
HETATM   25  O3  UNL     1      -6.036  54.980  14.928  1.00  0.00    -0.387 OA
ATOM     26  H3  UNL     1      -6.533  54.526  15.598  1.00  0.00     0.210 HD
ENDBRANCH  11  25
TORSDOF 8
ENDMDL
MODEL 4
REMARK VINA RESULT: -6.080679776      4.541      6.847
REMARK  8 active torsions:
REMARK  status: ('A' for Active; 'I' for Inactive)
REMARK    1  A    between atoms: C2_2  and  C3_3 
REMARK    2  A    between atoms: C3_3  and  C4_4 
REMARK    3  A    between atoms: C4_4  and  C5_5 
REMARK    4  A    between atoms: C5_5  and  N1_6 
REMARK    5  A    between atoms: C8_9  and  O1_10 
REMARK    6  A    between atoms: C9_12  and  O2_13 
REMARK    7  A    between atoms: C16_20  and  O3_21 
REMARK    8  A    between atoms: C17_23  and  O4_24 
ROOT
HETATM    1  N1  UNL     1      -7.812  52.612  10.975  1.00  0.00     0.095 N 
HETATM    2  C6  UNL     1      -7.416  51.585  11.961  1.00  0.00     0.290 C 
HETATM    3  C7  UNL     1      -6.576  52.578  12.578  1.00  0.00     0.074 C 
HETATM    4  C8  UNL     1      -5.166  52.413  12.949  1.00  0.00     0.162 C 
HETATM    5  C9  UNL     1      -4.534  53.798  12.751  1.00  0.00     0.158 C 
HETATM    6  C11 UNL     1      -5.591  54.876  12.610  1.00  0.00     0.060 C 
HETATM    7  C12 UNL     1      -6.310  54.627  11.272  1.00  0.00     0.029 C 
HETATM    8  C13 UNL     1      -7.431  55.569  11.050  1.00  0.00     0.007 C 
HETATM    9  C14 UNL     1      -8.365  55.802  12.177  1.00  0.00     0.004 C 
HETATM   10  C15 UNL     1      -7.732  55.758  13.516  1.00  0.00     0.041 C 
HETATM   11  C16 UNL     1      -6.635  54.759  13.682  1.00  0.00     0.091 C 
HETATM   12  C17 UNL     1      -7.228  53.390  13.644  1.00  0.00     0.168 C 
HETATM   13  C18 UNL     1      -6.565  53.197  11.201  1.00  0.00     0.243 C 
ENDROOT
BRANCH   1  14
HETATM   14  C5  UNL     1      -8.062  52.151   9.671  1.00  0.00     0.273 C 
BRANCH  14  15
HETATM   15  C4  UNL     1      -9.280  52.600   8.977  1.00  0.00     0.030 C 
BRANCH  15  16
HETATM   16  C3  UNL     1     -10.227  53.379   9.902  1.00  0.00     0.001 C 
BRANCH  16  17
HETATM   17  C2  UNL     1     -10.576  54.722   9.247  1.00  0.00    -0.005 C 
HETATM   18  C1  UNL     1     -11.485  55.529  10.095  1.00  0.00     0.005 C 
ENDBRANCH  16  17
ENDBRANCH  15  16
ENDBRANCH  14  15
ENDBRANCH   1  14
BRANCH   4  19
HETATM   19  O1  UNL     1      -4.936  51.933  14.232  1.00  0.00    -0.392 OA
ATOM     20  H1  UNL     1      -5.710  51.806  14.768  1.00  0.00     0.210 HD
ENDBRANCH   4  19
BRANCH  12  21
HETATM   21  O4  UNL     1      -8.597  53.359  13.632  1.00  0.00    -0.392 OA
ATOM     22  H4  UNL     1      -9.015  54.211  13.677  1.00  0.00     0.210 HD
ENDBRANCH  12  21
BRANCH   5  23
HETATM   23  O2  UNL     1      -3.569  54.078  13.682  1.00  0.00    -0.388 OA
HETATM   24  C10 UNL     1      -2.271  54.026  13.131  1.00  0.00     0.202 C 
ENDBRANCH   5  23
BRANCH  11  25
HETATM   25  O3  UNL     1      -5.995  55.043  14.903  1.00  0.00    -0.387 OA
ATOM     26  H3  UNL     1      -6.303  54.398  15.529  1.00  0.00     0.210 HD
ENDBRANCH  11  25
TORSDOF 8
ENDMDL
MODEL 5
REMARK VINA RESULT: -6.074295976      3.794      7.097
REMARK  8 active torsions:
REMARK  status: ('A' for Active; 'I' for Inactive)
REMARK    1  A    between atoms: C2_2  and  C3_3 
REMARK    2  A    between atoms: C3_3  and  C4_4 
REMARK    3  A    between atoms: C4_4  and  C5_5 
REMARK    4  A    between atoms: C5_5  and  N1_6 
REMARK    5  A    between atoms: C8_9  and  O1_10 
REMARK    6  A    between atoms: C9_12  and  O2_13 
REMARK    7  A    between atoms: C16_20  and  O3_21 
REMARK    8  A    between atoms: C17_23  and  O4_24 
ROOT
HETATM    1  N1  UNL     1      -4.006  53.360  12.471  1.00  0.00     0.095 N 
HETATM    2  C6  UNL     1      -4.110  54.007  13.795  1.00  0.00     0.290 C 
HETATM    3  C7  UNL     1      -5.478  54.319  13.475  1.00  0.00     0.074 C 
HETATM    4  C8  UNL     1      -6.123  55.630  13.611  1.00  0.00     0.162 C 
HETATM    5  C9  UNL     1      -7.146  55.694  12.466  1.00  0.00     0.158 C 
HETATM    6  C11 UNL     1      -7.386  54.326  11.860  1.00  0.00     0.060 C 
HETATM    7  C12 UNL     1      -6.087  53.918  11.143  1.00  0.00     0.029 C 
HETATM    8  C13 UNL     1      -6.161  52.552  10.573  1.00  0.00     0.007 C 
HETATM    9  C14 UNL     1      -6.710  51.479  11.435  1.00  0.00     0.004 C 
HETATM   10  C15 UNL     1      -7.785  51.921  12.354  1.00  0.00     0.041 C 
HETATM   11  C16 UNL     1      -7.628  53.293  12.922  1.00  0.00     0.091 C 
HETATM   12  C17 UNL     1      -6.477  53.286  13.872  1.00  0.00     0.168 C 
HETATM   13  C18 UNL     1      -4.996  54.247  12.047  1.00  0.00     0.243 C 
ENDROOT
BRANCH   1  14
HETATM   14  C5  UNL     1      -2.758  53.459  11.832  1.00  0.00     0.273 C 
BRANCH  14  15
HETATM   15  C4  UNL     1      -1.834  52.315  11.888  1.00  0.00     0.030 C 
BRANCH  15  16
HETATM   16  C3  UNL     1      -0.920  52.240  10.655  1.00  0.00     0.001 C 
BRANCH  16  17
HETATM   17  C2  UNL     1      -0.616  53.664  10.170  1.00  0.00    -0.005 C 
HETATM   18  C1  UNL     1       0.469  53.682   9.161  1.00  0.00     0.005 C 
ENDBRANCH  16  17
ENDBRANCH  15  16
ENDBRANCH  14  15
ENDBRANCH   1  14
BRANCH   4  19
HETATM   19  O1  UNL     1      -6.724  55.880  14.837  1.00  0.00    -0.392 OA
ATOM     20  H1  UNL     1      -6.208  56.391  15.451  1.00  0.00     0.210 HD
ENDBRANCH   4  19
BRANCH  12  21
HETATM   21  O4  UNL     1      -5.950  52.048  14.125  1.00  0.00    -0.392 OA
ATOM     22  H4  UNL     1      -6.474  51.503  14.701  1.00  0.00     0.210 HD
ENDBRANCH  12  21
BRANCH   5  23
HETATM   23  O2  UNL     1      -8.290  56.361  12.814  1.00  0.00    -0.388 OA
HETATM   24  C10 UNL     1      -9.053  56.729  11.686  1.00  0.00     0.202 C 
ENDBRANCH   5  23
BRANCH  11  25
HETATM   25  O3  UNL     1      -8.845  53.628  13.543  1.00  0.00    -0.387 OA
ATOM     26  H3  UNL     1      -9.504  53.041  13.189  1.00  0.00     0.210 HD
ENDBRANCH  11  25
TORSDOF 8
ENDMDL
