MODEL 1
REMARK VINA RESULT: -5.785897330      0.000      0.000
REMARK  2 active torsions:
REMARK  status: ('A' for Active; 'I' for Inactive)
REMARK    1  A    between atoms: O1_2  and  C2_3 
REMARK    2  A    between atoms: C17_23  and  O6_24 
ROOT
HETATM    1  C2  UNL     1     -19.499  -3.588  14.655  1.00  0.00     0.233 C 
HETATM    2  S1  UNL     1     -20.844  -4.868  14.001  1.00  0.00    -0.052 SA
HETATM    3  C3  UNL     1     -20.767  -5.733  12.321  1.00  0.00     0.211 C 
HETATM    4  O2  UNL     1     -21.814  -5.549  11.592  1.00  0.00    -0.281 OA
HETATM    5  C4  UNL     1     -19.376  -5.694  11.648  1.00  0.00     0.071 C 
HETATM    6  C5  UNL     1     -18.844  -4.577  11.104  1.00  0.00    -0.003 C 
HETATM    7  C6  UNL     1     -17.558  -4.174  10.482  1.00  0.00    -0.001 C 
HETATM    8  C7  UNL     1     -17.564  -3.414   9.236  1.00  0.00     0.024 C 
HETATM    9  C8  UNL     1     -16.417  -5.139  10.352  1.00  0.00     0.024 C 
HETATM   10  C9  UNL     1     -17.069  -3.154  11.677  1.00  0.00    -0.014 C 
HETATM   11  C10 UNL     1     -17.643  -2.626  12.795  1.00  0.00     0.017 C 
HETATM   12  C11 UNL     1     -18.915  -2.571  13.639  1.00  0.00     0.167 C 
HETATM   13  O3  UNL     1     -19.486  -1.419  13.302  1.00  0.00    -0.332 OA
HETATM   14  C12 UNL     1     -19.762  -1.282  11.916  1.00  0.00     0.162 C 
HETATM   15  C13 UNL     1     -21.224  -0.856  11.788  1.00  0.00     0.078 C 
HETATM   16  C14 UNL     1     -19.005   0.042  11.598  1.00  0.00     0.078 C 
HETATM   17  O4  UNL     1     -19.329  -2.120  10.993  1.00  0.00    -0.316 OA
HETATM   18  C15 UNL     1     -19.867  -3.380  10.750  1.00  0.00     0.193 C 
HETATM   19  C16 UNL     1     -20.608  -3.601   9.540  1.00  0.00     0.085 C 
HETATM   20  O5  UNL     1     -20.465  -3.429  11.859  1.00  0.00    -0.318 OA
HETATM   21  C17 UNL     1     -19.681  -3.485  12.816  1.00  0.00     0.302 C 
ENDROOT
BRANCH   1  22
HETATM   22  O1  UNL     1     -20.372  -2.757  15.364  1.00  0.00    -0.376 OA
HETATM   23  C1  UNL     1     -21.141  -3.550  16.166  1.00  0.00     0.203 C 
ENDBRANCH   1  22
BRANCH  21  24
HETATM   24  O6  UNL     1     -18.760  -4.359  13.305  1.00  0.00    -0.368 OA
ATOM     25  H6  UNL     1     -19.547  -4.863  13.473  1.00  0.00     0.212 HD
ENDBRANCH  21  24
TORSDOF 2
ENDMDL
MODEL 2
REMARK VINA RESULT: -5.381979635      2.994      4.474
REMARK  2 active torsions:
REMARK  status: ('A' for Active; 'I' for Inactive)
REMARK    1  A    between atoms: O1_2  and  C2_3 
REMARK    2  A    between atoms: C17_23  and  O6_24 
ROOT
HETATM    1  C2  UNL     1     -19.100  -4.877  11.452  1.00  0.00     0.233 C 
HETATM    2  S1  UNL     1     -20.590  -6.162  11.411  1.00  0.00    -0.052 SA
HETATM    3  C3  UNL     1     -20.439  -7.954  10.824  1.00  0.00     0.211 C 
HETATM    4  O2  UNL     1     -21.255  -8.262   9.874  1.00  0.00    -0.281 OA
HETATM    5  C4  UNL     1     -18.987  -8.482  10.759  1.00  0.00     0.071 C 
HETATM    6  C5  UNL     1     -18.096  -8.094   9.821  1.00  0.00    -0.003 C 
HETATM    7  C6  UNL     1     -16.660  -8.319   9.522  1.00  0.00    -0.001 C 
HETATM    8  C7  UNL     1     -16.245  -8.640   8.160  1.00  0.00     0.024 C 
HETATM    9  C8  UNL     1     -15.803  -9.174  10.408  1.00  0.00     0.024 C 
HETATM   10  C9  UNL     1     -16.147  -6.789   9.844  1.00  0.00    -0.014 C 
HETATM   11  C10 UNL     1     -16.756  -5.598  10.105  1.00  0.00     0.017 C 
HETATM   12  C11 UNL     1     -18.101  -4.891  10.265  1.00  0.00     0.167 C 
HETATM   13  O3  UNL     1     -18.284  -4.263   9.107  1.00  0.00    -0.332 OA
HETATM   14  C12 UNL     1     -18.262  -5.110   7.968  1.00  0.00     0.162 C 
HETATM   15  C13 UNL     1     -19.516  -4.801   7.152  1.00  0.00     0.078 C 
HETATM   16  C14 UNL     1     -17.144  -4.431   7.121  1.00  0.00     0.078 C 
HETATM   17  O4  UNL     1     -17.902  -6.379   8.002  1.00  0.00    -0.316 OA
HETATM   18  C15 UNL     1     -18.695  -7.417   8.483  1.00  0.00     0.193 C 
HETATM   19  C16 UNL     1     -19.238  -8.369   7.554  1.00  0.00     0.085 C 
HETATM   20  O5  UNL     1     -19.474  -6.643   9.103  1.00  0.00    -0.318 OA
HETATM   21  C17 UNL     1     -18.916  -6.069  10.047  1.00  0.00     0.302 C 
ENDROOT
BRANCH   1  22
HETATM   22  O1  UNL     1     -19.841  -3.734  11.137  1.00  0.00    -0.376 OA
HETATM   23  C1  UNL     1     -20.145  -3.100  12.307  1.00  0.00     0.203 C 
ENDBRANCH   1  22
BRANCH  21  24
HETATM   24  O6  UNL     1     -18.356  -6.414  11.238  1.00  0.00    -0.368 OA
ATOM     25  H6  UNL     1     -17.933  -5.573  11.114  1.00  0.00     0.212 HD
ENDBRANCH  21  24
TORSDOF 2
ENDMDL
MODEL 3
REMARK VINA RESULT: -5.286252747      2.766      4.505
REMARK  2 active torsions:
REMARK  status: ('A' for Active; 'I' for Inactive)
REMARK    1  A    between atoms: O1_2  and  C2_3 
REMARK    2  A    between atoms: C17_23  and  O6_24 
ROOT
HETATM    1  C2  UNL     1     -17.722  -4.021  11.142  1.00  0.00     0.233 C 
HETATM    2  S1  UNL     1     -19.485  -4.527  11.854  1.00  0.00    -0.052 SA
HETATM    3  C3  UNL     1     -20.188  -6.283  11.819  1.00  0.00     0.211 C 
HETATM    4  O2  UNL     1     -21.334  -6.374  11.234  1.00  0.00    -0.281 OA
HETATM    5  C4  UNL     1     -19.134  -7.385  11.567  1.00  0.00     0.071 C 
HETATM    6  C5  UNL     1     -18.545  -7.591  10.368  1.00  0.00    -0.003 C 
HETATM    7  C6  UNL     1     -17.478  -8.459   9.813  1.00  0.00    -0.001 C 
HETATM    8  C7  UNL     1     -17.699  -9.164   8.554  1.00  0.00     0.024 C 
HETATM    9  C8  UNL     1     -16.728  -9.427  10.681  1.00  0.00     0.024 C 
HETATM   10  C9  UNL     1     -16.380  -7.268   9.523  1.00  0.00    -0.014 C 
HETATM   11  C10 UNL     1     -16.400  -5.905   9.550  1.00  0.00     0.017 C 
HETATM   12  C11 UNL     1     -17.266  -4.673   9.809  1.00  0.00     0.167 C 
HETATM   13  O3  UNL     1     -17.603  -4.245   8.597  1.00  0.00    -0.332 OA
HETATM   14  C12 UNL     1     -18.275  -5.207   7.798  1.00  0.00     0.162 C 
HETATM   15  C13 UNL     1     -19.539  -4.539   7.256  1.00  0.00     0.078 C 
HETATM   16  C14 UNL     1     -17.355  -5.236   6.541  1.00  0.00     0.078 C 
HETATM   17  O4  UNL     1     -18.398  -6.479   8.126  1.00  0.00    -0.316 OA
HETATM   18  C15 UNL     1     -19.288  -6.972   9.076  1.00  0.00     0.193 C 
HETATM   19  C16 UNL     1     -20.416  -7.747   8.639  1.00  0.00     0.085 C 
HETATM   20  O5  UNL     1     -19.479  -5.842   9.602  1.00  0.00    -0.318 OA
HETATM   21  C17 UNL     1     -18.466  -5.405  10.163  1.00  0.00     0.302 C 
ENDROOT
BRANCH   1  22
HETATM   22  O1  UNL     1     -18.072  -2.746  10.686  1.00  0.00    -0.376 OA
HETATM   23  C1  UNL     1     -18.212  -1.939  11.777  1.00  0.00     0.203 C 
ENDBRANCH   1  22
BRANCH  21  24
HETATM   24  O6  UNL     1     -17.690  -5.740  11.229  1.00  0.00    -0.368 OA
ATOM     25  H6  UNL     1     -18.541  -5.775  11.649  1.00  0.00     0.212 HD
ENDBRANCH  21  24
TORSDOF 2
ENDMDL
MODEL 4
REMARK VINA RESULT: -5.154981910      4.639      7.103
REMARK  2 active torsions:
REMARK  status: ('A' for Active; 'I' for Inactive)
REMARK    1  A    between atoms: O1_2  and  C2_3 
REMARK    2  A    between atoms: C17_23  and  O6_24 
ROOT
HETATM    1  C2  UNL     1     -20.000  -7.072  12.203  1.00  0.00     0.233 C 
HETATM    2  S1  UNL     1     -21.377  -7.399  13.570  1.00  0.00    -0.052 SA
HETATM    3  C3  UNL     1     -21.413  -8.906  14.712  1.00  0.00     0.211 C 
HETATM    4  O2  UNL     1     -22.511  -9.580  14.652  1.00  0.00    -0.281 OA
HETATM    5  C4  UNL     1     -20.073  -9.674  14.796  1.00  0.00     0.071 C 
HETATM    6  C5  UNL     1     -19.590 -10.438  13.792  1.00  0.00    -0.003 C 
HETATM    7  C6  UNL     1     -18.356 -11.210  13.507  1.00  0.00    -0.001 C 
HETATM    8  C7  UNL     1     -18.456 -12.565  12.973  1.00  0.00     0.024 C 
HETATM    9  C8  UNL     1     -17.219 -11.254  14.485  1.00  0.00     0.024 C 
HETATM   10  C9  UNL     1     -17.791 -10.247  12.298  1.00  0.00    -0.014 C 
HETATM   11  C10 UNL     1     -18.288  -9.198  11.584  1.00  0.00     0.017 C 
HETATM   12  C11 UNL     1     -19.498  -8.288  11.378  1.00  0.00     0.167 C 
HETATM   13  O3  UNL     1     -20.100  -8.777  10.299  1.00  0.00    -0.332 OA
HETATM   14  C12 UNL     1     -20.475 -10.142  10.402  1.00  0.00     0.162 C 
HETATM   15  C13 UNL     1     -21.946 -10.237   9.997  1.00  0.00     0.078 C 
HETATM   16  C14 UNL     1     -19.753 -10.737   9.155  1.00  0.00     0.078 C 
HETATM   17  O4  UNL     1     -20.102 -10.935  11.388  1.00  0.00    -0.316 OA
HETATM   18  C15 UNL     1     -20.646 -10.919  12.669  1.00  0.00     0.193 C 
HETATM   19  C16 UNL     1     -21.469 -12.017  13.092  1.00  0.00     0.085 C 
HETATM   20  O5  UNL     1     -21.163  -9.778  12.524  1.00  0.00    -0.318 OA
HETATM   21  C17 UNL     1     -20.313  -8.884  12.417  1.00  0.00     0.302 C 
ENDROOT
BRANCH   1  22
HETATM   22  O1  UNL     1     -20.827  -6.458  11.258  1.00  0.00    -0.376 OA
HETATM   23  C1  UNL     1     -20.541  -5.123  11.261  1.00  0.00     0.203 C 
ENDBRANCH   1  22
BRANCH  21  24
HETATM   24  O6  UNL     1     -19.352  -8.319  13.198  1.00  0.00    -0.368 OA
ATOM     25  H6  UNL     1     -19.894  -8.699  13.879  1.00  0.00     0.212 HD
ENDBRANCH  21  24
TORSDOF 2
ENDMDL
MODEL 5
REMARK VINA RESULT: -5.132658586      2.257      4.301
REMARK  2 active torsions:
REMARK  status: ('A' for Active; 'I' for Inactive)
REMARK    1  A    between atoms: O1_2  and  C2_3 
REMARK    2  A    between atoms: C17_23  and  O6_24 
ROOT
HETATM    1  C2  UNL     1     -20.000  -1.519  10.276  1.00  0.00     0.233 C 
HETATM    2  S1  UNL     1     -18.536  -1.247   8.990  1.00  0.00    -0.052 SA
HETATM    3  C3  UNL     1     -17.638  -2.642   8.082  1.00  0.00     0.211 C 
HETATM    4  O2  UNL     1     -16.360  -2.638   8.255  1.00  0.00    -0.281 OA
HETATM    5  C4  UNL     1     -18.386  -3.995   8.094  1.00  0.00     0.071 C 
HETATM    6  C5  UNL     1     -18.497  -4.773   9.193  1.00  0.00    -0.003 C 
HETATM    7  C6  UNL     1     -19.185  -6.032   9.572  1.00  0.00    -0.001 C 
HETATM    8  C7  UNL     1     -18.456  -7.065  10.300  1.00  0.00     0.024 C 
HETATM    9  C8  UNL     1     -20.051  -6.772   8.596  1.00  0.00     0.024 C 
HETATM   10  C9  UNL     1     -20.265  -5.363  10.619  1.00  0.00    -0.014 C 
HETATM   11  C10 UNL     1     -20.436  -4.132  11.178  1.00  0.00     0.017 C 
HETATM   12  C11 UNL     1     -19.882  -2.711  11.264  1.00  0.00     0.167 C 
HETATM   13  O3  UNL     1     -19.211  -2.686  12.411  1.00  0.00    -0.332 OA
HETATM   14  C12 UNL     1     -18.186  -3.662  12.514  1.00  0.00     0.162 C 
HETATM   15  C13 UNL     1     -16.913  -2.934  12.947  1.00  0.00     0.078 C 
HETATM   16  C14 UNL     1     -18.608  -4.391  13.825  1.00  0.00     0.078 C 
HETATM   17  O4  UNL     1     -18.015  -4.644  11.650  1.00  0.00    -0.316 OA
HETATM   18  C15 UNL     1     -17.446  -4.501  10.388  1.00  0.00     0.193 C 
HETATM   19  C16 UNL     1     -16.145  -5.058  10.142  1.00  0.00     0.085 C 
HETATM   20  O5  UNL     1     -17.598  -3.250  10.371  1.00  0.00    -0.318 OA
HETATM   21  C17 UNL     1     -18.790  -2.919  10.335  1.00  0.00     0.302 C 
ENDROOT
BRANCH   1  22
HETATM   22  O1  UNL     1     -19.687  -0.458  11.131  1.00  0.00    -0.376 OA
HETATM   23  C1  UNL     1     -20.855   0.163  11.467  1.00  0.00     0.203 C 
ENDBRANCH   1  22
BRANCH  21  24
HETATM   24  O6  UNL     1     -19.832  -3.029   9.467  1.00  0.00    -0.368 OA
ATOM     25  H6  UNL     1     -19.912  -3.869   9.902  1.00  0.00     0.212 HD
ENDBRANCH  21  24
TORSDOF 2
ENDMDL
