MODEL 1
REMARK VINA RESULT: -8.307052038      0.000      0.000
REMARK  9 active torsions:
REMARK  status: ('A' for Active; 'I' for Inactive)
REMARK    1  A    between atoms: C2_2  and  C3_3 
REMARK    2  A    between atoms: C3_3  and  C4_4 
REMARK    3  A    between atoms: C4_4  and  N1_5 
REMARK    4  A    between atoms: N1_5  and  C5_6 
REMARK    5  A    between atoms: N1_5  and  C7_8 
REMARK    6  A    between atoms: C7_8  and  C8_9 
REMARK    7  A    between atoms: C8_9  and  C9_10 
REMARK    8  A    between atoms: C9_10  and  C10_11 
REMARK    9  A    between atoms: C12_14  and  O2_15 
ROOT
HETATM    1  C10 UNL     1      27.035 -33.528  -5.479  1.00  0.00     0.173 C 
HETATM    2  O1  UNL     1      27.125 -34.476  -6.534  1.00  0.00    -0.377 OA
HETATM    3  C11 UNL     1      25.970 -34.596  -7.254  1.00  0.00     0.207 C 
HETATM    4  C12 UNL     1      25.780 -33.331  -8.266  1.00  0.00     0.194 C 
HETATM    5  C13 UNL     1      25.962 -32.374  -7.337  1.00  0.00     0.075 C 
HETATM    6  C14 UNL     1      26.525 -32.390  -6.064  1.00  0.00     0.064 C 
HETATM    7  N2  UNL     1      26.622 -31.033  -5.551  1.00  0.00    -0.341 N 
ATOM      8  H2  UNL     1      27.551 -30.695  -5.302  1.00  0.00     0.164 HD
HETATM    9  C15 UNL     1      25.646 -30.228  -5.386  1.00  0.00     0.272 A 
HETATM   10  O3  UNL     1      25.351 -29.628  -5.221  1.00  0.00    -0.278 OA
HETATM   11  C16 UNL     1      25.799 -29.818  -6.677  1.00  0.00     0.213 A 
HETATM   12  S1  UNL     1      26.666 -28.600  -7.424  1.00  0.00    -0.036 SA
HETATM   13  N3  UNL     1      25.439 -31.136  -7.437  1.00  0.00    -0.283 N 
HETATM   14  C17 UNL     1      24.401 -31.189  -8.139  1.00  0.00     0.062 A 
HETATM   15  C18 UNL     1      24.398 -31.488  -9.374  1.00  0.00     0.071 A 
HETATM   16  C19 UNL     1      23.037 -31.643  -9.830  1.00  0.00     0.107 A 
HETATM   17  C20 UNL     1      21.927 -31.476  -9.011  1.00  0.00     0.106 A 
HETATM   18  C21 UNL     1      22.077 -31.139  -7.660  1.00  0.00     0.060 A 
HETATM   19  C22 UNL     1      23.349 -31.000  -7.239  1.00  0.00     0.035 A 
HETATM   20  S2  UNL     1      23.730 -30.594  -5.530  1.00  0.00    -0.057 SA
HETATM   21  O4  UNL     1      20.799 -31.697  -9.765  1.00  0.00    -0.323 OA
HETATM   22  C23 UNL     1      21.176 -31.853 -11.129  1.00  0.00     0.352 C 
HETATM   23  O5  UNL     1      22.578 -31.959 -11.048  1.00  0.00    -0.323 OA
ENDROOT
BRANCH   1  24
HETATM   24  C9  UNL     1      28.429 -33.126  -5.024  1.00  0.00     0.039 C 
BRANCH  24  25
HETATM   25  C8  UNL     1      29.480 -33.346  -6.081  1.00  0.00     0.018 C 
BRANCH  25  26
HETATM   26  C7  UNL     1      30.464 -34.424  -5.690  1.00  0.00     0.095 C 
BRANCH  26  27
HETATM   27  N1  UNL     1      31.542 -34.602  -6.601  1.00  0.00    -0.293 NA
BRANCH  27  28
HETATM   28  C4  UNL     1      31.655 -35.656  -7.472  1.00  0.00     0.055 C 
BRANCH  28  29
HETATM   29  C3  UNL     1      32.037 -35.651  -8.884  1.00  0.00    -0.015 C 
BRANCH  29  30
HETATM   30  C2  UNL     1      32.311 -34.415  -9.653  1.00  0.00     0.023 C 
HETATM   31  C1  UNL     1      33.706 -34.037  -9.941  1.00  0.00     0.009 C 
ENDBRANCH  29  30
ENDBRANCH  28  29
ENDBRANCH  27  28
BRANCH  27  32
HETATM   32  C5  UNL     1      32.762 -34.672  -5.678  1.00  0.00     0.090 C 
HETATM   33  C6  UNL     1      33.900 -33.928  -6.286  1.00  0.00     0.021 C 
ENDBRANCH  27  32
ENDBRANCH  26  27
ENDBRANCH  25  26
ENDBRANCH  24  25
ENDBRANCH   1  24
BRANCH   4  34
HETATM   34  O2  UNL     1      26.800 -33.653  -9.180  1.00  0.00    -0.387 OA
ATOM     35  H2  UNL     1      26.256 -34.039  -9.857  1.00  0.00     0.210 HD
ENDBRANCH   4  34
TORSDOF 9
ENDMDL
MODEL 2
REMARK VINA RESULT: -8.289109033      3.335      5.038
REMARK  9 active torsions:
REMARK  status: ('A' for Active; 'I' for Inactive)
REMARK    1  A    between atoms: C2_2  and  C3_3 
REMARK    2  A    between atoms: C3_3  and  C4_4 
REMARK    3  A    between atoms: C4_4  and  N1_5 
REMARK    4  A    between atoms: N1_5  and  C5_6 
REMARK    5  A    between atoms: N1_5  and  C7_8 
REMARK    6  A    between atoms: C7_8  and  C8_9 
REMARK    7  A    between atoms: C8_9  and  C9_10 
REMARK    8  A    between atoms: C9_10  and  C10_11 
REMARK    9  A    between atoms: C12_14  and  O2_15 
ROOT
HETATM    1  C10 UNL     1      30.638 -34.125  -5.532  1.00  0.00     0.173 C 
HETATM    2  O1  UNL     1      30.410 -34.744  -4.273  1.00  0.00    -0.377 OA
HETATM    3  C11 UNL     1      29.603 -34.014  -3.447  1.00  0.00     0.207 C 
HETATM    4  C12 UNL     1      28.042 -34.129  -3.905  1.00  0.00     0.194 C 
HETATM    5  C13 UNL     1      28.246 -33.807  -5.196  1.00  0.00     0.075 C 
HETATM    6  C14 UNL     1      29.385 -33.787  -5.995  1.00  0.00     0.064 C 
HETATM    7  N2  UNL     1      29.014 -33.519  -7.375  1.00  0.00    -0.341 N 
ATOM      8  H2  UNL     1      29.271 -34.219  -8.071  1.00  0.00     0.164 HD
HETATM    9  C15 UNL     1      28.395 -32.484  -7.792  1.00  0.00     0.272 A 
HETATM   10  O3  UNL     1      28.088 -32.086  -8.262  1.00  0.00    -0.278 OA
HETATM   11  C16 UNL     1      27.215 -33.117  -7.532  1.00  0.00     0.213 A 
HETATM   12  S1  UNL     1      26.184 -34.082  -8.424  1.00  0.00    -0.036 SA
HETATM   13  N3  UNL     1      27.301 -33.246  -5.976  1.00  0.00    -0.283 N 
HETATM   14  C17 UNL     1      26.502 -32.606  -5.252  1.00  0.00     0.062 A 
HETATM   15  C18 UNL     1      25.734 -33.149  -4.397  1.00  0.00     0.071 A 
HETATM   16  C19 UNL     1      25.090 -32.126  -3.608  1.00  0.00     0.107 A 
HETATM   17  C20 UNL     1      25.302 -30.764  -3.790  1.00  0.00     0.106 A 
HETATM   18  C21 UNL     1      26.180 -30.303  -4.780  1.00  0.00     0.060 A 
HETATM   19  C22 UNL     1      26.780 -31.262  -5.511  1.00  0.00     0.035 A 
HETATM   20  S2  UNL     1      27.955 -30.852  -6.807  1.00  0.00    -0.057 SA
HETATM   21  O4  UNL     1      24.537 -30.082  -2.875  1.00  0.00    -0.323 OA
HETATM   22  C23 UNL     1      23.695 -31.007  -2.195  1.00  0.00     0.352 C 
HETATM   23  O5  UNL     1      24.215 -32.251  -2.602  1.00  0.00    -0.323 OA
ENDROOT
BRANCH   1  24
HETATM   24  C9  UNL     1      31.146 -35.152  -6.530  1.00  0.00     0.039 C 
BRANCH  24  25
HETATM   25  C8  UNL     1      32.383 -34.702  -7.261  1.00  0.00     0.018 C 
BRANCH  25  26
HETATM   26  C7  UNL     1      32.372 -35.124  -8.713  1.00  0.00     0.095 C 
BRANCH  26  27
HETATM   27  N1  UNL     1      33.362 -34.497  -9.520  1.00  0.00    -0.293 NA
BRANCH  27  28
HETATM   28  C4  UNL     1      34.446 -33.815  -9.028  1.00  0.00     0.055 C 
BRANCH  28  29
HETATM   29  C3  UNL     1      35.472 -33.066  -9.753  1.00  0.00    -0.015 C 
BRANCH  29  30
HETATM   30  C2  UNL     1      36.761 -32.651  -9.151  1.00  0.00     0.023 C 
HETATM   31  C1  UNL     1      37.644 -31.736  -9.894  1.00  0.00     0.009 C 
ENDBRANCH  29  30
ENDBRANCH  28  29
ENDBRANCH  27  28
BRANCH  27  32
HETATM   32  C5  UNL     1      32.548 -33.485 -10.332  1.00  0.00     0.090 C 
HETATM   33  C6  UNL     1      31.098 -33.813 -10.243  1.00  0.00     0.021 C 
ENDBRANCH  27  32
ENDBRANCH  26  27
ENDBRANCH  25  26
ENDBRANCH  24  25
ENDBRANCH   1  24
BRANCH   4  34
HETATM   34  O2  UNL     1      27.822 -35.466  -3.521  1.00  0.00    -0.387 OA
ATOM     35  H2  UNL     1      27.383 -35.297  -2.696  1.00  0.00     0.210 HD
ENDBRANCH   4  34
TORSDOF 9
ENDMDL
MODEL 3
REMARK VINA RESULT: -8.246109338      2.377      3.446
REMARK  9 active torsions:
REMARK  status: ('A' for Active; 'I' for Inactive)
REMARK    1  A    between atoms: C2_2  and  C3_3 
REMARK    2  A    between atoms: C3_3  and  C4_4 
REMARK    3  A    between atoms: C4_4  and  N1_5 
REMARK    4  A    between atoms: N1_5  and  C5_6 
REMARK    5  A    between atoms: N1_5  and  C7_8 
REMARK    6  A    between atoms: C7_8  and  C8_9 
REMARK    7  A    between atoms: C8_9  and  C9_10 
REMARK    8  A    between atoms: C9_10  and  C10_11 
REMARK    9  A    between atoms: C12_14  and  O2_15 
ROOT
HETATM    1  C10 UNL     1      28.610 -31.848  -6.288  1.00  0.00     0.173 C 
HETATM    2  O1  UNL     1      28.434 -32.746  -5.200  1.00  0.00    -0.377 OA
HETATM    3  C11 UNL     1      27.386 -32.415  -4.388  1.00  0.00     0.207 C 
HETATM    4  C12 UNL     1      25.964 -32.810  -5.081  1.00  0.00     0.194 C 
HETATM    5  C13 UNL     1      26.198 -32.194  -6.254  1.00  0.00     0.075 C 
HETATM    6  C14 UNL     1      27.364 -31.737  -6.864  1.00  0.00     0.064 C 
HETATM    7  N2  UNL     1      27.069 -31.293  -8.216  1.00  0.00    -0.341 N 
ATOM      8  H2  UNL     1      27.569 -31.754  -8.977  1.00  0.00     0.164 HD
HETATM    9  C15 UNL     1      26.241 -30.376  -8.536  1.00  0.00     0.272 A 
HETATM   10  O3  UNL     1      25.886 -29.978  -8.971  1.00  0.00    -0.278 OA
HETATM   11  C16 UNL     1      25.252 -31.315  -8.562  1.00  0.00     0.213 A 
HETATM   12  S1  UNL     1      24.605 -32.300  -9.746  1.00  0.00    -0.036 SA
HETATM   13  N3  UNL     1      25.219 -31.732  -7.056  1.00  0.00    -0.283 N 
HETATM   14  C17 UNL     1      24.212 -31.465  -6.356  1.00  0.00     0.062 A 
HETATM   15  C18 UNL     1      23.537 -32.340  -5.728  1.00  0.00     0.071 A 
HETATM   16  C19 UNL     1      22.572 -31.684  -4.877  1.00  0.00     0.107 A 
HETATM   17  C20 UNL     1      22.432 -30.304  -4.792  1.00  0.00     0.106 A 
HETATM   18  C21 UNL     1      23.247 -29.453  -5.549  1.00  0.00     0.060 A 
HETATM   19  C22 UNL     1      24.147 -30.070  -6.338  1.00  0.00     0.035 A 
HETATM   20  S2  UNL     1      25.291 -29.134  -7.361  1.00  0.00    -0.057 SA
HETATM   21  O4  UNL     1      21.428 -30.028  -3.894  1.00  0.00    -0.323 OA
HETATM   22  C23 UNL     1      20.800 -31.247  -3.512  1.00  0.00     0.352 C 
HETATM   23  O5  UNL     1      21.669 -32.219  -4.045  1.00  0.00    -0.323 OA
ENDROOT
BRANCH   1  24
HETATM   24  C9  UNL     1      29.466 -32.497  -7.362  1.00  0.00     0.039 C 
BRANCH  24  25
HETATM   25  C8  UNL     1      29.965 -33.864  -6.973  1.00  0.00     0.018 C 
BRANCH  25  26
HETATM   26  C7  UNL     1      31.436 -33.856  -6.625  1.00  0.00     0.095 C 
BRANCH  26  27
HETATM   27  N1  UNL     1      32.196 -34.891  -7.238  1.00  0.00    -0.293 NA
BRANCH  27  28
HETATM   28  C4  UNL     1      32.187 -35.169  -8.582  1.00  0.00     0.055 C 
BRANCH  28  29
HETATM   29  C3  UNL     1      32.561 -34.310  -9.705  1.00  0.00    -0.015 C 
BRANCH  29  30
HETATM   30  C2  UNL     1      33.952 -34.162 -10.194  1.00  0.00     0.023 C 
HETATM   31  C1  UNL     1      34.923 -33.398  -9.392  1.00  0.00     0.009 C 
ENDBRANCH  29  30
ENDBRANCH  28  29
ENDBRANCH  27  28
BRANCH  27  32
HETATM   32  C5  UNL     1      31.685 -36.152  -6.533  1.00  0.00     0.090 C 
HETATM   33  C6  UNL     1      31.608 -37.278  -7.504  1.00  0.00     0.021 C 
ENDBRANCH  27  32
ENDBRANCH  26  27
ENDBRANCH  25  26
ENDBRANCH  24  25
ENDBRANCH   1  24
BRANCH   4  34
HETATM   34  O2  UNL     1      26.070 -34.209  -4.967  1.00  0.00    -0.387 OA
ATOM     35  H2  UNL     1      26.351 -34.395  -5.855  1.00  0.00     0.210 HD
ENDBRANCH   4  34
TORSDOF 9
ENDMDL
MODEL 4
REMARK VINA RESULT: -8.191315337      2.518      3.616
REMARK  9 active torsions:
REMARK  status: ('A' for Active; 'I' for Inactive)
REMARK    1  A    between atoms: C2_2  and  C3_3 
REMARK    2  A    between atoms: C3_3  and  C4_4 
REMARK    3  A    between atoms: C4_4  and  N1_5 
REMARK    4  A    between atoms: N1_5  and  C5_6 
REMARK    5  A    between atoms: N1_5  and  C7_8 
REMARK    6  A    between atoms: C7_8  and  C8_9 
REMARK    7  A    between atoms: C8_9  and  C9_10 
REMARK    8  A    between atoms: C9_10  and  C10_11 
REMARK    9  A    between atoms: C12_14  and  O2_15 
ROOT
HETATM    1  C10 UNL     1      28.920 -33.404  -4.688  1.00  0.00     0.173 C 
HETATM    2  O1  UNL     1      28.092 -33.591  -3.548  1.00  0.00    -0.377 OA
HETATM    3  C11 UNL     1      27.143 -32.619  -3.402  1.00  0.00     0.207 C 
HETATM    4  C12 UNL     1      25.919 -32.835  -4.457  1.00  0.00     0.194 C 
HETATM    5  C13 UNL     1      26.691 -32.939  -5.554  1.00  0.00     0.075 C 
HETATM    6  C14 UNL     1      28.047 -33.199  -5.733  1.00  0.00     0.064 C 
HETATM    7  N2  UNL     1      28.333 -33.368  -7.148  1.00  0.00    -0.341 N 
ATOM      8  H2  UNL     1      28.741 -34.257  -7.438  1.00  0.00     0.164 HD
HETATM    9  C15 UNL     1      28.119 -32.502  -8.060  1.00  0.00     0.272 A 
HETATM   10  O3  UNL     1      28.105 -32.265  -8.707  1.00  0.00    -0.278 OA
HETATM   11  C16 UNL     1      26.854 -32.992  -8.194  1.00  0.00     0.213 A 
HETATM   12  S1  UNL     1      26.148 -34.164  -9.153  1.00  0.00    -0.036 SA
HETATM   13  N3  UNL     1      26.261 -32.629  -6.793  1.00  0.00    -0.283 N 
HETATM   14  C17 UNL     1      25.347 -31.774  -6.705  1.00  0.00     0.062 A 
HETATM   15  C18 UNL     1      24.216 -32.003  -6.172  1.00  0.00     0.071 A 
HETATM   16  C19 UNL     1      23.476 -30.769  -6.063  1.00  0.00     0.107 A 
HETATM   17  C20 UNL     1      23.961 -29.539  -6.493  1.00  0.00     0.106 A 
HETATM   18  C21 UNL     1      25.233 -29.433  -7.070  1.00  0.00     0.060 A 
HETATM   19  C22 UNL     1      25.920 -30.587  -7.166  1.00  0.00     0.035 A 
HETATM   20  S2  UNL     1      27.578 -30.633  -7.859  1.00  0.00    -0.057 SA
HETATM   21  O4  UNL     1      23.004 -28.586  -6.238  1.00  0.00    -0.323 OA
HETATM   22  C23 UNL     1      21.818 -29.230  -5.783  1.00  0.00     0.352 C 
HETATM   23  O5  UNL     1      22.254 -30.551  -5.561  1.00  0.00    -0.323 OA
ENDROOT
BRANCH   1  24
HETATM   24  C9  UNL     1      29.626 -34.705  -5.035  1.00  0.00     0.039 C 
BRANCH  24  25
HETATM   25  C8  UNL     1      31.127 -34.586  -5.010  1.00  0.00     0.018 C 
BRANCH  25  26
HETATM   26  C7  UNL     1      31.670 -33.961  -6.275  1.00  0.00     0.095 C 
BRANCH  26  27
HETATM   27  N1  UNL     1      32.571 -34.785  -7.004  1.00  0.00    -0.293 NA
BRANCH  27  28
HETATM   28  C4  UNL     1      33.573 -34.313  -7.813  1.00  0.00     0.055 C 
BRANCH  28  29
HETATM   29  C3  UNL     1      33.641 -34.276  -9.274  1.00  0.00    -0.015 C 
BRANCH  29  30
HETATM   30  C2  UNL     1      34.682 -33.539 -10.026  1.00  0.00     0.023 C 
HETATM   31  C1  UNL     1      35.779 -32.884  -9.292  1.00  0.00     0.009 C 
ENDBRANCH  29  30
ENDBRANCH  28  29
ENDBRANCH  27  28
BRANCH  27  32
HETATM   32  C5  UNL     1      31.636 -35.598  -7.905  1.00  0.00     0.090 C 
HETATM   33  C6  UNL     1      31.648 -37.028  -7.488  1.00  0.00     0.021 C 
ENDBRANCH  27  32
ENDBRANCH  26  27
ENDBRANCH  25  26
ENDBRANCH  24  25
ENDBRANCH   1  24
BRANCH   4  34
HETATM   34  O2  UNL     1      25.347 -33.977  -3.866  1.00  0.00    -0.387 OA
ATOM     35  H2  UNL     1      24.700 -34.165  -4.535  1.00  0.00     0.210 HD
ENDBRANCH   4  34
TORSDOF 9
ENDMDL
MODEL 5
REMARK VINA RESULT: -8.033538295      2.281      3.819
REMARK  9 active torsions:
REMARK  status: ('A' for Active; 'I' for Inactive)
REMARK    1  A    between atoms: C2_2  and  C3_3 
REMARK    2  A    between atoms: C3_3  and  C4_4 
REMARK    3  A    between atoms: C4_4  and  N1_5 
REMARK    4  A    between atoms: N1_5  and  C5_6 
REMARK    5  A    between atoms: N1_5  and  C7_8 
REMARK    6  A    between atoms: C7_8  and  C8_9 
REMARK    7  A    between atoms: C8_9  and  C9_10 
REMARK    8  A    between atoms: C9_10  and  C10_11 
REMARK    9  A    between atoms: C12_14  and  O2_15 
ROOT
HETATM    1  C10 UNL     1      28.348 -31.823  -6.761  1.00  0.00     0.173 C 
HETATM    2  O1  UNL     1      28.249 -32.810  -5.743  1.00  0.00    -0.377 OA
HETATM    3  C11 UNL     1      27.281 -32.539  -4.817  1.00  0.00     0.207 C 
HETATM    4  C12 UNL     1      25.797 -32.854  -5.414  1.00  0.00     0.194 C 
HETATM    5  C13 UNL     1      25.942 -32.141  -6.546  1.00  0.00     0.075 C 
HETATM    6  C14 UNL     1      27.059 -31.647  -7.214  1.00  0.00     0.064 C 
HETATM    7  N2  UNL     1      26.658 -31.083  -8.492  1.00  0.00    -0.341 N 
ATOM      8  H2  UNL     1      27.081 -31.482  -9.330  1.00  0.00     0.164 HD
HETATM    9  C15 UNL     1      25.824 -30.132  -8.658  1.00  0.00     0.272 A 
HETATM   10  O3  UNL     1      25.441 -29.692  -9.025  1.00  0.00    -0.278 OA
HETATM   11  C16 UNL     1      24.818 -31.052  -8.678  1.00  0.00     0.213 A 
HETATM   12  S1  UNL     1      24.052 -31.922  -9.881  1.00  0.00    -0.036 SA
HETATM   13  N3  UNL     1      24.906 -31.599  -7.216  1.00  0.00    -0.283 N 
HETATM   14  C17 UNL     1      23.969 -31.381  -6.411  1.00  0.00     0.062 A 
HETATM   15  C18 UNL     1      23.333 -32.299  -5.803  1.00  0.00     0.071 A 
HETATM   16  C19 UNL     1      22.458 -31.708  -4.818  1.00  0.00     0.107 A 
HETATM   17  C20 UNL     1      22.354 -30.339  -4.603  1.00  0.00     0.106 A 
HETATM   18  C21 UNL     1      23.117 -29.435  -5.353  1.00  0.00     0.060 A 
HETATM   19  C22 UNL     1      23.934 -29.992  -6.268  1.00  0.00     0.035 A 
HETATM   20  S2  UNL     1      25.004 -28.985  -7.303  1.00  0.00    -0.057 SA
HETATM   21  O4  UNL     1      21.437 -30.129  -3.600  1.00  0.00    -0.323 OA
HETATM   22  C23 UNL     1      20.820 -31.369  -3.271  1.00  0.00     0.352 C 
HETATM   23  O5  UNL     1      21.620 -32.302  -3.959  1.00  0.00    -0.323 OA
ENDROOT
BRANCH   1  24
HETATM   24  C9  UNL     1      29.095 -32.387  -7.958  1.00  0.00     0.039 C 
BRANCH  24  25
HETATM   25  C8  UNL     1      29.874 -33.635  -7.633  1.00  0.00     0.018 C 
BRANCH  25  26
HETATM   26  C7  UNL     1      31.050 -33.831  -8.562  1.00  0.00     0.095 C 
BRANCH  26  27
HETATM   27  N1  UNL     1      32.002 -34.791  -8.120  1.00  0.00    -0.293 NA
BRANCH  27  28
HETATM   28  C4  UNL     1      33.020 -34.525  -7.240  1.00  0.00     0.055 C 
BRANCH  28  29
HETATM   29  C3  UNL     1      32.958 -34.300  -5.796  1.00  0.00    -0.015 C 
BRANCH  29  30
HETATM   30  C2  UNL     1      32.193 -35.163  -4.866  1.00  0.00     0.023 C 
HETATM   31  C1  UNL     1      30.888 -34.703  -4.359  1.00  0.00     0.009 C 
ENDBRANCH  29  30
ENDBRANCH  28  29
ENDBRANCH  27  28
BRANCH  27  32
HETATM   32  C5  UNL     1      32.666 -35.239  -9.426  1.00  0.00     0.090 C 
HETATM   33  C6  UNL     1      33.618 -34.194  -9.894  1.00  0.00     0.021 C 
ENDBRANCH  27  32
ENDBRANCH  26  27
ENDBRANCH  25  26
ENDBRANCH  24  25
ENDBRANCH   1  24
BRANCH   4  34
HETATM   34  O2  UNL     1      25.885 -34.259  -5.430  1.00  0.00    -0.387 OA
ATOM     35  H2  UNL     1      26.421 -34.368  -4.654  1.00  0.00     0.210 HD
ENDBRANCH   4  34
TORSDOF 9
ENDMDL
