MODEL 1
REMARK VINA RESULT: -7.311928028      0.000      0.000
REMARK  3 active torsions:
REMARK  status: ('A' for Active; 'I' for Inactive)
REMARK    1  A    between atoms: N1_2  and  C2_5 
REMARK    2  A    between atoms: C2_5  and  C3_6 
REMARK    3  A    between atoms: C3_6  and  C4_7 
ROOT
HETATM    1  C4  UNL     1      64.050  47.906  31.009  1.00  0.00    -0.013 C 
HETATM    2  C5  UNL     1      64.051  49.375  30.504  1.00  0.00     0.015 C 
HETATM    3  C6  UNL     1      64.552  49.800  31.815  1.00  0.00     0.012 C 
HETATM    4  C7  UNL     1      64.346  48.363  32.318  1.00  0.00    -0.025 C 
HETATM    5  C8  UNL     1      63.338  48.471  33.422  1.00  0.00     0.011 C 
HETATM    6  C9  UNL     1      64.041  49.087  34.653  1.00  0.00     0.001 C 
HETATM    7  C10 UNL     1      64.789  47.983  35.342  1.00  0.00     0.000 C 
HETATM    8  C11 UNL     1      65.354  47.122  34.195  1.00  0.00     0.006 C 
HETATM    9  C12 UNL     1      65.665  48.037  33.056  1.00  0.00    -0.001 C 
HETATM   10  C13 UNL     1      66.565  47.556  32.013  1.00  0.00    -0.009 C 
HETATM   11  C14 UNL     1      68.044  47.703  31.936  1.00  0.00     0.013 C 
HETATM   12  C15 UNL     1      68.242  47.184  30.484  1.00  0.00     0.009 C 
HETATM   13  C16 UNL     1      68.428  45.698  30.642  1.00  0.00     0.013 C 
HETATM   14  C17 UNL     1      66.992  45.253  30.964  1.00  0.00    -0.009 C 
HETATM   15  C18 UNL     1      66.297  45.268  29.657  1.00  0.00     0.042 C 
HETATM   16  C19 UNL     1      65.899  46.757  29.429  1.00  0.00    -0.064 C 
HETATM   17  C20 UNL     1      67.137  47.510  29.522  1.00  0.00    -0.015 C 
HETATM   18  C21 UNL     1      64.590  47.066  30.013  1.00  0.00    -0.010 C 
HETATM   19  C22 UNL     1      66.352  46.148  31.953  1.00  0.00     0.010 C 
ENDROOT
BRANCH   1  20
HETATM   20  C3  UNL     1      62.516  47.576  31.048  1.00  0.00     0.042 C 
BRANCH  20  21
HETATM   21  C2  UNL     1      61.899  47.280  29.755  1.00  0.00     0.233 C 
BRANCH  21  22
HETATM   22  N1  UNL     1      60.873  46.237  30.035  1.00  0.00    -0.079 N 
HETATM   23  C1  UNL     1      59.640  46.593  29.428  1.00  0.00     0.266 C 
ATOM     24  H12 UNL     1      60.770  46.061  31.035  1.00  0.00     0.276 HD
ATOM     25  H11 UNL     1      61.185  45.309  29.751  1.00  0.00     0.276 HD
ENDBRANCH  21  22
ENDBRANCH  20  21
ENDBRANCH   1  20
TORSDOF 3
ENDMDL
MODEL 2
REMARK VINA RESULT: -7.257057020      2.253      5.394
REMARK  3 active torsions:
REMARK  status: ('A' for Active; 'I' for Inactive)
REMARK    1  A    between atoms: N1_2  and  C2_5 
REMARK    2  A    between atoms: C2_5  and  C3_6 
REMARK    3  A    between atoms: C3_6  and  C4_7 
ROOT
HETATM    1  C4  UNL     1      67.260  46.763  33.048  1.00  0.00    -0.013 C 
HETATM    2  C5  UNL     1      68.627  47.502  33.092  1.00  0.00     0.015 C 
HETATM    3  C6  UNL     1      68.211  48.287  31.926  1.00  0.00     0.012 C 
HETATM    4  C7  UNL     1      66.965  47.395  31.814  1.00  0.00    -0.025 C 
HETATM    5  C8  UNL     1      67.077  46.727  30.477  1.00  0.00     0.011 C 
HETATM    6  C9  UNL     1      66.752  47.776  29.389  1.00  0.00     0.001 C 
HETATM    7  C10 UNL     1      65.257  47.880  29.297  1.00  0.00     0.000 C 
HETATM    8  C11 UNL     1      64.770  47.768  30.756  1.00  0.00     0.006 C 
HETATM    9  C12 UNL     1      65.806  48.400  31.627  1.00  0.00    -0.001 C 
HETATM   10  C13 UNL     1      65.425  48.784  32.982  1.00  0.00    -0.009 C 
HETATM   11  C14 UNL     1      64.891  50.091  33.451  1.00  0.00     0.013 C 
HETATM   12  C15 UNL     1      64.966  49.825  34.981  1.00  0.00     0.009 C 
HETATM   13  C16 UNL     1      63.638  49.197  35.314  1.00  0.00     0.013 C 
HETATM   14  C17 UNL     1      63.818  47.791  34.719  1.00  0.00    -0.009 C 
HETATM   15  C18 UNL     1      64.670  47.079  35.700  1.00  0.00     0.042 C 
HETATM   16  C19 UNL     1      66.125  47.524  35.365  1.00  0.00    -0.064 C 
HETATM   17  C20 UNL     1      66.116  48.974  35.436  1.00  0.00    -0.015 C 
HETATM   18  C21 UNL     1      66.741  46.658  34.355  1.00  0.00    -0.010 C 
HETATM   19  C22 UNL     1      64.430  47.841  33.373  1.00  0.00     0.010 C 
ENDROOT
BRANCH   1  20
HETATM   20  C3  UNL     1      67.689  45.307  32.650  1.00  0.00     0.042 C 
BRANCH  20  21
HETATM   21  C2  UNL     1      66.981  44.228  33.339  1.00  0.00     0.233 C 
BRANCH  21  22
HETATM   22  N1  UNL     1      66.367  43.404  32.260  1.00  0.00    -0.079 N 
HETATM   23  C1  UNL     1      66.896  43.783  30.998  1.00  0.00     0.266 C 
ATOM     24  H12 UNL     1      65.348  43.451  32.277  1.00  0.00     0.276 HD
ATOM     25  H11 UNL     1      66.474  42.406  32.435  1.00  0.00     0.276 HD
ENDBRANCH  21  22
ENDBRANCH  20  21
ENDBRANCH   1  20
TORSDOF 3
ENDMDL
MODEL 3
REMARK VINA RESULT: -7.191775467      2.313      4.800
REMARK  3 active torsions:
REMARK  status: ('A' for Active; 'I' for Inactive)
REMARK    1  A    between atoms: N1_2  and  C2_5 
REMARK    2  A    between atoms: C2_5  and  C3_6 
REMARK    3  A    between atoms: C3_6  and  C4_7 
ROOT
HETATM    1  C4  UNL     1      66.649  47.462  31.384  1.00  0.00    -0.013 C 
HETATM    2  C5  UNL     1      66.571  45.963  31.785  1.00  0.00     0.015 C 
HETATM    3  C6  UNL     1      65.534  46.303  32.764  1.00  0.00     0.012 C 
HETATM    4  C7  UNL     1      65.791  47.788  32.464  1.00  0.00    -0.025 C 
HETATM    5  C8  UNL     1      66.255  48.378  33.762  1.00  0.00     0.011 C 
HETATM    6  C9  UNL     1      65.031  48.502  34.697  1.00  0.00     0.001 C 
HETATM    7  C10 UNL     1      64.292  49.750  34.307  1.00  0.00     0.000 C 
HETATM    8  C11 UNL     1      64.384  49.790  32.768  1.00  0.00     0.006 C 
HETATM    9  C12 UNL     1      64.374  48.379  32.280  1.00  0.00    -0.001 C 
HETATM   10  C13 UNL     1      64.053  48.139  30.876  1.00  0.00    -0.009 C 
HETATM   11  C14 UNL     1      62.719  47.874  30.272  1.00  0.00     0.013 C 
HETATM   12  C15 UNL     1      63.196  47.487  28.844  1.00  0.00     0.009 C 
HETATM   13  C16 UNL     1      63.242  48.795  28.099  1.00  0.00     0.013 C 
HETATM   14  C17 UNL     1      64.497  49.440  28.709  1.00  0.00    -0.009 C 
HETATM   15  C18 UNL     1      65.628  48.750  28.047  1.00  0.00     0.042 C 
HETATM   16  C19 UNL     1      65.800  47.415  28.832  1.00  0.00    -0.064 C 
HETATM   17  C20 UNL     1      64.506  46.758  28.773  1.00  0.00    -0.015 C 
HETATM   18  C21 UNL     1      66.700  47.570  29.979  1.00  0.00    -0.010 C 
HETATM   19  C22 UNL     1      64.528  49.288  30.180  1.00  0.00     0.010 C 
ENDROOT
BRANCH   1  20
HETATM   20  C3  UNL     1      68.081  47.861  31.888  1.00  0.00     0.042 C 
BRANCH  20  21
HETATM   21  C2  UNL     1      69.003  46.749  32.119  1.00  0.00     0.233 C 
BRANCH  21  22
HETATM   22  N1  UNL     1      69.254  46.742  33.587  1.00  0.00    -0.079 N 
HETATM   23  C1  UNL     1      68.628  45.615  34.182  1.00  0.00     0.266 C 
ATOM     24  H12 UNL     1      68.967  47.616  34.028  1.00  0.00     0.276 HD
ATOM     25  H11 UNL     1      70.249  46.785  33.804  1.00  0.00     0.276 HD
ENDBRANCH  21  22
ENDBRANCH  20  21
ENDBRANCH   1  20
TORSDOF 3
ENDMDL
MODEL 4
REMARK VINA RESULT: -7.180009544      1.811      5.023
REMARK  3 active torsions:
REMARK  status: ('A' for Active; 'I' for Inactive)
REMARK    1  A    between atoms: N1_2  and  C2_5 
REMARK    2  A    between atoms: C2_5  and  C3_6 
REMARK    3  A    between atoms: C3_6  and  C4_7 
ROOT
HETATM    1  C4  UNL     1      66.054  46.849  30.822  1.00  0.00    -0.013 C 
HETATM    2  C5  UNL     1      67.267  47.552  30.151  1.00  0.00     0.015 C 
HETATM    3  C6  UNL     1      66.332  48.338  29.340  1.00  0.00     0.012 C 
HETATM    4  C7  UNL     1      65.186  47.478  29.895  1.00  0.00    -0.025 C 
HETATM    5  C8  UNL     1      64.590  46.795  28.700  1.00  0.00     0.011 C 
HETATM    6  C9  UNL     1      63.778  47.843  27.905  1.00  0.00     0.001 C 
HETATM    7  C10 UNL     1      62.446  47.986  28.582  1.00  0.00     0.000 C 
HETATM    8  C11 UNL     1      62.764  47.900  30.089  1.00  0.00     0.006 C 
HETATM    9  C12 UNL     1      64.110  48.512  30.300  1.00  0.00    -0.001 C 
HETATM   10  C13 UNL     1      64.477  48.917  31.653  1.00  0.00    -0.009 C 
HETATM   11  C14 UNL     1      64.279  50.242  32.300  1.00  0.00     0.013 C 
HETATM   12  C15 UNL     1      65.115  49.988  33.586  1.00  0.00     0.009 C 
HETATM   13  C16 UNL     1      64.129  49.398  34.560  1.00  0.00     0.013 C 
HETATM   14  C17 UNL     1      63.956  47.983  33.985  1.00  0.00    -0.009 C 
HETATM   15  C18 UNL     1      65.174  47.257  34.413  1.00  0.00     0.042 C 
HETATM   16  C19 UNL     1      66.266  47.660  33.378  1.00  0.00    -0.064 C 
HETATM   17  C20 UNL     1      66.321  49.111  33.413  1.00  0.00    -0.015 C 
HETATM   18  C21 UNL     1      66.268  46.769  32.213  1.00  0.00    -0.010 C 
HETATM   19  C22 UNL     1      63.801  48.005  32.515  1.00  0.00     0.010 C 
ENDROOT
BRANCH   1  20
HETATM   20  C3  UNL     1      66.194  45.379  30.291  1.00  0.00     0.042 C 
BRANCH  20  21
HETATM   21  C2  UNL     1      67.314  44.613  30.838  1.00  0.00     0.233 C 
BRANCH  21  22
HETATM   22  N1  UNL     1      66.702  43.640  31.786  1.00  0.00    -0.079 N 
HETATM   23  C1  UNL     1      66.995  44.014  33.124  1.00  0.00     0.266 C 
ATOM     24  H12 UNL     1      66.987  42.680  31.587  1.00  0.00     0.276 HD
ATOM     25  H11 UNL     1      65.700  43.533  31.630  1.00  0.00     0.276 HD
ENDBRANCH  21  22
ENDBRANCH  20  21
ENDBRANCH   1  20
TORSDOF 3
ENDMDL
MODEL 5
REMARK VINA RESULT: -6.983248875      1.986      4.097
REMARK  3 active torsions:
REMARK  status: ('A' for Active; 'I' for Inactive)
REMARK    1  A    between atoms: N1_2  and  C2_5 
REMARK    2  A    between atoms: C2_5  and  C3_6 
REMARK    3  A    between atoms: C3_6  and  C4_7 
ROOT
HETATM    1  C4  UNL     1      65.095  48.078  32.959  1.00  0.00    -0.013 C 
HETATM    2  C5  UNL     1      65.934  49.323  33.360  1.00  0.00     0.015 C 
HETATM    3  C6  UNL     1      67.147  48.503  33.274  1.00  0.00     0.012 C 
HETATM    4  C7  UNL     1      66.253  47.269  33.071  1.00  0.00    -0.025 C 
HETATM    5  C8  UNL     1      66.547  46.374  34.238  1.00  0.00     0.011 C 
HETATM    6  C9  UNL     1      67.937  45.737  34.014  1.00  0.00     0.001 C 
HETATM    7  C10 UNL     1      67.755  44.580  33.075  1.00  0.00     0.000 C 
HETATM    8  C11 UNL     1      66.703  45.067  32.058  1.00  0.00     0.006 C 
HETATM    9  C12 UNL     1      66.901  46.536  31.874  1.00  0.00    -0.001 C 
HETATM   10  C13 UNL     1      66.318  47.167  30.694  1.00  0.00    -0.009 C 
HETATM   11  C14 UNL     1      66.947  47.380  29.362  1.00  0.00     0.013 C 
HETATM   12  C15 UNL     1      65.852  48.295  28.745  1.00  0.00     0.009 C 
HETATM   13  C16 UNL     1      64.885  47.335  28.103  1.00  0.00     0.013 C 
HETATM   14  C17 UNL     1      64.179  46.754  29.338  1.00  0.00    -0.009 C 
HETATM   15  C18 UNL     1      63.226  47.810  29.753  1.00  0.00     0.042 C 
HETATM   16  C19 UNL     1      64.079  48.818  30.580  1.00  0.00    -0.064 C 
HETATM   17  C20 UNL     1      65.165  49.222  29.704  1.00  0.00    -0.015 C 
HETATM   18  C21 UNL     1      64.131  48.451  31.999  1.00  0.00    -0.010 C 
HETATM   19  C22 UNL     1      65.143  46.414  30.408  1.00  0.00     0.010 C 
ENDROOT
BRANCH   1  20
HETATM   20  C3  UNL     1      64.288  47.791  34.273  1.00  0.00     0.042 C 
BRANCH  20  21
HETATM   21  C2  UNL     1      64.420  48.794  35.329  1.00  0.00     0.233 C 
BRANCH  21  22
HETATM   22  N1  UNL     1      63.066  49.398  35.473  1.00  0.00    -0.079 N 
HETATM   23  C1  UNL     1      62.979  50.113  36.696  1.00  0.00     0.266 C 
ATOM     24  H12 UNL     1      62.325  48.702  35.384  1.00  0.00     0.276 HD
ATOM     25  H11 UNL     1      62.821  49.980  34.672  1.00  0.00     0.276 HD
ENDBRANCH  21  22
ENDBRANCH  20  21
ENDBRANCH   1  20
TORSDOF 3
ENDMDL
