MODEL 1
REMARK VINA RESULT: -7.673110447      0.000      0.000
REMARK  3 active torsions:
REMARK  status: ('A' for Active; 'I' for Inactive)
REMARK    1  A    between atoms: C2_2  and  O2_4 
REMARK    2  A    between atoms: O2_4  and  C3_5 
REMARK    3  A    between atoms: C8_10  and  O3_11 
ROOT
HETATM    1  C3  UNL     1       6.767 -12.766 -23.741  1.00  0.00     0.132 C 
HETATM    2  C4  UNL     1       7.598 -11.945 -22.751  1.00  0.00     0.033 C 
HETATM    3  C5  UNL     1       6.704 -10.862 -22.252  1.00  0.00     0.014 C 
HETATM    4  C6  UNL     1       6.064 -10.031 -23.325  1.00  0.00    -0.014 C 
HETATM    5  C7  UNL     1       7.190  -9.192 -23.954  1.00  0.00     0.018 C 
HETATM    6  C8  UNL     1       5.148  -9.055 -22.666  1.00  0.00     0.127 C 
HETATM    7  C9  UNL     1       4.214  -8.346 -23.634  1.00  0.00     0.038 C 
HETATM    8  C10 UNL     1       2.878  -8.975 -23.579  1.00  0.00     0.001 C 
HETATM    9  C11 UNL     1       1.712  -8.224 -24.133  1.00  0.00    -0.008 C 
HETATM   10  C12 UNL     1       1.070  -9.584 -24.305  1.00  0.00     0.015 C 
HETATM   11  C13 UNL     1       2.496  -9.757 -24.819  1.00  0.00    -0.036 C 
HETATM   12  C14 UNL     1       3.094 -10.911 -25.215  1.00  0.00     0.010 C 
HETATM   13  C15 UNL     1       4.140 -11.414 -24.199  1.00  0.00     0.006 C 
HETATM   14  C16 UNL     1       5.460 -10.808 -24.437  1.00  0.00    -0.002 C 
HETATM   15  C17 UNL     1       6.454 -11.876 -24.885  1.00  0.00     0.038 C 
HETATM   16  C18 UNL     1       2.293  -8.461 -25.499  1.00  0.00     0.015 C 
ENDROOT
BRANCH   1  17
HETATM   17  O2  UNL     1       7.354 -13.982 -24.059  1.00  0.00    -0.316 OA
BRANCH  17  18
HETATM   18  C2  UNL     1       6.959 -14.841 -25.062  1.00  0.00     0.255 C 
HETATM   19  C1  UNL     1       5.567 -15.339 -25.198  1.00  0.00     0.126 C 
HETATM   20  O1  UNL     1       7.807 -15.212 -25.886  1.00  0.00    -0.266 OA
ENDBRANCH  17  18
ENDBRANCH   1  17
BRANCH   6  21
HETATM   21  O3  UNL     1       4.463  -9.580 -21.572  1.00  0.00    -0.395 OA
ATOM     22  H3  UNL     1       4.425  -8.993 -20.826  1.00  0.00     0.210 HD
ENDBRANCH   6  21
TORSDOF 3
ENDMDL
MODEL 2
REMARK VINA RESULT: -7.640012923      2.418      5.378
REMARK  3 active torsions:
REMARK  status: ('A' for Active; 'I' for Inactive)
REMARK    1  A    between atoms: C2_2  and  O2_4 
REMARK    2  A    between atoms: O2_4  and  C3_5 
REMARK    3  A    between atoms: C8_10  and  O3_11 
ROOT
HETATM    1  C3  UNL     1       2.981 -13.805 -24.419  1.00  0.00     0.132 C 
HETATM    2  C4  UNL     1       3.664 -14.956 -25.164  1.00  0.00     0.033 C 
HETATM    3  C5  UNL     1       5.128 -14.797 -24.927  1.00  0.00     0.014 C 
HETATM    4  C6  UNL     1       5.679 -13.446 -25.282  1.00  0.00    -0.014 C 
HETATM    5  C7  UNL     1       5.635 -13.350 -26.816  1.00  0.00     0.018 C 
HETATM    6  C8  UNL     1       7.124 -13.429 -24.912  1.00  0.00     0.127 C 
HETATM    7  C9  UNL     1       7.743 -12.040 -24.942  1.00  0.00     0.038 C 
HETATM    8  C10 UNL     1       7.832 -11.512 -23.564  1.00  0.00     0.001 C 
HETATM    9  C11 UNL     1       8.744 -10.359 -23.299  1.00  0.00    -0.008 C 
HETATM   10  C12 UNL     1       7.848 -10.078 -22.112  1.00  0.00     0.015 C 
HETATM   11  C13 UNL     1       6.890 -10.364 -23.265  1.00  0.00    -0.036 C 
HETATM   12  C14 UNL     1       5.538 -10.475 -23.204  1.00  0.00     0.010 C 
HETATM   13  C15 UNL     1       5.056 -11.932 -23.359  1.00  0.00     0.006 C 
HETATM   14  C16 UNL     1       4.886 -12.298 -24.775  1.00  0.00    -0.002 C 
HETATM   15  C17 UNL     1       3.411 -12.548 -25.077  1.00  0.00     0.038 C 
HETATM   16  C18 UNL     1       7.780  -9.505 -24.075  1.00  0.00     0.015 C 
ENDROOT
BRANCH   1  17
HETATM   17  O2  UNL     1       1.612 -13.986 -24.288  1.00  0.00    -0.316 OA
BRANCH  17  18
HETATM   18  C2  UNL     1       0.730 -13.124 -23.673  1.00  0.00     0.255 C 
HETATM   19  C1  UNL     1      -0.295 -12.349 -24.418  1.00  0.00     0.126 C 
HETATM   20  O1  UNL     1       0.799 -12.990 -22.443  1.00  0.00    -0.266 OA
ENDBRANCH  17  18
ENDBRANCH   1  17
BRANCH   6  21
HETATM   21  O3  UNL     1       7.408 -14.101 -23.726  1.00  0.00    -0.395 OA
ATOM     22  H3  UNL     1       8.022 -14.818 -23.829  1.00  0.00     0.210 HD
ENDBRANCH   6  21
TORSDOF 3
ENDMDL
MODEL 3
REMARK VINA RESULT: -7.395113946      1.692      5.736
REMARK  3 active torsions:
REMARK  status: ('A' for Active; 'I' for Inactive)
REMARK    1  A    between atoms: C2_2  and  O2_4 
REMARK    2  A    between atoms: O2_4  and  C3_5 
REMARK    3  A    between atoms: C8_10  and  O3_11 
ROOT
HETATM    1  C3  UNL     1       4.306  -9.321 -23.800  1.00  0.00     0.132 C 
HETATM    2  C4  UNL     1       5.584  -8.715 -23.211  1.00  0.00     0.033 C 
HETATM    3  C5  UNL     1       6.709  -9.572 -23.683  1.00  0.00     0.014 C 
HETATM    4  C6  UNL     1       6.552 -11.035 -23.387  1.00  0.00    -0.014 C 
HETATM    5  C7  UNL     1       6.707 -11.188 -21.864  1.00  0.00     0.018 C 
HETATM    6  C8  UNL     1       7.712 -11.753 -23.990  1.00  0.00     0.127 C 
HETATM    7  C9  UNL     1       7.542 -13.264 -24.025  1.00  0.00     0.038 C 
HETATM    8  C10 UNL     1       7.134 -13.682 -25.383  1.00  0.00     0.001 C 
HETATM    9  C11 UNL     1       7.286 -15.118 -25.763  1.00  0.00    -0.008 C 
HETATM   10  C12 UNL     1       6.196 -14.841 -26.777  1.00  0.00     0.015 C 
HETATM   11  C13 UNL     1       5.709 -14.183 -25.489  1.00  0.00    -0.036 C 
HETATM   12  C14 UNL     1       4.607 -13.405 -25.328  1.00  0.00     0.010 C 
HETATM   13  C15 UNL     1       4.956 -11.915 -25.136  1.00  0.00     0.006 C 
HETATM   14  C16 UNL     1       5.220 -11.598 -23.723  1.00  0.00    -0.002 C 
HETATM   15  C17 UNL     1       4.141 -10.661 -23.187  1.00  0.00     0.038 C 
HETATM   16  C18 UNL     1       6.159 -15.418 -24.815  1.00  0.00     0.015 C 
ENDROOT
BRANCH   1  17
HETATM   17  O2  UNL     1       3.214  -8.470 -23.707  1.00  0.00    -0.316 OA
BRANCH  17  18
HETATM   18  C2  UNL     1       2.067  -8.530 -24.469  1.00  0.00     0.255 C 
HETATM   19  C1  UNL     1       2.041  -9.082 -25.848  1.00  0.00     0.126 C 
HETATM   20  O1  UNL     1       1.013  -8.103 -23.979  1.00  0.00    -0.266 OA
ENDBRANCH  17  18
ENDBRANCH   1  17
BRANCH   6  21
HETATM   21  O3  UNL     1       8.105 -11.245 -25.226  1.00  0.00    -0.395 OA
ATOM     22  H3  UNL     1       7.550 -11.520 -25.947  1.00  0.00     0.210 HD
ENDBRANCH   6  21
TORSDOF 3
ENDMDL
MODEL 4
REMARK VINA RESULT: -7.181121365      2.022      5.686
REMARK  3 active torsions:
REMARK  status: ('A' for Active; 'I' for Inactive)
REMARK    1  A    between atoms: C2_2  and  O2_4 
REMARK    2  A    between atoms: O2_4  and  C3_5 
REMARK    3  A    between atoms: C8_10  and  O3_11 
ROOT
HETATM    1  C3  UNL     1       3.498  -8.902 -23.611  1.00  0.00     0.132 C 
HETATM    2  C4  UNL     1       4.503  -8.009 -22.877  1.00  0.00     0.033 C 
HETATM    3  C5  UNL     1       5.856  -8.531 -23.223  1.00  0.00     0.014 C 
HETATM    4  C6  UNL     1       6.053  -9.995 -22.955  1.00  0.00    -0.014 C 
HETATM    5  C7  UNL     1       6.076 -10.156 -21.425  1.00  0.00     0.018 C 
HETATM    6  C8  UNL     1       7.418 -10.369 -23.426  1.00  0.00     0.127 C 
HETATM    7  C9  UNL     1       7.650 -11.870 -23.488  1.00  0.00     0.038 C 
HETATM    8  C10 UNL     1       7.515 -12.332 -24.886  1.00  0.00     0.001 C 
HETATM    9  C11 UNL     1       8.074 -13.667 -25.254  1.00  0.00    -0.008 C 
HETATM   10  C12 UNL     1       7.066 -13.644 -26.383  1.00  0.00     0.015 C 
HETATM   11  C13 UNL     1       6.288 -13.179 -25.156  1.00  0.00    -0.036 C 
HETATM   12  C14 UNL     1       5.012 -12.716 -25.117  1.00  0.00     0.010 C 
HETATM   13  C15 UNL     1       4.940 -11.194 -24.879  1.00  0.00     0.006 C 
HETATM   14  C16 UNL     1       4.957 -10.870 -23.443  1.00  0.00    -0.002 C 
HETATM   15  C17 UNL     1       3.620 -10.260 -23.028  1.00  0.00     0.038 C 
HETATM   16  C18 UNL     1       6.967 -14.280 -24.442  1.00  0.00     0.015 C 
ENDROOT
BRANCH   1  17
HETATM   17  O2  UNL     1       2.220  -8.365 -23.638  1.00  0.00    -0.316 OA
BRANCH  17  18
HETATM   18  C2  UNL     1       1.308  -8.480 -24.666  1.00  0.00     0.255 C 
HETATM   19  C1  UNL     1       0.366  -9.622 -24.786  1.00  0.00     0.126 C 
HETATM   20  O1  UNL     1       1.276  -7.590 -25.527  1.00  0.00    -0.266 OA
ENDBRANCH  17  18
ENDBRANCH   1  17
BRANCH   6  21
HETATM   21  O3  UNL     1       7.797  -9.734 -24.606  1.00  0.00    -0.395 OA
ATOM     22  H3  UNL     1       8.738  -9.661 -24.717  1.00  0.00     0.210 HD
ENDBRANCH   6  21
TORSDOF 3
ENDMDL
MODEL 5
REMARK VINA RESULT: -7.167843852      1.246      1.486
REMARK  3 active torsions:
REMARK  status: ('A' for Active; 'I' for Inactive)
REMARK    1  A    between atoms: C2_2  and  O2_4 
REMARK    2  A    between atoms: O2_4  and  C3_5 
REMARK    3  A    between atoms: C8_10  and  O3_11 
ROOT
HETATM    1  C3  UNL     1       5.620 -12.816 -24.113  1.00  0.00     0.132 C 
HETATM    2  C4  UNL     1       6.728 -12.421 -23.131  1.00  0.00     0.033 C 
HETATM    3  C5  UNL     1       6.266 -11.172 -22.460  1.00  0.00     0.014 C 
HETATM    4  C6  UNL     1       5.875 -10.064 -23.394  1.00  0.00    -0.014 C 
HETATM    5  C7  UNL     1       7.178  -9.565 -24.043  1.00  0.00     0.018 C 
HETATM    6  C8  UNL     1       5.367  -8.929 -22.572  1.00  0.00     0.127 C 
HETATM    7  C9  UNL     1       4.666  -7.853 -23.387  1.00  0.00     0.038 C 
HETATM    8  C10 UNL     1       3.203  -8.023 -23.270  1.00  0.00     0.001 C 
HETATM    9  C11 UNL     1       2.318  -6.880 -23.649  1.00  0.00    -0.008 C 
HETATM   10  C12 UNL     1       1.258  -7.935 -23.884  1.00  0.00     0.015 C 
HETATM   11  C13 UNL     1       2.518  -8.496 -24.536  1.00  0.00    -0.036 C 
HETATM   12  C14 UNL     1       2.683  -9.728 -25.084  1.00  0.00     0.010 C 
HETATM   13  C15 UNL     1       3.560 -10.651 -24.215  1.00  0.00     0.006 C 
HETATM   14  C16 UNL     1       4.991 -10.476 -24.513  1.00  0.00    -0.002 C 
HETATM   15  C17 UNL     1       5.554 -11.749 -25.141  1.00  0.00     0.038 C 
HETATM   16  C18 UNL     1       2.714  -7.135 -25.076  1.00  0.00     0.015 C 
ENDROOT
BRANCH   1  17
HETATM   17  O2  UNL     1       5.758 -14.111 -24.589  1.00  0.00    -0.316 OA
BRANCH  17  18
HETATM   18  C2  UNL     1       4.750 -14.909 -25.085  1.00  0.00     0.255 C 
HETATM   19  C1  UNL     1       5.003 -16.065 -25.982  1.00  0.00     0.126 C 
HETATM   20  O1  UNL     1       3.582 -14.648 -24.766  1.00  0.00    -0.266 OA
ENDBRANCH  17  18
ENDBRANCH   1  17
BRANCH   6  21
HETATM   21  O3  UNL     1       4.609  -9.327 -21.473  1.00  0.00    -0.395 OA
ATOM     22  H3  UNL     1       5.126  -9.515 -20.699  1.00  0.00     0.210 HD
ENDBRANCH   6  21
TORSDOF 3
ENDMDL
