MODEL 1
REMARK VINA RESULT: -7.661147713      0.000      0.000
REMARK  10 active torsions:
REMARK  status: ('A' for Active; 'I' for Inactive)
REMARK    1  A    between atoms: C2_2  and  O1_3 
REMARK    2  A    between atoms: O1_3  and  C3_4 
REMARK    3  A    between atoms: C3_4  and  O2_5 
REMARK    4  A    between atoms: C3_4  and  C5_7 
REMARK    5  A    between atoms: N1_10  and  C8_11 
REMARK    6  A    between atoms: C14_17  and  C15_18 
REMARK    7  A    between atoms: C15_18  and  O3_19 
REMARK    8  A    between atoms: C17_24  and  O4_25 
REMARK    9  A    between atoms: O4_25  and  C18_26 
REMARK   10  A    between atoms: C18_26  and  C19_27 
ROOT
HETATM    1  C8  UNL     1      10.200  -2.933 -21.413  1.00  0.00     0.083 C 
HETATM    2  C9  UNL     1      11.074  -2.739 -22.595  1.00  0.00     0.063 C 
HETATM    3  C10 UNL     1      12.235  -1.894 -21.984  1.00  0.00     0.080 C 
HETATM    4  C11 UNL     1      13.118  -2.808 -21.225  1.00  0.00     0.029 C 
HETATM    5  C12 UNL     1      12.260  -3.721 -20.208  1.00  0.00     0.039 C 
HETATM    6  C13 UNL     1      11.087  -2.791 -20.244  1.00  0.00    -0.043 C 
HETATM    7  C14 UNL     1      10.962  -1.691 -19.609  1.00  0.00    -0.027 C 
HETATM    8  C16 UNL     1      10.389  -0.736 -20.784  1.00  0.00     0.141 C 
HETATM    9  N2  UNL     1      11.652  -0.714 -21.508  1.00  0.00    -0.407 N 
ATOM     10  H2  UNL     1      12.119   0.177 -21.672  1.00  0.00     0.154 HD
HETATM   11  C17 UNL     1       9.308  -1.642 -21.188  1.00  0.00     0.186 C 
ENDROOT
BRANCH   1  12
HETATM   12  N1  UNL     1       9.311  -3.984 -21.513  1.00  0.00    -0.397 N 
HETATM   13  C7  UNL     1       9.164  -4.314 -22.918  1.00  0.00     0.118 C 
HETATM   14  C6  UNL     1       9.578  -5.767 -23.139  1.00  0.00     0.029 C 
HETATM   15  C5  UNL     1       8.459  -6.624 -22.494  1.00  0.00     0.044 C 
HETATM   16  C26 UNL     1       7.992  -5.922 -21.260  1.00  0.00     0.029 C 
HETATM   17  C25 UNL     1       9.206  -5.097 -20.719  1.00  0.00     0.118 C 
BRANCH  15  18
HETATM   18  C3  UNL     1       7.528  -7.083 -23.532  1.00  0.00     0.263 C 
BRANCH  18  19
HETATM   19  O1  UNL     1       7.562  -8.492 -23.698  1.00  0.00    -0.361 OA
BRANCH  19  20
HETATM   20  C2  UNL     1       8.015  -8.893 -24.925  1.00  0.00     0.166 C 
HETATM   21  C1  UNL     1       9.373  -9.632 -24.744  1.00  0.00     0.033 C 
ENDBRANCH  19  20
ENDBRANCH  18  19
BRANCH  18  22
HETATM   22  O2  UNL     1       6.214  -6.815 -23.108  1.00  0.00    -0.366 OA
HETATM   23  C4  UNL     1       5.313  -6.394 -23.994  1.00  0.00     0.204 C 
ENDBRANCH  18  22
ENDBRANCH  15  18
ENDBRANCH   1  12
BRANCH  11  24
HETATM   24  O4  UNL     1       8.431  -2.057 -20.336  1.00  0.00    -0.352 OA
BRANCH  24  25
HETATM   25  C18 UNL     1       7.615  -2.441 -19.543  1.00  0.00     0.148 C 
BRANCH  25  26
HETATM   26  C19 UNL     1       6.178  -2.179 -19.536  1.00  0.00     0.007 A 
HETATM   27  C20 UNL     1       5.666  -1.546 -18.367  1.00  0.00     0.017 A 
HETATM   28  C21 UNL     1       4.317  -1.302 -18.262  1.00  0.00     0.025 A 
HETATM   29  C22 UNL     1       3.428  -1.655 -19.237  1.00  0.00     0.035 A 
HETATM   30 CL1  UNL     1       1.707  -1.382 -19.139  1.00  0.00    -0.084 Cl
HETATM   31  C23 UNL     1       3.903  -2.264 -20.357  1.00  0.00     0.048 A 
HETATM   32  C24 UNL     1       5.261  -2.503 -20.473  1.00  0.00     0.047 A 
HETATM   33 CL2  UNL     1       5.798  -3.347 -21.897  1.00  0.00    -0.083 Cl
ENDBRANCH  25  26
ENDBRANCH  24  25
ENDBRANCH  11  24
BRANCH   7  34
HETATM   34  C15 UNL     1      11.456  -0.982 -18.432  1.00  0.00     0.201 C 
BRANCH  34  35
HETATM   35  O3  UNL     1      10.735  -1.382 -17.273  1.00  0.00    -0.397 OA
ATOM     36  H3  UNL     1      11.317  -1.444 -16.525  1.00  0.00     0.209 HD
ENDBRANCH  34  35
ENDBRANCH   7  34
TORSDOF 10
ENDMDL
MODEL 2
REMARK VINA RESULT: -7.599693896      3.250      7.413
REMARK  10 active torsions:
REMARK  status: ('A' for Active; 'I' for Inactive)
REMARK    1  A    between atoms: C2_2  and  O1_3 
REMARK    2  A    between atoms: O1_3  and  C3_4 
REMARK    3  A    between atoms: C3_4  and  O2_5 
REMARK    4  A    between atoms: C3_4  and  C5_7 
REMARK    5  A    between atoms: N1_10  and  C8_11 
REMARK    6  A    between atoms: C14_17  and  C15_18 
REMARK    7  A    between atoms: C15_18  and  O3_19 
REMARK    8  A    between atoms: C17_24  and  O4_25 
REMARK    9  A    between atoms: O4_25  and  C18_26 
REMARK   10  A    between atoms: C18_26  and  C19_27 
ROOT
HETATM    1  C8  UNL     1       4.360  -6.547 -24.782  1.00  0.00     0.083 C 
HETATM    2  C9  UNL     1       4.365  -8.027 -24.880  1.00  0.00     0.063 C 
HETATM    3  C10 UNL     1       3.203  -8.273 -25.893  1.00  0.00     0.080 C 
HETATM    4  C11 UNL     1       3.709  -7.976 -27.252  1.00  0.00     0.029 C 
HETATM    5  C12 UNL     1       4.427  -6.532 -27.295  1.00  0.00     0.039 C 
HETATM    6  C13 UNL     1       3.751  -6.075 -26.039  1.00  0.00    -0.043 C 
HETATM    7  C14 UNL     1       2.553  -5.651 -25.925  1.00  0.00    -0.027 C 
HETATM    8  C16 UNL     1       2.075  -6.465 -24.610  1.00  0.00     0.141 C 
HETATM    9  N2  UNL     1       2.051  -7.746 -25.300  1.00  0.00    -0.407 N 
ATOM     10  H2  UNL     1       1.177  -8.270 -25.351  1.00  0.00     0.154 HD
HETATM   11  C17 UNL     1       3.224  -6.080 -23.781  1.00  0.00     0.186 C 
ENDROOT
BRANCH   1  12
HETATM   12  N1  UNL     1       5.528  -5.991 -24.301  1.00  0.00    -0.397 N 
HETATM   13  C7  UNL     1       6.007  -6.826 -23.215  1.00  0.00     0.118 C 
HETATM   14  C6  UNL     1       7.403  -7.342 -23.555  1.00  0.00     0.029 C 
HETATM   15  C5  UNL     1       8.341  -6.112 -23.447  1.00  0.00     0.044 C 
HETATM   16  C26 UNL     1       7.596  -4.916 -23.946  1.00  0.00     0.029 C 
HETATM   17  C25 UNL     1       6.565  -5.432 -25.003  1.00  0.00     0.118 C 
BRANCH  15  18
HETATM   18  C3  UNL     1       9.020  -6.123 -22.145  1.00  0.00     0.263 C 
BRANCH  18  19
HETATM   19  O1  UNL     1       8.109  -6.258 -21.066  1.00  0.00    -0.361 OA
BRANCH  19  20
HETATM   20  C2  UNL     1       8.019  -5.146 -20.276  1.00  0.00     0.166 C 
HETATM   21  C1  UNL     1       9.254  -4.236 -20.544  1.00  0.00     0.033 C 
ENDBRANCH  19  20
ENDBRANCH  18  19
BRANCH  18  22
HETATM   22  O2  UNL     1       9.825  -7.274 -22.067  1.00  0.00    -0.366 OA
HETATM   23  C4  UNL     1      10.930  -7.352 -22.805  1.00  0.00     0.204 C 
ENDBRANCH  18  22
ENDBRANCH  15  18
ENDBRANCH   1  12
BRANCH  11  24
HETATM   24  O4  UNL     1       3.520  -4.839 -23.586  1.00  0.00    -0.352 OA
BRANCH  24  25
HETATM   25  C18 UNL     1       3.795  -3.684 -23.402  1.00  0.00     0.148 C 
BRANCH  25  26
HETATM   26  C19 UNL     1       3.978  -2.998 -22.125  1.00  0.00     0.007 A 
HETATM   27  C20 UNL     1       5.324  -2.858 -21.682  1.00  0.00     0.017 A 
HETATM   28  C21 UNL     1       5.581  -2.263 -20.469  1.00  0.00     0.025 A 
HETATM   29  C22 UNL     1       4.589  -1.802 -19.652  1.00  0.00     0.035 A 
HETATM   30 CL1  UNL     1       4.868  -1.056 -18.098  1.00  0.00    -0.084 Cl
HETATM   31  C23 UNL     1       3.299  -1.933 -20.061  1.00  0.00     0.048 A 
HETATM   32  C24 UNL     1       3.034  -2.522 -21.285  1.00  0.00     0.047 A 
HETATM   33 CL2  UNL     1       1.362  -2.723 -21.722  1.00  0.00    -0.083 Cl
ENDBRANCH  25  26
ENDBRANCH  24  25
ENDBRANCH  11  24
BRANCH   7  34
HETATM   34  C15 UNL     1       1.470  -5.048 -26.697  1.00  0.00     0.201 C 
BRANCH  34  35
HETATM   35  O3  UNL     1       0.242  -5.136 -25.984  1.00  0.00    -0.397 OA
ATOM     36  H3  UNL     1      -0.435  -5.514 -26.534  1.00  0.00     0.209 HD
ENDBRANCH  34  35
ENDBRANCH   7  34
TORSDOF 10
ENDMDL
MODEL 3
REMARK VINA RESULT: -7.531792874      3.796      7.393
REMARK  10 active torsions:
REMARK  status: ('A' for Active; 'I' for Inactive)
REMARK    1  A    between atoms: C2_2  and  O1_3 
REMARK    2  A    between atoms: O1_3  and  C3_4 
REMARK    3  A    between atoms: C3_4  and  O2_5 
REMARK    4  A    between atoms: C3_4  and  C5_7 
REMARK    5  A    between atoms: N1_10  and  C8_11 
REMARK    6  A    between atoms: C14_17  and  C15_18 
REMARK    7  A    between atoms: C15_18  and  O3_19 
REMARK    8  A    between atoms: C17_24  and  O4_25 
REMARK    9  A    between atoms: O4_25  and  C18_26 
REMARK   10  A    between atoms: C18_26  and  C19_27 
ROOT
HETATM    1  C8  UNL     1       4.316  -6.786 -25.071  1.00  0.00     0.083 C 
HETATM    2  C9  UNL     1       3.979  -8.216 -25.275  1.00  0.00     0.063 C 
HETATM    3  C10 UNL     1       2.611  -8.107 -26.020  1.00  0.00     0.080 C 
HETATM    4  C11 UNL     1       2.885  -7.758 -27.432  1.00  0.00     0.029 C 
HETATM    5  C12 UNL     1       3.876  -6.489 -27.529  1.00  0.00     0.039 C 
HETATM    6  C13 UNL     1       3.584  -6.058 -26.124  1.00  0.00    -0.043 C 
HETATM    7  C14 UNL     1       2.555  -5.422 -25.716  1.00  0.00    -0.027 C 
HETATM    8  C16 UNL     1       2.186  -6.276 -24.391  1.00  0.00     0.141 C 
HETATM    9  N2  UNL     1       1.745  -7.437 -25.149  1.00  0.00    -0.407 N 
ATOM     10  H2  UNL     1       0.787  -7.768 -25.043  1.00  0.00     0.154 HD
HETATM   11  C17 UNL     1       3.535  -6.225 -23.812  1.00  0.00     0.186 C 
ENDROOT
BRANCH   1  12
HETATM   12  N1  UNL     1       5.649  -6.532 -24.822  1.00  0.00    -0.397 N 
HETATM   13  C7  UNL     1       6.183  -7.647 -24.063  1.00  0.00     0.118 C 
HETATM   14  C6  UNL     1       7.335  -8.280 -24.841  1.00  0.00     0.029 C 
HETATM   15  C5  UNL     1       8.500  -7.260 -24.768  1.00  0.00     0.044 C 
HETATM   16  C26 UNL     1       7.917  -5.886 -24.837  1.00  0.00     0.029 C 
HETATM   17  C25 UNL     1       6.592  -5.995 -25.661  1.00  0.00     0.118 C 
BRANCH  15  18
HETATM   18  C3  UNL     1       9.439  -7.659 -23.712  1.00  0.00     0.263 C 
BRANCH  18  19
HETATM   19  O1  UNL     1       8.912  -7.435 -22.413  1.00  0.00    -0.361 OA
BRANCH  19  20
HETATM   20  C2  UNL     1       9.436  -6.338 -21.786  1.00  0.00     0.166 C 
HETATM   21  C1  UNL     1       8.302  -5.618 -20.999  1.00  0.00     0.033 C 
ENDBRANCH  19  20
ENDBRANCH  18  19
BRANCH  18  22
HETATM   22  O2  UNL     1       9.623  -9.051 -23.776  1.00  0.00    -0.366 OA
HETATM   23  C4  UNL     1      10.534  -9.554 -24.608  1.00  0.00     0.204 C 
ENDBRANCH  18  22
ENDBRANCH  15  18
ENDBRANCH   1  12
BRANCH  11  24
HETATM   24  O4  UNL     1       4.128  -5.099 -23.598  1.00  0.00    -0.352 OA
BRANCH  24  25
HETATM   25  C18 UNL     1       4.677  -4.049 -23.399  1.00  0.00     0.148 C 
BRANCH  25  26
HETATM   26  C19 UNL     1       4.612  -3.215 -22.202  1.00  0.00     0.007 A 
HETATM   27  C20 UNL     1       5.858  -2.935 -21.571  1.00  0.00     0.017 A 
HETATM   28  C21 UNL     1       5.882  -2.192 -20.414  1.00  0.00     0.025 A 
HETATM   29  C22 UNL     1       4.746  -1.713 -19.825  1.00  0.00     0.035 A 
HETATM   30 CL1  UNL     1       4.727  -0.783 -18.347  1.00  0.00    -0.084 Cl
HETATM   31  C23 UNL     1       3.549  -1.977 -20.414  1.00  0.00     0.048 A 
HETATM   32  C24 UNL     1       3.520  -2.716 -21.584  1.00  0.00     0.047 A 
HETATM   33 CL2  UNL     1       1.955  -3.079 -22.253  1.00  0.00    -0.083 Cl
ENDBRANCH  25  26
ENDBRANCH  24  25
ENDBRANCH  11  24
BRANCH   7  34
HETATM   34  C15 UNL     1       1.496  -4.531 -26.183  1.00  0.00     0.201 C 
BRANCH  34  35
HETATM   35  O3  UNL     1       0.409  -4.528 -25.266  1.00  0.00    -0.397 OA
ATOM     36  H3  UNL     1      -0.396  -4.280 -25.705  1.00  0.00     0.209 HD
ENDBRANCH  34  35
ENDBRANCH   7  34
TORSDOF 10
ENDMDL
MODEL 4
REMARK VINA RESULT: -7.422535214      3.645      7.635
REMARK  10 active torsions:
REMARK  status: ('A' for Active; 'I' for Inactive)
REMARK    1  A    between atoms: C2_2  and  O1_3 
REMARK    2  A    between atoms: O1_3  and  C3_4 
REMARK    3  A    between atoms: C3_4  and  O2_5 
REMARK    4  A    between atoms: C3_4  and  C5_7 
REMARK    5  A    between atoms: N1_10  and  C8_11 
REMARK    6  A    between atoms: C14_17  and  C15_18 
REMARK    7  A    between atoms: C15_18  and  O3_19 
REMARK    8  A    between atoms: C17_24  and  O4_25 
REMARK    9  A    between atoms: O4_25  and  C18_26 
REMARK   10  A    between atoms: C18_26  and  C19_27 
ROOT
HETATM    1  C8  UNL     1       4.347  -6.596 -24.850  1.00  0.00     0.083 C 
HETATM    2  C9  UNL     1       4.533  -8.039 -25.135  1.00  0.00     0.063 C 
HETATM    3  C10 UNL     1       3.438  -8.284 -26.219  1.00  0.00     0.080 C 
HETATM    4  C11 UNL     1       3.940  -7.754 -27.507  1.00  0.00     0.029 C 
HETATM    5  C12 UNL     1       4.479  -6.243 -27.335  1.00  0.00     0.039 C 
HETATM    6  C13 UNL     1       3.719  -6.037 -26.061  1.00  0.00    -0.043 C 
HETATM    7  C14 UNL     1       2.476  -5.773 -25.944  1.00  0.00    -0.027 C 
HETATM    8  C16 UNL     1       2.065  -6.804 -24.766  1.00  0.00     0.141 C 
HETATM    9  N2  UNL     1       2.214  -7.977 -25.613  1.00  0.00    -0.407 N 
ATOM     10  H2  UNL     1       1.412  -8.587 -25.768  1.00  0.00     0.154 HD
HETATM   11  C17 UNL     1       3.136  -6.400 -23.846  1.00  0.00     0.186 C 
ENDROOT
BRANCH   1  12
HETATM   12  N1  UNL     1       5.426  -5.977 -24.252  1.00  0.00    -0.397 N 
HETATM   13  C7  UNL     1       6.012  -6.910 -23.309  1.00  0.00     0.118 C 
HETATM   14  C6  UNL     1       7.467  -7.167 -23.693  1.00  0.00     0.029 C 
HETATM   15  C5  UNL     1       8.227  -5.858 -23.357  1.00  0.00     0.044 C 
HETATM   16  C26 UNL     1       7.325  -4.707 -23.669  1.00  0.00     0.029 C 
HETATM   17  C25 UNL     1       6.377  -5.172 -24.824  1.00  0.00     0.118 C 
BRANCH  15  18
HETATM   18  C3  UNL     1       8.897  -5.996 -22.059  1.00  0.00     0.263 C 
BRANCH  18  19
HETATM   19  O1  UNL     1       7.975  -6.038 -20.981  1.00  0.00    -0.361 OA
BRANCH  19  20
HETATM   20  C2  UNL     1       8.268  -5.166 -19.969  1.00  0.00     0.166 C 
HETATM   21  C1  UNL     1       7.307  -3.945 -20.061  1.00  0.00     0.033 C 
ENDBRANCH  19  20
ENDBRANCH  18  19
BRANCH  18  22
HETATM   22  O2  UNL     1       9.539  -7.246 -22.015  1.00  0.00    -0.366 OA
HETATM   23  C4  UNL     1      10.724  -7.395 -22.606  1.00  0.00     0.204 C 
ENDBRANCH  18  22
ENDBRANCH  15  18
ENDBRANCH   1  12
BRANCH  11  24
HETATM   24  O4  UNL     1       3.275  -5.170 -23.482  1.00  0.00    -0.352 OA
BRANCH  24  25
HETATM   25  C18 UNL     1       3.403  -4.025 -23.141  1.00  0.00     0.148 C 
BRANCH  25  26
HETATM   26  C19 UNL     1       2.473  -3.211 -22.363  1.00  0.00     0.007 A 
HETATM   27  C20 UNL     1       1.100  -3.315 -22.729  1.00  0.00     0.017 A 
HETATM   28  C21 UNL     1       0.163  -2.550 -22.075  1.00  0.00     0.025 A 
HETATM   29  C22 UNL     1       0.494  -1.672 -21.083  1.00  0.00     0.035 A 
HETATM   30 CL1  UNL     1      -0.658  -0.668 -20.239  1.00  0.00    -0.084 Cl
HETATM   31  C23 UNL     1       1.802  -1.559 -20.727  1.00  0.00     0.048 A 
HETATM   32  C24 UNL     1       2.748  -2.334 -21.374  1.00  0.00     0.047 A 
HETATM   33 CL2  UNL     1       4.412  -2.095 -20.922  1.00  0.00    -0.083 Cl
ENDBRANCH  25  26
ENDBRANCH  24  25
ENDBRANCH  11  24
BRANCH   7  34
HETATM   34  C15 UNL     1       1.350  -5.204 -26.679  1.00  0.00     0.201 C 
BRANCH  34  35
HETATM   35  O3  UNL     1       0.233  -6.084 -26.636  1.00  0.00    -0.397 OA
ATOM     36  H3  UNL     1       0.511  -6.981 -26.775  1.00  0.00     0.209 HD
ENDBRANCH  34  35
ENDBRANCH   7  34
TORSDOF 10
ENDMDL
MODEL 5
REMARK VINA RESULT: -7.379109601      1.330      2.179
REMARK  10 active torsions:
REMARK  status: ('A' for Active; 'I' for Inactive)
REMARK    1  A    between atoms: C2_2  and  O1_3 
REMARK    2  A    between atoms: O1_3  and  C3_4 
REMARK    3  A    between atoms: C3_4  and  O2_5 
REMARK    4  A    between atoms: C3_4  and  C5_7 
REMARK    5  A    between atoms: N1_10  and  C8_11 
REMARK    6  A    between atoms: C14_17  and  C15_18 
REMARK    7  A    between atoms: C15_18  and  O3_19 
REMARK    8  A    between atoms: C17_24  and  O4_25 
REMARK    9  A    between atoms: O4_25  and  C18_26 
REMARK   10  A    between atoms: C18_26  and  C19_27 
ROOT
HETATM    1  C8  UNL     1      10.467  -2.711 -21.335  1.00  0.00     0.083 C 
HETATM    2  C9  UNL     1      11.217  -2.623 -22.611  1.00  0.00     0.063 C 
HETATM    3  C10 UNL     1      12.578  -2.030 -22.128  1.00  0.00     0.080 C 
HETATM    4  C11 UNL     1      13.359  -3.122 -21.506  1.00  0.00     0.029 C 
HETATM    5  C12 UNL     1      12.474  -3.912 -20.413  1.00  0.00     0.039 C 
HETATM    6  C13 UNL     1      11.495  -2.785 -20.281  1.00  0.00    -0.043 C 
HETATM    7  C14 UNL     1      11.650  -1.711 -19.610  1.00  0.00    -0.027 C 
HETATM    8  C16 UNL     1      11.130  -0.615 -20.682  1.00  0.00     0.141 C 
HETATM    9  N2  UNL     1      12.281  -0.788 -21.555  1.00  0.00    -0.407 N 
ATOM     10  H2  UNL     1      12.882   0.011 -21.754  1.00  0.00     0.154 HD
HETATM   11  C17 UNL     1       9.860  -1.293 -20.970  1.00  0.00     0.186 C 
ENDROOT
BRANCH   1  12
HETATM   12  N1  UNL     1       9.394  -3.579 -21.349  1.00  0.00    -0.397 N 
HETATM   13  C7  UNL     1       9.019  -3.805 -22.732  1.00  0.00     0.118 C 
HETATM   14  C6  UNL     1       9.128  -5.295 -23.047  1.00  0.00     0.029 C 
HETATM   15  C5  UNL     1       7.958  -5.970 -22.287  1.00  0.00     0.044 C 
HETATM   16  C26 UNL     1       7.781  -5.261 -20.984  1.00  0.00     0.029 C 
HETATM   17  C25 UNL     1       9.184  -4.696 -20.581  1.00  0.00     0.118 C 
BRANCH  15  18
HETATM   18  C3  UNL     1       6.839  -6.201 -23.209  1.00  0.00     0.263 C 
BRANCH  18  19
HETATM   19  O1  UNL     1       6.269  -4.988 -23.675  1.00  0.00    -0.361 OA
BRANCH  19  20
HETATM   20  C2  UNL     1       4.901  -4.982 -23.670  1.00  0.00     0.166 C 
HETATM   21  C1  UNL     1       4.405  -3.687 -22.963  1.00  0.00     0.033 C 
ENDBRANCH  19  20
ENDBRANCH  18  19
BRANCH  18  22
HETATM   22  O2  UNL     1       7.333  -6.821 -24.371  1.00  0.00    -0.366 OA
HETATM   23  C4  UNL     1       7.065  -8.107 -24.592  1.00  0.00     0.204 C 
ENDBRANCH  18  22
ENDBRANCH  15  18
ENDBRANCH   1  12
BRANCH  11  24
HETATM   24  O4  UNL     1       9.028  -1.583 -20.027  1.00  0.00    -0.352 OA
BRANCH  24  25
HETATM   25  C18 UNL     1       8.253  -1.849 -19.148  1.00  0.00     0.148 C 
BRANCH  25  26
HETATM   26  C19 UNL     1       6.812  -2.060 -19.256  1.00  0.00     0.007 A 
HETATM   27  C20 UNL     1       6.108  -1.132 -20.076  1.00  0.00     0.017 A 
HETATM   28  C21 UNL     1       4.742  -1.233 -20.197  1.00  0.00     0.025 A 
HETATM   29  C22 UNL     1       4.015  -2.191 -19.548  1.00  0.00     0.035 A 
HETATM   30 CL1  UNL     1       2.280  -2.347 -19.659  1.00  0.00    -0.084 Cl
HETATM   31  C23 UNL     1       4.675  -3.082 -18.759  1.00  0.00     0.048 A 
HETATM   32  C24 UNL     1       6.051  -2.990 -18.641  1.00  0.00     0.047 A 
HETATM   33 CL2  UNL     1       6.830  -4.114 -17.564  1.00  0.00    -0.083 Cl
ENDBRANCH  25  26
ENDBRANCH  24  25
ENDBRANCH  11  24
BRANCH   7  34
HETATM   34  C15 UNL     1      12.401  -1.158 -18.486  1.00  0.00     0.201 C 
BRANCH  34  35
HETATM   35  O3  UNL     1      11.762  -1.479 -17.256  1.00  0.00    -0.397 OA
ATOM     36  H3  UNL     1      12.111  -0.946 -16.551  1.00  0.00     0.209 HD
ENDBRANCH  34  35
ENDBRANCH   7  34
TORSDOF 10
ENDMDL
