MODEL 1
REMARK VINA RESULT: -8.832416786      0.000      0.000
REMARK  3 active torsions:
REMARK  status: ('A' for Active; 'I' for Inactive)
REMARK    1  A    between atoms: C3_5  and  C4_6 
REMARK    2  A    between atoms: C14_19  and  C15_20 
REMARK    3  A    between atoms: C15_20  and  N3_21 
REMARK       I    between atoms: N3_21  and  C16_23 
ROOT
HETATM    1  N3  UNL     1      89.816 118.946  11.815  1.00  0.00    -0.358 N 
ATOM      2  H3  UNL     1      88.821 118.721  11.789  1.00  0.00     0.162 HD
HETATM    3  C16 UNL     1      90.268 119.957  10.961  1.00  0.00     0.197 C 
HETATM    4  N4  UNL     1      91.592 120.037  10.487  1.00  0.00    -0.063 NA
HETATM    5  N5  UNL     1      89.441 120.875  10.576  1.00  0.00    -0.268 N 
ATOM      6  H5  UNL     1      89.761 121.616   9.953  1.00  0.00     0.180 HD
HETATM    7  C17 UNL     1      88.094 120.857  11.015  1.00  0.00     0.184 C 
HETATM    8  N6  UNL     1      86.984 120.842  11.352  1.00  0.00    -0.172 NA
ENDROOT
BRANCH   1   9
HETATM    9  C15 UNL     1      90.634 118.202  12.723  1.00  0.00     0.181 C 
BRANCH   9  10
HETATM   10  C14 UNL     1      89.963 116.939  13.097  1.00  0.00     0.051 A 
HETATM   11  C2  UNL     1      89.017 116.802  14.099  1.00  0.00     0.031 A 
HETATM   12  C1  UNL     1      88.496 117.901  14.962  1.00  0.00     0.070 C 
HETATM   13  N1  UNL     1      88.695 115.506  14.109  1.00  0.00    -0.347 N 
HETATM   14  C3  UNL     1      89.370 114.810  13.184  1.00  0.00     0.086 A 
ATOM     15  H1  UNL     1      88.014 115.094  14.747  1.00  0.00     0.167 HD
HETATM   16  N2  UNL     1      90.147 115.733  12.576  1.00  0.00    -0.346 N 
ATOM     17  H2  UNL     1      90.793 115.529  11.814  1.00  0.00     0.167 HD
BRANCH  14  18
HETATM   18  C4  UNL     1      89.332 113.379  12.842  1.00  0.00     0.063 C 
HETATM   19  C5  UNL     1      90.145 112.844  11.790  1.00  0.00     0.009 C 
HETATM   20  C6  UNL     1      91.097 113.526  10.918  1.00  0.00     0.006 C 
HETATM   21  C10 UNL     1      90.975 112.107  12.801  1.00  0.00    -0.001 A 
HETATM   22  C7  UNL     1      91.826 112.389  10.185  1.00  0.00     0.000 C 
HETATM   23  C8  UNL     1      92.346 111.313  11.054  1.00  0.00     0.001 C 
HETATM   24  C9  UNL     1      91.410 110.874  12.189  1.00  0.00     0.013 C 
HETATM   25  C11 UNL     1      92.036 112.793  13.552  1.00  0.00     0.179 A 
HETATM   26  C13 UNL     1      90.009 112.404  13.796  1.00  0.00     0.011 A 
HETATM   27  F1  UNL     1      92.997 111.855  13.986  1.00  0.00    -0.249 F 
HETATM   28  C12 UNL     1      91.071 113.019  14.675  1.00  0.00     0.044 A 
ENDBRANCH  14  18
ENDBRANCH   9  10
ENDBRANCH   1   9
TORSDOF 3
ENDMDL
MODEL 2
REMARK VINA RESULT: -8.826506239      2.127      3.053
REMARK  3 active torsions:
REMARK  status: ('A' for Active; 'I' for Inactive)
REMARK    1  A    between atoms: C3_5  and  C4_6 
REMARK    2  A    between atoms: C14_19  and  C15_20 
REMARK    3  A    between atoms: C15_20  and  N3_21 
REMARK       I    between atoms: N3_21  and  C16_23 
ROOT
HETATM    1  N3  UNL     1      89.905 118.755  11.592  1.00  0.00    -0.358 N 
ATOM      2  H3  UNL     1      88.910 118.538  11.524  1.00  0.00     0.162 HD
HETATM    3  C16 UNL     1      90.370 119.867  10.884  1.00  0.00     0.197 C 
HETATM    4  N4  UNL     1      91.701 120.004  10.442  1.00  0.00    -0.063 NA
HETATM    5  N5  UNL     1      89.550 120.831  10.613  1.00  0.00    -0.268 N 
ATOM      6  H5  UNL     1      89.880 121.647  10.097  1.00  0.00     0.180 HD
HETATM    7  C17 UNL     1      88.198 120.761  11.028  1.00  0.00     0.184 C 
HETATM    8  N6  UNL     1      87.084 120.706  11.346  1.00  0.00    -0.172 NA
ENDROOT
BRANCH   1   9
HETATM    9  C15 UNL     1      90.710 117.894  12.404  1.00  0.00     0.181 C 
BRANCH   9  10
HETATM   10  C14 UNL     1      90.353 116.480  12.160  1.00  0.00     0.051 A 
HETATM   11  C2  UNL     1      89.653 115.669  13.037  1.00  0.00     0.031 A 
HETATM   12  C1  UNL     1      89.123 116.079  14.369  1.00  0.00     0.070 C 
HETATM   13  N1  UNL     1      89.570 114.481  12.433  1.00  0.00    -0.347 N 
HETATM   14  C3  UNL     1      90.167 114.481  11.233  1.00  0.00     0.086 A 
ATOM     15  H1  UNL     1      89.105 113.668  12.837  1.00  0.00     0.167 HD
HETATM   16  N2  UNL     1      90.641 115.739  11.098  1.00  0.00    -0.346 N 
ATOM     17  H2  UNL     1      91.156 116.076  10.284  1.00  0.00     0.167 HD
BRANCH  14  18
HETATM   18  C4  UNL     1      90.314 113.411  10.234  1.00  0.00     0.063 C 
HETATM   19  C5  UNL     1      90.424 113.709   8.836  1.00  0.00     0.009 C 
HETATM   20  C6  UNL     1      90.422 115.004   8.162  1.00  0.00     0.006 C 
HETATM   21  C10 UNL     1      91.857 113.259   8.849  1.00  0.00    -0.001 A 
HETATM   22  C7  UNL     1      90.825 114.683   6.714  1.00  0.00     0.000 C 
HETATM   23  C8  UNL     1      92.031 113.840   6.570  1.00  0.00     0.001 C 
HETATM   24  C9  UNL     1      92.140 112.673   7.561  1.00  0.00     0.013 C 
HETATM   25  C11 UNL     1      92.923 114.149   9.334  1.00  0.00     0.179 A 
HETATM   26  C13 UNL     1      91.662 112.708  10.141  1.00  0.00     0.011 A 
HETATM   27  F1  UNL     1      94.156 113.773   8.760  1.00  0.00    -0.249 F 
HETATM   28  C12 UNL     1      92.825 113.504  10.682  1.00  0.00     0.044 A 
ENDBRANCH  14  18
ENDBRANCH   9  10
ENDBRANCH   1   9
TORSDOF 3
ENDMDL
MODEL 3
REMARK VINA RESULT: -8.748034012      1.905      2.993
REMARK  3 active torsions:
REMARK  status: ('A' for Active; 'I' for Inactive)
REMARK    1  A    between atoms: C3_5  and  C4_6 
REMARK    2  A    between atoms: C14_19  and  C15_20 
REMARK    3  A    between atoms: C15_20  and  N3_21 
REMARK       I    between atoms: N3_21  and  C16_23 
ROOT
HETATM    1  N3  UNL     1      88.744 120.472  13.177  1.00  0.00    -0.358 N 
ATOM      2  H3  UNL     1      88.881 120.312  14.175  1.00  0.00     0.162 HD
HETATM    3  C16 UNL     1      87.544 121.068  12.780  1.00  0.00     0.197 C 
HETATM    4  N4  UNL     1      86.974 120.890  11.504  1.00  0.00    -0.063 NA
HETATM    5  N5  UNL     1      86.910 121.828  13.614  1.00  0.00    -0.268 N 
ATOM      6  H5  UNL     1      86.034 122.267  13.334  1.00  0.00     0.180 HD
HETATM    7  C17 UNL     1      87.425 122.052  14.915  1.00  0.00     0.184 C 
HETATM    8  N6  UNL     1      87.828 122.229  15.988  1.00  0.00    -0.172 NA
ENDROOT
BRANCH   1   9
HETATM    9  C15 UNL     1      89.798 120.067  12.297  1.00  0.00     0.181 C 
BRANCH   9  10
HETATM   10  C14 UNL     1      89.908 118.593  12.277  1.00  0.00     0.051 A 
HETATM   11  C2  UNL     1      90.579 117.854  11.318  1.00  0.00     0.031 A 
HETATM   12  C1  UNL     1      91.323 118.410  10.151  1.00  0.00     0.070 C 
HETATM   13  N1  UNL     1      90.410 116.577  11.670  1.00  0.00    -0.347 N 
HETATM   14  C3  UNL     1      89.679 116.453  12.786  1.00  0.00     0.086 A 
ATOM     15  H1  UNL     1      90.794 115.787  11.151  1.00  0.00     0.167 HD
HETATM   16  N2  UNL     1      89.385 117.725  13.133  1.00  0.00    -0.346 N 
ATOM     17  H2  UNL     1      88.831 117.985  13.950  1.00  0.00     0.167 HD
BRANCH  14  18
HETATM   18  C4  UNL     1      89.253 115.255  13.526  1.00  0.00     0.063 C 
HETATM   19  C5  UNL     1      89.410 113.942  12.971  1.00  0.00     0.009 C 
HETATM   20  C6  UNL     1      89.974 113.543  11.685  1.00  0.00     0.006 C 
HETATM   21  C10 UNL     1      90.466 113.632  13.993  1.00  0.00    -0.001 A 
HETATM   22  C7  UNL     1      90.098 112.014  11.780  1.00  0.00     0.000 C 
HETATM   23  C8  UNL     1      90.762 111.513  13.002  1.00  0.00     0.001 C 
HETATM   24  C9  UNL     1      90.369 112.226  14.304  1.00  0.00     0.013 C 
HETATM   25  C11 UNL     1      91.849 114.098  13.814  1.00  0.00     0.179 A 
HETATM   26  C13 UNL     1      90.109 114.806  14.704  1.00  0.00     0.011 A 
HETATM   27  F1  UNL     1      92.730 113.267  14.539  1.00  0.00    -0.249 F 
HETATM   28  C12 UNL     1      91.538 115.293  14.663  1.00  0.00     0.044 A 
ENDBRANCH  14  18
ENDBRANCH   9  10
ENDBRANCH   1   9
TORSDOF 3
ENDMDL
MODEL 4
REMARK VINA RESULT: -8.721704065      4.089      7.162
REMARK  3 active torsions:
REMARK  status: ('A' for Active; 'I' for Inactive)
REMARK    1  A    between atoms: C3_5  and  C4_6 
REMARK    2  A    between atoms: C14_19  and  C15_20 
REMARK    3  A    between atoms: C15_20  and  N3_21 
REMARK       I    between atoms: N3_21  and  C16_23 
ROOT
HETATM    1  N3  UNL     1      90.101 113.562  18.653  1.00  0.00    -0.358 N 
ATOM      2  H3  UNL     1      89.491 112.767  18.848  1.00  0.00     0.162 HD
HETATM    3  C16 UNL     1      89.745 114.795  19.206  1.00  0.00     0.197 C 
HETATM    4  N4  UNL     1      90.125 116.033  18.651  1.00  0.00    -0.063 NA
HETATM    5  N5  UNL     1      89.032 114.821  20.286  1.00  0.00    -0.268 N 
ATOM      6  H5  UNL     1      88.768 115.716  20.697  1.00  0.00     0.180 HD
HETATM    7  C17 UNL     1      88.616 113.614  20.900  1.00  0.00     0.184 C 
HETATM    8  N6  UNL     1      88.254 112.633  21.401  1.00  0.00    -0.172 NA
ENDROOT
BRANCH   1   9
HETATM    9  C15 UNL     1      91.250 113.321  17.834  1.00  0.00     0.181 C 
BRANCH   9  10
HETATM   10  C14 UNL     1      90.865 113.304  16.407  1.00  0.00     0.051 A 
HETATM   11  C2  UNL     1      91.016 112.227  15.551  1.00  0.00     0.031 A 
HETATM   12  C1  UNL     1      91.573 110.893  15.917  1.00  0.00     0.070 C 
HETATM   13  N1  UNL     1      90.563 112.647  14.366  1.00  0.00    -0.347 N 
HETATM   14  C3  UNL     1      90.134 113.917  14.411  1.00  0.00     0.086 A 
ATOM     15  H1  UNL     1      90.544 112.070  13.526  1.00  0.00     0.167 HD
HETATM   16  N2  UNL     1      90.338 114.291  15.693  1.00  0.00    -0.346 N 
ATOM     17  H2  UNL     1      90.115 115.214  16.065  1.00  0.00     0.167 HD
BRANCH  14  18
HETATM   18  C4  UNL     1      89.562 114.774  13.361  1.00  0.00     0.063 C 
HETATM   19  C5  UNL     1      89.045 116.076  13.664  1.00  0.00     0.009 C 
HETATM   20  C6  UNL     1      88.983 116.773  14.946  1.00  0.00     0.006 C 
HETATM   21  C10 UNL     1      90.182 116.706  12.912  1.00  0.00    -0.001 A 
HETATM   22  C7  UNL     1      88.566 118.207  14.582  1.00  0.00     0.000 C 
HETATM   23  C8  UNL     1      89.354 118.835  13.501  1.00  0.00     0.001 C 
HETATM   24  C9  UNL     1      89.684 117.921  12.312  1.00  0.00     0.013 C 
HETATM   25  C11 UNL     1      91.505 116.861  13.535  1.00  0.00     0.179 A 
HETATM   26  C13 UNL     1      90.523 115.436  12.383  1.00  0.00     0.011 A 
HETATM   27  F1  UNL     1      92.204 117.918  12.913  1.00  0.00    -0.249 F 
HETATM   28  C12 UNL     1      91.938 115.579  12.891  1.00  0.00     0.044 A 
ENDBRANCH  14  18
ENDBRANCH   9  10
ENDBRANCH   1   9
TORSDOF 3
ENDMDL
MODEL 5
REMARK VINA RESULT: -8.719203853      2.028      3.019
REMARK  3 active torsions:
REMARK  status: ('A' for Active; 'I' for Inactive)
REMARK    1  A    between atoms: C3_5  and  C4_6 
REMARK    2  A    between atoms: C14_19  and  C15_20 
REMARK    3  A    between atoms: C15_20  and  N3_21 
REMARK       I    between atoms: N3_21  and  C16_23 
ROOT
HETATM    1  N3  UNL     1      89.017 120.654  12.773  1.00  0.00    -0.358 N 
ATOM      2  H3  UNL     1      90.012 120.855  12.878  1.00  0.00     0.162 HD
HETATM    3  C16 UNL     1      88.501 120.623  11.474  1.00  0.00     0.197 C 
HETATM    4  N4  UNL     1      87.150 120.885  11.170  1.00  0.00    -0.063 NA
HETATM    5  N5  UNL     1      89.290 120.341  10.488  1.00  0.00    -0.268 N 
ATOM      6  H5  UNL     1      88.923 120.316   9.537  1.00  0.00     0.180 HD
HETATM    7  C17 UNL     1      90.660 120.067  10.721  1.00  0.00     0.184 C 
HETATM    8  N6  UNL     1      91.787 119.858  10.898  1.00  0.00    -0.172 NA
ENDROOT
BRANCH   1   9
HETATM    9  C15 UNL     1      88.264 120.428  13.969  1.00  0.00     0.181 C 
BRANCH   9  10
HETATM   10  C14 UNL     1      88.430 119.030  14.420  1.00  0.00     0.051 A 
HETATM   11  C2  UNL     1      88.216 118.575  15.710  1.00  0.00     0.031 A 
HETATM   12  C1  UNL     1      87.765 119.405  16.864  1.00  0.00     0.070 C 
HETATM   13  N1  UNL     1      88.498 117.270  15.678  1.00  0.00    -0.347 N 
HETATM   14  C3  UNL     1      88.875 116.864  14.458  1.00  0.00     0.086 A 
ATOM     15  H1  UNL     1      88.433 116.653  16.488  1.00  0.00     0.167 HD
HETATM   16  N2  UNL     1      88.821 117.984  13.704  1.00  0.00    -0.346 N 
ATOM     17  H2  UNL     1      89.052 118.021  12.711  1.00  0.00     0.167 HD
BRANCH  14  18
HETATM   18  C4  UNL     1      89.269 115.534  13.968  1.00  0.00     0.063 C 
HETATM   19  C5  UNL     1      89.900 115.368  12.691  1.00  0.00     0.009 C 
HETATM   20  C6  UNL     1      90.260 116.377  11.699  1.00  0.00     0.006 C 
HETATM   21  C10 UNL     1      91.184 114.988  13.370  1.00  0.00    -0.001 A 
HETATM   22  C7  UNL     1      91.123 115.618  10.678  1.00  0.00     0.000 C 
HETATM   23  C8  UNL     1      92.216 114.809  11.257  1.00  0.00     0.001 C 
HETATM   24  C9  UNL     1      91.853 114.026  12.527  1.00  0.00     0.013 C 
HETATM   25  C11 UNL     1      92.085 116.017  13.913  1.00  0.00     0.179 A 
HETATM   26  C13 UNL     1      90.489 114.877  14.601  1.00  0.00     0.011 A 
HETATM   27  F1  UNL     1      93.400 115.511  13.981  1.00  0.00    -0.249 F 
HETATM   28  C12 UNL     1      91.450 115.837  15.258  1.00  0.00     0.044 A 
ENDBRANCH  14  18
ENDBRANCH   9  10
ENDBRANCH   1   9
TORSDOF 3
ENDMDL
