MODEL 1
REMARK VINA RESULT: -6.185431982      0.000      0.000
REMARK  4 active torsions:
REMARK  status: ('A' for Active; 'I' for Inactive)
REMARK    1  A    between atoms: C2_2  and  N1_4 
REMARK    2  A    between atoms: N1_4  and  C4_6 
REMARK    3  A    between atoms: C7_9  and  O1_10 
REMARK    4  A    between atoms: C10_14  and  C11_15 
ROOT
HETATM    1  C4  UNL     1     -27.694  43.953  11.775  1.00  0.00     0.091 C 
HETATM    2  C5  UNL     1     -28.064  45.050  10.769  1.00  0.00     0.017 C 
HETATM    3  C6  UNL     1     -28.584  46.308  11.290  1.00  0.00     0.045 C 
HETATM    4  C7  UNL     1     -27.328  47.020  11.768  1.00  0.00     0.068 C 
HETATM    5  C8  UNL     1     -27.004  46.151  12.853  1.00  0.00     0.050 C 
HETATM    6  C9  UNL     1     -26.300  45.085  12.040  1.00  0.00    -0.011 A 
HETATM    7  C10 UNL     1     -25.897  44.743  10.575  1.00  0.00     0.102 C 
HETATM    8  C12 UNL     1     -26.813  45.668  10.105  1.00  0.00     0.019 C 
HETATM    9  C13 UNL     1     -26.106  46.483  11.170  1.00  0.00     0.009 A 
HETATM   10  C14 UNL     1     -25.464  45.397  12.151  1.00  0.00     0.015 A 
HETATM   11  C15 UNL     1     -26.340  44.131  12.498  1.00  0.00     0.024 A 
ENDROOT
BRANCH   1  12
HETATM   12  N1  UNL     1     -28.775  43.667  12.658  1.00  0.00    -0.389 N 
ATOM     13  H1  UNL     1     -28.724  43.964  13.633  1.00  0.00     0.159 HD
BRANCH  12  14
HETATM   14  C2  UNL     1     -29.920  42.975  12.192  1.00  0.00    -0.009 C 
HETATM   15  C1  UNL     1     -31.092  43.385  12.560  1.00  0.00     0.037 C 
HETATM   16  C3  UNL     1     -29.788  41.797  11.299  1.00  0.00     0.067 C 
ENDBRANCH  12  14
ENDBRANCH   1  12
BRANCH   4  17
HETATM   17  O1  UNL     1     -27.438  48.347  11.898  1.00  0.00    -0.389 OA
ATOM     18  H1  UNL     1     -27.025  48.856  11.211  1.00  0.00     0.210 HD
ENDBRANCH   4  17
BRANCH   7  19
HETATM   19  C11 UNL     1     -24.499  44.948  10.224  1.00  0.00     0.178 C 
HETATM   20  O2  UNL     1     -24.182  45.733   9.319  1.00  0.00    -0.648 OA
HETATM   21  O3  UNL     1     -23.499  44.277  10.888  1.00  0.00    -0.648 OA
ENDBRANCH   7  19
TORSDOF 4
ENDMDL
MODEL 2
REMARK VINA RESULT: -6.166556828      2.492      4.864
REMARK  4 active torsions:
REMARK  status: ('A' for Active; 'I' for Inactive)
REMARK    1  A    between atoms: C2_2  and  N1_4 
REMARK    2  A    between atoms: N1_4  and  C4_6 
REMARK    3  A    between atoms: C7_9  and  O1_10 
REMARK    4  A    between atoms: C10_14  and  C11_15 
ROOT
HETATM    1  C4  UNL     1     -26.902  46.731  10.705  1.00  0.00     0.091 C 
HETATM    2  C5  UNL     1     -26.709  45.245  10.376  1.00  0.00     0.017 C 
HETATM    3  C6  UNL     1     -25.423  44.637  10.693  1.00  0.00     0.045 C 
HETATM    4  C7  UNL     1     -25.521  44.403  12.193  1.00  0.00     0.068 C 
HETATM    5  C8  UNL     1     -25.519  45.768  12.610  1.00  0.00     0.050 C 
HETATM    6  C9  UNL     1     -26.991  46.039  12.382  1.00  0.00    -0.011 A 
HETATM    7  C10 UNL     1     -28.295  45.339  11.895  1.00  0.00     0.102 C 
HETATM    8  C12 UNL     1     -27.539  44.337  11.311  1.00  0.00     0.019 C 
HETATM    9  C13 UNL     1     -26.899  44.412  12.683  1.00  0.00     0.009 A 
HETATM   10  C14 UNL     1     -27.265  45.872  13.221  1.00  0.00     0.015 A 
HETATM   11  C15 UNL     1     -27.191  47.062  12.186  1.00  0.00     0.024 A 
ENDROOT
BRANCH   1  12
HETATM   12  N1  UNL     1     -25.868  47.530  10.137  1.00  0.00    -0.389 N 
ATOM     13  H1  UNL     1     -25.094  47.847  10.722  1.00  0.00     0.159 HD
BRANCH  12  14
HETATM   14  C2  UNL     1     -25.907  47.888   8.767  1.00  0.00    -0.009 C 
HETATM   15  C1  UNL     1     -24.807  48.238   8.180  1.00  0.00     0.037 C 
HETATM   16  C3  UNL     1     -27.183  47.866   8.008  1.00  0.00     0.067 C 
ENDBRANCH  12  14
ENDBRANCH   1  12
BRANCH   4  17
HETATM   17  O1  UNL     1     -24.682  43.484  12.683  1.00  0.00    -0.389 OA
ATOM     18  H1  UNL     1     -24.709  43.372  13.626  1.00  0.00     0.210 HD
ENDBRANCH   4  17
BRANCH   7  19
HETATM   19  C11 UNL     1     -29.242  44.946  12.929  1.00  0.00     0.178 C 
HETATM   20  O2  UNL     1     -29.520  43.753  13.112  1.00  0.00    -0.648 OA
HETATM   21  O3  UNL     1     -29.848  45.889  13.726  1.00  0.00    -0.648 OA
ENDBRANCH   7  19
TORSDOF 4
ENDMDL
MODEL 3
REMARK VINA RESULT: -6.145707290      2.306      4.094
REMARK  4 active torsions:
REMARK  status: ('A' for Active; 'I' for Inactive)
REMARK    1  A    between atoms: C2_2  and  N1_4 
REMARK    2  A    between atoms: N1_4  and  C4_6 
REMARK    3  A    between atoms: C7_9  and  O1_10 
REMARK    4  A    between atoms: C10_14  and  C11_15 
ROOT
HETATM    1  C4  UNL     1     -26.024  46.818  10.851  1.00  0.00     0.091 C 
HETATM    2  C5  UNL     1     -26.479  46.478  12.276  1.00  0.00     0.017 C 
HETATM    3  C6  UNL     1     -27.831  45.966  12.458  1.00  0.00     0.045 C 
HETATM    4  C7  UNL     1     -27.701  44.511  12.037  1.00  0.00     0.068 C 
HETATM    5  C8  UNL     1     -27.454  44.724  10.648  1.00  0.00     0.050 C 
HETATM    6  C9  UNL     1     -25.971  45.005  10.758  1.00  0.00    -0.011 A 
HETATM    7  C10 UNL     1     -24.827  45.104  11.812  1.00  0.00     0.102 C 
HETATM    8  C12 UNL     1     -25.767  45.220  12.822  1.00  0.00     0.019 C 
HETATM    9  C13 UNL     1     -26.318  44.034  12.056  1.00  0.00     0.009 A 
HETATM   10  C14 UNL     1     -25.687  44.168  10.593  1.00  0.00     0.015 A 
HETATM   11  C15 UNL     1     -25.612  45.617   9.971  1.00  0.00     0.024 A 
ENDROOT
BRANCH   1  12
HETATM   12  N1  UNL     1     -26.937  47.705  10.209  1.00  0.00    -0.389 N 
ATOM     13  H1  UNL     1     -27.800  47.973  10.682  1.00  0.00     0.159 HD
BRANCH  12  14
HETATM   14  C2  UNL     1     -26.654  48.215   8.918  1.00  0.00    -0.009 C 
HETATM   15  C1  UNL     1     -25.672  49.046   8.775  1.00  0.00     0.037 C 
HETATM   16  C3  UNL     1     -27.466  47.811   7.743  1.00  0.00     0.067 C 
ENDBRANCH  12  14
ENDBRANCH   1  12
BRANCH   4  17
HETATM   17  O1  UNL     1     -28.657  43.696  12.496  1.00  0.00    -0.389 OA
ATOM     18  H1  UNL     1     -29.495  43.765  12.055  1.00  0.00     0.210 HD
ENDBRANCH   4  17
BRANCH   7  19
HETATM   19  C11 UNL     1     -23.910  43.975  11.879  1.00  0.00     0.178 C 
HETATM   20  O2  UNL     1     -24.149  43.008  12.615  1.00  0.00    -0.648 OA
HETATM   21  O3  UNL     1     -22.759  43.957  11.127  1.00  0.00    -0.648 OA
ENDBRANCH   7  19
TORSDOF 4
ENDMDL
MODEL 4
REMARK VINA RESULT: -5.975001927      1.619      2.158
REMARK  4 active torsions:
REMARK  status: ('A' for Active; 'I' for Inactive)
REMARK    1  A    between atoms: C2_2  and  N1_4 
REMARK    2  A    between atoms: N1_4  and  C4_6 
REMARK    3  A    between atoms: C7_9  and  O1_10 
REMARK    4  A    between atoms: C10_14  and  C11_15 
ROOT
HETATM    1  C4  UNL     1     -28.191  44.731  12.497  1.00  0.00     0.091 C 
HETATM    2  C5  UNL     1     -28.082  44.996  10.989  1.00  0.00     0.017 C 
HETATM    3  C6  UNL     1     -28.247  46.366  10.523  1.00  0.00     0.045 C 
HETATM    4  C7  UNL     1     -26.899  46.995  10.839  1.00  0.00     0.068 C 
HETATM    5  C8  UNL     1     -26.989  46.962  12.262  1.00  0.00     0.050 C 
HETATM    6  C9  UNL     1     -26.557  45.523  12.448  1.00  0.00    -0.011 A 
HETATM    7  C10 UNL     1     -26.108  44.274  11.631  1.00  0.00     0.102 C 
HETATM    8  C12 UNL     1     -26.632  44.837  10.480  1.00  0.00     0.019 C 
HETATM    9  C13 UNL     1     -25.840  46.005  11.033  1.00  0.00     0.009 A 
HETATM   10  C14 UNL     1     -25.685  45.687  12.592  1.00  0.00     0.015 A 
HETATM   11  C15 UNL     1     -26.944  45.092  13.335  1.00  0.00     0.024 A 
ENDROOT
BRANCH   1  12
HETATM   12  N1  UNL     1     -29.404  45.252  13.033  1.00  0.00    -0.389 N 
ATOM     13  H1  UNL     1     -30.062  45.735  12.420  1.00  0.00     0.159 HD
BRANCH  12  14
HETATM   14  C2  UNL     1     -29.702  45.104  14.410  1.00  0.00    -0.009 C 
HETATM   15  C1  UNL     1     -30.006  43.929  14.862  1.00  0.00     0.037 C 
HETATM   16  C3  UNL     1     -29.672  46.271  15.327  1.00  0.00     0.067 C 
ENDBRANCH  12  14
ENDBRANCH   1  12
BRANCH   4  17
HETATM   17  O1  UNL     1     -26.609  48.103  10.147  1.00  0.00    -0.389 OA
ATOM     18  H1  UNL     1     -25.721  48.151   9.813  1.00  0.00     0.210 HD
ENDBRANCH   4  17
BRANCH   7  19
HETATM   19  C11 UNL     1     -24.683  43.973  11.640  1.00  0.00     0.178 C 
HETATM   20  O2  UNL     1     -24.185  43.298  12.552  1.00  0.00    -0.648 OA
HETATM   21  O3  UNL     1     -23.860  44.430  10.639  1.00  0.00    -0.648 OA
ENDBRANCH   7  19
TORSDOF 4
ENDMDL
MODEL 5
REMARK VINA RESULT: -5.973684139      2.603      4.189
REMARK  4 active torsions:
REMARK  status: ('A' for Active; 'I' for Inactive)
REMARK    1  A    between atoms: C2_2  and  N1_4 
REMARK    2  A    between atoms: N1_4  and  C4_6 
REMARK    3  A    between atoms: C7_9  and  O1_10 
REMARK    4  A    between atoms: C10_14  and  C11_15 
ROOT
HETATM    1  C4  UNL     1     -25.661  44.829  10.796  1.00  0.00     0.091 C 
HETATM    2  C5  UNL     1     -26.874  44.243  11.531  1.00  0.00     0.017 C 
HETATM    3  C6  UNL     1     -27.042  44.572  12.941  1.00  0.00     0.045 C 
HETATM    4  C7  UNL     1     -27.615  45.980  12.894  1.00  0.00     0.068 C 
HETATM    5  C8  UNL     1     -26.463  46.649  12.383  1.00  0.00     0.050 C 
HETATM    6  C9  UNL     1     -26.686  46.323  10.921  1.00  0.00    -0.011 A 
HETATM    7  C10 UNL     1     -27.679  45.577   9.980  1.00  0.00     0.102 C 
HETATM    8  C12 UNL     1     -28.197  44.894  11.066  1.00  0.00     0.019 C 
HETATM    9  C13 UNL     1     -28.200  46.314  11.596  1.00  0.00     0.009 A 
HETATM   10  C14 UNL     1     -27.118  47.081  10.704  1.00  0.00     0.015 A 
HETATM   11  C15 UNL     1     -25.784  46.308  10.365  1.00  0.00     0.024 A 
ENDROOT
BRANCH   1  12
HETATM   12  N1  UNL     1     -24.445  44.537  11.480  1.00  0.00    -0.389 N 
ATOM     13  H1  UNL     1     -24.274  44.939  12.402  1.00  0.00     0.159 HD
BRANCH  12  14
HETATM   14  C2  UNL     1     -23.473  43.693  10.888  1.00  0.00    -0.009 C 
HETATM   15  C1  UNL     1     -22.931  42.763  11.607  1.00  0.00     0.037 C 
HETATM   16  C3  UNL     1     -23.076  43.865   9.468  1.00  0.00     0.067 C 
ENDBRANCH  12  14
ENDBRANCH   1  12
BRANCH   4  17
HETATM   17  O1  UNL     1     -28.261  46.370  13.998  1.00  0.00    -0.389 OA
ATOM     18  H1  UNL     1     -29.192  46.184  14.010  1.00  0.00     0.210 HD
ENDBRANCH   4  17
BRANCH   7  19
HETATM   19  C11 UNL     1     -28.595  46.411   9.215  1.00  0.00     0.178 C 
HETATM   20  O2  UNL     1     -28.188  47.088   8.260  1.00  0.00    -0.648 OA
HETATM   21  O3  UNL     1     -29.931  46.467   9.534  1.00  0.00    -0.648 OA
ENDBRANCH   7  19
TORSDOF 4
ENDMDL
