MODEL 1
REMARK VINA RESULT: -6.221711645      0.000      0.000
REMARK  6 active torsions:
REMARK  status: ('A' for Active; 'I' for Inactive)
REMARK    1  A    between atoms: C2_2  and  C3_3 
REMARK    2  A    between atoms: C10_10  and  O1_11 
REMARK    3  A    between atoms: C13_15  and  O2_16 
REMARK    4  A    between atoms: C14_18  and  O3_19 
REMARK    5  A    between atoms: C18_23  and  C20_25 
REMARK    6  A    between atoms: C20_25  and  O4_26 
ROOT
HETATM    1  C3  UNL     1      65.429  36.426  -2.332  1.00  0.00    -0.003 C 
HETATM    2  C4  UNL     1      66.543  35.472  -2.576  1.00  0.00     0.016 C 
HETATM    3  C5  UNL     1      67.559  35.652  -3.570  1.00  0.00    -0.024 C 
HETATM    4  C6  UNL     1      68.289  36.656  -4.286  1.00  0.00     0.011 C 
HETATM    5  C7  UNL     1      68.230  38.089  -3.937  1.00  0.00     0.007 C 
HETATM    6  C8  UNL     1      67.486  37.846  -2.608  1.00  0.00     0.006 C 
HETATM    7  C9  UNL     1      66.133  37.540  -3.048  1.00  0.00     0.051 C 
HETATM    8  C10 UNL     1      65.728  37.108  -4.454  1.00  0.00     0.045 C 
HETATM    9  C11 UNL     1      65.810  35.691  -4.908  1.00  0.00     0.014 C 
HETATM   10  C12 UNL     1      67.023  34.849  -4.755  1.00  0.00     0.051 C 
HETATM   11  C13 UNL     1      67.123  33.532  -4.192  1.00  0.00     0.155 C 
HETATM   12  C14 UNL     1      68.005  33.581  -2.902  1.00  0.00     0.155 C 
HETATM   13  C16 UNL     1      68.685  34.860  -2.887  1.00  0.00     0.027 C 
HETATM   14  C17 UNL     1      68.879  35.767  -1.728  1.00  0.00     0.019 C 
HETATM   15  C18 UNL     1      68.453  37.189  -1.730  1.00  0.00    -0.018 C 
HETATM   16  C19 UNL     1      68.306  37.603  -0.238  1.00  0.00     0.018 C 
ENDROOT
BRANCH  15  17
HETATM   17  C20 UNL     1      69.776  38.002  -1.896  1.00  0.00     0.176 C 
BRANCH  17  18
HETATM   18  O4  UNL     1      70.860  37.171  -1.466  1.00  0.00    -0.395 OA
HETATM   19  C21 UNL     1      71.986  37.393  -2.205  1.00  0.00     0.201 C 
ENDBRANCH  17  18
ENDBRANCH  15  17
BRANCH   1  20
HETATM   20  C2  UNL     1      64.773  36.544  -1.064  1.00  0.00     0.001 C 
HETATM   21  C1  UNL     1      65.252  35.618   0.036  1.00  0.00     0.005 C 
ENDBRANCH   1  20
BRANCH   8  22
HETATM   22  O1  UNL     1      65.611  38.065  -5.443  1.00  0.00    -0.365 OA
ATOM     23  H1  UNL     1      64.811  38.106  -5.953  1.00  0.00     0.217 HD
ENDBRANCH   8  22
BRANCH  12  24
HETATM   24  O3  UNL     1      68.983  32.580  -2.964  1.00  0.00    -0.388 OA
HETATM   25  C15 UNL     1      70.247  33.110  -2.971  1.00  0.00     0.202 C 
ENDBRANCH  12  24
BRANCH  11  26
HETATM   26  O2  UNL     1      67.814  32.661  -5.075  1.00  0.00    -0.392 OA
ATOM     27  H2  UNL     1      68.742  32.866  -5.088  1.00  0.00     0.210 HD
ENDBRANCH  11  26
TORSDOF 6
ENDMDL
MODEL 2
REMARK VINA RESULT: -6.207288327      1.925      4.954
REMARK  6 active torsions:
REMARK  status: ('A' for Active; 'I' for Inactive)
REMARK    1  A    between atoms: C2_2  and  C3_3 
REMARK    2  A    between atoms: C10_10  and  O1_11 
REMARK    3  A    between atoms: C13_15  and  O2_16 
REMARK    4  A    between atoms: C14_18  and  O3_19 
REMARK    5  A    between atoms: C18_23  and  C20_25 
REMARK    6  A    between atoms: C20_25  and  O4_26 
ROOT
HETATM    1  C3  UNL     1      68.426  34.377  -2.427  1.00  0.00    -0.003 C 
HETATM    2  C4  UNL     1      68.093  35.253  -1.273  1.00  0.00     0.016 C 
HETATM    3  C5  UNL     1      68.630  36.565  -1.071  1.00  0.00    -0.024 C 
HETATM    4  C6  UNL     1      69.134  37.712  -1.768  1.00  0.00     0.011 C 
HETATM    5  C7  UNL     1      69.028  37.867  -3.232  1.00  0.00     0.007 C 
HETATM    6  C8  UNL     1      68.071  36.669  -3.399  1.00  0.00     0.006 C 
HETATM    7  C9  UNL     1      68.955  35.525  -3.235  1.00  0.00     0.051 C 
HETATM    8  C10 UNL     1      70.337  35.551  -2.591  1.00  0.00     0.045 C 
HETATM    9  C11 UNL     1      70.533  35.457  -1.116  1.00  0.00     0.014 C 
HETATM   10  C12 UNL     1      69.813  36.310  -0.137  1.00  0.00     0.051 C 
HETATM   11  C13 UNL     1      69.087  35.897   1.031  1.00  0.00     0.155 C 
HETATM   12  C14 UNL     1      67.575  36.257   0.859  1.00  0.00     0.155 C 
HETATM   13  C16 UNL     1      67.468  37.164  -0.265  1.00  0.00     0.027 C 
HETATM   14  C17 UNL     1      66.454  37.143  -1.349  1.00  0.00     0.019 C 
HETATM   15  C18 UNL     1      66.808  37.086  -2.790  1.00  0.00    -0.018 C 
HETATM   16  C19 UNL     1      65.558  36.525  -3.525  1.00  0.00     0.018 C 
ENDROOT
BRANCH  15  17
HETATM   17  C20 UNL     1      66.556  38.533  -3.321  1.00  0.00     0.176 C 
BRANCH  17  18
HETATM   18  O4  UNL     1      66.094  38.431  -4.673  1.00  0.00    -0.395 OA
HETATM   19  C21 UNL     1      66.279  39.598  -5.355  1.00  0.00     0.201 C 
ENDBRANCH  17  18
ENDBRANCH  15  17
BRANCH   1  20
HETATM   20  C2  UNL     1      67.538  33.364  -2.914  1.00  0.00     0.001 C 
HETATM   21  C1  UNL     1      67.442  33.211  -4.418  1.00  0.00     0.005 C 
ENDBRANCH   1  20
BRANCH   8  22
HETATM   22  O1  UNL     1      71.412  36.014  -3.325  1.00  0.00    -0.365 OA
ATOM     23  H1  UNL     1      72.285  35.707  -3.110  1.00  0.00     0.217 HD
ENDBRANCH   8  22
BRANCH  12  24
HETATM   24  O3  UNL     1      67.121  36.934   1.998  1.00  0.00    -0.388 OA
HETATM   25  C15 UNL     1      65.869  36.515   2.368  1.00  0.00     0.202 C 
ENDBRANCH  12  24
BRANCH  11  26
HETATM   26  O2  UNL     1      69.510  36.633   2.169  1.00  0.00    -0.392 OA
ATOM     27  H2  UNL     1      68.767  36.857   2.718  1.00  0.00     0.210 HD
ENDBRANCH  11  26
TORSDOF 6
ENDMDL
MODEL 3
REMARK VINA RESULT: -6.199198431      2.732      5.788
REMARK  6 active torsions:
REMARK  status: ('A' for Active; 'I' for Inactive)
REMARK    1  A    between atoms: C2_2  and  C3_3 
REMARK    2  A    between atoms: C10_10  and  O1_11 
REMARK    3  A    between atoms: C13_15  and  O2_16 
REMARK    4  A    between atoms: C14_18  and  O3_19 
REMARK    5  A    between atoms: C18_23  and  C20_25 
REMARK    6  A    between atoms: C20_25  and  O4_26 
ROOT
HETATM    1  C3  UNL     1      71.119  33.587  -2.229  1.00  0.00    -0.003 C 
HETATM    2  C4  UNL     1      70.405  34.375  -1.191  1.00  0.00     0.016 C 
HETATM    3  C5  UNL     1      70.806  35.676  -0.745  1.00  0.00    -0.024 C 
HETATM    4  C6  UNL     1      71.469  36.874  -1.168  1.00  0.00     0.011 C 
HETATM    5  C7  UNL     1      71.832  37.130  -2.576  1.00  0.00     0.007 C 
HETATM    6  C8  UNL     1      71.019  35.937  -3.117  1.00  0.00     0.006 C 
HETATM    7  C9  UNL     1      71.841  34.794  -2.750  1.00  0.00     0.051 C 
HETATM    8  C10 UNL     1      72.942  34.789  -1.695  1.00  0.00     0.045 C 
HETATM    9  C11 UNL     1      72.658  34.594  -0.245  1.00  0.00     0.014 C 
HETATM   10  C12 UNL     1      71.636  35.368   0.502  1.00  0.00     0.051 C 
HETATM   11  C13 UNL     1      70.587  34.867   1.346  1.00  0.00     0.155 C 
HETATM   12  C14 UNL     1      69.199  35.221   0.720  1.00  0.00     0.155 C 
HETATM   13  C16 UNL     1      69.428  36.204  -0.319  1.00  0.00     0.027 C 
HETATM   14  C17 UNL     1      68.816  36.249  -1.671  1.00  0.00     0.019 C 
HETATM   15  C18 UNL     1      69.615  36.297  -2.922  1.00  0.00    -0.018 C 
HETATM   16  C19 UNL     1      68.685  35.776  -4.054  1.00  0.00     0.018 C 
ENDROOT
BRANCH  15  17
HETATM   17  C20 UNL     1      69.499  37.775  -3.413  1.00  0.00     0.176 C 
BRANCH  17  18
HETATM   18  O4  UNL     1      68.290  38.323  -2.877  1.00  0.00    -0.395 OA
HETATM   19  C21 UNL     1      67.632  39.084  -3.799  1.00  0.00     0.201 C 
ENDBRANCH  17  18
ENDBRANCH  15  17
BRANCH   1  20
HETATM   20  C2  UNL     1      70.467  32.601  -3.039  1.00  0.00     0.001 C 
HETATM   21  C1  UNL     1      71.286  31.994  -4.160  1.00  0.00     0.005 C 
ENDBRANCH   1  20
BRANCH   8  22
HETATM   22  O1  UNL     1      74.180  35.314  -2.014  1.00  0.00    -0.365 OA
ATOM     23  H1  UNL     1      74.930  35.087  -1.477  1.00  0.00     0.217 HD
ENDBRANCH   8  22
BRANCH  12  24
HETATM   24  O3  UNL     1      68.382  35.812   1.693  1.00  0.00    -0.388 OA
HETATM   25  C15 UNL     1      67.055  35.562   1.456  1.00  0.00     0.202 C 
ENDBRANCH  12  24
BRANCH  11  26
HETATM   26  O2  UNL     1      70.599  35.525   2.604  1.00  0.00    -0.392 OA
ATOM     27  H2  UNL     1      69.793  36.011   2.735  1.00  0.00     0.210 HD
ENDBRANCH  11  26
TORSDOF 6
ENDMDL
MODEL 4
REMARK VINA RESULT: -6.155096517      2.429      4.068
REMARK  6 active torsions:
REMARK  status: ('A' for Active; 'I' for Inactive)
REMARK    1  A    between atoms: C2_2  and  C3_3 
REMARK    2  A    between atoms: C10_10  and  O1_11 
REMARK    3  A    between atoms: C13_15  and  O2_16 
REMARK    4  A    between atoms: C14_18  and  O3_19 
REMARK    5  A    between atoms: C18_23  and  C20_25 
REMARK    6  A    between atoms: C20_25  and  O4_26 
ROOT
HETATM    1  C3  UNL     1      67.667  35.147  -2.735  1.00  0.00    -0.003 C 
HETATM    2  C4  UNL     1      68.944  35.908  -2.720  1.00  0.00     0.016 C 
HETATM    3  C5  UNL     1      69.147  37.133  -2.007  1.00  0.00    -0.024 C 
HETATM    4  C6  UNL     1      68.722  37.864  -0.850  1.00  0.00     0.011 C 
HETATM    5  C7  UNL     1      67.873  37.271   0.203  1.00  0.00     0.007 C 
HETATM    6  C8  UNL     1      68.013  35.835  -0.342  1.00  0.00     0.006 C 
HETATM    7  C9  UNL     1      67.153  35.850  -1.515  1.00  0.00     0.051 C 
HETATM    8  C10 UNL     1      66.658  37.095  -2.243  1.00  0.00     0.045 C 
HETATM    9  C11 UNL     1      67.474  37.790  -3.279  1.00  0.00     0.014 C 
HETATM   10  C12 UNL     1      68.887  38.196  -3.074  1.00  0.00     0.051 C 
HETATM   11  C13 UNL     1      70.015  37.936  -3.924  1.00  0.00     0.155 C 
HETATM   12  C14 UNL     1      71.036  37.022  -3.170  1.00  0.00     0.155 C 
HETATM   13  C16 UNL     1      70.660  37.010  -1.771  1.00  0.00     0.027 C 
HETATM   14  C17 UNL     1      70.616  35.841  -0.858  1.00  0.00     0.019 C 
HETATM   15  C18 UNL     1      69.404  35.454  -0.094  1.00  0.00    -0.018 C 
HETATM   16  C19 UNL     1      69.573  33.950   0.261  1.00  0.00     0.018 C 
ENDROOT
BRANCH  15  17
HETATM   17  C20 UNL     1      69.696  35.903   1.373  1.00  0.00     0.176 C 
BRANCH  17  18
HETATM   18  O4  UNL     1      71.113  35.857   1.573  1.00  0.00    -0.395 OA
HETATM   19  C21 UNL     1      71.431  35.324   2.789  1.00  0.00     0.201 C 
ENDBRANCH  17  18
ENDBRANCH  15  17
BRANCH   1  20
HETATM   20  C2  UNL     1      67.610  33.734  -2.961  1.00  0.00     0.001 C 
HETATM   21  C1  UNL     1      68.920  33.044  -3.285  1.00  0.00     0.005 C 
ENDBRANCH   1  20
BRANCH   8  22
HETATM   22  O1  UNL     1      65.600  37.807  -1.713  1.00  0.00    -0.365 OA
ATOM     23  H1  UNL     1      65.013  37.378  -1.103  1.00  0.00     0.217 HD
ENDBRANCH   8  22
BRANCH  12  24
HETATM   24  O3  UNL     1      72.319  37.577  -3.262  1.00  0.00    -0.388 OA
HETATM   25  C15 UNL     1      73.261  36.624  -3.551  1.00  0.00     0.202 C 
ENDBRANCH  12  24
BRANCH  11  26
HETATM   26  O2  UNL     1      70.727  39.135  -4.192  1.00  0.00    -0.392 OA
ATOM     27  H2  UNL     1      70.540  39.790  -3.529  1.00  0.00     0.210 HD
ENDBRANCH  11  26
TORSDOF 6
ENDMDL
MODEL 5
REMARK VINA RESULT: -6.149188240      2.500      4.258
REMARK  6 active torsions:
REMARK  status: ('A' for Active; 'I' for Inactive)
REMARK    1  A    between atoms: C2_2  and  C3_3 
REMARK    2  A    between atoms: C10_10  and  O1_11 
REMARK    3  A    between atoms: C13_15  and  O2_16 
REMARK    4  A    between atoms: C14_18  and  O3_19 
REMARK    5  A    between atoms: C18_23  and  C20_25 
REMARK    6  A    between atoms: C20_25  and  O4_26 
ROOT
HETATM    1  C3  UNL     1      70.119  34.573   0.402  1.00  0.00    -0.003 C 
HETATM    2  C4  UNL     1      69.972  34.119  -1.005  1.00  0.00     0.016 C 
HETATM    3  C5  UNL     1      69.754  34.993  -2.119  1.00  0.00    -0.024 C 
HETATM    4  C6  UNL     1      70.011  36.320  -2.596  1.00  0.00     0.011 C 
HETATM    5  C7  UNL     1      70.933  37.249  -1.914  1.00  0.00     0.007 C 
HETATM    6  C8  UNL     1      71.497  36.168  -0.969  1.00  0.00     0.006 C 
HETATM    7  C9  UNL     1      70.418  35.984  -0.011  1.00  0.00     0.051 C 
HETATM    8  C10 UNL     1      68.966  36.403  -0.211  1.00  0.00     0.045 C 
HETATM    9  C11 UNL     1      67.981  35.552  -0.937  1.00  0.00     0.014 C 
HETATM   10  C12 UNL     1      68.233  34.969  -2.279  1.00  0.00     0.051 C 
HETATM   11  C13 UNL     1      68.077  33.603  -2.695  1.00  0.00     0.155 C 
HETATM   12  C14 UNL     1      69.471  33.016  -3.092  1.00  0.00     0.155 C 
HETATM   13  C16 UNL     1      70.393  34.127  -3.215  1.00  0.00     0.027 C 
HETATM   14  C17 UNL     1      71.791  34.199  -2.723  1.00  0.00     0.019 C 
HETATM   15  C18 UNL     1      72.279  35.271  -1.819  1.00  0.00    -0.018 C 
HETATM   16  C19 UNL     1      73.544  34.706  -1.113  1.00  0.00     0.018 C 
ENDROOT
BRANCH  15  17
HETATM   17  C20 UNL     1      73.126  36.210  -2.735  1.00  0.00     0.176 C 
BRANCH  17  18
HETATM   18  O4  UNL     1      74.301  35.495  -3.132  1.00  0.00    -0.395 OA
HETATM   19  C21 UNL     1      74.710  35.857  -4.383  1.00  0.00     0.201 C 
ENDBRANCH  17  18
ENDBRANCH  15  17
BRANCH   1  20
HETATM   20  C2  UNL     1      70.847  33.828   1.385  1.00  0.00     0.001 C 
HETATM   21  C1  UNL     1      71.772  34.619   2.289  1.00  0.00     0.005 C 
ENDBRANCH   1  20
BRANCH   8  22
HETATM   22  O1  UNL     1      68.618  37.729  -0.033  1.00  0.00    -0.365 OA
ATOM     23  H1  UNL     1      68.962  38.380  -0.632  1.00  0.00     0.217 HD
ENDBRANCH   8  22
BRANCH  12  24
HETATM   24  O3  UNL     1      69.380  32.397  -4.346  1.00  0.00    -0.388 OA
HETATM   25  C15 UNL     1      70.258  31.350  -4.455  1.00  0.00     0.202 C 
ENDBRANCH  12  24
BRANCH  11  26
HETATM   26  O2  UNL     1      67.299  33.527  -3.880  1.00  0.00    -0.392 OA
ATOM     27  H2  UNL     1      67.664  32.887  -4.480  1.00  0.00     0.210 HD
ENDBRANCH  11  26
TORSDOF 6
ENDMDL
