MODEL 1
REMARK VINA RESULT: -7.665301032      0.000      0.000
REMARK  10 active torsions:
REMARK  status: ('A' for Active; 'I' for Inactive)
REMARK    1  A    between atoms: C2_2  and  O1_3 
REMARK    2  A    between atoms: C2_2  and  O2_5 
REMARK    3  A    between atoms: C2_2  and  C3_7 
REMARK    4  A    between atoms: C3_7  and  O3_8 
REMARK    5  A    between atoms: C3_7  and  C4_10 
REMARK    6  A    between atoms: C8_16  and  C9_17 
REMARK    7  A    between atoms: C10_20  and  C11_21 
REMARK    8  A    between atoms: C11_21  and  O8_22 
REMARK    9  A    between atoms: O8_22  and  C12_23 
REMARK   10  A    between atoms: C15_27  and  O9_28 
ROOT
HETATM    1  C12 UNL     1      10.315   5.180  22.617  1.00  0.00     0.291 C 
HETATM    2  C13 UNL     1      11.403   5.142  23.638  1.00  0.00     0.085 C 
HETATM    3  N1  UNL     1      12.254   5.100  24.416  1.00  0.00    -0.195 NA
ENDROOT
BRANCH   1   4
HETATM    4  O8  UNL     1      10.644   4.469  21.514  1.00  0.00    -0.377 OA
BRANCH   4   5
HETATM    5  C11 UNL     1      11.163   5.101  20.428  1.00  0.00     0.182 C 
BRANCH   5   6
HETATM    6  C10 UNL     1      12.569   4.681  20.150  1.00  0.00     0.031 C 
HETATM    7  C8  UNL     1      12.759   4.185  18.750  1.00  0.00     0.170 C 
HETATM    8  C6  UNL     1      13.505   3.067  19.260  1.00  0.00     0.050 C 
HETATM    9  O5  UNL     1      11.684   3.314  18.445  1.00  0.00    -0.366 OA
HETATM   10  C5  UNL     1      14.881   2.755  19.126  1.00  0.00     0.184 C 
HETATM   11  C7  UNL     1      12.646   2.336  18.213  1.00  0.00     0.185 C 
HETATM   12  C17 UNL     1      12.822   3.200  20.551  1.00  0.00     0.019 C 
HETATM   13  O4  UNL     1      15.879   3.224  19.866  1.00  0.00    -0.379 OA
HETATM   14  C4  UNL     1      15.796   4.270  20.690  1.00  0.00     0.189 C 
HETATM   15  C15 UNL     1      14.582   4.443  21.516  1.00  0.00     0.088 C 
HETATM   16  C14 UNL     1      13.648   5.440  20.806  1.00  0.00     0.056 C 
HETATM   17  C16 UNL     1      13.765   3.197  21.684  1.00  0.00     0.047 C 
BRANCH   7  18
HETATM   18  C9  UNL     1      13.123   5.010  17.668  1.00  0.00     0.211 C 
HETATM   19  O6  UNL     1      12.247   5.355  16.797  1.00  0.00    -0.646 OA
HETATM   20  O7  UNL     1      14.390   5.547  17.383  1.00  0.00    -0.646 OA
ENDBRANCH   7  18
BRANCH  14  21
HETATM   21  C3  UNL     1      17.075   4.382  21.493  1.00  0.00     0.211 C 
BRANCH  21  22
HETATM   22  C2  UNL     1      18.303   3.883  20.768  1.00  0.00     0.184 C 
HETATM   23  C1  UNL     1      19.591   4.315  21.379  1.00  0.00     0.081 C 
BRANCH  22  24
HETATM   24  O1  UNL     1      18.237   2.470  20.930  1.00  0.00    -0.364 OA
ATOM     25  H1  UNL     1      17.395   2.286  21.330  1.00  0.00     0.213 HD
ENDBRANCH  22  24
BRANCH  22  26
HETATM   26  O2  UNL     1      18.261   4.057  19.391  1.00  0.00    -0.364 OA
ATOM     27  H2  UNL     1      17.621   4.702  19.112  1.00  0.00     0.213 HD
ENDBRANCH  22  26
ENDBRANCH  21  22
BRANCH  21  28
HETATM   28  O3  UNL     1      17.369   5.751  21.745  1.00  0.00    -0.387 OA
ATOM     29  H3  UNL     1      16.719   6.215  21.232  1.00  0.00     0.210 HD
ENDBRANCH  21  28
ENDBRANCH  14  21
BRANCH  15  30
HETATM   30  O9  UNL     1      14.823   4.954  22.797  1.00  0.00    -0.387 OA
ATOM     31  H9  UNL     1      14.041   5.087  23.320  1.00  0.00     0.210 HD
ENDBRANCH  15  30
ENDBRANCH   5   6
ENDBRANCH   4   5
ENDBRANCH   1   4
TORSDOF 10
ENDMDL
MODEL 2
REMARK VINA RESULT: -7.523335460      1.122      1.223
REMARK  10 active torsions:
REMARK  status: ('A' for Active; 'I' for Inactive)
REMARK    1  A    between atoms: C2_2  and  O1_3 
REMARK    2  A    between atoms: C2_2  and  O2_5 
REMARK    3  A    between atoms: C2_2  and  C3_7 
REMARK    4  A    between atoms: C3_7  and  O3_8 
REMARK    5  A    between atoms: C3_7  and  C4_10 
REMARK    6  A    between atoms: C8_16  and  C9_17 
REMARK    7  A    between atoms: C10_20  and  C11_21 
REMARK    8  A    between atoms: C11_21  and  O8_22 
REMARK    9  A    between atoms: O8_22  and  C12_23 
REMARK   10  A    between atoms: C15_27  and  O9_28 
ROOT
HETATM    1  C12 UNL     1       9.872   5.144  22.519  1.00  0.00     0.291 C 
HETATM    2  C13 UNL     1       8.654   5.987  22.341  1.00  0.00     0.085 C 
HETATM    3  N1  UNL     1       7.723   6.653  22.194  1.00  0.00    -0.195 NA
ENDROOT
BRANCH   1   4
HETATM    4  O8  UNL     1      10.926   5.640  21.832  1.00  0.00    -0.377 OA
BRANCH   4   5
HETATM    5  C11 UNL     1      11.100   5.312  20.524  1.00  0.00     0.182 C 
BRANCH   5   6
HETATM    6  C10 UNL     1      12.481   4.815  20.247  1.00  0.00     0.031 C 
HETATM    7  C8  UNL     1      12.631   4.264  18.863  1.00  0.00     0.170 C 
HETATM    8  C6  UNL     1      13.327   3.128  19.403  1.00  0.00     0.050 C 
HETATM    9  O5  UNL     1      11.512   3.438  18.597  1.00  0.00    -0.366 OA
HETATM   10  C5  UNL     1      14.685   2.745  19.267  1.00  0.00     0.184 C 
HETATM   11  C7  UNL     1      12.422   2.406  18.389  1.00  0.00     0.185 C 
HETATM   12  C17 UNL     1      12.666   3.337  20.695  1.00  0.00     0.019 C 
HETATM   13  O4  UNL     1      15.713   3.189  19.982  1.00  0.00    -0.379 OA
HETATM   14  C4  UNL     1      15.690   4.264  20.770  1.00  0.00     0.189 C 
HETATM   15  C15 UNL     1      14.494   4.524  21.602  1.00  0.00     0.088 C 
HETATM   16  C14 UNL     1      13.602   5.541  20.868  1.00  0.00     0.056 C 
HETATM   17  C16 UNL     1      13.620   3.325  21.819  1.00  0.00     0.047 C 
BRANCH   7  18
HETATM   18  C9  UNL     1      13.023   5.035  17.750  1.00  0.00     0.211 C 
HETATM   19  O6  UNL     1      12.152   5.408  16.886  1.00  0.00    -0.646 OA
HETATM   20  O7  UNL     1      14.315   5.484  17.427  1.00  0.00    -0.646 OA
ENDBRANCH   7  18
BRANCH  14  21
HETATM   21  C3  UNL     1      16.981   4.340  21.558  1.00  0.00     0.211 C 
BRANCH  21  22
HETATM   22  C2  UNL     1      18.193   3.844  20.803  1.00  0.00     0.184 C 
HETATM   23  C1  UNL     1      19.495   4.229  21.416  1.00  0.00     0.081 C 
BRANCH  22  24
HETATM   24  O1  UNL     1      18.100   2.427  20.915  1.00  0.00    -0.364 OA
ATOM     25  H1  UNL     1      18.701   2.174  21.606  1.00  0.00     0.213 HD
ENDBRANCH  22  24
BRANCH  22  26
HETATM   26  O2  UNL     1      18.140   4.067  19.434  1.00  0.00    -0.364 OA
ATOM     27  H2  UNL     1      17.995   3.276  18.928  1.00  0.00     0.213 HD
ENDBRANCH  22  26
ENDBRANCH  21  22
BRANCH  21  28
HETATM   28  O3  UNL     1      17.297   5.698  21.839  1.00  0.00    -0.387 OA
ATOM     29  H3  UNL     1      16.977   5.821  22.725  1.00  0.00     0.210 HD
ENDBRANCH  21  28
ENDBRANCH  14  21
BRANCH  15  30
HETATM   30  O9  UNL     1      14.774   5.064  22.863  1.00  0.00    -0.387 OA
ATOM     31  H9  UNL     1      14.147   4.830  23.538  1.00  0.00     0.210 HD
ENDBRANCH  15  30
ENDBRANCH   5   6
ENDBRANCH   4   5
ENDBRANCH   1   4
TORSDOF 10
ENDMDL
MODEL 3
REMARK VINA RESULT: -7.451568414      2.089      2.477
REMARK  10 active torsions:
REMARK  status: ('A' for Active; 'I' for Inactive)
REMARK    1  A    between atoms: C2_2  and  O1_3 
REMARK    2  A    between atoms: C2_2  and  O2_5 
REMARK    3  A    between atoms: C2_2  and  C3_7 
REMARK    4  A    between atoms: C3_7  and  O3_8 
REMARK    5  A    between atoms: C3_7  and  C4_10 
REMARK    6  A    between atoms: C8_16  and  C9_17 
REMARK    7  A    between atoms: C10_20  and  C11_21 
REMARK    8  A    between atoms: C11_21  and  O8_22 
REMARK    9  A    between atoms: O8_22  and  C12_23 
REMARK   10  A    between atoms: C15_27  and  O9_28 
ROOT
HETATM    1  C12 UNL     1       9.320   4.879  21.837  1.00  0.00     0.291 C 
HETATM    2  C13 UNL     1       8.433   6.039  22.141  1.00  0.00     0.085 C 
HETATM    3  N1  UNL     1       7.762   6.949  22.376  1.00  0.00    -0.195 NA
ENDROOT
BRANCH   1   4
HETATM    4  O8  UNL     1      10.590   5.275  21.593  1.00  0.00    -0.377 OA
BRANCH   4   5
HETATM    5  C11 UNL     1      11.295   4.712  20.576  1.00  0.00     0.182 C 
BRANCH   5   6
HETATM    6  C10 UNL     1      12.732   4.509  20.931  1.00  0.00     0.031 C 
HETATM    7  C8  UNL     1      13.615   4.399  19.726  1.00  0.00     0.170 C 
HETATM    8  C6  UNL     1      14.265   3.263  20.322  1.00  0.00     0.050 C 
HETATM    9  O5  UNL     1      12.984   3.536  18.797  1.00  0.00    -0.366 OA
HETATM   10  C5  UNL     1      15.590   3.125  20.805  1.00  0.00     0.184 C 
HETATM   11  C7  UNL     1      14.123   2.742  18.881  1.00  0.00     0.185 C 
HETATM   12  C17 UNL     1      13.072   3.005  21.133  1.00  0.00     0.019 C 
HETATM   13  O4  UNL     1      16.043   3.484  22.001  1.00  0.00    -0.379 OA
HETATM   14  C4  UNL     1      15.398   4.278  22.857  1.00  0.00     0.189 C 
HETATM   15  C15 UNL     1      13.936   4.124  23.022  1.00  0.00     0.088 C 
HETATM   16  C14 UNL     1      13.233   5.175  22.144  1.00  0.00     0.056 C 
HETATM   17  C16 UNL     1      13.396   2.805  22.557  1.00  0.00     0.047 C 
BRANCH   7  18
HETATM   18  C9  UNL     1      14.247   5.500  19.115  1.00  0.00     0.211 C 
HETATM   19  O6  UNL     1      13.915   5.855  17.928  1.00  0.00    -0.646 OA
HETATM   20  O7  UNL     1      15.255   6.320  19.650  1.00  0.00    -0.646 OA
ENDBRANCH   7  18
BRANCH  14  21
HETATM   21  C3  UNL     1      16.139   4.304  24.178  1.00  0.00     0.211 C 
BRANCH  21  22
HETATM   22  C2  UNL     1      17.594   4.693  24.059  1.00  0.00     0.184 C 
HETATM   23  C1  UNL     1      18.244   5.032  25.356  1.00  0.00     0.081 C 
BRANCH  22  24
HETATM   24  O1  UNL     1      18.222   3.501  23.597  1.00  0.00    -0.364 OA
ATOM     25  H1  UNL     1      18.079   2.845  24.269  1.00  0.00     0.213 HD
ENDBRANCH  22  24
BRANCH  22  26
HETATM   26  O2  UNL     1      17.857   5.613  23.053  1.00  0.00    -0.364 OA
ATOM     27  H2  UNL     1      18.144   6.457  23.381  1.00  0.00     0.213 HD
ENDBRANCH  22  26
ENDBRANCH  21  22
BRANCH  21  28
HETATM   28  O3  UNL     1      15.592   5.312  25.019  1.00  0.00    -0.387 OA
ATOM     29  H3  UNL     1      14.715   4.997  25.201  1.00  0.00     0.210 HD
ENDBRANCH  21  28
ENDBRANCH  14  21
BRANCH  15  30
HETATM   30  O9  UNL     1      13.479   4.318  24.332  1.00  0.00    -0.387 OA
ATOM     31  H9  UNL     1      12.653   4.783  24.394  1.00  0.00     0.210 HD
ENDBRANCH  15  30
ENDBRANCH   5   6
ENDBRANCH   4   5
ENDBRANCH   1   4
TORSDOF 10
ENDMDL
MODEL 4
REMARK VINA RESULT: -7.346213400      2.194      4.157
REMARK  10 active torsions:
REMARK  status: ('A' for Active; 'I' for Inactive)
REMARK    1  A    between atoms: C2_2  and  O1_3 
REMARK    2  A    between atoms: C2_2  and  O2_5 
REMARK    3  A    between atoms: C2_2  and  C3_7 
REMARK    4  A    between atoms: C3_7  and  O3_8 
REMARK    5  A    between atoms: C3_7  and  C4_10 
REMARK    6  A    between atoms: C8_16  and  C9_17 
REMARK    7  A    between atoms: C10_20  and  C11_21 
REMARK    8  A    between atoms: C11_21  and  O8_22 
REMARK    9  A    between atoms: O8_22  and  C12_23 
REMARK   10  A    between atoms: C15_27  and  O9_28 
ROOT
HETATM    1  C12 UNL     1      11.674   5.081  18.036  1.00  0.00     0.291 C 
HETATM    2  C13 UNL     1      13.014   5.357  17.439  1.00  0.00     0.085 C 
HETATM    3  N1  UNL     1      14.057   5.574  16.996  1.00  0.00    -0.195 NA
ENDROOT
BRANCH   1   4
HETATM    4  O8  UNL     1      11.719   5.098  19.388  1.00  0.00    -0.377 OA
BRANCH   4   5
HETATM    5  C11 UNL     1      11.947   3.947  20.076  1.00  0.00     0.182 C 
BRANCH   5   6
HETATM    6  C10 UNL     1      13.227   3.993  20.843  1.00  0.00     0.031 C 
HETATM    7  C8  UNL     1      13.039   3.704  22.300  1.00  0.00     0.170 C 
HETATM    8  C6  UNL     1      13.883   4.823  22.619  1.00  0.00     0.050 C 
HETATM    9  O5  UNL     1      11.915   4.438  22.751  1.00  0.00    -0.366 OA
HETATM   10  C5  UNL     1      15.173   4.850  23.205  1.00  0.00     0.184 C 
HETATM   11  C7  UNL     1      12.774   5.043  23.663  1.00  0.00     0.185 C 
HETATM   12  C17 UNL     1      13.564   5.433  21.324  1.00  0.00     0.019 C 
HETATM   13  O4  UNL     1      16.334   4.686  22.582  1.00  0.00    -0.379 OA
HETATM   14  C4  UNL     1      16.479   4.204  21.346  1.00  0.00     0.189 C 
HETATM   15  C15 UNL     1      15.525   4.617  20.294  1.00  0.00     0.088 C 
HETATM   16  C14 UNL     1      14.446   3.528  20.160  1.00  0.00     0.056 C 
HETATM   17  C16 UNL     1      14.771   5.876  20.603  1.00  0.00     0.047 C 
BRANCH   7  18
HETATM   18  C9  UNL     1      13.113   2.413  22.860  1.00  0.00     0.211 C 
HETATM   19  O6  UNL     1      13.001   2.253  24.127  1.00  0.00    -0.646 OA
HETATM   20  O7  UNL     1      13.306   1.194  22.188  1.00  0.00    -0.646 OA
ENDBRANCH   7  18
BRANCH  14  21
HETATM   21  C3  UNL     1      17.925   4.342  20.917  1.00  0.00     0.211 C 
BRANCH  21  22
HETATM   22  C2  UNL     1      18.920   4.161  22.039  1.00  0.00     0.184 C 
HETATM   23  C1  UNL     1      20.339   4.089  21.591  1.00  0.00     0.081 C 
BRANCH  22  24
HETATM   24  O1  UNL     1      18.798   5.362  22.792  1.00  0.00    -0.364 OA
ATOM     25  H1  UNL     1      19.344   6.007  22.357  1.00  0.00     0.213 HD
ENDBRANCH  22  24
BRANCH  22  26
HETATM   26  O2  UNL     1      18.578   3.169  22.948  1.00  0.00    -0.364 OA
ATOM     27  H2  UNL     1      17.938   2.552  22.610  1.00  0.00     0.213 HD
ENDBRANCH  22  26
ENDBRANCH  21  22
BRANCH  21  28
HETATM   28  O3  UNL     1      18.259   3.304  20.004  1.00  0.00    -0.387 OA
ATOM     29  H3  UNL     1      19.206   3.256  20.059  1.00  0.00     0.210 HD
ENDBRANCH  21  28
ENDBRANCH  14  21
BRANCH  15  30
HETATM   30  O9  UNL     1      16.098   4.780  19.027  1.00  0.00    -0.387 OA
ATOM     31  H9  UNL     1      15.634   4.336  18.327  1.00  0.00     0.210 HD
ENDBRANCH  15  30
ENDBRANCH   5   6
ENDBRANCH   4   5
ENDBRANCH   1   4
TORSDOF 10
ENDMDL
MODEL 5
REMARK VINA RESULT: -7.330114807      1.461      1.700
REMARK  10 active torsions:
REMARK  status: ('A' for Active; 'I' for Inactive)
REMARK    1  A    between atoms: C2_2  and  O1_3 
REMARK    2  A    between atoms: C2_2  and  O2_5 
REMARK    3  A    between atoms: C2_2  and  C3_7 
REMARK    4  A    between atoms: C3_7  and  O3_8 
REMARK    5  A    between atoms: C3_7  and  C4_10 
REMARK    6  A    between atoms: C8_16  and  C9_17 
REMARK    7  A    between atoms: C10_20  and  C11_21 
REMARK    8  A    between atoms: C11_21  and  O8_22 
REMARK    9  A    between atoms: O8_22  and  C12_23 
REMARK   10  A    between atoms: C15_27  and  O9_28 
ROOT
HETATM    1  C12 UNL     1      10.753   4.785  22.318  1.00  0.00     0.291 C 
HETATM    2  C13 UNL     1      11.672   5.189  23.421  1.00  0.00     0.085 C 
HETATM    3  N1  UNL     1      12.399   5.502  24.261  1.00  0.00    -0.195 NA
ENDROOT
BRANCH   1   4
HETATM    4  O8  UNL     1      11.381   4.788  21.120  1.00  0.00    -0.377 OA
BRANCH   4   5
HETATM    5  C11 UNL     1      11.641   3.614  20.486  1.00  0.00     0.182 C 
BRANCH   5   6
HETATM    6  C10 UNL     1      13.099   3.286  20.482  1.00  0.00     0.031 C 
HETATM    7  C8  UNL     1      13.433   2.148  19.568  1.00  0.00     0.170 C 
HETATM    8  C6  UNL     1      14.251   1.575  20.602  1.00  0.00     0.050 C 
HETATM    9  O5  UNL     1      12.476   1.125  19.774  1.00  0.00    -0.366 OA
HETATM   10  C5  UNL     1      15.658   1.410  20.661  1.00  0.00     0.184 C 
HETATM   11  C7  UNL     1      13.545   0.300  20.107  1.00  0.00     0.185 C 
HETATM   12  C17 UNL     1      13.472   2.290  21.616  1.00  0.00     0.019 C 
HETATM   13  O4  UNL     1      16.550   2.319  21.037  1.00  0.00    -0.379 OA
HETATM   14  C4  UNL     1      16.306   3.624  21.170  1.00  0.00     0.189 C 
HETATM   15  C15 UNL     1      15.025   4.060  21.770  1.00  0.00     0.088 C 
HETATM   16  C14 UNL     1      14.047   4.403  20.633  1.00  0.00     0.056 C 
HETATM   17  C16 UNL     1      14.330   3.006  22.577  1.00  0.00     0.047 C 
BRANCH   7  18
HETATM   18  C9  UNL     1      13.785   2.308  18.213  1.00  0.00     0.211 C 
HETATM   19  O6  UNL     1      12.922   2.083  17.292  1.00  0.00    -0.646 OA
HETATM   20  O7  UNL     1      15.028   2.703  17.688  1.00  0.00    -0.646 OA
ENDBRANCH   7  18
BRANCH  14  21
HETATM   21  C3  UNL     1      17.508   4.302  21.793  1.00  0.00     0.211 C 
BRANCH  21  22
HETATM   22  C2  UNL     1      18.825   3.927  21.154  1.00  0.00     0.184 C 
HETATM   23  C1  UNL     1      19.876   4.978  21.259  1.00  0.00     0.081 C 
BRANCH  22  24
HETATM   24  O1  UNL     1      19.277   2.829  21.939  1.00  0.00    -0.364 OA
ATOM     25  H1  UNL     1      19.071   2.044  21.444  1.00  0.00     0.213 HD
ENDBRANCH  22  24
BRANCH  22  26
HETATM   26  O2  UNL     1      18.707   3.391  19.879  1.00  0.00    -0.364 OA
ATOM     27  H2  UNL     1      17.844   3.037  19.697  1.00  0.00     0.213 HD
ENDBRANCH  22  26
ENDBRANCH  21  22
BRANCH  21  28
HETATM   28  O3  UNL     1      17.428   5.707  21.592  1.00  0.00    -0.387 OA
ATOM     29  H3  UNL     1      16.634   5.814  21.081  1.00  0.00     0.210 HD
ENDBRANCH  21  28
ENDBRANCH  14  21
BRANCH  15  30
HETATM   30  O9  UNL     1      15.126   5.200  22.578  1.00  0.00    -0.387 OA
ATOM     31  H9  UNL     1      15.470   5.034  23.448  1.00  0.00     0.210 HD
ENDBRANCH  15  30
ENDBRANCH   5   6
ENDBRANCH   4   5
ENDBRANCH   1   4
TORSDOF 10
ENDMDL
