MODEL 1
REMARK VINA RESULT: -5.449621309      0.000      0.000
REMARK  4 active torsions:
REMARK  status: ('A' for Active; 'I' for Inactive)
REMARK    1  A    between atoms: C2_2  and  C3_3 
REMARK    2  A    between atoms: C3_3  and  N1_4 
REMARK       I    between atoms: N1_4  and  C4_6 
REMARK    3  A    between atoms: C4_6  and  C5_8 
REMARK    4  A    between atoms: C8_11  and  C9_12 
ROOT
HETATM    1  C5  UNL     1     124.736 107.511 -42.649  1.00  0.00     0.049 C 
HETATM    2  C6  UNL     1     124.795 108.954 -42.100  1.00  0.00     0.026 C 
HETATM    3  C7  UNL     1     123.840 109.464 -43.204  1.00  0.00     0.016 C 
HETATM    4  C8  UNL     1     122.661 108.544 -42.877  1.00  0.00     0.002 C 
HETATM    5  C12 UNL     1     123.492 107.539 -43.557  1.00  0.00     0.032 C 
HETATM    6  C13 UNL     1     124.247 108.574 -44.307  1.00  0.00     0.047 C 
HETATM    7 CL1  UNL     1     124.172 108.917 -45.928  1.00  0.00    -0.118 Cl
HETATM    8  C14 UNL     1     125.494 107.768 -43.899  1.00  0.00     0.046 C 
ENDROOT
BRANCH   1   9
HETATM    9  C4  UNL     1     124.954 106.438 -41.792  1.00  0.00     0.227 C 
HETATM   10  N1  UNL     1     124.530 105.123 -42.112  1.00  0.00    -0.357 N 
ATOM     11  H1  UNL     1     124.052 104.972 -43.000  1.00  0.00     0.162 HD
HETATM   12  O1  UNL     1     125.545 106.578 -40.671  1.00  0.00    -0.273 OA
BRANCH  10  13
HETATM   13  C3  UNL     1     124.741 103.989 -41.243  1.00  0.00     0.149 C 
BRANCH  13  14
HETATM   14  C2  UNL     1     125.424 102.851 -41.886  1.00  0.00    -0.018 C 
HETATM   15  C1  UNL     1     126.527 102.310 -41.360  1.00  0.00     0.008 C 
ENDBRANCH  13  14
ENDBRANCH  10  13
ENDBRANCH   1   9
BRANCH   4  16
HETATM   16  C9  UNL     1     121.319 108.905 -43.278  1.00  0.00    -0.018 C 
HETATM   17  C10 UNL     1     120.625 109.569 -42.072  1.00  0.00     0.010 C 
HETATM   18  C11 UNL     1     120.372 107.887 -43.782  1.00  0.00     0.010 C 
ENDBRANCH   4  16
TORSDOF 4
ENDMDL
MODEL 2
REMARK VINA RESULT: -5.303157619      1.972      2.182
REMARK  4 active torsions:
REMARK  status: ('A' for Active; 'I' for Inactive)
REMARK    1  A    between atoms: C2_2  and  C3_3 
REMARK    2  A    between atoms: C3_3  and  N1_4 
REMARK       I    between atoms: N1_4  and  C4_6 
REMARK    3  A    between atoms: C4_6  and  C5_8 
REMARK    4  A    between atoms: C8_11  and  C9_12 
ROOT
HETATM    1  C5  UNL     1     124.466 106.583 -44.390  1.00  0.00     0.049 C 
HETATM    2  C6  UNL     1     124.559 106.915 -42.884  1.00  0.00     0.026 C 
HETATM    3  C7  UNL     1     123.832 108.264 -43.088  1.00  0.00     0.016 C 
HETATM    4  C8  UNL     1     122.545 107.699 -43.692  1.00  0.00     0.002 C 
HETATM    5  C12 UNL     1     123.384 107.559 -44.891  1.00  0.00     0.032 C 
HETATM    6  C13 UNL     1     124.330 108.608 -44.433  1.00  0.00     0.047 C 
HETATM    7 CL1  UNL     1     124.536 110.134 -45.047  1.00  0.00    -0.118 Cl
HETATM    8  C14 UNL     1     125.428 107.614 -44.857  1.00  0.00     0.046 C 
ENDROOT
BRANCH   1   9
HETATM    9  C4  UNL     1     124.459 105.256 -44.804  1.00  0.00     0.227 C 
HETATM   10  N1  UNL     1     124.635 104.184 -43.893  1.00  0.00    -0.357 N 
ATOM     11  H1  UNL     1     124.772 104.404 -42.906  1.00  0.00     0.162 HD
HETATM   12  O1  UNL     1     124.293 104.930 -46.026  1.00  0.00    -0.273 OA
BRANCH  10  13
HETATM   13  C3  UNL     1     124.633 102.796 -44.292  1.00  0.00     0.149 C 
BRANCH  13  14
HETATM   14  C2  UNL     1     125.467 101.920 -43.449  1.00  0.00    -0.018 C 
HETATM   15  C1  UNL     1     125.796 102.260 -42.200  1.00  0.00     0.008 C 
ENDBRANCH  13  14
ENDBRANCH  10  13
ENDBRANCH   1   9
BRANCH   4  16
HETATM   16  C9  UNL     1     121.316 108.460 -43.636  1.00  0.00    -0.018 C 
HETATM   17  C10 UNL     1     121.157 109.002 -42.202  1.00  0.00     0.010 C 
HETATM   18  C11 UNL     1     120.018 107.841 -43.984  1.00  0.00     0.010 C 
ENDBRANCH   4  16
TORSDOF 4
ENDMDL
MODEL 3
REMARK VINA RESULT: -5.288415876      1.134      1.427
REMARK  4 active torsions:
REMARK  status: ('A' for Active; 'I' for Inactive)
REMARK    1  A    between atoms: C2_2  and  C3_3 
REMARK    2  A    between atoms: C3_3  and  N1_4 
REMARK       I    between atoms: N1_4  and  C4_6 
REMARK    3  A    between atoms: C4_6  and  C5_8 
REMARK    4  A    between atoms: C8_11  and  C9_12 
ROOT
HETATM    1  C5  UNL     1     124.432 107.005 -43.020  1.00  0.00     0.049 C 
HETATM    2  C6  UNL     1     125.345 108.183 -43.428  1.00  0.00     0.026 C 
HETATM    3  C7  UNL     1     124.134 109.024 -43.892  1.00  0.00     0.016 C 
HETATM    4  C8  UNL     1     123.384 109.033 -42.558  1.00  0.00     0.002 C 
HETATM    5  C12 UNL     1     123.038 107.659 -42.950  1.00  0.00     0.032 C 
HETATM    6  C13 UNL     1     123.264 107.942 -44.390  1.00  0.00     0.047 C 
HETATM    7 CL1  UNL     1     122.130 108.065 -45.594  1.00  0.00    -0.118 Cl
HETATM    8  C14 UNL     1     124.034 106.608 -44.394  1.00  0.00     0.046 C 
ENDROOT
BRANCH   1   9
HETATM    9  C4  UNL     1     124.844 106.125 -42.025  1.00  0.00     0.227 C 
HETATM   10  N1  UNL     1     124.602 104.731 -42.109  1.00  0.00    -0.357 N 
ATOM     11  H1  UNL     1     124.110 104.373 -42.928  1.00  0.00     0.162 HD
HETATM   12  O1  UNL     1     125.461 106.524 -40.983  1.00  0.00    -0.273 OA
BRANCH  10  13
HETATM   13  C3  UNL     1     125.017 103.792 -41.093  1.00  0.00     0.149 C 
BRANCH  13  14
HETATM   14  C2  UNL     1     125.462 102.487 -41.617  1.00  0.00    -0.018 C 
HETATM   15  C1  UNL     1     126.729 102.081 -41.496  1.00  0.00     0.008 C 
ENDBRANCH  13  14
ENDBRANCH  10  13
ENDBRANCH   1   9
BRANCH   4  16
HETATM   16  C9  UNL     1     122.419 110.071 -42.268  1.00  0.00    -0.018 C 
HETATM   17  C10 UNL     1     122.890 110.821 -41.007  1.00  0.00     0.010 C 
HETATM   18  C11 UNL     1     120.994 109.746 -42.041  1.00  0.00     0.010 C 
ENDBRANCH   4  16
TORSDOF 4
ENDMDL
MODEL 4
REMARK VINA RESULT: -5.248819749      1.465      2.117
REMARK  4 active torsions:
REMARK  status: ('A' for Active; 'I' for Inactive)
REMARK    1  A    between atoms: C2_2  and  C3_3 
REMARK    2  A    between atoms: C3_3  and  N1_4 
REMARK       I    between atoms: N1_4  and  C4_6 
REMARK    3  A    between atoms: C4_6  and  C5_8 
REMARK    4  A    between atoms: C8_11  and  C9_12 
ROOT
HETATM    1  C5  UNL     1     124.425 107.478 -42.819  1.00  0.00     0.049 C 
HETATM    2  C6  UNL     1     123.031 108.124 -42.656  1.00  0.00     0.026 C 
HETATM    3  C7  UNL     1     122.905 108.351 -44.180  1.00  0.00     0.016 C 
HETATM    4  C8  UNL     1     123.051 106.888 -44.605  1.00  0.00     0.002 C 
HETATM    5  C12 UNL     1     124.472 107.137 -44.321  1.00  0.00     0.032 C 
HETATM    6  C13 UNL     1     124.322 108.602 -44.505  1.00  0.00     0.047 C 
HETATM    7 CL1  UNL     1     124.896 109.537 -45.749  1.00  0.00    -0.118 Cl
HETATM    8  C14 UNL     1     125.147 108.714 -43.210  1.00  0.00     0.046 C 
ENDROOT
BRANCH   1   9
HETATM    9  C4  UNL     1     124.873 106.558 -41.877  1.00  0.00     0.227 C 
HETATM   10  N1  UNL     1     124.605 105.170 -41.996  1.00  0.00    -0.357 N 
ATOM     11  H1  UNL     1     124.067 104.848 -42.800  1.00  0.00     0.162 HD
HETATM   12  O1  UNL     1     125.549 106.912 -40.855  1.00  0.00    -0.273 OA
BRANCH  10  13
HETATM   13  C3  UNL     1     125.057 104.191 -41.036  1.00  0.00     0.149 C 
BRANCH  13  14
HETATM   14  C2  UNL     1     125.358 102.868 -41.613  1.00  0.00    -0.018 C 
HETATM   15  C1  UNL     1     126.536 102.269 -41.411  1.00  0.00     0.008 C 
ENDBRANCH  13  14
ENDBRANCH  10  13
ENDBRANCH   1   9
BRANCH   4  16
HETATM   16  C9  UNL     1     122.535 106.443 -45.881  1.00  0.00    -0.018 C 
HETATM   17  C10 UNL     1     120.999 106.566 -45.843  1.00  0.00     0.010 C 
HETATM   18  C11 UNL     1     122.823 105.084 -46.389  1.00  0.00     0.010 C 
ENDBRANCH   4  16
TORSDOF 4
ENDMDL
MODEL 5
REMARK VINA RESULT: -5.206721323      2.414      2.805
REMARK  4 active torsions:
REMARK  status: ('A' for Active; 'I' for Inactive)
REMARK    1  A    between atoms: C2_2  and  C3_3 
REMARK    2  A    between atoms: C3_3  and  N1_4 
REMARK       I    between atoms: N1_4  and  C4_6 
REMARK    3  A    between atoms: C4_6  and  C5_8 
REMARK    4  A    between atoms: C8_11  and  C9_12 
ROOT
HETATM    1  C5  UNL     1     124.397 106.836 -44.241  1.00  0.00     0.049 C 
HETATM    2  C6  UNL     1     124.616 106.582 -42.733  1.00  0.00     0.026 C 
HETATM    3  C7  UNL     1     124.189 108.025 -42.379  1.00  0.00     0.016 C 
HETATM    4  C8  UNL     1     122.788 107.967 -42.994  1.00  0.00     0.002 C 
HETATM    5  C12 UNL     1     123.533 108.111 -44.253  1.00  0.00     0.032 C 
HETATM    6  C13 UNL     1     124.698 108.728 -43.572  1.00  0.00     0.047 C 
HETATM    7 CL1  UNL     1     125.204 110.306 -43.644  1.00  0.00    -0.118 Cl
HETATM    8  C14 UNL     1     125.540 107.765 -44.430  1.00  0.00     0.046 C 
ENDROOT
BRANCH   1   9
HETATM    9  C4  UNL     1     124.089 105.772 -45.082  1.00  0.00     0.227 C 
HETATM   10  N1  UNL     1     124.584 104.463 -44.850  1.00  0.00    -0.357 N 
ATOM     11  H1  UNL     1     125.183 104.309 -44.039  1.00  0.00     0.162 HD
HETATM   12  O1  UNL     1     123.345 105.915 -46.107  1.00  0.00    -0.273 OA
BRANCH  10  13
HETATM   13  C3  UNL     1     124.282 103.339 -45.704  1.00  0.00     0.149 C 
BRANCH  13  14
HETATM   14  C2  UNL     1     124.571 102.024 -45.102  1.00  0.00    -0.018 C 
HETATM   15  C1  UNL     1     125.218 101.916 -43.938  1.00  0.00     0.008 C 
ENDBRANCH  13  14
ENDBRANCH  10  13
ENDBRANCH   1   9
BRANCH   4  16
HETATM   16  C9  UNL     1     121.754 108.873 -42.544  1.00  0.00    -0.018 C 
HETATM   17  C10 UNL     1     121.017 109.408 -43.787  1.00  0.00     0.010 C 
HETATM   18  C11 UNL     1     122.082 110.059 -41.723  1.00  0.00     0.010 C 
ENDBRANCH   4  16
TORSDOF 4
ENDMDL
