MODEL 1
REMARK VINA RESULT: -5.141014927      0.000      0.000
REMARK  5 active torsions:
REMARK  status: ('A' for Active; 'I' for Inactive)
REMARK    1  A    between atoms: N1_2  and  C3_4 
REMARK    2  A    between atoms: C8_9  and  O1_10 
REMARK    3  A    between atoms: C10_13  and  C11_14 
REMARK    4  A    between atoms: N3_16  and  C12_18 
REMARK    5  A    between atoms: C12_18  and  N4_21 
ROOT
HETATM    1  C3  UNL     1      12.396 119.581  -3.850  1.00  0.00     0.238 A 
HETATM    2  C4  UNL     1      12.759 120.207  -5.179  1.00  0.00     0.058 A 
HETATM    3  C5  UNL     1      12.900 119.216  -6.290  1.00  0.00    -0.022 C 
HETATM    4  C6  UNL     1      11.714 118.880  -6.778  1.00  0.00    -0.022 C 
HETATM    5  C7  UNL     1      10.620 119.570  -6.091  1.00  0.00     0.054 A 
HETATM    6  C8  UNL     1      10.189 118.980  -4.769  1.00  0.00     0.134 A 
HETATM    7  C9  UNL     1      10.979 120.052  -4.064  1.00  0.00     0.066 A 
HETATM    8  C10 UNL     1      11.352 120.635  -5.328  1.00  0.00     0.042 A 
ENDROOT
BRANCH   8   9
HETATM    9  C11 UNL     1      11.041 121.998  -5.704  1.00  0.00     0.101 C 
HETATM   10  N2  UNL     1      11.543 123.024  -4.853  1.00  0.00    -0.087 NA
HETATM   11  N3  UNL     1      10.359 122.365  -6.727  1.00  0.00    -0.350 N 
ATOM     12  H3  UNL     1       9.988 121.650  -7.354  1.00  0.00     0.163 HD
BRANCH  11  13
HETATM   13  C12 UNL     1      10.098 123.758  -7.024  1.00  0.00     0.189 C 
HETATM   14  C13 UNL     1       8.734 123.849  -7.681  1.00  0.00     0.070 C 
HETATM   15  C14 UNL     1      11.163 124.310  -7.928  1.00  0.00     0.070 C 
BRANCH  13  16
HETATM   16  N4  UNL     1      10.022 124.557  -5.802  1.00  0.00    -0.053 N 
ATOM     17  H43 UNL     1      10.156 125.549  -5.995  1.00  0.00     0.277 HD
ATOM     18  H42 UNL     1       9.069 124.596  -5.439  1.00  0.00     0.277 HD
ATOM     19  H41 UNL     1      10.677 124.220  -5.097  1.00  0.00     0.277 HD
ENDBRANCH  13  16
ENDBRANCH  11  13
ENDBRANCH   8   9
BRANCH   1  20
HETATM   20  N1  UNL     1      13.066 120.093  -2.704  1.00  0.00     0.085 N 
HETATM   21  C1  UNL     1      13.852 119.082  -2.053  1.00  0.00     0.309 C 
HETATM   22  C2  UNL     1      13.830 121.284  -2.928  1.00  0.00     0.309 C 
ENDBRANCH   1  20
BRANCH   6  23
HETATM   23  O1  UNL     1       8.840 118.970  -4.520  1.00  0.00    -0.394 OA
ATOM     24  H1  UNL     1       8.578 118.762  -3.631  1.00  0.00     0.210 HD
ENDBRANCH   6  23
TORSDOF 5
ENDMDL
MODEL 2
REMARK VINA RESULT: -4.745913423      6.990      9.070
REMARK  5 active torsions:
REMARK  status: ('A' for Active; 'I' for Inactive)
REMARK    1  A    between atoms: N1_2  and  C3_4 
REMARK    2  A    between atoms: C8_9  and  O1_10 
REMARK    3  A    between atoms: C10_13  and  C11_14 
REMARK    4  A    between atoms: N3_16  and  C12_18 
REMARK    5  A    between atoms: C12_18  and  N4_21 
ROOT
HETATM    1  C3  UNL     1       4.594 118.157  -6.584  1.00  0.00     0.238 A 
HETATM    2  C4  UNL     1       4.064 117.444  -7.809  1.00  0.00     0.058 A 
HETATM    3  C5  UNL     1       3.719 118.366  -8.936  1.00  0.00    -0.022 C 
HETATM    4  C6  UNL     1       4.806 118.712  -9.613  1.00  0.00    -0.022 C 
HETATM    5  C7  UNL     1       6.016 118.096  -9.064  1.00  0.00     0.054 A 
HETATM    6  C8  UNL     1       6.614 118.774  -7.854  1.00  0.00     0.134 A 
HETATM    7  C9  UNL     1       5.981 117.719  -6.984  1.00  0.00     0.066 A 
HETATM    8  C10 UNL     1       5.449 117.054  -8.146  1.00  0.00     0.042 A 
ENDROOT
BRANCH   8   9
HETATM    9  C11 UNL     1       5.755 115.682  -8.494  1.00  0.00     0.101 C 
HETATM   10  N2  UNL     1       4.647 114.801  -8.643  1.00  0.00    -0.087 NA
HETATM   11  N3  UNL     1       6.926 115.191  -8.679  1.00  0.00    -0.350 N 
ATOM     12  H3  UNL     1       7.738 115.801  -8.579  1.00  0.00     0.163 HD
BRANCH  11  13
HETATM   13  C12 UNL     1       7.136 113.801  -9.026  1.00  0.00     0.189 C 
HETATM   14  C13 UNL     1       8.624 113.587  -9.223  1.00  0.00     0.070 C 
HETATM   15  C14 UNL     1       6.377 113.452 -10.275  1.00  0.00     0.070 C 
BRANCH  13  16
HETATM   16  N4  UNL     1       6.732 112.914  -7.936  1.00  0.00    -0.053 N 
ATOM     17  H43 UNL     1       7.492 112.767  -7.272  1.00  0.00     0.277 HD
ATOM     18  H42 UNL     1       6.064 113.367  -7.313  1.00  0.00     0.277 HD
ATOM     19  H41 UNL     1       6.370 112.029  -8.292  1.00  0.00     0.277 HD
ENDBRANCH  13  16
ENDBRANCH  11  13
ENDBRANCH   8   9
BRANCH   1  20
HETATM   20  N1  UNL     1       4.123 117.689  -5.326  1.00  0.00     0.085 N 
HETATM   21  C1  UNL     1       5.181 117.619  -4.356  1.00  0.00     0.309 C 
HETATM   22  C2  UNL     1       2.985 118.387  -4.805  1.00  0.00     0.309 C 
ENDBRANCH   1  20
BRANCH   6  23
HETATM   23  O1  UNL     1       7.984 118.842  -7.812  1.00  0.00    -0.394 OA
ATOM     24  H1  UNL     1       8.445 118.012  -7.779  1.00  0.00     0.210 HD
ENDBRANCH   6  23
TORSDOF 5
ENDMDL
MODEL 3
REMARK VINA RESULT: -4.703279523      5.952      7.815
REMARK  5 active torsions:
REMARK  status: ('A' for Active; 'I' for Inactive)
REMARK    1  A    between atoms: N1_2  and  C3_4 
REMARK    2  A    between atoms: C8_9  and  O1_10 
REMARK    3  A    between atoms: C10_13  and  C11_14 
REMARK    4  A    between atoms: N3_16  and  C12_18 
REMARK    5  A    between atoms: C12_18  and  N4_21 
ROOT
HETATM    1  C3  UNL     1       6.026 118.981  -7.269  1.00  0.00     0.238 A 
HETATM    2  C4  UNL     1       4.863 118.205  -6.691  1.00  0.00     0.058 A 
HETATM    3  C5  UNL     1       5.131 116.740  -6.549  1.00  0.00    -0.022 C 
HETATM    4  C6  UNL     1       5.835 116.492  -5.454  1.00  0.00    -0.022 C 
HETATM    5  C7  UNL     1       6.142 117.714  -4.708  1.00  0.00     0.054 A 
HETATM    6  C8  UNL     1       7.312 118.525  -5.216  1.00  0.00     0.134 A 
HETATM    7  C9  UNL     1       6.337 119.467  -5.875  1.00  0.00     0.066 A 
HETATM    8  C10 UNL     1       5.226 118.713  -5.352  1.00  0.00     0.042 A 
ENDROOT
BRANCH   8   9
HETATM    9  C11 UNL     1       4.212 119.279  -4.487  1.00  0.00     0.101 C 
HETATM   10  N2  UNL     1       2.938 118.641  -4.498  1.00  0.00    -0.087 NA
HETATM   11  N3  UNL     1       4.354 120.295  -3.716  1.00  0.00    -0.350 N 
ATOM     12  H3  UNL     1       5.257 120.769  -3.689  1.00  0.00     0.163 HD
BRANCH  11  13
HETATM   13  C12 UNL     1       3.278 120.790  -2.883  1.00  0.00     0.189 C 
HETATM   14  C13 UNL     1       3.244 122.301  -3.012  1.00  0.00     0.070 C 
HETATM   15  C14 UNL     1       3.492 120.382  -1.453  1.00  0.00     0.070 C 
BRANCH  13  16
HETATM   16  N4  UNL     1       1.979 120.307  -3.348  1.00  0.00    -0.053 N 
ATOM     17  H43 UNL     1       1.374 121.076  -3.634  1.00  0.00     0.277 HD
ATOM     18  H42 UNL     1       2.058 119.828  -4.246  1.00  0.00     0.277 HD
ATOM     19  H41 UNL     1       1.530 119.716  -2.648  1.00  0.00     0.277 HD
ENDBRANCH  13  16
ENDBRANCH  11  13
ENDBRANCH   8   9
BRANCH   1  20
HETATM   20  N1  UNL     1       5.706 119.981  -8.229  1.00  0.00     0.085 N 
HETATM   21  C1  UNL     1       6.815 120.864  -8.465  1.00  0.00     0.309 C 
HETATM   22  C2  UNL     1       5.160 119.491  -9.460  1.00  0.00     0.309 C 
ENDBRANCH   1  20
BRANCH   6  23
HETATM   23  O1  UNL     1       8.127 119.079  -4.261  1.00  0.00    -0.394 OA
ATOM     24  H1  UNL     1       8.931 119.475  -4.574  1.00  0.00     0.210 HD
ENDBRANCH   6  23
TORSDOF 5
ENDMDL
MODEL 4
REMARK VINA RESULT: -4.681514532      6.629      8.815
REMARK  5 active torsions:
REMARK  status: ('A' for Active; 'I' for Inactive)
REMARK    1  A    between atoms: N1_2  and  C3_4 
REMARK    2  A    between atoms: C8_9  and  O1_10 
REMARK    3  A    between atoms: C10_13  and  C11_14 
REMARK    4  A    between atoms: N3_16  and  C12_18 
REMARK    5  A    between atoms: C12_18  and  N4_21 
ROOT
HETATM    1  C3  UNL     1       6.121 119.136  -7.468  1.00  0.00     0.238 A 
HETATM    2  C4  UNL     1       6.400 117.810  -6.793  1.00  0.00     0.058 A 
HETATM    3  C5  UNL     1       5.678 117.635  -5.495  1.00  0.00    -0.022 C 
HETATM    4  C6  UNL     1       4.422 117.263  -5.698  1.00  0.00    -0.022 C 
HETATM    5  C7  UNL     1       4.110 117.133  -7.123  1.00  0.00     0.054 A 
HETATM    6  C8  UNL     1       3.795 118.419  -7.853  1.00  0.00     0.134 A 
HETATM    7  C9  UNL     1       5.194 118.411  -8.411  1.00  0.00     0.066 A 
HETATM    8  C10 UNL     1       5.474 117.164  -7.747  1.00  0.00     0.042 A 
ENDROOT
BRANCH   8   9
HETATM    9  C11 UNL     1       5.870 115.957  -8.443  1.00  0.00     0.101 C 
HETATM   10  N2  UNL     1       6.236 116.103  -9.811  1.00  0.00    -0.087 NA
HETATM   11  N3  UNL     1       5.921 114.777  -7.942  1.00  0.00    -0.350 N 
ATOM     12  H3  UNL     1       5.664 114.645  -6.964  1.00  0.00     0.163 HD
BRANCH  11  13
HETATM   13  C12 UNL     1       6.331 113.625  -8.719  1.00  0.00     0.189 C 
HETATM   14  C13 UNL     1       6.083 112.385  -7.882  1.00  0.00     0.070 C 
HETATM   15  C14 UNL     1       7.782 113.734  -9.091  1.00  0.00     0.070 C 
BRANCH  13  16
HETATM   16  N4  UNL     1       5.518 113.480  -9.925  1.00  0.00    -0.053 N 
ATOM     17  H43 UNL     1       5.278 114.386 -10.326  1.00  0.00     0.277 HD
ATOM     18  H42 UNL     1       6.064 113.104 -10.700  1.00  0.00     0.277 HD
ATOM     19  H41 UNL     1       4.686 112.917  -9.746  1.00  0.00     0.277 HD
ENDBRANCH  13  16
ENDBRANCH  11  13
ENDBRANCH   8   9
BRANCH   1  20
HETATM   20  N1  UNL     1       7.236 119.793  -8.058  1.00  0.00     0.085 N 
HETATM   21  C1  UNL     1       6.898 121.117  -8.503  1.00  0.00     0.309 C 
HETATM   22  C2  UNL     1       8.429 119.800  -7.264  1.00  0.00     0.309 C 
ENDBRANCH   1  20
BRANCH   6  23
HETATM   23  O1  UNL     1       2.781 118.359  -8.776  1.00  0.00    -0.394 OA
ATOM     24  H1  UNL     1       2.539 119.181  -9.186  1.00  0.00     0.210 HD
ENDBRANCH   6  23
TORSDOF 5
ENDMDL
MODEL 5
REMARK VINA RESULT: -4.664448170      6.839      8.800
REMARK  5 active torsions:
REMARK  status: ('A' for Active; 'I' for Inactive)
REMARK    1  A    between atoms: N1_2  and  C3_4 
REMARK    2  A    between atoms: C8_9  and  O1_10 
REMARK    3  A    between atoms: C10_13  and  C11_14 
REMARK    4  A    between atoms: N3_16  and  C12_18 
REMARK    5  A    between atoms: C12_18  and  N4_21 
ROOT
HETATM    1  C3  UNL     1       5.364 118.399  -6.306  1.00  0.00     0.238 A 
HETATM    2  C4  UNL     1       4.446 117.247  -6.653  1.00  0.00     0.058 A 
HETATM    3  C5  UNL     1       3.088 117.679  -7.108  1.00  0.00    -0.022 C 
HETATM    4  C6  UNL     1       3.110 118.041  -8.383  1.00  0.00    -0.022 C 
HETATM    5  C7  UNL     1       4.445 117.914  -8.970  1.00  0.00     0.054 A 
HETATM    6  C8  UNL     1       5.406 119.045  -8.684  1.00  0.00     0.134 A 
HETATM    7  C9  UNL     1       6.057 118.189  -7.630  1.00  0.00     0.066 A 
HETATM    8  C10 UNL     1       5.166 117.099  -7.936  1.00  0.00     0.042 A 
ENDROOT
BRANCH   8   9
HETATM    9  C11 UNL     1       5.617 115.794  -8.372  1.00  0.00     0.101 C 
HETATM   10  N2  UNL     1       4.622 114.782  -8.485  1.00  0.00    -0.087 NA
HETATM   11  N3  UNL     1       6.823 115.469  -8.665  1.00  0.00    -0.350 N 
ATOM     12  H3  UNL     1       7.555 116.176  -8.594  1.00  0.00     0.163 HD
BRANCH  11  13
HETATM   13  C12 UNL     1       7.181 114.133  -9.094  1.00  0.00     0.189 C 
HETATM   14  C13 UNL     1       8.666 114.122  -9.401  1.00  0.00     0.070 C 
HETATM   15  C14 UNL     1       6.384 113.741 -10.306  1.00  0.00     0.070 C 
BRANCH  13  16
HETATM   16  N4  UNL     1       6.972 113.157  -8.026  1.00  0.00    -0.053 N 
ATOM     17  H43 UNL     1       5.990 113.101  -7.758  1.00  0.00     0.277 HD
ATOM     18  H42 UNL     1       7.097 112.202  -8.363  1.00  0.00     0.277 HD
ATOM     19  H41 UNL     1       7.570 113.352  -7.223  1.00  0.00     0.277 HD
ENDBRANCH  13  16
ENDBRANCH  11  13
ENDBRANCH   8   9
BRANCH   1  20
HETATM   20  N1  UNL     1       6.166 118.242  -5.141  1.00  0.00     0.085 N 
HETATM   21  C1  UNL     1       7.512 118.696  -5.359  1.00  0.00     0.309 C 
HETATM   22  C2  UNL     1       5.615 118.801  -3.943  1.00  0.00     0.309 C 
ENDBRANCH   1  20
BRANCH   6  23
HETATM   23  O1  UNL     1       6.213 119.433  -9.724  1.00  0.00    -0.394 OA
ATOM     24  H1  UNL     1       5.780 119.599 -10.553  1.00  0.00     0.210 HD
ENDBRANCH   6  23
TORSDOF 5
ENDMDL
