MODEL 1
REMARK VINA RESULT: -6.729107556      0.000      0.000
REMARK  8 active torsions:
REMARK  status: ('A' for Active; 'I' for Inactive)
REMARK    1  A    between atoms: O1_2  and  C2_3 
REMARK    2  A    between atoms: C3_4  and  C4_5 
REMARK    3  A    between atoms: C6_8  and  C7_9 
REMARK    4  A    between atoms: C7_9  and  O3_11 
REMARK    5  A    between atoms: O3_11  and  S1_12 
REMARK    6  A    between atoms: S1_12  and  N1_13 
REMARK    7  A    between atoms: S2_19  and  O6_20 
REMARK    8  A    between atoms: S2_19  and  O7_22 
ROOT
HETATM    1  C2  UNL     1      41.465  35.162  13.461  1.00  0.00     0.171 A 
HETATM    2  C3  UNL     1      40.757  35.053  14.447  1.00  0.00     0.090 A 
HETATM    3  C5  UNL     1      41.929  34.245  15.222  1.00  0.00     0.082 A 
HETATM    4  C6  UNL     1      42.879  34.914  15.152  1.00  0.00     0.042 A 
HETATM    5  C8  UNL     1      41.480  35.191  15.013  1.00  0.00     0.093 A 
HETATM    6  S2  UNL     1      40.283  33.900  15.738  1.00  0.00    -0.127 SA
HETATM    7  C9  UNL     1      40.918  32.243  15.666  1.00  0.00     0.097 A 
HETATM    8  C10 UNL     1      42.048  33.054  15.978  1.00  0.00     0.087 A 
ENDROOT
BRANCH   4   9
HETATM    9  C7  UNL     1      44.069  35.792  15.043  1.00  0.00     0.305 C 
HETATM   10  O2  UNL     1      44.811  35.916  14.048  1.00  0.00    -0.259 OA
BRANCH   9  11
HETATM   11  O3  UNL     1      44.453  36.585  16.124  1.00  0.00    -0.176 OA
BRANCH  11  12
HETATM   12  S1  UNL     1      45.074  35.854  17.497  1.00  0.00     0.363 S 
HETATM   13  O4  UNL     1      46.046  36.738  18.209  1.00  0.00    -0.175 OA
HETATM   14  O5  UNL     1      45.739  34.536  17.224  1.00  0.00    -0.175 OA
BRANCH  12  15
HETATM   15  N1  UNL     1      43.679  35.530  18.491  1.00  0.00    -0.305 N 
ATOM     16  H12 UNL     1      42.962  36.196  18.779  1.00  0.00     0.171 HD
ATOM     17  H11 UNL     1      43.747  34.536  18.712  1.00  0.00     0.171 HD
ENDBRANCH  12  15
ENDBRANCH  11  12
ENDBRANCH   9  11
ENDBRANCH   4   9
BRANCH   2  18
HETATM   18  C4  UNL     1      39.605  35.631  14.506  1.00  0.00     0.083 C 
HETATM   19 CL1  UNL     1      39.239  36.748  13.189  1.00  0.00    -0.100 Cl
ENDBRANCH   2  18
BRANCH   6  20
HETATM   20  O6  UNL     1      39.127  33.362  14.968  1.00  0.00    -0.351 OA
ATOM     21  H6  UNL     1      38.775  32.492  15.118  1.00  0.00     0.225 HD
ENDBRANCH   6  20
BRANCH   6  22
HETATM   22  O7  UNL     1      40.041  34.221  17.149  1.00  0.00    -0.351 OA
ATOM     23  H7  UNL     1      40.264  33.463  17.677  1.00  0.00     0.225 HD
ENDBRANCH   6  22
BRANCH   1  24
HETATM   24  O1  UNL     1      40.880  34.167  12.773  1.00  0.00    -0.387 OA
HETATM   25  C1  UNL     1      41.692  33.318  12.104  1.00  0.00     0.202 C 
ENDBRANCH   1  24
TORSDOF 8
ENDMDL
MODEL 2
REMARK VINA RESULT: -6.643641038      2.704      5.174
REMARK  8 active torsions:
REMARK  status: ('A' for Active; 'I' for Inactive)
REMARK    1  A    between atoms: O1_2  and  C2_3 
REMARK    2  A    between atoms: C3_4  and  C4_5 
REMARK    3  A    between atoms: C6_8  and  C7_9 
REMARK    4  A    between atoms: C7_9  and  O3_11 
REMARK    5  A    between atoms: O3_11  and  S1_12 
REMARK    6  A    between atoms: S1_12  and  N1_13 
REMARK    7  A    between atoms: S2_19  and  O6_20 
REMARK    8  A    between atoms: S2_19  and  O7_22 
ROOT
HETATM    1  C2  UNL     1      44.651  33.789  15.046  1.00  0.00     0.171 A 
HETATM    2  C3  UNL     1      44.544  33.953  16.249  1.00  0.00     0.090 A 
HETATM    3  C5  UNL     1      44.174  35.514  16.022  1.00  0.00     0.082 A 
HETATM    4  C6  UNL     1      43.291  35.527  15.265  1.00  0.00     0.042 A 
HETATM    5  C8  UNL     1      43.814  34.515  16.133  1.00  0.00     0.093 A 
HETATM    6  S2  UNL     1      44.917  35.113  17.566  1.00  0.00    -0.127 SA
HETATM    7  C9  UNL     1      45.846  36.574  17.167  1.00  0.00     0.097 A 
HETATM    8  C10 UNL     1      44.578  36.766  16.545  1.00  0.00     0.087 A 
ENDROOT
BRANCH   4   9
HETATM    9  C7  UNL     1      42.167  35.505  14.298  1.00  0.00     0.305 C 
HETATM   10  O2  UNL     1      42.257  35.489  13.054  1.00  0.00    -0.259 OA
BRANCH   9  11
HETATM   11  O3  UNL     1      40.850  35.502  14.758  1.00  0.00    -0.176 OA
BRANCH  11  12
HETATM   12  S1  UNL     1      40.223  34.108  15.442  1.00  0.00     0.363 S 
HETATM   13  O4  UNL     1      40.901  32.880  14.928  1.00  0.00    -0.175 OA
HETATM   14  O5  UNL     1      38.743  33.956  15.240  1.00  0.00    -0.175 OA
BRANCH  12  15
HETATM   15  N1  UNL     1      40.491  34.300  17.155  1.00  0.00    -0.305 N 
ATOM     16  H12 UNL     1      39.905  33.946  17.910  1.00  0.00     0.171 HD
ATOM     17  H11 UNL     1      41.354  34.839  17.220  1.00  0.00     0.171 HD
ENDBRANCH  12  15
ENDBRANCH  11  12
ENDBRANCH   9  11
ENDBRANCH   4   9
BRANCH   2  18
HETATM   18  C4  UNL     1      44.634  32.958  17.065  1.00  0.00     0.083 C 
HETATM   19 CL1  UNL     1      44.333  31.364  16.371  1.00  0.00    -0.100 Cl
ENDBRANCH   2  18
BRANCH   6  20
HETATM   20  O6  UNL     1      46.240  34.499  17.865  1.00  0.00    -0.351 OA
ATOM     21  H6  UNL     1      46.980  35.008  18.176  1.00  0.00     0.225 HD
ENDBRANCH   6  20
BRANCH   6  22
HETATM   22  O7  UNL     1      44.064  35.431  18.717  1.00  0.00    -0.351 OA
ATOM     23  H7  UNL     1      43.484  34.695  18.879  1.00  0.00     0.225 HD
ENDBRANCH   6  22
BRANCH   1  24
HETATM   24  O1  UNL     1      45.993  33.839  15.028  1.00  0.00    -0.387 OA
HETATM   25  C1  UNL     1      46.629  33.069  14.117  1.00  0.00     0.202 C 
ENDBRANCH   1  24
TORSDOF 8
ENDMDL
MODEL 3
REMARK VINA RESULT: -6.642218231      3.057      5.451
REMARK  8 active torsions:
REMARK  status: ('A' for Active; 'I' for Inactive)
REMARK    1  A    between atoms: O1_2  and  C2_3 
REMARK    2  A    between atoms: C3_4  and  C4_5 
REMARK    3  A    between atoms: C6_8  and  C7_9 
REMARK    4  A    between atoms: C7_9  and  O3_11 
REMARK    5  A    between atoms: O3_11  and  S1_12 
REMARK    6  A    between atoms: S1_12  and  N1_13 
REMARK    7  A    between atoms: S2_19  and  O6_20 
REMARK    8  A    between atoms: S2_19  and  O7_22 
ROOT
HETATM    1  C2  UNL     1      45.161  33.798  15.172  1.00  0.00     0.171 A 
HETATM    2  C3  UNL     1      44.836  33.982  16.333  1.00  0.00     0.090 A 
HETATM    3  C5  UNL     1      44.387  35.499  15.988  1.00  0.00     0.082 A 
HETATM    4  C6  UNL     1      43.648  35.418  15.093  1.00  0.00     0.042 A 
HETATM    5  C8  UNL     1      44.095  34.476  16.075  1.00  0.00     0.093 A 
HETATM    6  S2  UNL     1      44.885  35.202  17.649  1.00  0.00    -0.127 SA
HETATM    7  C9  UNL     1      45.748  36.726  17.356  1.00  0.00     0.097 A 
HETATM    8  C10 UNL     1      44.593  36.794  16.522  1.00  0.00     0.087 A 
ENDROOT
BRANCH   4   9
HETATM    9  C7  UNL     1      42.711  35.277  13.952  1.00  0.00     0.305 C 
HETATM   10  O2  UNL     1      42.825  35.804  12.828  1.00  0.00    -0.259 OA
BRANCH   9  11
HETATM   11  O3  UNL     1      41.566  34.491  14.082  1.00  0.00    -0.176 OA
BRANCH  11  12
HETATM   12  S1  UNL     1      40.076  35.234  14.261  1.00  0.00     0.363 S 
HETATM   13  O4  UNL     1      39.306  35.259  12.982  1.00  0.00    -0.175 OA
HETATM   14  O5  UNL     1      40.167  36.636  14.791  1.00  0.00    -0.175 OA
BRANCH  12  15
HETATM   15  N1  UNL     1      39.254  34.282  15.469  1.00  0.00    -0.305 N 
ATOM     16  H12 UNL     1      38.779  33.390  15.328  1.00  0.00     0.171 HD
ATOM     17  H11 UNL     1      39.357  34.817  16.331  1.00  0.00     0.171 HD
ENDBRANCH  12  15
ENDBRANCH  11  12
ENDBRANCH   9  11
ENDBRANCH   4   9
BRANCH   2  18
HETATM   18  C4  UNL     1      44.866  33.019  17.191  1.00  0.00     0.083 C 
HETATM   19 CL1  UNL     1      44.612  31.399  16.537  1.00  0.00    -0.100 Cl
ENDBRANCH   2  18
BRANCH   6  20
HETATM   20  O6  UNL     1      46.183  34.710  18.190  1.00  0.00    -0.351 OA
ATOM     21  H6  UNL     1      46.743  35.248  18.737  1.00  0.00     0.225 HD
ENDBRANCH   6  20
BRANCH   6  22
HETATM   22  O7  UNL     1      43.825  35.473  18.626  1.00  0.00    -0.351 OA
ATOM     23  H7  UNL     1      43.098  35.892  18.180  1.00  0.00     0.225 HD
ENDBRANCH   6  22
BRANCH   1  24
HETATM   24  O1  UNL     1      46.478  33.963  15.379  1.00  0.00    -0.387 OA
HETATM   25  C1  UNL     1      47.279  33.966  14.291  1.00  0.00     0.202 C 
ENDBRANCH   1  24
TORSDOF 8
ENDMDL
MODEL 4
REMARK VINA RESULT: -6.595096822      3.558      5.084
REMARK  8 active torsions:
REMARK  status: ('A' for Active; 'I' for Inactive)
REMARK    1  A    between atoms: O1_2  and  C2_3 
REMARK    2  A    between atoms: C3_4  and  C4_5 
REMARK    3  A    between atoms: C6_8  and  C7_9 
REMARK    4  A    between atoms: C7_9  and  O3_11 
REMARK    5  A    between atoms: O3_11  and  S1_12 
REMARK    6  A    between atoms: S1_12  and  N1_13 
REMARK    7  A    between atoms: S2_19  and  O6_20 
REMARK    8  A    between atoms: S2_19  and  O7_22 
ROOT
HETATM    1  C2  UNL     1      41.526  35.419  13.891  1.00  0.00     0.171 A 
HETATM    2  C3  UNL     1      42.069  35.068  14.925  1.00  0.00     0.090 A 
HETATM    3  C5  UNL     1      41.327  33.630  14.848  1.00  0.00     0.082 A 
HETATM    4  C6  UNL     1      41.564  33.204  13.791  1.00  0.00     0.042 A 
HETATM    5  C8  UNL     1      42.191  34.207  14.599  1.00  0.00     0.093 A 
HETATM    6  S2  UNL     1      41.774  34.181  16.457  1.00  0.00    -0.127 SA
HETATM    7  C9  UNL     1      40.130  33.602  16.796  1.00  0.00     0.097 A 
HETATM    8  C10 UNL     1      40.589  32.791  15.717  1.00  0.00     0.087 A 
ENDROOT
BRANCH   4   9
HETATM    9  C7  UNL     1      41.885  32.693  12.436  1.00  0.00     0.305 C 
HETATM   10  O2  UNL     1      41.373  33.065  11.362  1.00  0.00    -0.259 OA
BRANCH   9  11
HETATM   11  O3  UNL     1      42.847  31.696  12.276  1.00  0.00    -0.176 OA
BRANCH  11  12
HETATM   12  S1  UNL     1      42.381  30.191  11.705  1.00  0.00     0.363 S 
HETATM   13  O4  UNL     1      41.326  29.570  12.562  1.00  0.00    -0.175 OA
HETATM   14  O5  UNL     1      43.520  29.223  11.574  1.00  0.00    -0.175 OA
BRANCH  12  15
HETATM   15  N1  UNL     1      41.780  30.498  10.097  1.00  0.00    -0.305 N 
ATOM     16  H12 UNL     1      42.333  30.673   9.259  1.00  0.00     0.171 HD
ATOM     17  H11 UNL     1      40.765  30.462  10.192  1.00  0.00     0.171 HD
ENDBRANCH  12  15
ENDBRANCH  11  12
ENDBRANCH   9  11
ENDBRANCH   4   9
BRANCH   2  18
HETATM   18  C4  UNL     1      42.954  35.812  15.496  1.00  0.00     0.083 C 
HETATM   19 CL1  UNL     1      44.546  35.838  14.733  1.00  0.00    -0.100 Cl
ENDBRANCH   2  18
BRANCH   6  20
HETATM   20  O6  UNL     1      41.367  35.406  17.201  1.00  0.00    -0.351 OA
ATOM     21  H6  UNL     1      40.569  35.881  17.002  1.00  0.00     0.225 HD
ENDBRANCH   6  20
BRANCH   6  22
HETATM   22  O7  UNL     1      42.711  33.280  17.137  1.00  0.00    -0.351 OA
ATOM     23  H7  UNL     1      42.219  32.568  17.530  1.00  0.00     0.225 HD
ENDBRANCH   6  22
BRANCH   1  24
HETATM   24  O1  UNL     1      40.581  36.162  14.490  1.00  0.00    -0.387 OA
HETATM   25  C1  UNL     1      39.476  36.455  13.768  1.00  0.00     0.202 C 
ENDBRANCH   1  24
TORSDOF 8
ENDMDL
MODEL 5
REMARK VINA RESULT: -6.529229827      3.078      5.788
REMARK  8 active torsions:
REMARK  status: ('A' for Active; 'I' for Inactive)
REMARK    1  A    between atoms: O1_2  and  C2_3 
REMARK    2  A    between atoms: C3_4  and  C4_5 
REMARK    3  A    between atoms: C6_8  and  C7_9 
REMARK    4  A    between atoms: C7_9  and  O3_11 
REMARK    5  A    between atoms: O3_11  and  S1_12 
REMARK    6  A    between atoms: S1_12  and  N1_13 
REMARK    7  A    between atoms: S2_19  and  O6_20 
REMARK    8  A    between atoms: S2_19  and  O7_22 
ROOT
HETATM    1  C2  UNL     1      44.616  35.269  17.898  1.00  0.00     0.171 A 
HETATM    2  C3  UNL     1      45.275  35.467  16.892  1.00  0.00     0.090 A 
HETATM    3  C5  UNL     1      44.310  34.481  16.042  1.00  0.00     0.082 A 
HETATM    4  C6  UNL     1      43.226  34.867  16.216  1.00  0.00     0.042 A 
HETATM    5  C8  UNL     1      44.513  35.479  16.363  1.00  0.00     0.093 A 
HETATM    6  S2  UNL     1      45.960  34.639  15.454  1.00  0.00    -0.127 SA
HETATM    7  C9  UNL     1      45.774  32.878  15.323  1.00  0.00     0.097 A 
HETATM    8  C10 UNL     1      44.459  33.400  15.141  1.00  0.00     0.087 A 
ENDROOT
BRANCH   4   9
HETATM    9  C7  UNL     1      41.859  35.386  16.461  1.00  0.00     0.305 C 
HETATM   10  O2  UNL     1      41.481  36.569  16.343  1.00  0.00    -0.259 OA
BRANCH   9  11
HETATM   11  O3  UNL     1      40.845  34.518  16.866  1.00  0.00    -0.176 OA
BRANCH  11  12
HETATM   12  S1  UNL     1      39.880  33.787  15.709  1.00  0.00     0.363 S 
HETATM   13  O4  UNL     1      38.436  33.807  16.091  1.00  0.00    -0.175 OA
HETATM   14  O5  UNL     1      40.275  32.369  15.411  1.00  0.00    -0.175 OA
BRANCH  12  15
HETATM   15  N1  UNL     1      40.157  34.713  14.258  1.00  0.00    -0.305 N 
ATOM     16  H12 UNL     1      41.058  34.977  13.861  1.00  0.00     0.171 HD
ATOM     17  H11 UNL     1      39.223  34.924  13.906  1.00  0.00     0.171 HD
ENDBRANCH  12  15
ENDBRANCH  11  12
ENDBRANCH   9  11
ENDBRANCH   4   9
BRANCH   2  18
HETATM   18  C4  UNL     1      46.237  36.326  16.887  1.00  0.00     0.083 C 
HETATM   19 CL1  UNL     1      45.872  37.891  17.618  1.00  0.00    -0.100 Cl
ENDBRANCH   2  18
BRANCH   6  20
HETATM   20  O6  UNL     1      47.254  34.332  16.125  1.00  0.00    -0.351 OA
ATOM     21  H6  UNL     1      47.656  33.472  16.087  1.00  0.00     0.225 HD
ENDBRANCH   6  20
BRANCH   6  22
HETATM   22  O7  UNL     1      46.038  35.180  14.092  1.00  0.00    -0.351 OA
ATOM     23  H7  UNL     1      46.345  34.495  13.509  1.00  0.00     0.225 HD
ENDBRANCH   6  22
BRANCH   1  24
HETATM   24  O1  UNL     1      45.469  34.385  18.440  1.00  0.00    -0.387 OA
HETATM   25  C1  UNL     1      45.036  33.685  19.512  1.00  0.00     0.202 C 
ENDBRANCH   1  24
TORSDOF 8
ENDMDL
