MODEL 1
REMARK VINA RESULT: -8.324455510      0.000      0.000
REMARK  14 active torsions:
REMARK  status: ('A' for Active; 'I' for Inactive)
REMARK    1  A    between atoms: C2_2  and  C3_3 
REMARK    2  A    between atoms: C3_3  and  C6_6 
REMARK    3  A    between atoms: C6_6  and  O1_7 
REMARK    4  A    between atoms: C12_14  and  O3_15 
REMARK    5  A    between atoms: C13_17  and  C14_18 
REMARK    6  A    between atoms: C14_18  and  C15_19 
REMARK    7  A    between atoms: C15_19  and  C16_20 
REMARK    8  A    between atoms: C15_19  and  C19_23 
REMARK    9  A    between atoms: C23_27  and  C24_28 
REMARK   10  A    between atoms: C24_28  and  O4_29 
REMARK   11  A    between atoms: O4_29  and  C25_30 
REMARK   12  A    between atoms: C28_34  and  O6_35 
REMARK   13  A    between atoms: O6_35  and  C29_36 
REMARK   14  A    between atoms: C29_36  and  C30_38 
ROOT
HETATM    1  C6  UNL     1      -0.823 -35.922   5.343  1.00  0.00     0.145 C 
HETATM    2  C8  UNL     1       0.652 -36.126   5.538  1.00  0.00     0.014 C 
HETATM    3  C9  UNL     1       1.377 -37.082   4.901  1.00  0.00    -0.012 C 
HETATM    4  C10 UNL     1       0.683 -37.935   3.998  1.00  0.00     0.039 C 
HETATM    5  C11 UNL     1       0.220 -37.072   2.768  1.00  0.00     0.188 C 
HETATM    6  O2  UNL     1      -0.945 -36.582   3.151  1.00  0.00    -0.350 OA
HETATM    7  C12 UNL     1      -1.308 -37.017   4.378  1.00  0.00     0.207 C 
HETATM    8  C13 UNL     1      -0.541 -38.353   4.652  1.00  0.00     0.038 C 
HETATM    9  C27 UNL     1      -0.528 -39.406   3.565  1.00  0.00     0.050 C 
HETATM   10  C28 UNL     1       0.957 -39.199   3.397  1.00  0.00     0.148 C 
ENDROOT
BRANCH   8  11
HETATM   11  C14 UNL     1      -1.033 -38.901   5.849  1.00  0.00     0.026 C 
BRANCH  11  12
HETATM   12  C15 UNL     1      -1.046 -40.253   6.411  1.00  0.00     0.019 C 
BRANCH  12  13
HETATM   13  C16 UNL     1       0.115 -40.622   7.244  1.00  0.00    -0.088 C 
HETATM   14  C17 UNL     1       0.188 -40.381   8.545  1.00  0.00     0.014 C 
HETATM   15  C18 UNL     1       1.318 -41.364   6.693  1.00  0.00     0.043 C 
ENDBRANCH  12  13
BRANCH  12  16
HETATM   16  C19 UNL     1      -2.310 -40.545   7.224  1.00  0.00     0.004 C 
HETATM   17  C20 UNL     1      -3.030 -41.795   7.155  1.00  0.00    -0.013 C 
HETATM   18  C21 UNL     1      -3.220 -42.493   8.531  1.00  0.00     0.010 C 
HETATM   19  C22 UNL     1      -4.335 -41.038   6.915  1.00  0.00     0.012 C 
HETATM   20  C23 UNL     1      -3.516 -39.775   6.804  1.00  0.00     0.015 C 
BRANCH  20  21
HETATM   21  C24 UNL     1      -3.990 -38.719   7.780  1.00  0.00     0.183 C 
BRANCH  21  22
HETATM   22  O4  UNL     1      -4.298 -37.512   7.144  1.00  0.00    -0.321 OA
BRANCH  22  23
HETATM   23  C25 UNL     1      -5.418 -37.190   6.434  1.00  0.00     0.254 C 
HETATM   24  C26 UNL     1      -6.782 -37.691   6.765  1.00  0.00     0.126 C 
HETATM   25  O5  UNL     1      -5.313 -36.430   5.444  1.00  0.00    -0.266 OA
ENDBRANCH  22  23
ENDBRANCH  21  22
ENDBRANCH  20  21
ENDBRANCH  12  16
ENDBRANCH  11  12
ENDBRANCH   8  11
BRANCH   7  26
HETATM   26  O3  UNL     1      -2.622 -37.356   4.529  1.00  0.00    -0.362 OA
ATOM     27  H3  UNL     1      -2.832 -38.239   4.248  1.00  0.00     0.213 HD
ENDBRANCH   7  26
BRANCH  10  28
HETATM   28  O6  UNL     1       1.935 -40.084   3.668  1.00  0.00    -0.311 OA
BRANCH  28  29
HETATM   29  C29 UNL     1       3.118 -40.255   3.007  1.00  0.00     0.295 C 
HETATM   30  O7  UNL     1       3.271 -39.531   1.968  1.00  0.00    -0.259 OA
BRANCH  29  31
HETATM   31  C30 UNL     1       4.224 -41.156   3.335  1.00  0.00     0.064 A 
HETATM   32  C31 UNL     1       4.455 -41.896   4.444  1.00  0.00     0.159 A 
HETATM   33  O8  UNL     1       5.568 -42.552   4.268  1.00  0.00    -0.326 OA
HETATM   34  C32 UNL     1       6.099 -42.305   3.124  1.00  0.00     0.049 A 
HETATM   35  C33 UNL     1       7.360 -42.828   2.507  1.00  0.00     0.076 C 
HETATM   36  C34 UNL     1       5.281 -41.414   2.476  1.00  0.00     0.051 A 
ENDBRANCH  29  31
ENDBRANCH  28  29
ENDBRANCH  10  28
BRANCH   1  37
HETATM   37  C3  UNL     1      -1.000 -34.513   4.891  1.00  0.00     0.010 C 
HETATM   38  C4  UNL     1       0.081 -33.588   5.426  1.00  0.00     0.023 C 
HETATM   39  C5  UNL     1      -2.316 -33.892   5.358  1.00  0.00     0.023 C 
BRANCH  37  40
HETATM   40  C2  UNL     1      -1.027 -34.220   3.433  1.00  0.00    -0.025 C 
HETATM   41  C1  UNL     1      -1.980 -33.462   2.883  1.00  0.00     0.008 C 
ENDBRANCH  37  40
ENDBRANCH   1  37
BRANCH   1  42
HETATM   42  O1  UNL     1      -1.418 -35.993   6.543  1.00  0.00    -0.374 OA
HETATM   43  C7  UNL     1      -1.056 -36.136   7.760  1.00  0.00     0.203 C 
ENDBRANCH   1  42
TORSDOF 14
ENDMDL
MODEL 2
REMARK VINA RESULT: -8.252050832      1.552      3.887
REMARK  14 active torsions:
REMARK  status: ('A' for Active; 'I' for Inactive)
REMARK    1  A    between atoms: C2_2  and  C3_3 
REMARK    2  A    between atoms: C3_3  and  C6_6 
REMARK    3  A    between atoms: C6_6  and  O1_7 
REMARK    4  A    between atoms: C12_14  and  O3_15 
REMARK    5  A    between atoms: C13_17  and  C14_18 
REMARK    6  A    between atoms: C14_18  and  C15_19 
REMARK    7  A    between atoms: C15_19  and  C16_20 
REMARK    8  A    between atoms: C15_19  and  C19_23 
REMARK    9  A    between atoms: C23_27  and  C24_28 
REMARK   10  A    between atoms: C24_28  and  O4_29 
REMARK   11  A    between atoms: O4_29  and  C25_30 
REMARK   12  A    between atoms: C28_34  and  O6_35 
REMARK   13  A    between atoms: O6_35  and  C29_36 
REMARK   14  A    between atoms: C29_36  and  C30_38 
ROOT
HETATM    1  C6  UNL     1      -0.911 -35.648   5.358  1.00  0.00     0.145 C 
HETATM    2  C8  UNL     1       0.573 -35.761   5.554  1.00  0.00     0.014 C 
HETATM    3  C9  UNL     1       1.349 -36.700   4.954  1.00  0.00    -0.012 C 
HETATM    4  C10 UNL     1       0.703 -37.627   4.090  1.00  0.00     0.039 C 
HETATM    5  C11 UNL     1       0.188 -36.842   2.828  1.00  0.00     0.188 C 
HETATM    6  O2  UNL     1      -1.002 -36.403   3.196  1.00  0.00    -0.350 OA
HETATM    7  C12 UNL     1      -1.336 -36.807   4.442  1.00  0.00     0.207 C 
HETATM    8  C13 UNL     1      -0.495 -38.086   4.766  1.00  0.00     0.038 C 
HETATM    9  C27 UNL     1      -0.426 -39.179   3.723  1.00  0.00     0.050 C 
HETATM   10  C28 UNL     1       1.045 -38.896   3.540  1.00  0.00     0.148 C 
ENDROOT
BRANCH   8  11
HETATM   11  C14 UNL     1      -0.952 -38.610   5.987  1.00  0.00     0.026 C 
BRANCH  11  12
HETATM   12  C15 UNL     1      -0.341 -39.456   7.015  1.00  0.00     0.019 C 
BRANCH  12  13
HETATM   13  C16 UNL     1      -0.949 -39.387   8.358  1.00  0.00    -0.088 C 
HETATM   14  C17 UNL     1      -2.256 -39.317   8.567  1.00  0.00     0.014 C 
HETATM   15  C18 UNL     1      -0.131 -39.443   9.633  1.00  0.00     0.043 C 
ENDBRANCH  12  13
BRANCH  12  16
HETATM   16  C19 UNL     1      -0.280 -40.930   6.610  1.00  0.00     0.004 C 
HETATM   17  C20 UNL     1      -1.370 -41.857   6.807  1.00  0.00    -0.013 C 
HETATM   18  C21 UNL     1      -1.830 -42.579   5.509  1.00  0.00     0.010 C 
HETATM   19  C22 UNL     1      -0.420 -42.840   7.489  1.00  0.00     0.012 C 
HETATM   20  C23 UNL     1       0.641 -41.768   7.432  1.00  0.00     0.015 C 
BRANCH  20  21
HETATM   21  C24 UNL     1       1.887 -42.256   6.725  1.00  0.00     0.183 C 
BRANCH  21  22
HETATM   22  O4  UNL     1       2.933 -42.512   7.618  1.00  0.00    -0.321 OA
BRANCH  22  23
HETATM   23  C25 UNL     1       3.324 -43.709   8.144  1.00  0.00     0.254 C 
HETATM   24  C26 UNL     1       2.466 -44.543   9.034  1.00  0.00     0.126 C 
HETATM   25  O5  UNL     1       4.465 -44.149   7.874  1.00  0.00    -0.266 OA
ENDBRANCH  22  23
ENDBRANCH  21  22
ENDBRANCH  20  21
ENDBRANCH  12  16
ENDBRANCH  11  12
ENDBRANCH   8  11
BRANCH   7  26
HETATM   26  O3  UNL     1      -2.628 -37.212   4.613  1.00  0.00    -0.362 OA
ATOM     27  H3  UNL     1      -3.041 -37.545   3.824  1.00  0.00     0.213 HD
ENDBRANCH   7  26
BRANCH  10  28
HETATM   28  O6  UNL     1       2.073 -39.713   3.841  1.00  0.00    -0.311 OA
BRANCH  28  29
HETATM   29  C29 UNL     1       3.148 -40.033   3.062  1.00  0.00     0.295 C 
HETATM   30  O7  UNL     1       3.224 -39.403   1.955  1.00  0.00    -0.259 OA
BRANCH  29  31
HETATM   31  C30 UNL     1       4.214 -40.998   3.331  1.00  0.00     0.064 A 
HETATM   32  C31 UNL     1       4.412 -41.816   4.390  1.00  0.00     0.159 A 
HETATM   33  O8  UNL     1       5.499 -42.504   4.173  1.00  0.00    -0.326 OA
HETATM   34  C32 UNL     1       6.042 -42.207   3.047  1.00  0.00     0.049 A 
HETATM   35  C33 UNL     1       7.282 -42.740   2.398  1.00  0.00     0.076 C 
HETATM   36  C34 UNL     1       5.262 -41.244   2.458  1.00  0.00     0.051 A 
ENDBRANCH  29  31
ENDBRANCH  28  29
ENDBRANCH  10  28
BRANCH   1  37
HETATM   37  C3  UNL     1      -1.168 -34.270   4.850  1.00  0.00     0.010 C 
HETATM   38  C4  UNL     1      -0.160 -33.259   5.370  1.00  0.00     0.023 C 
HETATM   39  C5  UNL     1      -2.531 -33.719   5.269  1.00  0.00     0.023 C 
BRANCH  37  40
HETATM   40  C2  UNL     1      -1.183 -34.033   3.381  1.00  0.00    -0.025 C 
HETATM   41  C1  UNL     1      -2.126 -33.289   2.796  1.00  0.00     0.008 C 
ENDBRANCH  37  40
ENDBRANCH   1  37
BRANCH   1  42
HETATM   42  O1  UNL     1      -1.498 -35.703   6.563  1.00  0.00    -0.374 OA
HETATM   43  C7  UNL     1      -1.126 -35.778   7.783  1.00  0.00     0.203 C 
ENDBRANCH   1  42
TORSDOF 14
ENDMDL
MODEL 3
REMARK VINA RESULT: -8.099226048      1.961      3.246
REMARK  14 active torsions:
REMARK  status: ('A' for Active; 'I' for Inactive)
REMARK    1  A    between atoms: C2_2  and  C3_3 
REMARK    2  A    between atoms: C3_3  and  C6_6 
REMARK    3  A    between atoms: C6_6  and  O1_7 
REMARK    4  A    between atoms: C12_14  and  O3_15 
REMARK    5  A    between atoms: C13_17  and  C14_18 
REMARK    6  A    between atoms: C14_18  and  C15_19 
REMARK    7  A    between atoms: C15_19  and  C16_20 
REMARK    8  A    between atoms: C15_19  and  C19_23 
REMARK    9  A    between atoms: C23_27  and  C24_28 
REMARK   10  A    between atoms: C24_28  and  O4_29 
REMARK   11  A    between atoms: O4_29  and  C25_30 
REMARK   12  A    between atoms: C28_34  and  O6_35 
REMARK   13  A    between atoms: O6_35  and  C29_36 
REMARK   14  A    between atoms: C29_36  and  C30_38 
ROOT
HETATM    1  C6  UNL     1      -0.687 -36.536   4.244  1.00  0.00     0.145 C 
HETATM    2  C8  UNL     1       0.762 -36.902   4.388  1.00  0.00     0.014 C 
HETATM    3  C9  UNL     1       1.199 -38.093   4.873  1.00  0.00    -0.012 C 
HETATM    4  C10 UNL     1       0.213 -39.041   5.266  1.00  0.00     0.039 C 
HETATM    5  C11 UNL     1      -0.540 -39.526   3.974  1.00  0.00     0.188 C 
HETATM    6  O2  UNL     1      -1.503 -38.635   3.820  1.00  0.00    -0.350 OA
HETATM    7  C12 UNL     1      -1.509 -37.709   4.804  1.00  0.00     0.207 C 
HETATM    8  C13 UNL     1      -0.784 -38.330   6.043  1.00  0.00     0.038 C 
HETATM    9  C27 UNL     1      -1.165 -39.732   6.466  1.00  0.00     0.050 C 
HETATM   10  C28 UNL     1       0.212 -40.212   6.078  1.00  0.00     0.148 C 
ENDROOT
BRANCH   8  11
HETATM   11  C14 UNL     1      -0.929 -37.444   7.124  1.00  0.00     0.026 C 
BRANCH  11  12
HETATM   12  C15 UNL     1      -0.978 -37.621   8.576  1.00  0.00     0.019 C 
BRANCH  12  13
HETATM   13  C16 UNL     1      -0.046 -36.790   9.364  1.00  0.00    -0.088 C 
HETATM   14  C17 UNL     1       0.501 -37.185  10.504  1.00  0.00     0.014 C 
HETATM   15  C18 UNL     1       0.416 -35.419   8.910  1.00  0.00     0.043 C 
ENDBRANCH  12  13
BRANCH  12  16
HETATM   16  C19 UNL     1      -2.381 -37.415   9.151  1.00  0.00     0.004 C 
HETATM   17  C20 UNL     1      -3.154 -38.470   9.763  1.00  0.00    -0.013 C 
HETATM   18  C21 UNL     1      -3.627 -38.152  11.209  1.00  0.00     0.010 C 
HETATM   19  C22 UNL     1      -4.346 -38.122   8.874  1.00  0.00     0.012 C 
HETATM   20  C23 UNL     1      -3.444 -37.163   8.136  1.00  0.00     0.015 C 
BRANCH  20  21
HETATM   21  C24 UNL     1      -4.016 -35.762   8.122  1.00  0.00     0.183 C 
BRANCH  21  22
HETATM   22  O4  UNL     1      -3.590 -35.029   7.009  1.00  0.00    -0.321 OA
BRANCH  22  23
HETATM   23  C25 UNL     1      -4.351 -34.370   6.087  1.00  0.00     0.254 C 
HETATM   24  C26 UNL     1      -3.785 -33.537   4.988  1.00  0.00     0.126 C 
HETATM   25  O5  UNL     1      -5.599 -34.461   6.150  1.00  0.00    -0.266 OA
ENDBRANCH  22  23
ENDBRANCH  21  22
ENDBRANCH  20  21
ENDBRANCH  12  16
ENDBRANCH  11  12
ENDBRANCH   8  11
BRANCH   7  26
HETATM   26  O3  UNL     1      -2.736 -37.355   5.285  1.00  0.00    -0.362 OA
ATOM     27  H3  UNL     1      -2.746 -37.142   6.211  1.00  0.00     0.213 HD
ENDBRANCH   7  26
BRANCH  10  28
HETATM   28  O6  UNL     1       1.167 -40.688   6.900  1.00  0.00    -0.311 OA
BRANCH  28  29
HETATM   29  C29 UNL     1       1.982 -41.767   6.704  1.00  0.00     0.295 C 
HETATM   30  O7  UNL     1       1.700 -42.795   7.403  1.00  0.00    -0.259 OA
BRANCH  29  31
HETATM   31  C30 UNL     1       3.128 -41.891   5.802  1.00  0.00     0.064 A 
HETATM   32  C31 UNL     1       4.225 -42.680   5.880  1.00  0.00     0.159 A 
HETATM   33  O8  UNL     1       4.965 -42.446   4.831  1.00  0.00    -0.326 OA
HETATM   34  C32 UNL     1       4.445 -41.561   4.059  1.00  0.00     0.049 A 
HETATM   35  C33 UNL     1       4.939 -40.992   2.765  1.00  0.00     0.076 C 
HETATM   36  C34 UNL     1       3.261 -41.165   4.629  1.00  0.00     0.051 A 
ENDBRANCH  29  31
ENDBRANCH  28  29
ENDBRANCH  10  28
BRANCH   1  37
HETATM   37  C3  UNL     1      -0.900 -36.202   2.807  1.00  0.00     0.010 C 
HETATM   38  C4  UNL     1       0.205 -36.741   1.913  1.00  0.00     0.023 C 
HETATM   39  C5  UNL     1      -0.926 -34.698   2.536  1.00  0.00     0.023 C 
BRANCH  37  40
HETATM   40  C2  UNL     1      -2.149 -36.652   2.138  1.00  0.00    -0.025 C 
HETATM   41  C1  UNL     1      -3.252 -35.897   2.119  1.00  0.00     0.008 C 
ENDBRANCH  37  40
ENDBRANCH   1  37
BRANCH   1  42
HETATM   42  O1  UNL     1      -0.899 -35.393   4.915  1.00  0.00    -0.374 OA
HETATM   43  C7  UNL     1      -0.188 -34.485   5.463  1.00  0.00     0.203 C 
ENDBRANCH   1  42
TORSDOF 14
ENDMDL
MODEL 4
REMARK VINA RESULT: -8.000955812      1.601      2.324
REMARK  14 active torsions:
REMARK  status: ('A' for Active; 'I' for Inactive)
REMARK    1  A    between atoms: C2_2  and  C3_3 
REMARK    2  A    between atoms: C3_3  and  C6_6 
REMARK    3  A    between atoms: C6_6  and  O1_7 
REMARK    4  A    between atoms: C12_14  and  O3_15 
REMARK    5  A    between atoms: C13_17  and  C14_18 
REMARK    6  A    between atoms: C14_18  and  C15_19 
REMARK    7  A    between atoms: C15_19  and  C16_20 
REMARK    8  A    between atoms: C15_19  and  C19_23 
REMARK    9  A    between atoms: C23_27  and  C24_28 
REMARK   10  A    between atoms: C24_28  and  O4_29 
REMARK   11  A    between atoms: O4_29  and  C25_30 
REMARK   12  A    between atoms: C28_34  and  O6_35 
REMARK   13  A    between atoms: O6_35  and  C29_36 
REMARK   14  A    between atoms: C29_36  and  C30_38 
ROOT
HETATM    1  C6  UNL     1      -0.583 -35.922   5.450  1.00  0.00     0.145 C 
HETATM    2  C8  UNL     1       0.893 -36.144   5.292  1.00  0.00     0.014 C 
HETATM    3  C9  UNL     1       1.436 -37.209   4.646  1.00  0.00    -0.012 C 
HETATM    4  C10 UNL     1       0.538 -38.164   4.091  1.00  0.00     0.039 C 
HETATM    5  C11 UNL     1      -0.231 -37.479   2.903  1.00  0.00     0.188 C 
HETATM    6  O2  UNL     1      -1.261 -36.898   3.490  1.00  0.00    -0.350 OA
HETATM    7  C12 UNL     1      -1.294 -37.132   4.821  1.00  0.00     0.207 C 
HETATM    8  C13 UNL     1      -0.474 -38.438   5.092  1.00  0.00     0.038 C 
HETATM    9  C27 UNL     1      -0.735 -39.640   4.212  1.00  0.00     0.050 C 
HETATM   10  C28 UNL     1       0.656 -39.511   3.641  1.00  0.00     0.148 C 
ENDROOT
BRANCH   8  11
HETATM   11  C14 UNL     1      -0.638 -38.783   6.444  1.00  0.00     0.026 C 
BRANCH  11  12
HETATM   12  C15 UNL     1      -1.051 -40.008   7.131  1.00  0.00     0.019 C 
BRANCH  12  13
HETATM   13  C16 UNL     1       0.032 -40.819   7.720  1.00  0.00    -0.088 C 
HETATM   14  C17 UNL     1       1.177 -41.070   7.103  1.00  0.00     0.014 C 
HETATM   15  C18 UNL     1      -0.046 -41.400   9.120  1.00  0.00     0.043 C 
ENDBRANCH  12  13
BRANCH  12  16
HETATM   16  C19 UNL     1      -2.088 -39.753   8.227  1.00  0.00     0.004 C 
HETATM   17  C20 UNL     1      -3.506 -39.642   7.974  1.00  0.00    -0.013 C 
HETATM   18  C21 UNL     1      -4.376 -40.627   8.804  1.00  0.00     0.010 C 
HETATM   19  C22 UNL     1      -3.549 -38.328   8.750  1.00  0.00     0.012 C 
HETATM   20  C23 UNL     1      -2.043 -38.388   8.826  1.00  0.00     0.015 C 
BRANCH  20  21
HETATM   21  C24 UNL     1      -1.556 -38.318  10.258  1.00  0.00     0.183 C 
BRANCH  21  22
HETATM   22  O4  UNL     1      -0.983 -37.079  10.561  1.00  0.00    -0.321 OA
BRANCH  22  23
HETATM   23  C25 UNL     1      -1.523 -36.048  11.274  1.00  0.00     0.254 C 
HETATM   24  C26 UNL     1      -2.973 -35.931  11.597  1.00  0.00     0.126 C 
HETATM   25  O5  UNL     1      -0.770 -35.137  11.691  1.00  0.00    -0.266 OA
ENDBRANCH  22  23
ENDBRANCH  21  22
ENDBRANCH  20  21
ENDBRANCH  12  16
ENDBRANCH  11  12
ENDBRANCH   8  11
BRANCH   7  26
HETATM   26  O3  UNL     1      -2.522 -37.400   5.352  1.00  0.00    -0.362 OA
ATOM     27  H3  UNL     1      -3.088 -37.915   4.788  1.00  0.00     0.213 HD
ENDBRANCH   7  26
BRANCH  10  28
HETATM   28  O6  UNL     1       1.676 -40.378   3.786  1.00  0.00    -0.311 OA
BRANCH  28  29
HETATM   29  C29 UNL     1       2.921 -40.310   3.228  1.00  0.00     0.295 C 
HETATM   30  O7  UNL     1       3.082 -39.380   2.370  1.00  0.00    -0.259 OA
BRANCH  29  31
HETATM   31  C30 UNL     1       4.084 -41.160   3.487  1.00  0.00     0.064 A 
HETATM   32  C31 UNL     1       4.406 -41.902   4.571  1.00  0.00     0.159 A 
HETATM   33  O8  UNL     1       5.540 -42.500   4.331  1.00  0.00    -0.326 OA
HETATM   34  C32 UNL     1       6.001 -42.211   3.166  1.00  0.00     0.049 A 
HETATM   35  C33 UNL     1       7.253 -42.662   2.480  1.00  0.00     0.076 C 
HETATM   36  C34 UNL     1       5.108 -41.353   2.574  1.00  0.00     0.051 A 
ENDBRANCH  29  31
ENDBRANCH  28  29
ENDBRANCH  10  28
BRANCH   1  37
HETATM   37  C3  UNL     1      -0.879 -34.591   4.848  1.00  0.00     0.010 C 
HETATM   38  C4  UNL     1       0.103 -33.519   5.291  1.00  0.00     0.023 C 
HETATM   39  C5  UNL     1      -2.255 -34.049   5.234  1.00  0.00     0.023 C 
BRANCH  37  40
HETATM   40  C2  UNL     1      -0.905 -34.458   3.367  1.00  0.00    -0.025 C 
HETATM   41  C1  UNL     1      -1.766 -33.647   2.746  1.00  0.00     0.008 C 
ENDBRANCH  37  40
ENDBRANCH   1  37
BRANCH   1  42
HETATM   42  O1  UNL     1      -0.850 -35.793   6.759  1.00  0.00    -0.374 OA
HETATM   43  C7  UNL     1      -0.202 -35.505   7.821  1.00  0.00     0.203 C 
ENDBRANCH   1  42
TORSDOF 14
ENDMDL
MODEL 5
REMARK VINA RESULT: -7.964886370      3.111      5.955
REMARK  14 active torsions:
REMARK  status: ('A' for Active; 'I' for Inactive)
REMARK    1  A    between atoms: C2_2  and  C3_3 
REMARK    2  A    between atoms: C3_3  and  C6_6 
REMARK    3  A    between atoms: C6_6  and  O1_7 
REMARK    4  A    between atoms: C12_14  and  O3_15 
REMARK    5  A    between atoms: C13_17  and  C14_18 
REMARK    6  A    between atoms: C14_18  and  C15_19 
REMARK    7  A    between atoms: C15_19  and  C16_20 
REMARK    8  A    between atoms: C15_19  and  C19_23 
REMARK    9  A    between atoms: C23_27  and  C24_28 
REMARK   10  A    between atoms: C24_28  and  O4_29 
REMARK   11  A    between atoms: O4_29  and  C25_30 
REMARK   12  A    between atoms: C28_34  and  O6_35 
REMARK   13  A    between atoms: O6_35  and  C29_36 
REMARK   14  A    between atoms: C29_36  and  C30_38 
ROOT
HETATM    1  C6  UNL     1      -5.142 -35.881   7.407  1.00  0.00     0.145 C 
HETATM    2  C8  UNL     1      -4.653 -34.480   7.174  1.00  0.00     0.014 C 
HETATM    3  C9  UNL     1      -4.113 -34.049   6.005  1.00  0.00    -0.012 C 
HETATM    4  C10 UNL     1      -4.009 -34.993   4.946  1.00  0.00     0.039 C 
HETATM    5  C11 UNL     1      -5.463 -35.350   4.465  1.00  0.00     0.188 C 
HETATM    6  O2  UNL     1      -5.823 -36.337   5.266  1.00  0.00    -0.350 OA
HETATM    7  C12 UNL     1      -4.842 -36.683   6.129  1.00  0.00     0.207 C 
HETATM    8  C13 UNL     1      -3.482 -36.220   5.510  1.00  0.00     0.038 C 
HETATM    9  C27 UNL     1      -3.213 -36.540   4.056  1.00  0.00     0.050 C 
HETATM   10  C28 UNL     1      -3.261 -35.066   3.734  1.00  0.00     0.148 C 
ENDROOT
BRANCH   8  11
HETATM   11  C14 UNL     1      -2.444 -36.720   6.314  1.00  0.00     0.026 C 
BRANCH  11  12
HETATM   12  C15 UNL     1      -1.049 -37.081   6.054  1.00  0.00     0.019 C 
BRANCH  12  13
HETATM   13  C16 UNL     1      -0.072 -35.977   6.106  1.00  0.00    -0.088 C 
HETATM   14  C17 UNL     1       1.162 -36.069   5.630  1.00  0.00     0.014 C 
HETATM   15  C18 UNL     1      -0.408 -34.607   6.663  1.00  0.00     0.043 C 
ENDBRANCH  12  13
BRANCH  12  16
HETATM   16  C19 UNL     1      -0.542 -38.191   6.978  1.00  0.00     0.004 C 
HETATM   17  C20 UNL     1      -0.848 -39.590   6.785  1.00  0.00    -0.013 C 
HETATM   18  C21 UNL     1       0.405 -40.505   6.688  1.00  0.00     0.010 C 
HETATM   19  C22 UNL     1      -1.302 -39.697   8.240  1.00  0.00     0.012 C 
HETATM   20  C23 UNL     1      -1.149 -38.199   8.340  1.00  0.00     0.015 C 
BRANCH  20  21
HETATM   21  C24 UNL     1      -0.221 -37.810   9.471  1.00  0.00     0.183 C 
BRANCH  21  22
HETATM   22  O4  UNL     1      -0.759 -36.796  10.269  1.00  0.00    -0.321 OA
BRANCH  22  23
HETATM   23  C25 UNL     1      -0.222 -35.577  10.566  1.00  0.00     0.254 C 
HETATM   24  C26 UNL     1       1.032 -35.051   9.955  1.00  0.00     0.126 C 
HETATM   25  O5  UNL     1      -0.804 -34.842  11.398  1.00  0.00    -0.266 OA
ENDBRANCH  22  23
ENDBRANCH  21  22
ENDBRANCH  20  21
ENDBRANCH  12  16
ENDBRANCH  11  12
ENDBRANCH   8  11
BRANCH   7  26
HETATM   26  O3  UNL     1      -4.671 -38.022   6.334  1.00  0.00    -0.362 OA
ATOM     27  H3  UNL     1      -3.923 -38.393   5.881  1.00  0.00     0.213 HD
ENDBRANCH   7  26
BRANCH  10  28
HETATM   28  O6  UNL     1      -2.243 -34.296   3.306  1.00  0.00    -0.311 OA
BRANCH  28  29
HETATM   29  C29 UNL     1      -1.293 -34.602   2.374  1.00  0.00     0.295 C 
HETATM   30  O7  UNL     1      -0.671 -33.602   1.882  1.00  0.00    -0.259 OA
BRANCH  29  31
HETATM   31  C30 UNL     1      -0.899 -35.919   1.871  1.00  0.00     0.064 A 
HETATM   32  C31 UNL     1      -1.306 -36.598   0.774  1.00  0.00     0.159 A 
HETATM   33  O8  UNL     1      -0.662 -37.732   0.739  1.00  0.00    -0.326 OA
HETATM   34  C32 UNL     1       0.145 -37.861   1.730  1.00  0.00     0.049 A 
HETATM   35  C33 UNL     1       1.071 -38.983   2.087  1.00  0.00     0.076 C 
HETATM   36  C34 UNL     1       0.038 -36.727   2.495  1.00  0.00     0.051 A 
ENDBRANCH  29  31
ENDBRANCH  28  29
ENDBRANCH  10  28
BRANCH   1  37
HETATM   37  C3  UNL     1      -6.575 -35.771   7.802  1.00  0.00     0.010 C 
HETATM   38  C4  UNL     1      -6.837 -34.589   8.720  1.00  0.00     0.023 C 
HETATM   39  C5  UNL     1      -7.082 -36.988   8.572  1.00  0.00     0.023 C 
BRANCH  37  40
HETATM   40  C2  UNL     1      -7.607 -35.631   6.740  1.00  0.00    -0.025 C 
HETATM   41  C1  UNL     1      -8.527 -34.663   6.773  1.00  0.00     0.008 C 
ENDBRANCH  37  40
ENDBRANCH   1  37
BRANCH   1  42
HETATM   42  O1  UNL     1      -4.508 -36.373   8.483  1.00  0.00    -0.374 OA
HETATM   43  C7  UNL     1      -3.865 -35.908   9.483  1.00  0.00     0.203 C 
ENDBRANCH   1  42
TORSDOF 14
ENDMDL
