MODEL 1
REMARK VINA RESULT: -6.043008058      0.000      0.000
REMARK  5 active torsions:
REMARK  status: ('A' for Active; 'I' for Inactive)
REMARK    1  A    between atoms: N1_1  and  C1_4 
REMARK    2  A    between atoms: C9_23  and  O3_24 
REMARK    3  A    between atoms: C9_23  and  C10_26 
REMARK    4  A    between atoms: C10_26  and  O4_27 
REMARK    5  A    between atoms: O4_27  and  N8_28 
ROOT
HETATM    1  C1  UNL     1       0.387  -1.066  10.197  1.00  0.00     0.680 A 
HETATM    2  N2  UNL     1       0.402  -1.899   9.140  1.00  0.00    -0.168 N 
ATOM      3  H2  UNL     1       1.288  -2.081   8.668  1.00  0.00     0.186 HD
HETATM    4  C2  UNL     1      -0.726  -2.508   8.679  1.00  0.00     0.190 A 
HETATM    5  C3  UNL     1      -1.925  -2.260   9.319  1.00  0.00     0.150 A 
HETATM    6  C4  UNL     1      -1.930  -1.415  10.391  1.00  0.00     0.290 A 
HETATM    7  O1  UNL     1      -3.011  -1.179  10.985  1.00  0.00    -0.265 OA
HETATM    8  N3  UNL     1      -0.794  -0.834  10.815  1.00  0.00    -0.154 N 
ATOM      9  H3  UNL     1      -0.823  -0.205  11.618  1.00  0.00     0.187 HD
HETATM   10  N4  UNL     1      -3.077  -2.913   8.809  1.00  0.00    -0.372 N 
ATOM     11  H4  UNL     1      -3.924  -2.864   9.375  1.00  0.00     0.160 HD
HETATM   12  C5  UNL     1      -3.161  -3.627   7.585  1.00  0.00     0.152 A 
HETATM   13  C6  UNL     1      -1.823  -3.828   6.898  1.00  0.00     0.188 A 
HETATM   14  O2  UNL     1      -0.733  -3.354   7.609  1.00  0.00    -0.324 OA
HETATM   15  C7  UNL     1      -2.315  -2.979   5.815  1.00  0.00     0.144 A 
HETATM   16  C8  UNL     1      -1.574  -1.969   5.157  1.00  0.00     0.235 C 
HETATM   17  N5  UNL     1      -0.879  -3.064   4.526  1.00  0.00    -0.122 NA
HETATM   18  N6  UNL     1      -2.234  -3.532   4.446  1.00  0.00    -0.126 NA
HETATM   19  N7  UNL     1      -2.485  -2.171   4.063  1.00  0.00    -0.122 NA
HETATM   20  C9  UNL     1      -3.658  -2.815   6.378  1.00  0.00     0.133 A 
ENDROOT
BRANCH  20  21
HETATM   21  O3  UNL     1      -4.675  -3.403   5.667  1.00  0.00    -0.383 OA
ATOM     22  H3  UNL     1      -5.457  -2.872   5.576  1.00  0.00     0.210 HD
ENDBRANCH  20  21
BRANCH  20  23
HETATM   23  C10 UNL     1      -3.951  -1.367   6.736  1.00  0.00     0.250 C 
BRANCH  23  24
HETATM   24  O4  UNL     1      -4.968  -0.864   5.866  1.00  0.00    -0.218 OA
BRANCH  24  25
HETATM   25  N8  UNL     1      -4.784   0.201   5.053  1.00  0.00     0.005 N 
HETATM   26  O5  UNL     1      -5.140   0.209   3.874  1.00  0.00    -0.511 OA
HETATM   27  O6  UNL     1      -4.168   1.333   5.565  1.00  0.00    -0.511 OA
ENDBRANCH  24  25
ENDBRANCH  23  24
ENDBRANCH  20  23
BRANCH   1  28
HETATM   28  N1  UNL     1       1.478  -0.504  10.611  1.00  0.00    -0.234 N 
ATOM     29  H12 UNL     1       1.964  -0.847  11.439  1.00  0.00     0.174 HD
ATOM     30  H11 UNL     1       1.873   0.295  10.114  1.00  0.00     0.174 HD
ENDBRANCH   1  28
TORSDOF 5
ENDMDL
MODEL 2
REMARK VINA RESULT: -5.889986189     12.144     13.754
REMARK  5 active torsions:
REMARK  status: ('A' for Active; 'I' for Inactive)
REMARK    1  A    between atoms: N1_1  and  C1_4 
REMARK    2  A    between atoms: C9_23  and  O3_24 
REMARK    3  A    between atoms: C9_23  and  C10_26 
REMARK    4  A    between atoms: C10_26  and  O4_27 
REMARK    5  A    between atoms: O4_27  and  N8_28 
ROOT
HETATM    1  C1  UNL     1     -13.796  -2.516   2.388  1.00  0.00     0.680 A 
HETATM    2  N2  UNL     1     -14.196  -1.606   1.482  1.00  0.00    -0.168 N 
ATOM      3  H2  UNL     1     -14.154  -1.846   0.492  1.00  0.00     0.186 HD
HETATM    4  C2  UNL     1     -14.656  -0.375   1.842  1.00  0.00     0.190 A 
HETATM    5  C3  UNL     1     -14.712  -0.052   3.184  1.00  0.00     0.150 A 
HETATM    6  C4  UNL     1     -14.305  -0.982   4.097  1.00  0.00     0.290 A 
HETATM    7  O1  UNL     1     -14.350  -0.706   5.321  1.00  0.00    -0.265 OA
HETATM    8  N3  UNL     1     -13.857  -2.187   3.699  1.00  0.00    -0.154 N 
ATOM      9  H3  UNL     1     -13.558  -2.865   4.400  1.00  0.00     0.187 HD
HETATM   10  N4  UNL     1     -15.197   1.238   3.519  1.00  0.00    -0.372 N 
ATOM     11  H4  UNL     1     -15.395   1.417   4.503  1.00  0.00     0.160 HD
HETATM   12  C5  UNL     1     -15.432   2.305   2.612  1.00  0.00     0.152 A 
HETATM   13  C6  UNL     1     -15.309   1.909   1.152  1.00  0.00     0.188 A 
HETATM   14  O2  UNL     1     -15.065   0.562   0.939  1.00  0.00    -0.324 OA
HETATM   15  C7  UNL     1     -14.155   2.802   1.065  1.00  0.00     0.144 A 
HETATM   16  C8  UNL     1     -12.942   2.519   0.394  1.00  0.00     0.235 C 
HETATM   17  N5  UNL     1     -13.704   2.728  -0.812  1.00  0.00    -0.122 NA
HETATM   18  N6  UNL     1     -14.180   3.819  -0.008  1.00  0.00    -0.126 NA
HETATM   19  N7  UNL     1     -12.786   3.947   0.313  1.00  0.00    -0.122 NA
HETATM   20  C9  UNL     1     -14.269   3.296   2.440  1.00  0.00     0.133 A 
ENDROOT
BRANCH  20  21
HETATM   21  O3  UNL     1     -14.616   4.619   2.568  1.00  0.00    -0.383 OA
ATOM     22  H3  UNL     1     -14.215   5.066   3.305  1.00  0.00     0.210 HD
ENDBRANCH  20  21
BRANCH  20  23
HETATM   23  C10 UNL     1     -13.060   2.920   3.281  1.00  0.00     0.250 C 
BRANCH  23  24
HETATM   24  O4  UNL     1     -13.171   3.536   4.566  1.00  0.00    -0.218 OA
BRANCH  24  25
HETATM   25  N8  UNL     1     -13.213   2.833   5.721  1.00  0.00     0.005 N 
HETATM   26  O5  UNL     1     -12.199   2.486   6.326  1.00  0.00    -0.511 OA
HETATM   27  O6  UNL     1     -14.448   2.487   6.248  1.00  0.00    -0.511 OA
ENDBRANCH  24  25
ENDBRANCH  23  24
ENDBRANCH  20  23
BRANCH   1  28
HETATM   28  N1  UNL     1     -13.364  -3.678   2.013  1.00  0.00    -0.234 N 
ATOM     29  H12 UNL     1     -13.074  -4.376   2.697  1.00  0.00     0.174 HD
ATOM     30  H11 UNL     1     -13.307  -3.917   1.023  1.00  0.00     0.174 HD
ENDBRANCH   1  28
TORSDOF 5
ENDMDL
MODEL 3
REMARK VINA RESULT: -5.865551624      2.725      5.234
REMARK  5 active torsions:
REMARK  status: ('A' for Active; 'I' for Inactive)
REMARK    1  A    between atoms: N1_1  and  C1_4 
REMARK    2  A    between atoms: C9_23  and  O3_24 
REMARK    3  A    between atoms: C9_23  and  C10_26 
REMARK    4  A    between atoms: C10_26  and  O4_27 
REMARK    5  A    between atoms: O4_27  and  N8_28 
ROOT
HETATM    1  C1  UNL     1      -3.206  -5.093   3.958  1.00  0.00     0.680 A 
HETATM    2  N2  UNL     1      -3.992  -4.933   5.039  1.00  0.00    -0.168 N 
ATOM      3  H2  UNL     1      -4.768  -5.579   5.184  1.00  0.00     0.186 HD
HETATM    4  C2  UNL     1      -3.787  -3.938   5.947  1.00  0.00     0.190 A 
HETATM    5  C3  UNL     1      -2.735  -3.063   5.748  1.00  0.00     0.150 A 
HETATM    6  C4  UNL     1      -1.943  -3.233   4.649  1.00  0.00     0.290 A 
HETATM    7  O1  UNL     1      -0.983  -2.448   4.454  1.00  0.00    -0.265 OA
HETATM    8  N3  UNL     1      -2.180  -4.230   3.778  1.00  0.00    -0.154 N 
ATOM      9  H3  UNL     1      -1.575  -4.336   2.964  1.00  0.00     0.187 HD
HETATM   10  N4  UNL     1      -2.554  -2.041   6.715  1.00  0.00    -0.372 N 
ATOM     11  H4  UNL     1      -1.690  -1.503   6.662  1.00  0.00     0.160 HD
HETATM   12  C5  UNL     1      -3.464  -1.696   7.749  1.00  0.00     0.152 A 
HETATM   13  C6  UNL     1      -4.626  -2.662   7.892  1.00  0.00     0.188 A 
HETATM   14  O2  UNL     1      -4.572  -3.758   7.047  1.00  0.00    -0.324 OA
HETATM   15  C7  UNL     1      -5.510  -1.570   7.486  1.00  0.00     0.144 A 
HETATM   16  C8  UNL     1      -6.597  -1.679   6.588  1.00  0.00     0.235 C 
HETATM   17  N5  UNL     1      -7.265  -2.355   7.672  1.00  0.00    -0.122 NA
HETATM   18  N6  UNL     1      -6.649  -1.269   8.380  1.00  0.00    -0.126 NA
HETATM   19  N7  UNL     1      -7.116  -0.513   7.251  1.00  0.00    -0.122 NA
HETATM   20  C9  UNL     1      -4.447  -0.563   7.415  1.00  0.00     0.133 A 
ENDROOT
BRANCH  20  21
HETATM   21  O3  UNL     1      -4.514   0.438   8.354  1.00  0.00    -0.383 OA
ATOM     22  H3  UNL     1      -4.289   0.171   9.237  1.00  0.00     0.210 HD
ENDBRANCH  20  21
BRANCH  20  23
HETATM   23  C10 UNL     1      -4.261  -0.033   6.002  1.00  0.00     0.250 C 
BRANCH  23  24
HETATM   24  O4  UNL     1      -3.962   1.364   6.060  1.00  0.00    -0.218 OA
BRANCH  24  25
HETATM   25  N8  UNL     1      -4.492   2.268   5.204  1.00  0.00     0.005 N 
HETATM   26  O5  UNL     1      -5.203   1.946   4.252  1.00  0.00    -0.511 OA
HETATM   27  O6  UNL     1      -4.224   3.614   5.404  1.00  0.00    -0.511 OA
ENDBRANCH  24  25
ENDBRANCH  23  24
ENDBRANCH  20  23
BRANCH   1  28
HETATM   28  N1  UNL     1      -3.428  -6.050   3.115  1.00  0.00    -0.234 N 
ATOM     29  H12 UNL     1      -3.342  -7.027   3.395  1.00  0.00     0.174 HD
ATOM     30  H11 UNL     1      -3.695  -5.844   2.152  1.00  0.00     0.174 HD
ENDBRANCH   1  28
TORSDOF 5
ENDMDL
MODEL 4
REMARK VINA RESULT: -5.853683957      2.279      5.157
REMARK  5 active torsions:
REMARK  status: ('A' for Active; 'I' for Inactive)
REMARK    1  A    between atoms: N1_1  and  C1_4 
REMARK    2  A    between atoms: C9_23  and  O3_24 
REMARK    3  A    between atoms: C9_23  and  C10_26 
REMARK    4  A    between atoms: C10_26  and  O4_27 
REMARK    5  A    between atoms: O4_27  and  N8_28 
ROOT
HETATM    1  C1  UNL     1      -4.691   2.243   6.743  1.00  0.00     0.680 A 
HETATM    2  N2  UNL     1      -4.739   1.434   7.817  1.00  0.00    -0.168 N 
ATOM      3  H2  UNL     1      -4.776   1.851   8.747  1.00  0.00     0.186 HD
HETATM    4  C2  UNL     1      -4.740   0.076   7.705  1.00  0.00     0.190 A 
HETATM    5  C3  UNL     1      -4.690  -0.487   6.444  1.00  0.00     0.150 A 
HETATM    6  C4  UNL     1      -4.642   0.342   5.360  1.00  0.00     0.290 A 
HETATM    7  O1  UNL     1      -4.597  -0.153   4.207  1.00  0.00    -0.265 OA
HETATM    8  N3  UNL     1      -4.643   1.678   5.515  1.00  0.00    -0.154 N 
ATOM      9  H3  UNL     1      -4.607   2.277   4.690  1.00  0.00     0.187 HD
HETATM   10  N4  UNL     1      -4.693  -1.904   6.368  1.00  0.00    -0.372 N 
ATOM     11  H4  UNL     1      -4.824  -2.317   5.445  1.00  0.00     0.160 HD
HETATM   12  C5  UNL     1      -4.531  -2.800   7.458  1.00  0.00     0.152 A 
HETATM   13  C6  UNL     1      -4.544  -2.125   8.816  1.00  0.00     0.188 A 
HETATM   14  O2  UNL     1      -4.787  -0.762   8.780  1.00  0.00    -0.324 OA
HETATM   15  C7  UNL     1      -3.149  -2.535   8.970  1.00  0.00     0.144 A 
HETATM   16  C8  UNL     1      -2.108  -1.733   9.495  1.00  0.00     0.235 C 
HETATM   17  N5  UNL     1      -2.739  -1.967  10.771  1.00  0.00    -0.122 NA
HETATM   18  N6  UNL     1      -2.807  -3.282  10.199  1.00  0.00    -0.126 NA
HETATM   19  N7  UNL     1      -1.459  -2.979   9.805  1.00  0.00    -0.122 NA
HETATM   20  C9  UNL     1      -3.094  -3.281   7.711  1.00  0.00     0.133 A 
ENDROOT
BRANCH  20  21
HETATM   21  O3  UNL     1      -2.954  -4.642   7.833  1.00  0.00    -0.383 OA
ATOM     22  H3  UNL     1      -2.065  -4.962   7.738  1.00  0.00     0.210 HD
ENDBRANCH  20  21
BRANCH  20  23
HETATM   23  C10 UNL     1      -2.100  -2.674   6.734  1.00  0.00     0.250 C 
BRANCH  23  24
HETATM   24  O4  UNL     1      -1.931  -3.559   5.624  1.00  0.00    -0.218 OA
BRANCH  24  25
HETATM   25  N8  UNL     1      -1.442  -3.158   4.428  1.00  0.00     0.005 N 
HETATM   26  O5  UNL     1      -0.504  -3.726   3.868  1.00  0.00    -0.511 OA
HETATM   27  O6  UNL     1      -2.017  -2.062   3.804  1.00  0.00    -0.511 OA
ENDBRANCH  24  25
ENDBRANCH  23  24
ENDBRANCH  20  23
BRANCH   1  28
HETATM   28  N1  UNL     1      -4.692   3.531   6.884  1.00  0.00    -0.234 N 
ATOM     29  H12 UNL     1      -4.031   3.990   7.511  1.00  0.00     0.174 HD
ATOM     30  H11 UNL     1      -5.355   4.110   6.370  1.00  0.00     0.174 HD
ENDBRANCH   1  28
TORSDOF 5
ENDMDL
MODEL 5
REMARK VINA RESULT: -5.745397886     11.327     13.970
REMARK  5 active torsions:
REMARK  status: ('A' for Active; 'I' for Inactive)
REMARK    1  A    between atoms: N1_1  and  C1_4 
REMARK    2  A    between atoms: C9_23  and  O3_24 
REMARK    3  A    between atoms: C9_23  and  C10_26 
REMARK    4  A    between atoms: C10_26  and  O4_27 
REMARK    5  A    between atoms: O4_27  and  N8_28 
ROOT
HETATM    1  C1  UNL     1     -13.379  -2.788   2.606  1.00  0.00     0.680 A 
HETATM    2  N2  UNL     1     -14.563  -2.216   2.325  1.00  0.00    -0.168 N 
ATOM      3  H2  UNL     1     -15.115  -2.579   1.548  1.00  0.00     0.186 HD
HETATM    4  C2  UNL     1     -15.053  -1.167   3.044  1.00  0.00     0.190 A 
HETATM    5  C3  UNL     1     -14.305  -0.676   4.097  1.00  0.00     0.150 A 
HETATM    6  C4  UNL     1     -13.105  -1.263   4.375  1.00  0.00     0.290 A 
HETATM    7  O1  UNL     1     -12.412  -0.829   5.329  1.00  0.00    -0.265 OA
HETATM    8  N3  UNL     1     -12.658  -2.296   3.640  1.00  0.00    -0.154 N 
ATOM      9  H3  UNL     1     -11.757  -2.718   3.867  1.00  0.00     0.187 HD
HETATM   10  N4  UNL     1     -14.849   0.416   4.822  1.00  0.00    -0.372 N 
ATOM     11  H4  UNL     1     -14.384   0.671   5.693  1.00  0.00     0.160 HD
HETATM   12  C5  UNL     1     -15.980   1.189   4.448  1.00  0.00     0.152 A 
HETATM   13  C6  UNL     1     -16.737   0.633   3.256  1.00  0.00     0.188 A 
HETATM   14  O2  UNL     1     -16.251  -0.572   2.776  1.00  0.00    -0.324 OA
HETATM   15  C7  UNL     1     -16.346   1.833   2.519  1.00  0.00     0.144 A 
HETATM   16  C8  UNL     1     -15.898   1.868   1.178  1.00  0.00     0.235 C 
HETATM   17  N5  UNL     1     -17.278   1.621   0.840  1.00  0.00    -0.122 NA
HETATM   18  N6  UNL     1     -17.433   2.603   1.876  1.00  0.00    -0.126 NA
HETATM   19  N7  UNL     1     -16.345   3.235   1.183  1.00  0.00    -0.122 NA
HETATM   20  C9  UNL     1     -15.674   2.470   3.655  1.00  0.00     0.133 A 
ENDROOT
BRANCH  20  21
HETATM   21  O3  UNL     1     -16.276   3.605   4.140  1.00  0.00    -0.383 OA
ATOM     22  H3  UNL     1     -16.793   4.085   3.504  1.00  0.00     0.210 HD
ENDBRANCH  20  21
BRANCH  20  23
HETATM   23  C10 UNL     1     -14.186   2.653   3.404  1.00  0.00     0.250 C 
BRANCH  23  24
HETATM   24  O4  UNL     1     -13.650   3.542   4.388  1.00  0.00    -0.218 OA
BRANCH  24  25
HETATM   25  N8  UNL     1     -12.760   3.152   5.329  1.00  0.00     0.005 N 
HETATM   26  O5  UNL     1     -11.582   3.508   5.320  1.00  0.00    -0.511 OA
HETATM   27  O6  UNL     1     -13.190   2.315   6.348  1.00  0.00    -0.511 OA
ENDBRANCH  24  25
ENDBRANCH  23  24
ENDBRANCH  20  23
BRANCH   1  28
HETATM   28  N1  UNL     1     -12.942  -3.784   1.903  1.00  0.00    -0.234 N 
ATOM     29  H12 UNL     1     -13.587  -4.400   1.408  1.00  0.00     0.174 HD
ATOM     30  H11 UNL     1     -11.942  -3.971   1.829  1.00  0.00     0.174 HD
ENDBRANCH   1  28
TORSDOF 5
ENDMDL
