MODEL 1
REMARK VINA RESULT: -7.875177756      0.000      0.000
REMARK  14 active torsions:
REMARK  status: ('A' for Active; 'I' for Inactive)
REMARK    1  A    between atoms: C3_3  and  N1_4 
REMARK    2  A    between atoms: N2_8  and  C7_9 
REMARK    3  A    between atoms: C7_9  and  O1_10 
REMARK    4  A    between atoms: C7_9  and  C8_12 
REMARK    5  A    between atoms: C8_12  and  C10_14 
REMARK    6  A    between atoms: C10_14  and  C11_15 
REMARK    7  A    between atoms: C11_15  and  C12_16 
REMARK    8  A    between atoms: C14_18  and  C15_19 
REMARK    9  A    between atoms: C16_22  and  C17_23 
REMARK       I    between atoms: C17_23  and  N3_25 
REMARK   10  A    between atoms: N3_25  and  C18_27 
REMARK   11  A    between atoms: C25_34  and  O5_35 
REMARK   12  A    between atoms: N4_40  and  C29_41 
REMARK   13  A    between atoms: C29_41  and  C30_42 
REMARK   14  A    between atoms: C30_42  and  O6_43 
ROOT
HETATM    1  C1  UNL     1      -3.663 -17.494  33.220  1.00  0.00     0.013 C 
HETATM    2  C2  UNL     1      -3.796 -16.732  32.285  1.00  0.00    -0.087 C 
HETATM    3  C3  UNL     1      -3.975 -15.833  31.152  1.00  0.00     0.364 C 
ENDROOT
BRANCH   3   4
HETATM    4  N1  UNL     1      -2.716 -15.461  30.545  1.00  0.00     0.101 N 
HETATM    5  C4  UNL     1      -2.901 -14.254  29.774  1.00  0.00     0.279 C 
HETATM    6  C5  UNL     1      -2.221 -14.426  28.445  1.00  0.00     0.075 C 
HETATM    7  C6  UNL     1      -0.719 -14.594  28.567  1.00  0.00     0.068 C 
HETATM    8  N2  UNL     1      -0.314 -15.460  29.600  1.00  0.00    -0.340 N 
HETATM    9  C34 UNL     1      -0.359 -15.010  31.035  1.00  0.00     0.160 C 
HETATM   10  C35 UNL     1      -1.734 -15.212  31.583  1.00  0.00     0.293 C 
BRANCH   8  11
HETATM   11  C7  UNL     1       0.135 -16.783  29.513  1.00  0.00     0.147 C 
BRANCH  11  12
HETATM   12  O1  UNL     1      -0.380 -17.464  28.512  1.00  0.00    -0.346 OA
ATOM     13  H1  UNL     1      -0.628 -18.354  28.732  1.00  0.00     0.219 HD
ENDBRANCH  11  12
BRANCH  11  14
HETATM   14  C8  UNL     1       1.046 -17.581  30.278  1.00  0.00    -0.015 C 
HETATM   15  C9  UNL     1       0.542 -18.175  31.591  1.00  0.00     0.052 C 
BRANCH  14  16
HETATM   16  C10 UNL     1       2.293 -17.886  30.030  1.00  0.00    -0.014 C 
BRANCH  16  17
HETATM   17  C11 UNL     1       3.106 -17.917  28.820  1.00  0.00     0.061 C 
BRANCH  17  18
HETATM   18  C12 UNL     1       4.525 -17.337  29.132  1.00  0.00     0.202 C 
HETATM   19  C13 UNL     1       4.987 -18.166  30.252  1.00  0.00     0.068 C 
HETATM   20  C14 UNL     1       5.686 -17.661  31.469  1.00  0.00     0.114 C 
HETATM   21  C25 UNL     1       6.261 -18.792  29.647  1.00  0.00     0.073 C 
HETATM   22  C16 UNL     1       7.174 -17.515  31.130  1.00  0.00     0.065 C 
HETATM   23  C22 UNL     1       8.091 -18.514  31.722  1.00  0.00     0.021 C 
HETATM   24  C26 UNL     1       6.957 -17.508  29.690  1.00  0.00     0.015 C 
HETATM   25  C23 UNL     1       7.703 -19.917  31.471  1.00  0.00     0.004 C 
HETATM   26  C24 UNL     1       6.820 -19.951  30.326  1.00  0.00     0.039 C 
HETATM   27  C27 UNL     1       6.419 -16.128  29.647  1.00  0.00     0.042 C 
HETATM   28  C32 UNL     1       7.677 -17.525  28.471  1.00  0.00     0.020 C 
HETATM   29  C28 UNL     1       5.746 -15.619  28.384  1.00  0.00     0.239 C 
HETATM   30  N4  UNL     1       5.247 -16.968  27.986  1.00  0.00    -0.060 N 
HETATM   31  C31 UNL     1       6.500 -17.434  27.496  1.00  0.00     0.243 C 
HETATM   32  C33 UNL     1       8.525 -18.661  28.038  1.00  0.00     0.012 C 
BRANCH  20  33
HETATM   33  C15 UNL     1       5.426 -18.524  32.647  1.00  0.00     0.178 C 
HETATM   34  O2  UNL     1       4.704 -19.550  32.654  1.00  0.00    -0.648 OA
HETATM   35  O3  UNL     1       5.997 -18.232  33.880  1.00  0.00    -0.648 OA
ENDBRANCH  20  33
BRANCH  22  36
HETATM   36  C17 UNL     1       7.641 -16.258  31.800  1.00  0.00     0.228 C 
HETATM   37  O4  UNL     1       8.814 -15.822  31.687  1.00  0.00    -0.273 OA
HETATM   38  N3  UNL     1       6.779 -15.482  32.606  1.00  0.00    -0.352 N 
ATOM     39  H3  UNL     1       5.817 -15.799  32.722  1.00  0.00     0.163 HD
BRANCH  38  40
HETATM   40  C18 UNL     1       7.177 -14.273  33.270  1.00  0.00     0.022 C 
HETATM   41  C19 UNL     1       6.022 -13.724  34.108  1.00  0.00     0.037 C 
HETATM   42  C20 UNL     1       8.327 -14.488  34.229  1.00  0.00     0.037 C 
HETATM   43  C21 UNL     1       7.592 -13.184  32.314  1.00  0.00     0.037 C 
ENDBRANCH  38  40
ENDBRANCH  22  36
BRANCH  30  44
HETATM   44  C29 UNL     1       4.452 -16.844  26.786  1.00  0.00     0.263 C 
BRANCH  44  45
HETATM   45  C30 UNL     1       4.456 -15.577  26.033  1.00  0.00     0.192 C 
BRANCH  45  46
HETATM   46  O6  UNL     1       4.055 -15.675  24.703  1.00  0.00    -0.399 OA
ATOM     47  H6  UNL     1       4.528 -15.120  24.094  1.00  0.00     0.209 HD
ENDBRANCH  45  46
ENDBRANCH  44  45
ENDBRANCH  30  44
BRANCH  21  48
HETATM   48  O5  UNL     1       5.655 -19.384  28.581  1.00  0.00    -0.389 OA
ATOM     49  H5  UNL     1       6.157 -20.190  28.603  1.00  0.00     0.210 HD
ENDBRANCH  21  48
ENDBRANCH  17  18
ENDBRANCH  16  17
ENDBRANCH  14  16
ENDBRANCH  11  14
ENDBRANCH   8  11
ENDBRANCH   3   4
TORSDOF 14
ENDMDL
MODEL 2
REMARK VINA RESULT: -7.805329458      1.610      2.536
REMARK  14 active torsions:
REMARK  status: ('A' for Active; 'I' for Inactive)
REMARK    1  A    between atoms: C3_3  and  N1_4 
REMARK    2  A    between atoms: N2_8  and  C7_9 
REMARK    3  A    between atoms: C7_9  and  O1_10 
REMARK    4  A    between atoms: C7_9  and  C8_12 
REMARK    5  A    between atoms: C8_12  and  C10_14 
REMARK    6  A    between atoms: C10_14  and  C11_15 
REMARK    7  A    between atoms: C11_15  and  C12_16 
REMARK    8  A    between atoms: C14_18  and  C15_19 
REMARK    9  A    between atoms: C16_22  and  C17_23 
REMARK       I    between atoms: C17_23  and  N3_25 
REMARK   10  A    between atoms: N3_25  and  C18_27 
REMARK   11  A    between atoms: C25_34  and  O5_35 
REMARK   12  A    between atoms: N4_40  and  C29_41 
REMARK   13  A    between atoms: C29_41  and  C30_42 
REMARK   14  A    between atoms: C30_42  and  O6_43 
ROOT
HETATM    1  C1  UNL     1      -3.891 -13.600  31.358  1.00  0.00     0.013 C 
HETATM    2  C2  UNL     1      -2.690 -13.554  31.193  1.00  0.00    -0.087 C 
HETATM    3  C3  UNL     1      -1.250 -13.474  30.986  1.00  0.00     0.364 C 
ENDROOT
BRANCH   3   4
HETATM    4  N1  UNL     1      -0.729 -14.639  30.306  1.00  0.00     0.101 N 
HETATM    5  C4  UNL     1      -0.983 -15.810  31.112  1.00  0.00     0.279 C 
HETATM    6  C5  UNL     1       0.264 -16.647  31.148  1.00  0.00     0.075 C 
HETATM    7  C6  UNL     1       0.658 -17.180  29.784  1.00  0.00     0.068 C 
HETATM    8  N2  UNL     1       0.558 -16.239  28.742  1.00  0.00    -0.340 N 
HETATM    9  C34 UNL     1      -0.785 -15.859  28.182  1.00  0.00     0.160 C 
HETATM   10  C35 UNL     1      -1.399 -14.792  29.028  1.00  0.00     0.293 C 
BRANCH   8  11
HETATM   11  C7  UNL     1       1.578 -15.520  28.105  1.00  0.00     0.147 C 
BRANCH  11  12
HETATM   12  O1  UNL     1       1.201 -14.350  27.636  1.00  0.00    -0.346 OA
ATOM     13  H1  UNL     1       1.740 -13.623  27.925  1.00  0.00     0.219 HD
ENDBRANCH  11  12
BRANCH  11  14
HETATM   14  C8  UNL     1       2.963 -15.771  27.842  1.00  0.00    -0.015 C 
HETATM   15  C9  UNL     1       3.792 -14.633  27.252  1.00  0.00     0.052 C 
BRANCH  14  16
HETATM   16  C10 UNL     1       3.658 -16.864  28.021  1.00  0.00    -0.014 C 
BRANCH  16  17
HETATM   17  C11 UNL     1       4.887 -17.388  27.437  1.00  0.00     0.061 C 
BRANCH  17  18
HETATM   18  C12 UNL     1       6.085 -17.096  28.400  1.00  0.00     0.202 C 
HETATM   19  C13 UNL     1       5.657 -17.708  29.664  1.00  0.00     0.068 C 
HETATM   20  C14 UNL     1       5.811 -17.098  31.016  1.00  0.00     0.114 C 
HETATM   21  C25 UNL     1       6.781 -18.743  29.883  1.00  0.00     0.073 C 
HETATM   22  C16 UNL     1       7.235 -17.389  31.504  1.00  0.00     0.065 C 
HETATM   23  C22 UNL     1       7.375 -18.398  32.578  1.00  0.00     0.021 C 
HETATM   24  C26 UNL     1       7.748 -17.685  30.173  1.00  0.00     0.015 C 
HETATM   25  C23 UNL     1       6.720 -19.690  32.286  1.00  0.00     0.004 C 
HETATM   26  C24 UNL     1       6.536 -19.797  30.856  1.00  0.00     0.039 C 
HETATM   27  C27 UNL     1       7.779 -16.272  29.730  1.00  0.00     0.042 C 
HETATM   28  C32 UNL     1       8.911 -18.168  29.528  1.00  0.00     0.020 C 
HETATM   29  C28 UNL     1       7.999 -15.946  28.263  1.00  0.00     0.239 C 
HETATM   30  N4  UNL     1       7.341 -17.198  27.783  1.00  0.00    -0.060 N 
HETATM   31  C31 UNL     1       8.446 -18.048  28.074  1.00  0.00     0.243 C 
HETATM   32  C33 UNL     1       9.439 -19.541  29.712  1.00  0.00     0.012 C 
BRANCH  20  33
HETATM   33  C15 UNL     1       4.756 -17.560  31.949  1.00  0.00     0.178 C 
HETATM   34  O2  UNL     1       4.702 -17.300  33.175  1.00  0.00    -0.648 OA
HETATM   35  O3  UNL     1       3.708 -18.354  31.498  1.00  0.00    -0.648 OA
ENDBRANCH  20  33
BRANCH  22  36
HETATM   36  C17 UNL     1       7.706 -16.151  32.204  1.00  0.00     0.228 C 
HETATM   37  O4  UNL     1       8.923 -15.878  32.359  1.00  0.00    -0.273 OA
HETATM   38  N3  UNL     1       6.799 -15.208  32.736  1.00  0.00    -0.352 N 
ATOM     39  H3  UNL     1       5.801 -15.390  32.630  1.00  0.00     0.163 HD
BRANCH  38  40
HETATM   40  C18 UNL     1       7.198 -14.009  33.417  1.00  0.00     0.022 C 
HETATM   41  C19 UNL     1       5.972 -13.267  33.946  1.00  0.00     0.037 C 
HETATM   42  C20 UNL     1       8.073 -14.286  34.619  1.00  0.00     0.037 C 
HETATM   43  C21 UNL     1       7.951 -13.050  32.530  1.00  0.00     0.037 C 
ENDBRANCH  38  40
ENDBRANCH  22  36
BRANCH  30  44
HETATM   44  C29 UNL     1       7.306 -17.190  26.338  1.00  0.00     0.263 C 
BRANCH  44  45
HETATM   45  C30 UNL     1       7.877 -18.320  25.585  1.00  0.00     0.192 C 
BRANCH  45  46
HETATM   46  O6  UNL     1       7.039 -18.878  24.623  1.00  0.00    -0.399 OA
ATOM     47  H6  UNL     1       6.827 -18.310  23.892  1.00  0.00     0.209 HD
ENDBRANCH  45  46
ENDBRANCH  44  45
ENDBRANCH  30  44
BRANCH  21  48
HETATM   48  O5  UNL     1       6.603 -19.420  28.716  1.00  0.00    -0.389 OA
ATOM     49  H5  UNL     1       6.189 -20.186  29.096  1.00  0.00     0.210 HD
ENDBRANCH  21  48
ENDBRANCH  17  18
ENDBRANCH  16  17
ENDBRANCH  14  16
ENDBRANCH  11  14
ENDBRANCH   8  11
ENDBRANCH   3   4
TORSDOF 14
ENDMDL
MODEL 3
REMARK VINA RESULT: -7.655104377      1.711      2.654
REMARK  14 active torsions:
REMARK  status: ('A' for Active; 'I' for Inactive)
REMARK    1  A    between atoms: C3_3  and  N1_4 
REMARK    2  A    between atoms: N2_8  and  C7_9 
REMARK    3  A    between atoms: C7_9  and  O1_10 
REMARK    4  A    between atoms: C7_9  and  C8_12 
REMARK    5  A    between atoms: C8_12  and  C10_14 
REMARK    6  A    between atoms: C10_14  and  C11_15 
REMARK    7  A    between atoms: C11_15  and  C12_16 
REMARK    8  A    between atoms: C14_18  and  C15_19 
REMARK    9  A    between atoms: C16_22  and  C17_23 
REMARK       I    between atoms: C17_23  and  N3_25 
REMARK   10  A    between atoms: N3_25  and  C18_27 
REMARK   11  A    between atoms: C25_34  and  O5_35 
REMARK   12  A    between atoms: N4_40  and  C29_41 
REMARK   13  A    between atoms: C29_41  and  C30_42 
REMARK   14  A    between atoms: C30_42  and  O6_43 
ROOT
HETATM    1  C1  UNL     1      -3.346 -13.930  30.557  1.00  0.00     0.013 C 
HETATM    2  C2  UNL     1      -2.149 -14.035  30.733  1.00  0.00    -0.087 C 
HETATM    3  C3  UNL     1      -0.710 -14.138  30.931  1.00  0.00     0.364 C 
ENDROOT
BRANCH   3   4
HETATM    4  N1  UNL     1      -0.223 -15.483  30.717  1.00  0.00     0.101 N 
HETATM    5  C4  UNL     1      -0.975 -16.395  31.547  1.00  0.00     0.279 C 
HETATM    6  C5  UNL     1      -0.015 -17.342  32.209  1.00  0.00     0.075 C 
HETATM    7  C6  UNL     1       0.726 -18.221  31.220  1.00  0.00     0.068 C 
HETATM    8  N2  UNL     1       1.193 -17.544  30.078  1.00  0.00    -0.340 N 
HETATM    9  C34 UNL     1       0.242 -17.148  28.982  1.00  0.00     0.160 C 
HETATM   10  C35 UNL     1      -0.409 -15.848  29.326  1.00  0.00     0.293 C 
BRANCH   8  11
HETATM   11  C7  UNL     1       2.493 -17.120  29.778  1.00  0.00     0.147 C 
BRANCH  11  12
HETATM   12  O1  UNL     1       3.228 -16.842  30.834  1.00  0.00    -0.346 OA
ATOM     13  H1  UNL     1       4.053 -17.312  30.869  1.00  0.00     0.219 HD
ENDBRANCH  11  12
BRANCH  11  14
HETATM   14  C8  UNL     1       3.222 -16.916  28.562  1.00  0.00    -0.015 C 
HETATM   15  C9  UNL     1       3.174 -15.528  27.928  1.00  0.00     0.052 C 
BRANCH  14  16
HETATM   16  C10 UNL     1       3.941 -17.763  27.873  1.00  0.00    -0.014 C 
BRANCH  16  17
HETATM   17  C11 UNL     1       4.942 -18.762  28.226  1.00  0.00     0.061 C 
BRANCH  17  18
HETATM   18  C12 UNL     1       6.166 -18.057  28.901  1.00  0.00     0.202 C 
HETATM   19  C13 UNL     1       6.156 -18.601  30.264  1.00  0.00     0.068 C 
HETATM   20  C14 UNL     1       6.376 -17.812  31.510  1.00  0.00     0.114 C 
HETATM   21  C25 UNL     1       7.543 -19.277  30.318  1.00  0.00     0.073 C 
HETATM   22  C16 UNL     1       7.888 -17.666  31.714  1.00  0.00     0.065 C 
HETATM   23  C22 UNL     1       8.491 -18.467  32.804  1.00  0.00     0.021 C 
HETATM   24  C26 UNL     1       8.216 -17.979  30.330  1.00  0.00     0.015 C 
HETATM   25  C23 UNL     1       8.177 -19.909  32.741  1.00  0.00     0.004 C 
HETATM   26  C24 UNL     1       7.776 -20.232  31.390  1.00  0.00     0.039 C 
HETATM   27  C27 UNL     1       7.776 -16.671  29.795  1.00  0.00     0.042 C 
HETATM   28  C32 UNL     1       9.332 -18.221  29.495  1.00  0.00     0.020 C 
HETATM   29  C28 UNL     1       7.631 -16.479  28.294  1.00  0.00     0.239 C 
HETATM   30  N4  UNL     1       7.269 -17.907  28.047  1.00  0.00    -0.060 N 
HETATM   31  C31 UNL     1       8.599 -18.402  28.162  1.00  0.00     0.243 C 
HETATM   32  C33 UNL     1      10.243 -19.379  29.660  1.00  0.00     0.012 C 
BRANCH  20  33
HETATM   33  C15 UNL     1       5.674 -18.414  32.670  1.00  0.00     0.178 C 
HETATM   34  O2  UNL     1       5.011 -19.479  32.648  1.00  0.00    -0.648 OA
HETATM   35  O3  UNL     1       5.710 -17.801  33.917  1.00  0.00    -0.648 OA
ENDBRANCH  20  33
BRANCH  22  36
HETATM   36  C17 UNL     1       8.116 -16.272  32.217  1.00  0.00     0.228 C 
HETATM   37  O4  UNL     1       9.228 -15.692  32.131  1.00  0.00    -0.273 OA
HETATM   38  N3  UNL     1       7.084 -15.523  32.822  1.00  0.00    -0.352 N 
ATOM     39  H3  UNL     1       6.165 -15.956  32.909  1.00  0.00     0.163 HD
BRANCH  38  40
HETATM   40  C18 UNL     1       7.251 -14.187  33.320  1.00  0.00     0.022 C 
HETATM   41  C19 UNL     1       5.968 -13.711  34.000  1.00  0.00     0.037 C 
HETATM   42  C20 UNL     1       8.341 -14.088  34.364  1.00  0.00     0.037 C 
HETATM   43  C21 UNL     1       7.579 -13.190  32.238  1.00  0.00     0.037 C 
ENDBRANCH  38  40
ENDBRANCH  22  36
BRANCH  30  44
HETATM   44  C29 UNL     1       6.975 -18.083  26.643  1.00  0.00     0.263 C 
BRANCH  44  45
HETATM   45  C30 UNL     1       8.062 -18.403  25.701  1.00  0.00     0.192 C 
BRANCH  45  46
HETATM   46  O6  UNL     1       7.912 -19.599  25.004  1.00  0.00    -0.399 OA
ATOM     47  H6  UNL     1       7.478 -19.526  24.162  1.00  0.00     0.209 HD
ENDBRANCH  45  46
ENDBRANCH  44  45
ENDBRANCH  30  44
BRANCH  21  48
HETATM   48  O5  UNL     1       7.353 -20.114  29.262  1.00  0.00    -0.389 OA
ATOM     49  H5  UNL     1       7.011 -19.461  28.664  1.00  0.00     0.210 HD
ENDBRANCH  21  48
ENDBRANCH  17  18
ENDBRANCH  16  17
ENDBRANCH  14  16
ENDBRANCH  11  14
ENDBRANCH   8  11
ENDBRANCH   3   4
TORSDOF 14
ENDMDL
MODEL 4
REMARK VINA RESULT: -7.514075214      1.605      2.189
REMARK  14 active torsions:
REMARK  status: ('A' for Active; 'I' for Inactive)
REMARK    1  A    between atoms: C3_3  and  N1_4 
REMARK    2  A    between atoms: N2_8  and  C7_9 
REMARK    3  A    between atoms: C7_9  and  O1_10 
REMARK    4  A    between atoms: C7_9  and  C8_12 
REMARK    5  A    between atoms: C8_12  and  C10_14 
REMARK    6  A    between atoms: C10_14  and  C11_15 
REMARK    7  A    between atoms: C11_15  and  C12_16 
REMARK    8  A    between atoms: C14_18  and  C15_19 
REMARK    9  A    between atoms: C16_22  and  C17_23 
REMARK       I    between atoms: C17_23  and  N3_25 
REMARK   10  A    between atoms: N3_25  and  C18_27 
REMARK   11  A    between atoms: C25_34  and  O5_35 
REMARK   12  A    between atoms: N4_40  and  C29_41 
REMARK   13  A    between atoms: C29_41  and  C30_42 
REMARK   14  A    between atoms: C30_42  and  O6_43 
ROOT
HETATM    1  C1  UNL     1      -3.322 -18.737  33.545  1.00  0.00     0.013 C 
HETATM    2  C2  UNL     1      -3.707 -17.759  32.938  1.00  0.00    -0.087 C 
HETATM    3  C3  UNL     1      -4.186 -16.601  32.195  1.00  0.00     0.364 C 
ENDROOT
BRANCH   3   4
HETATM    4  N1  UNL     1      -3.106 -15.732  31.782  1.00  0.00     0.101 N 
HETATM    5  C4  UNL     1      -3.600 -14.379  31.680  1.00  0.00     0.279 C 
HETATM    6  C5  UNL     1      -3.091 -13.778  30.401  1.00  0.00     0.075 C 
HETATM    7  C6  UNL     1      -1.580 -13.654  30.364  1.00  0.00     0.068 C 
HETATM    8  N2  UNL     1      -0.895 -14.784  30.849  1.00  0.00    -0.340 N 
HETATM    9  C34 UNL     1      -0.816 -15.054  32.327  1.00  0.00     0.160 C 
HETATM   10  C35 UNL     1      -2.046 -15.774  32.772  1.00  0.00     0.293 C 
BRANCH   8  11
HETATM   11  C7  UNL     1      -0.242 -15.792  30.129  1.00  0.00     0.147 C 
BRANCH  11  12
HETATM   12  O1  UNL     1      -0.090 -16.918  30.793  1.00  0.00    -0.346 OA
ATOM     13  H1  UNL     1       0.505 -16.859  31.530  1.00  0.00     0.219 HD
ENDBRANCH  11  12
BRANCH  11  14
HETATM   14  C8  UNL     1       0.309 -15.881  28.810  1.00  0.00    -0.015 C 
HETATM   15  C9  UNL     1      -0.649 -15.752  27.629  1.00  0.00     0.052 C 
BRANCH  14  16
HETATM   16  C10 UNL     1       1.547 -16.076  28.438  1.00  0.00    -0.014 C 
BRANCH  16  17
HETATM   17  C11 UNL     1       2.481 -15.331  27.602  1.00  0.00     0.061 C 
BRANCH  17  18
HETATM   18  C12 UNL     1       3.945 -15.616  28.076  1.00  0.00     0.202 C 
HETATM   19  C13 UNL     1       3.807 -16.843  28.870  1.00  0.00     0.068 C 
HETATM   20  C14 UNL     1       4.469 -17.103  30.180  1.00  0.00     0.114 C 
HETATM   21  C25 UNL     1       4.732 -17.801  28.090  1.00  0.00     0.073 C 
HETATM   22  C16 UNL     1       5.893 -17.596  29.899  1.00  0.00     0.065 C 
HETATM   23  C22 UNL     1       6.156 -19.033  30.135  1.00  0.00     0.021 C 
HETATM   24  C26 UNL     1       5.920 -17.078  28.538  1.00  0.00     0.015 C 
HETATM   25  C23 UNL     1       5.215 -19.943  29.451  1.00  0.00     0.004 C 
HETATM   26  C24 UNL     1       4.596 -19.225  28.360  1.00  0.00     0.039 C 
HETATM   27  C27 UNL     1       6.081 -15.663  28.942  1.00  0.00     0.042 C 
HETATM   28  C32 UNL     1       6.726 -17.092  27.374  1.00  0.00     0.020 C 
HETATM   29  C28 UNL     1       5.909 -14.559  27.912  1.00  0.00     0.239 C 
HETATM   30  N4  UNL     1       4.917 -15.330  27.105  1.00  0.00    -0.060 N 
HETATM   31  C31 UNL     1       5.879 -16.177  26.485  1.00  0.00     0.243 C 
HETATM   32  C33 UNL     1       7.019 -18.319  26.596  1.00  0.00     0.012 C 
BRANCH  20  33
HETATM   33  C15 UNL     1       3.674 -18.030  31.022  1.00  0.00     0.178 C 
HETATM   34  O2  UNL     1       4.004 -18.449  32.157  1.00  0.00    -0.648 OA
HETATM   35  O3  UNL     1       2.450 -18.517  30.579  1.00  0.00    -0.648 OA
ENDBRANCH  20  33
BRANCH  22  36
HETATM   36  C17 UNL     1       6.774 -16.964  30.933  1.00  0.00     0.228 C 
HETATM   37  O4  UNL     1       8.029 -17.018  30.883  1.00  0.00    -0.273 OA
HETATM   38  N3  UNL     1       6.239 -16.263  32.036  1.00  0.00    -0.352 N 
ATOM     39  H3  UNL     1       5.225 -16.193  32.114  1.00  0.00     0.163 HD
BRANCH  38  40
HETATM   40  C18 UNL     1       7.039 -15.643  33.055  1.00  0.00     0.022 C 
HETATM   41  C19 UNL     1       6.146 -15.082  34.161  1.00  0.00     0.037 C 
HETATM   42  C20 UNL     1       7.981 -16.616  33.728  1.00  0.00     0.037 C 
HETATM   43  C21 UNL     1       7.875 -14.502  32.534  1.00  0.00     0.037 C 
ENDBRANCH  38  40
ENDBRANCH  22  36
BRANCH  30  44
HETATM   44  C29 UNL     1       4.454 -14.506  26.012  1.00  0.00     0.263 C 
BRANCH  44  45
HETATM   45  C30 UNL     1       5.429 -13.807  25.156  1.00  0.00     0.192 C 
BRANCH  45  46
HETATM   46  O6  UNL     1       5.232 -13.956  23.786  1.00  0.00    -0.399 OA
ATOM     47  H6  UNL     1       6.025 -14.005  23.265  1.00  0.00     0.209 HD
ENDBRANCH  45  46
ENDBRANCH  44  45
ENDBRANCH  30  44
BRANCH  21  48
HETATM   48  O5  UNL     1       4.089 -17.702  26.894  1.00  0.00    -0.389 OA
ATOM     49  H5  UNL     1       4.381 -18.535  26.543  1.00  0.00     0.210 HD
ENDBRANCH  21  48
ENDBRANCH  17  18
ENDBRANCH  16  17
ENDBRANCH  14  16
ENDBRANCH  11  14
ENDBRANCH   8  11
ENDBRANCH   3   4
TORSDOF 14
ENDMDL
MODEL 5
REMARK VINA RESULT: -7.502430784      0.761      1.215
REMARK  14 active torsions:
REMARK  status: ('A' for Active; 'I' for Inactive)
REMARK    1  A    between atoms: C3_3  and  N1_4 
REMARK    2  A    between atoms: N2_8  and  C7_9 
REMARK    3  A    between atoms: C7_9  and  O1_10 
REMARK    4  A    between atoms: C7_9  and  C8_12 
REMARK    5  A    between atoms: C8_12  and  C10_14 
REMARK    6  A    between atoms: C10_14  and  C11_15 
REMARK    7  A    between atoms: C11_15  and  C12_16 
REMARK    8  A    between atoms: C14_18  and  C15_19 
REMARK    9  A    between atoms: C16_22  and  C17_23 
REMARK       I    between atoms: C17_23  and  N3_25 
REMARK   10  A    between atoms: N3_25  and  C18_27 
REMARK   11  A    between atoms: C25_34  and  O5_35 
REMARK   12  A    between atoms: N4_40  and  C29_41 
REMARK   13  A    between atoms: C29_41  and  C30_42 
REMARK   14  A    between atoms: C30_42  and  O6_43 
ROOT
HETATM    1  C1  UNL     1      -3.592 -17.610  33.227  1.00  0.00     0.013 C 
HETATM    2  C2  UNL     1      -3.750 -16.812  32.326  1.00  0.00    -0.087 C 
HETATM    3  C3  UNL     1      -3.959 -15.868  31.236  1.00  0.00     0.364 C 
ENDROOT
BRANCH   3   4
HETATM    4  N1  UNL     1      -2.718 -15.482  30.601  1.00  0.00     0.101 N 
HETATM    5  C4  UNL     1      -2.927 -14.262  29.858  1.00  0.00     0.279 C 
HETATM    6  C5  UNL     1      -2.283 -14.407  28.508  1.00  0.00     0.075 C 
HETATM    7  C6  UNL     1      -0.778 -14.574  28.586  1.00  0.00     0.068 C 
HETATM    8  N2  UNL     1      -0.343 -15.457  29.591  1.00  0.00    -0.340 N 
HETATM    9  C34 UNL     1      -0.349 -15.034  31.035  1.00  0.00     0.160 C 
HETATM   10  C35 UNL     1      -1.708 -15.250  31.616  1.00  0.00     0.293 C 
BRANCH   8  11
HETATM   11  C7  UNL     1       0.106 -16.778  29.468  1.00  0.00     0.147 C 
BRANCH  11  12
HETATM   12  O1  UNL     1      -0.411 -17.431  28.449  1.00  0.00    -0.346 OA
ATOM     13  H1  UNL     1      -0.347 -18.376  28.520  1.00  0.00     0.219 HD
ENDBRANCH  11  12
BRANCH  11  14
HETATM   14  C8  UNL     1       1.019 -17.596  30.209  1.00  0.00    -0.015 C 
HETATM   15  C9  UNL     1       0.538 -18.173  31.538  1.00  0.00     0.052 C 
BRANCH  14  16
HETATM   16  C10 UNL     1       2.250 -17.932  29.927  1.00  0.00    -0.014 C 
BRANCH  16  17
HETATM   17  C11 UNL     1       3.066 -17.865  28.720  1.00  0.00     0.061 C 
BRANCH  17  18
HETATM   18  C12 UNL     1       4.476 -17.287  29.077  1.00  0.00     0.202 C 
HETATM   19  C13 UNL     1       4.914 -18.137  30.191  1.00  0.00     0.068 C 
HETATM   20  C14 UNL     1       5.584 -17.655  31.433  1.00  0.00     0.114 C 
HETATM   21  C25 UNL     1       6.205 -18.746  29.602  1.00  0.00     0.073 C 
HETATM   22  C16 UNL     1       7.078 -17.496  31.131  1.00  0.00     0.065 C 
HETATM   23  C22 UNL     1       7.986 -18.505  31.724  1.00  0.00     0.021 C 
HETATM   24  C26 UNL     1       6.894 -17.460  29.687  1.00  0.00     0.015 C 
HETATM   25  C23 UNL     1       7.609 -19.904  31.435  1.00  0.00     0.004 C 
HETATM   26  C24 UNL     1       6.753 -19.916  30.270  1.00  0.00     0.039 C 
HETATM   27  C27 UNL     1       6.352 -16.082  29.661  1.00  0.00     0.042 C 
HETATM   28  C32 UNL     1       7.642 -17.450  28.486  1.00  0.00     0.020 C 
HETATM   29  C28 UNL     1       5.706 -15.549  28.393  1.00  0.00     0.239 C 
HETATM   30  N4  UNL     1       5.222 -16.892  27.956  1.00  0.00    -0.060 N 
HETATM   31  C31 UNL     1       6.488 -17.343  27.486  1.00  0.00     0.243 C 
HETATM   32  C33 UNL     1       8.505 -18.574  28.048  1.00  0.00     0.012 C 
BRANCH  20  33
HETATM   33  C15 UNL     1       5.301 -18.543  32.587  1.00  0.00     0.178 C 
HETATM   34  O2  UNL     1       5.841 -18.465  33.717  1.00  0.00    -0.648 OA
HETATM   35  O3  UNL     1       4.371 -19.571  32.479  1.00  0.00    -0.648 OA
ENDBRANCH  20  33
BRANCH  22  36
HETATM   36  C17 UNL     1       7.524 -16.252  31.838  1.00  0.00     0.228 C 
HETATM   37  O4  UNL     1       6.719 -15.446  32.370  1.00  0.00    -0.273 OA
HETATM   38  N3  UNL     1       8.890 -15.910  31.948  1.00  0.00    -0.352 N 
ATOM     39  H3  UNL     1       9.577 -16.538  31.531  1.00  0.00     0.163 HD
BRANCH  38  40
HETATM   40  C18 UNL     1       9.368 -14.730  32.611  1.00  0.00     0.022 C 
HETATM   41  C19 UNL     1      10.896 -14.712  32.624  1.00  0.00     0.037 C 
HETATM   42  C20 UNL     1       8.939 -13.457  31.916  1.00  0.00     0.037 C 
HETATM   43  C21 UNL     1       8.909 -14.632  34.043  1.00  0.00     0.037 C 
ENDBRANCH  38  40
ENDBRANCH  22  36
BRANCH  30  44
HETATM   44  C29 UNL     1       4.454 -16.745  26.741  1.00  0.00     0.263 C 
BRANCH  44  45
HETATM   45  C30 UNL     1       4.589 -15.520  25.932  1.00  0.00     0.192 C 
BRANCH  45  46
HETATM   46  O6  UNL     1       4.013 -15.578  24.666  1.00  0.00    -0.399 OA
ATOM     47  H6  UNL     1       4.288 -14.897  24.064  1.00  0.00     0.209 HD
ENDBRANCH  45  46
ENDBRANCH  44  45
ENDBRANCH  30  44
BRANCH  21  48
HETATM   48  O5  UNL     1       5.626 -19.318  28.511  1.00  0.00    -0.389 OA
ATOM     49  H5  UNL     1       4.756 -19.406  28.880  1.00  0.00     0.210 HD
ENDBRANCH  21  48
ENDBRANCH  17  18
ENDBRANCH  16  17
ENDBRANCH  14  16
ENDBRANCH  11  14
ENDBRANCH   8  11
ENDBRANCH   3   4
TORSDOF 14
ENDMDL
