MODEL 1
REMARK VINA RESULT: -5.955698930      0.000      0.000
REMARK  0 active torsions:
REMARK  status: ('A' for Active; 'I' for Inactive)
REMARK       I    between atoms: C2_3  and  N2_4 
ROOT
HETATM    1  C1  UNL     1     -14.973  -6.689  25.392  1.00  0.00     0.175 C 
HETATM    2  N1  UNL     1     -13.974  -5.910  26.054  1.00  0.00    -0.195 N 
HETATM    3  C2  UNL     1     -12.918  -5.515  25.183  1.00  0.00     0.682 C 
HETATM    4  N2  UNL     1     -13.016  -6.212  23.940  1.00  0.00    -0.167 N 
ATOM      5  H2  UNL     1     -13.882  -6.245  23.401  1.00  0.00     0.186 HD
HETATM    6  C3  UNL     1     -11.943  -6.793  23.547  1.00  0.00     0.368 C 
HETATM    7  O1  UNL     1     -11.016  -7.511  23.141  1.00  0.00    -0.283 OA
HETATM    8  N3  UNL     1     -11.902  -4.691  25.231  1.00  0.00    -0.225 N 
ATOM      9  H3  UNL     1     -11.371  -4.711  24.360  1.00  0.00     0.177 HD
HETATM   10  C4  UNL     1     -11.309  -3.741  26.191  1.00  0.00     0.143 C 
HETATM   11  C5  UNL     1     -12.258  -3.761  27.350  1.00  0.00     0.012 C 
HETATM   12  C6  UNL     1     -11.974  -4.989  28.016  1.00  0.00    -0.003 C 
HETATM   13  C7  UNL     1     -11.612  -4.208  29.268  1.00  0.00     0.010 C 
HETATM   14  C8  UNL     1     -12.221  -3.034  28.597  1.00  0.00    -0.008 C 
HETATM   15  C9  UNL     1     -13.417  -2.443  29.218  1.00  0.00     0.010 C 
HETATM   16  C10 UNL     1     -14.711  -2.942  29.524  1.00  0.00    -0.005 C 
HETATM   17  C11 UNL     1     -15.055  -4.267  30.100  1.00  0.00     0.011 C 
HETATM   18  C12 UNL     1     -15.991  -4.655  28.975  1.00  0.00     0.000 C 
HETATM   19  C13 UNL     1     -15.504  -5.770  28.073  1.00  0.00     0.058 C 
HETATM   20  C14 UNL     1     -14.217  -5.673  27.452  1.00  0.00     0.007 C 
HETATM   21  C15 UNL     1     -12.983  -6.068  28.195  1.00  0.00     0.058 C 
HETATM   22  C16 UNL     1     -15.894  -3.212  28.634  1.00  0.00    -0.033 C 
HETATM   23  C17 UNL     1     -17.185  -2.595  29.278  1.00  0.00     0.010 C 
HETATM   24  C18 UNL     1     -18.193  -2.494  28.206  1.00  0.00     0.001 C 
HETATM   25  C19 UNL     1     -17.322  -1.891  27.120  1.00  0.00     0.001 C 
HETATM   26  C20 UNL     1     -16.048  -2.673  27.309  1.00  0.00     0.010 C 
ENDROOT
TORSDOF 0
ENDMDL
MODEL 2
REMARK VINA RESULT: -5.885096581      1.911      4.627
REMARK  0 active torsions:
REMARK  status: ('A' for Active; 'I' for Inactive)
REMARK       I    between atoms: C2_3  and  N2_4 
ROOT
HETATM    1  C1  UNL     1     -12.287  -5.941  24.497  1.00  0.00     0.175 C 
HETATM    2  N1  UNL     1     -13.239  -5.304  25.351  1.00  0.00    -0.195 N 
HETATM    3  C2  UNL     1     -14.560  -5.807  25.174  1.00  0.00     0.682 C 
HETATM    4  N2  UNL     1     -14.621  -6.642  24.016  1.00  0.00    -0.167 N 
ATOM      5  H2  UNL     1     -13.962  -7.405  23.861  1.00  0.00     0.186 HD
HETATM    6  C3  UNL     1     -15.559  -6.367  23.187  1.00  0.00     0.368 C 
HETATM    7  O1  UNL     1     -16.327  -6.106  22.248  1.00  0.00    -0.283 OA
HETATM    8  N3  UNL     1     -15.710  -5.703  25.793  1.00  0.00    -0.225 N 
ATOM      9  H3  UNL     1     -16.433  -6.243  25.318  1.00  0.00     0.177 HD
HETATM   10  C4  UNL     1     -16.252  -5.023  26.984  1.00  0.00     0.143 C 
HETATM   11  C5  UNL     1     -15.054  -4.376  27.607  1.00  0.00     0.012 C 
HETATM   12  C6  UNL     1     -14.795  -3.244  26.778  1.00  0.00    -0.003 C 
HETATM   13  C7  UNL     1     -14.999  -2.337  27.980  1.00  0.00     0.010 C 
HETATM   14  C8  UNL     1     -14.944  -3.571  28.801  1.00  0.00    -0.008 C 
HETATM   15  C9  UNL     1     -13.834  -3.700  29.757  1.00  0.00     0.010 C 
HETATM   16  C10 UNL     1     -12.421  -3.726  29.621  1.00  0.00    -0.005 C 
HETATM   17  C11 UNL     1     -11.582  -2.865  28.749  1.00  0.00     0.011 C 
HETATM   18  C12 UNL     1     -10.922  -4.022  28.027  1.00  0.00     0.000 C 
HETATM   19  C13 UNL     1     -11.313  -4.195  26.574  1.00  0.00     0.058 C 
HETATM   20  C14 UNL     1     -12.696  -4.290  26.215  1.00  0.00     0.007 C 
HETATM   21  C15 UNL     1     -13.520  -3.057  26.034  1.00  0.00     0.058 C 
HETATM   22  C16 UNL     1     -11.501  -4.816  29.141  1.00  0.00    -0.033 C 
HETATM   23  C17 UNL     1     -10.303  -4.971  30.143  1.00  0.00     0.010 C 
HETATM   24  C18 UNL     1      -9.697  -6.290  29.887  1.00  0.00     0.001 C 
HETATM   25  C19 UNL     1     -10.964  -7.123  29.824  1.00  0.00     0.001 C 
HETATM   26  C20 UNL     1     -11.871  -6.204  29.049  1.00  0.00     0.010 C 
ENDROOT
TORSDOF 0
ENDMDL
MODEL 3
REMARK VINA RESULT: -5.748599593      3.544      5.991
REMARK  0 active torsions:
REMARK  status: ('A' for Active; 'I' for Inactive)
REMARK       I    between atoms: C2_3  and  N2_4 
ROOT
HETATM    1  C1  UNL     1     -15.020  -2.276  31.368  1.00  0.00     0.175 C 
HETATM    2  N1  UNL     1     -14.322  -2.892  30.283  1.00  0.00    -0.195 N 
HETATM    3  C2  UNL     1     -14.477  -2.183  29.057  1.00  0.00     0.682 C 
HETATM    4  N2  UNL     1     -15.490  -1.183  29.188  1.00  0.00    -0.167 N 
ATOM      5  H2  UNL     1     -15.492  -0.507  29.952  1.00  0.00     0.186 HD
HETATM    6  C3  UNL     1     -16.395  -1.192  28.280  1.00  0.00     0.368 C 
HETATM    7  O1  UNL     1     -17.397  -1.196  27.548  1.00  0.00    -0.283 OA
HETATM    8  N3  UNL     1     -13.936  -2.213  27.864  1.00  0.00    -0.225 N 
ATOM      9  H3  UNL     1     -14.352  -1.509  27.255  1.00  0.00     0.177 HD
HETATM   10  C4  UNL     1     -12.894  -2.980  27.156  1.00  0.00     0.143 C 
HETATM   11  C5  UNL     1     -12.328  -3.879  28.212  1.00  0.00     0.012 C 
HETATM   12  C6  UNL     1     -13.314  -4.897  28.371  1.00  0.00    -0.003 C 
HETATM   13  C7  UNL     1     -12.282  -5.937  27.966  1.00  0.00     0.010 C 
HETATM   14  C8  UNL     1     -11.273  -4.862  28.131  1.00  0.00    -0.008 C 
HETATM   15  C9  UNL     1     -10.259  -5.039  29.181  1.00  0.00     0.010 C 
HETATM   16  C10 UNL     1     -10.324  -5.196  30.591  1.00  0.00    -0.005 C 
HETATM   17  C11 UNL     1     -11.283  -6.027  31.363  1.00  0.00     0.011 C 
HETATM   18  C12 UNL     1     -11.781  -4.881  32.221  1.00  0.00     0.000 C 
HETATM   19  C13 UNL     1     -13.205  -4.436  31.955  1.00  0.00     0.058 C 
HETATM   20  C14 UNL     1     -13.607  -4.092  30.625  1.00  0.00     0.007 C 
HETATM   21  C15 UNL     1     -14.018  -5.151  29.657  1.00  0.00     0.058 C 
HETATM   22  C16 UNL     1     -10.583  -4.189  31.680  1.00  0.00    -0.033 C 
HETATM   23  C17 UNL     1      -9.515  -4.361  32.817  1.00  0.00     0.010 C 
HETATM   24  C18 UNL     1      -9.530  -3.119  33.611  1.00  0.00     0.001 C 
HETATM   25  C19 UNL     1      -9.518  -2.113  32.475  1.00  0.00     0.001 C 
HETATM   26  C20 UNL     1     -10.470  -2.765  31.507  1.00  0.00     0.010 C 
ENDROOT
TORSDOF 0
ENDMDL
MODEL 4
REMARK VINA RESULT: -5.456068147      4.652      6.627
REMARK  0 active torsions:
REMARK  status: ('A' for Active; 'I' for Inactive)
REMARK       I    between atoms: C2_3  and  N2_4 
ROOT
HETATM    1  C1  UNL     1      -7.989  -6.745  29.152  1.00  0.00     0.175 C 
HETATM    2  N1  UNL     1      -9.173  -7.187  29.820  1.00  0.00    -0.195 N 
HETATM    3  C2  UNL     1      -9.009  -8.454  30.450  1.00  0.00     0.682 C 
HETATM    4  N2  UNL     1      -7.781  -9.056  30.037  1.00  0.00    -0.167 N 
ATOM      5  H2  UNL     1      -6.890  -8.560  30.077  1.00  0.00     0.186 HD
HETATM    6  C3  UNL     1      -7.873 -10.263  29.614  1.00  0.00     0.368 C 
HETATM    7  O1  UNL     1      -7.859 -11.369  29.052  1.00  0.00    -0.283 OA
HETATM    8  N3  UNL     1      -9.683  -9.191  31.297  1.00  0.00    -0.225 N 
ATOM      9  H3  UNL     1      -9.193 -10.064  31.495  1.00  0.00     0.177 HD
HETATM   10  C4  UNL     1     -10.952  -9.114  32.044  1.00  0.00     0.143 C 
HETATM   11  C5  UNL     1     -11.477  -7.749  31.722  1.00  0.00     0.012 C 
HETATM   12  C6  UNL     1     -11.984  -7.871  30.395  1.00  0.00    -0.003 C 
HETATM   13  C7  UNL     1     -13.362  -7.483  30.902  1.00  0.00     0.010 C 
HETATM   14  C8  UNL     1     -12.684  -7.087  32.160  1.00  0.00    -0.008 C 
HETATM   15  C9  UNL     1     -12.728  -5.666  32.537  1.00  0.00     0.010 C 
HETATM   16  C10 UNL     1     -12.276  -4.472  31.916  1.00  0.00    -0.005 C 
HETATM   17  C11 UNL     1     -12.383  -4.105  30.481  1.00  0.00     0.011 C 
HETATM   18  C12 UNL     1     -10.896  -3.874  30.298  1.00  0.00     0.000 C 
HETATM   19  C13 UNL     1     -10.178  -4.890  29.435  1.00  0.00     0.058 C 
HETATM   20  C14 UNL     1     -10.292  -6.286  29.733  1.00  0.00     0.007 C 
HETATM   21  C15 UNL     1     -11.466  -7.073  29.251  1.00  0.00     0.058 C 
HETATM   22  C16 UNL     1     -10.891  -3.899  31.784  1.00  0.00    -0.033 C 
HETATM   23  C17 UNL     1     -10.913  -2.379  32.177  1.00  0.00     0.010 C 
HETATM   24  C18 UNL     1      -9.519  -1.988  32.455  1.00  0.00     0.001 C 
HETATM   25  C19 UNL     1      -9.114  -3.163  33.326  1.00  0.00     0.001 C 
HETATM   26  C20 UNL     1      -9.769  -4.302  32.591  1.00  0.00     0.010 C 
ENDROOT
TORSDOF 0
ENDMDL
MODEL 5
REMARK VINA RESULT: -5.418606579      2.937      5.249
REMARK  0 active torsions:
REMARK  status: ('A' for Active; 'I' for Inactive)
REMARK       I    between atoms: C2_3  and  N2_4 
ROOT
HETATM    1  C1  UNL     1     -16.028  -4.131  29.799  1.00  0.00     0.175 C 
HETATM    2  N1  UNL     1     -15.160  -3.920  28.683  1.00  0.00    -0.195 N 
HETATM    3  C2  UNL     1     -15.572  -2.829  27.865  1.00  0.00     0.682 C 
HETATM    4  N2  UNL     1     -16.880  -2.394  28.242  1.00  0.00    -0.167 N 
ATOM      5  H2  UNL     1     -17.124  -2.180  29.209  1.00  0.00     0.186 HD
HETATM    6  C3  UNL     1     -17.724  -2.289  27.283  1.00  0.00     0.368 C 
HETATM    7  O1  UNL     1     -18.660  -2.292  26.469  1.00  0.00    -0.283 OA
HETATM    8  N3  UNL     1     -15.065  -2.137  26.876  1.00  0.00    -0.225 N 
ATOM      9  H3  UNL     1     -15.714  -1.415  26.563  1.00  0.00     0.177 HD
HETATM   10  C4  UNL     1     -13.820  -2.108  26.087  1.00  0.00     0.143 C 
HETATM   11  C5  UNL     1     -12.956  -3.144  26.739  1.00  0.00     0.012 C 
HETATM   12  C6  UNL     1     -13.499  -4.385  26.292  1.00  0.00    -0.003 C 
HETATM   13  C7  UNL     1     -12.161  -4.723  25.656  1.00  0.00     0.010 C 
HETATM   14  C8  UNL     1     -11.615  -3.575  26.420  1.00  0.00    -0.008 C 
HETATM   15  C9  UNL     1     -10.600  -3.862  27.445  1.00  0.00     0.010 C 
HETATM   16  C10 UNL     1     -10.594  -4.651  28.625  1.00  0.00    -0.005 C 
HETATM   17  C11 UNL     1     -11.176  -6.006  28.808  1.00  0.00     0.011 C 
HETATM   18  C12 UNL     1     -12.054  -5.608  29.977  1.00  0.00     0.000 C 
HETATM   19  C13 UNL     1     -13.543  -5.589  29.701  1.00  0.00     0.058 C 
HETATM   20  C14 UNL     1     -14.052  -4.834  28.595  1.00  0.00     0.007 C 
HETATM   21  C15 UNL     1     -14.053  -5.409  27.218  1.00  0.00     0.058 C 
HETATM   22  C16 UNL     1     -11.196  -4.395  29.980  1.00  0.00    -0.033 C 
HETATM   23  C17 UNL     1     -10.132  -4.700  31.093  1.00  0.00     0.010 C 
HETATM   24  C18 UNL     1     -10.597  -4.035  32.324  1.00  0.00     0.001 C 
HETATM   25  C19 UNL     1     -10.961  -2.684  31.738  1.00  0.00     0.001 C 
HETATM   26  C20 UNL     1     -11.615  -3.100  30.446  1.00  0.00     0.010 C 
ENDROOT
TORSDOF 0
ENDMDL
