MODEL 1
REMARK VINA RESULT: -8.373919744      0.000      0.000
REMARK  7 active torsions:
REMARK  status: ('A' for Active; 'I' for Inactive)
REMARK    1  A    between atoms: C2_2  and  C3_3 
REMARK    2  A    between atoms: C3_3  and  C4_4 
REMARK    3  A    between atoms: O1_6  and  C6_7 
REMARK    4  A    between atoms: C6_7  and  C16_22 
REMARK    5  A    between atoms: C8_11  and  C16_22 
REMARK    6  A    between atoms: C12_16  and  O3_17 
REMARK    7  A    between atoms: C16_22  and  O4_23 
ROOT
HETATM    1  C4  UNL     1     -14.970  12.000 -17.710  1.00  0.00     0.001 A 
HETATM    2  C5  UNL     1     -13.729  11.451 -17.048  1.00  0.00     0.019 C 
HETATM    3  O1  UNL     1     -15.240  13.384 -18.066  1.00  0.00     0.000 OA
HETATM    4  C16 UNL     1     -14.373  13.163 -17.892  1.00  0.00     0.097 A 
HETATM    5  C17 UNL     1     -15.514  12.502 -17.081  1.00  0.00    -0.002 A 
HETATM    6  C18 UNL     1     -16.969  12.844 -17.386  1.00  0.00     0.019 C 
HETATM    7  C19 UNL     1     -15.347  12.540 -15.604  1.00  0.00     0.019 C 
ENDROOT
BRANCH   1   8
HETATM    8  C3  UNL     1     -15.716  10.948 -18.489  1.00  0.00     0.013 C 
BRANCH   8   9
HETATM    9  C2  UNL     1     -15.493   9.485 -18.210  1.00  0.00    -0.004 C 
HETATM   10  C1  UNL     1     -16.717   8.713 -18.596  1.00  0.00     0.005 C 
ENDBRANCH   8   9
ENDBRANCH   1   8
BRANCH   3  11
HETATM   11  C6  UNL     1     -14.905  14.685 -18.166  1.00  0.00     0.129 A 
HETATM   12  N1  UNL     1     -14.112  15.533 -17.691  1.00  0.00    -0.389 N 
HETATM   13  C7  UNL     1     -14.740  16.209 -18.519  1.00  0.00     0.102 A 
ATOM     14  H1  UNL     1     -13.364  15.619 -17.003  1.00  0.00     0.155 HD
HETATM   15  C8  UNL     1     -15.752  14.878 -19.034  1.00  0.00     0.005 A 
HETATM   16  C13 UNL     1     -14.694  17.564 -18.861  1.00  0.00     0.013 C 
HETATM   17  C9  UNL     1     -15.876  15.543 -19.387  1.00  0.00     0.147 A 
HETATM   18  C12 UNL     1     -14.293  17.834 -20.310  1.00  0.00     0.157 C 
HETATM   19  C14 UNL     1     -15.930  18.240 -18.382  1.00  0.00     0.020 C 
HETATM   20  C15 UNL     1     -13.524  18.091 -17.974  1.00  0.00     0.020 C 
HETATM   21  C10 UNL     1     -15.379  17.218 -21.188  1.00  0.00     0.148 C 
HETATM   22  O2  UNL     1     -16.265  16.596 -20.137  1.00  0.00    -0.362 OA
HETATM   23  C11 UNL     1     -14.875  16.207 -22.063  1.00  0.00     0.042 C 
BRANCH  18  24
HETATM   24  O3  UNL     1     -13.061  17.328 -20.516  1.00  0.00    -0.392 OA
ATOM     25  H3  UNL     1     -12.353  17.906 -20.257  1.00  0.00     0.210 HD
ENDBRANCH  18  24
ENDBRANCH   3  11
BRANCH   4  26
HETATM   26  O4  UNL     1     -13.615  12.714 -18.892  1.00  0.00    -0.384 OA
ATOM     27  H4  UNL     1     -14.252  12.059 -19.152  1.00  0.00     0.211 HD
ENDBRANCH   4  26
TORSDOF 7
ENDMDL
MODEL 2
REMARK VINA RESULT: -8.256202150      1.576      5.969
REMARK  7 active torsions:
REMARK  status: ('A' for Active; 'I' for Inactive)
REMARK    1  A    between atoms: C2_2  and  C3_3 
REMARK    2  A    between atoms: C3_3  and  C4_4 
REMARK    3  A    between atoms: O1_6  and  C6_7 
REMARK    4  A    between atoms: C6_7  and  C16_22 
REMARK    5  A    between atoms: C8_11  and  C16_22 
REMARK    6  A    between atoms: C12_16  and  O3_17 
REMARK    7  A    between atoms: C16_22  and  O4_23 
ROOT
HETATM    1  C4  UNL     1     -14.817  17.131 -19.839  1.00  0.00     0.001 A 
HETATM    2  C5  UNL     1     -15.600  17.143 -21.129  1.00  0.00     0.019 C 
HETATM    3  O1  UNL     1     -14.818  16.097 -18.816  1.00  0.00     0.000 OA
HETATM    4  C16 UNL     1     -15.147  15.870 -19.636  1.00  0.00     0.097 A 
HETATM    5  C17 UNL     1     -15.393  17.292 -19.073  1.00  0.00    -0.002 A 
HETATM    6  C18 UNL     1     -14.820  17.689 -17.717  1.00  0.00     0.019 C 
HETATM    7  C19 UNL     1     -16.806  17.755 -19.114  1.00  0.00     0.019 C 
ENDROOT
BRANCH   1   8
HETATM    8  C3  UNL     1     -13.595  18.012 -19.903  1.00  0.00     0.013 C 
BRANCH   8   9
HETATM    9  C2  UNL     1     -13.070  18.500 -21.227  1.00  0.00    -0.004 C 
HETATM   10  C1  UNL     1     -11.853  17.711 -21.600  1.00  0.00     0.005 C 
ENDBRANCH   8   9
ENDBRANCH   1   8
BRANCH   3  11
HETATM   11  C6  UNL     1     -15.193  14.904 -18.316  1.00  0.00     0.129 A 
HETATM   12  N1  UNL     1     -16.120  14.061 -18.381  1.00  0.00    -0.389 N 
HETATM   13  C7  UNL     1     -15.343  13.523 -17.579  1.00  0.00     0.102 A 
ATOM     14  H1  UNL     1     -17.017  13.905 -18.839  1.00  0.00     0.155 HD
HETATM   15  C8  UNL     1     -14.175  14.824 -17.634  1.00  0.00     0.005 A 
HETATM   16  C13 UNL     1     -15.416  12.333 -16.847  1.00  0.00     0.013 C 
HETATM   17  C9  UNL     1     -13.994  14.237 -17.181  1.00  0.00     0.147 A 
HETATM   18  C12 UNL     1     -14.321  11.322 -17.179  1.00  0.00     0.157 C 
HETATM   19  C14 UNL     1     -15.609  12.648 -15.405  1.00  0.00     0.020 C 
HETATM   20  C15 UNL     1     -16.756  11.715 -17.353  1.00  0.00     0.020 C 
HETATM   21  C10 UNL     1     -12.994  11.969 -16.792  1.00  0.00     0.148 C 
HETATM   22  O2  UNL     1     -13.471  13.326 -16.334  1.00  0.00    -0.362 OA
HETATM   23  C11 UNL     1     -12.105  12.112 -17.901  1.00  0.00     0.042 C 
BRANCH  18  24
HETATM   24  O3  UNL     1     -14.419  10.995 -18.483  1.00  0.00    -0.392 OA
ATOM     25  H3  UNL     1     -15.310  10.889 -18.793  1.00  0.00     0.210 HD
ENDBRANCH  18  24
ENDBRANCH   3  11
BRANCH   4  26
HETATM   26  O4  UNL     1     -14.304  15.411 -20.558  1.00  0.00    -0.384 OA
ATOM     27  H4  UNL     1     -13.959  16.275 -20.752  1.00  0.00     0.211 HD
ENDBRANCH   4  26
TORSDOF 7
ENDMDL
MODEL 3
REMARK VINA RESULT: -8.055467982      1.891      2.955
REMARK  7 active torsions:
REMARK  status: ('A' for Active; 'I' for Inactive)
REMARK    1  A    between atoms: C2_2  and  C3_3 
REMARK    2  A    between atoms: C3_3  and  C4_4 
REMARK    3  A    between atoms: O1_6  and  C6_7 
REMARK    4  A    between atoms: C6_7  and  C16_22 
REMARK    5  A    between atoms: C8_11  and  C16_22 
REMARK    6  A    between atoms: C12_16  and  O3_17 
REMARK    7  A    between atoms: C16_22  and  O4_23 
ROOT
HETATM    1  C4  UNL     1     -14.728  12.496 -17.362  1.00  0.00     0.001 A 
HETATM    2  C5  UNL     1     -14.877  12.876 -15.909  1.00  0.00     0.019 C 
HETATM    3  O1  UNL     1     -15.315  13.164 -18.513  1.00  0.00     0.000 OA
HETATM    4  C16 UNL     1     -15.294  13.630 -17.729  1.00  0.00     0.097 A 
HETATM    5  C17 UNL     1     -15.544  12.102 -17.710  1.00  0.00    -0.002 A 
HETATM    6  C18 UNL     1     -15.551  11.310 -19.014  1.00  0.00     0.019 C 
HETATM    7  C19 UNL     1     -16.721  11.661 -16.915  1.00  0.00     0.019 C 
ENDROOT
BRANCH   1   8
HETATM    8  C3  UNL     1     -13.480  11.690 -17.617  1.00  0.00     0.013 C 
BRANCH   8   9
HETATM    9  C2  UNL     1     -12.290  11.808 -16.702  1.00  0.00    -0.004 C 
HETATM   10  C1  UNL     1     -11.307  12.775 -17.288  1.00  0.00     0.005 C 
ENDBRANCH   8   9
ENDBRANCH   1   8
BRANCH   3  11
HETATM   11  C6  UNL     1     -16.037  14.141 -19.094  1.00  0.00     0.129 A 
HETATM   12  N1  UNL     1     -16.987  14.928 -18.863  1.00  0.00    -0.389 N 
HETATM   13  C7  UNL     1     -16.678  15.236 -20.024  1.00  0.00     0.102 A 
ATOM     14  H1  UNL     1     -17.647  15.178 -18.128  1.00  0.00     0.155 HD
HETATM   15  C8  UNL     1     -15.392  14.055 -20.134  1.00  0.00     0.005 A 
HETATM   16  C13 UNL     1     -17.216  16.152 -20.933  1.00  0.00     0.013 C 
HETATM   17  C9  UNL     1     -15.496  14.489 -20.754  1.00  0.00     0.147 A 
HETATM   18  C12 UNL     1     -16.251  17.258 -21.357  1.00  0.00     0.157 C 
HETATM   19  C14 UNL     1     -17.903  15.418 -22.030  1.00  0.00     0.020 C 
HETATM   20  C15 UNL     1     -18.333  16.840 -20.088  1.00  0.00     0.020 C 
HETATM   21  C10 UNL     1     -15.096  16.578 -22.085  1.00  0.00     0.148 C 
HETATM   22  O2  UNL     1     -15.494  15.129 -21.942  1.00  0.00    -0.362 OA
HETATM   23  C11 UNL     1     -13.835  16.803 -21.453  1.00  0.00     0.042 C 
BRANCH  18  24
HETATM   24  O3  UNL     1     -15.884  17.952 -20.261  1.00  0.00    -0.392 OA
ATOM     25  H3  UNL     1     -16.589  18.108 -19.644  1.00  0.00     0.210 HD
ENDBRANCH  18  24
ENDBRANCH   3  11
BRANCH   4  26
HETATM   26  O4  UNL     1     -14.216  14.359 -17.448  1.00  0.00    -0.384 OA
ATOM     27  H4  UNL     1     -13.848  13.695 -16.878  1.00  0.00     0.211 HD
ENDBRANCH   4  26
TORSDOF 7
ENDMDL
MODEL 4
REMARK VINA RESULT: -7.728014727      1.584      1.987
REMARK  7 active torsions:
REMARK  status: ('A' for Active; 'I' for Inactive)
REMARK    1  A    between atoms: C2_2  and  C3_3 
REMARK    2  A    between atoms: C3_3  and  C4_4 
REMARK    3  A    between atoms: O1_6  and  C6_7 
REMARK    4  A    between atoms: C6_7  and  C16_22 
REMARK    5  A    between atoms: C8_11  and  C16_22 
REMARK    6  A    between atoms: C12_16  and  O3_17 
REMARK    7  A    between atoms: C16_22  and  O4_23 
ROOT
HETATM    1  C4  UNL     1     -14.539  11.900 -17.540  1.00  0.00     0.001 A 
HETATM    2  C5  UNL     1     -13.030  11.941 -17.537  1.00  0.00     0.019 C 
HETATM    3  O1  UNL     1     -15.449  12.977 -17.896  1.00  0.00     0.000 OA
HETATM    4  C16 UNL     1     -14.581  13.063 -18.162  1.00  0.00     0.097 A 
HETATM    5  C17 UNL     1     -14.908  12.407 -16.798  1.00  0.00    -0.002 A 
HETATM    6  C18 UNL     1     -16.359  12.232 -16.360  1.00  0.00     0.019 C 
HETATM    7  C19 UNL     1     -14.154  12.948 -15.636  1.00  0.00     0.019 C 
ENDROOT
BRANCH   1   8
HETATM    8  C3  UNL     1     -15.073  10.497 -17.672  1.00  0.00     0.013 C 
BRANCH   8   9
HETATM    9  C2  UNL     1     -15.912  10.104 -18.859  1.00  0.00    -0.004 C 
HETATM   10  C1  UNL     1     -16.869   9.025 -18.455  1.00  0.00     0.005 C 
ENDBRANCH   8   9
ENDBRANCH   1   8
BRANCH   3  11
HETATM   11  C6  UNL     1     -15.723  14.221 -18.334  1.00  0.00     0.129 A 
HETATM   12  N1  UNL     1     -15.207  15.359 -18.442  1.00  0.00    -0.389 N 
HETATM   13  C7  UNL     1     -16.329  15.542 -18.935  1.00  0.00     0.102 A 
ATOM     14  H1  UNL     1     -14.341  15.858 -18.237  1.00  0.00     0.155 HD
HETATM   15  C8  UNL     1     -16.853  13.892 -18.684  1.00  0.00     0.005 A 
HETATM   16  C13 UNL     1     -16.962  16.681 -19.445  1.00  0.00     0.013 C 
HETATM   17  C9  UNL     1     -17.361  14.353 -19.020  1.00  0.00     0.147 A 
HETATM   18  C12 UNL     1     -17.334  16.585 -20.924  1.00  0.00     0.157 C 
HETATM   19  C14 UNL     1     -18.046  17.103 -18.518  1.00  0.00     0.020 C 
HETATM   20  C15 UNL     1     -15.839  17.758 -19.341  1.00  0.00     0.020 C 
HETATM   21  C10 UNL     1     -18.348  15.452 -21.049  1.00  0.00     0.148 C 
HETATM   22  O2  UNL     1     -18.401  14.969 -19.620  1.00  0.00    -0.362 OA
HETATM   23  C11 UNL     1     -17.898  14.399 -21.903  1.00  0.00     0.042 C 
BRANCH  18  24
HETATM   24  O3  UNL     1     -16.207  16.401 -21.639  1.00  0.00    -0.392 OA
ATOM     25  H3  UNL     1     -15.803  17.204 -21.945  1.00  0.00     0.210 HD
ENDBRANCH  18  24
ENDBRANCH   3  11
BRANCH   4  26
HETATM   26  O4  UNL     1     -14.217  12.546 -19.334  1.00  0.00    -0.384 OA
ATOM     27  H4  UNL     1     -14.471  11.665 -19.086  1.00  0.00     0.211 HD
ENDBRANCH   4  26
TORSDOF 7
ENDMDL
MODEL 5
REMARK VINA RESULT: -7.715047625      1.455      2.263
REMARK  7 active torsions:
REMARK  status: ('A' for Active; 'I' for Inactive)
REMARK    1  A    between atoms: C2_2  and  C3_3 
REMARK    2  A    between atoms: C3_3  and  C4_4 
REMARK    3  A    between atoms: O1_6  and  C6_7 
REMARK    4  A    between atoms: C6_7  and  C16_22 
REMARK    5  A    between atoms: C8_11  and  C16_22 
REMARK    6  A    between atoms: C12_16  and  O3_17 
REMARK    7  A    between atoms: C16_22  and  O4_23 
ROOT
HETATM    1  C4  UNL     1     -15.650  12.875 -18.042  1.00  0.00     0.001 A 
HETATM    2  C5  UNL     1     -16.016  12.815 -16.579  1.00  0.00     0.019 C 
HETATM    3  O1  UNL     1     -15.565  14.059 -18.882  1.00  0.00     0.000 OA
HETATM    4  C16 UNL     1     -15.565  14.190 -17.979  1.00  0.00     0.097 A 
HETATM    5  C17 UNL     1     -16.427  13.060 -18.595  1.00  0.00    -0.002 A 
HETATM    6  C18 UNL     1     -16.407  12.815 -20.100  1.00  0.00     0.019 C 
HETATM    7  C19 UNL     1     -17.848  13.034 -18.157  1.00  0.00     0.019 C 
ENDROOT
BRANCH   1   8
HETATM    8  C3  UNL     1     -14.836  11.683 -18.477  1.00  0.00     0.013 C 
BRANCH   8   9
HETATM    9  C2  UNL     1     -14.950  10.370 -17.749  1.00  0.00    -0.004 C 
HETATM   10  C1  UNL     1     -15.992   9.522 -18.413  1.00  0.00     0.005 C 
ENDBRANCH   8   9
ENDBRANCH   1   8
BRANCH   3  11
HETATM   11  C6  UNL     1     -15.623  15.388 -19.092  1.00  0.00     0.129 A 
HETATM   12  N1  UNL     1     -16.255  16.411 -18.733  1.00  0.00    -0.389 N 
HETATM   13  C7  UNL     1     -15.436  16.887 -19.533  1.00  0.00     0.102 A 
ATOM     14  H1  UNL     1     -17.020  16.695 -18.121  1.00  0.00     0.155 HD
HETATM   15  C8  UNL     1     -14.697  15.343 -19.896  1.00  0.00     0.005 A 
HETATM   16  C13 UNL     1     -15.231  18.183 -20.015  1.00  0.00     0.013 C 
HETATM   17  C9  UNL     1     -14.398  15.946 -20.257  1.00  0.00     0.147 A 
HETATM   18  C12 UNL     1     -13.862  18.771 -19.676  1.00  0.00     0.157 C 
HETATM   19  C14 UNL     1     -15.645  18.253 -21.443  1.00  0.00     0.020 C 
HETATM   20  C15 UNL     1     -16.278  19.008 -19.205  1.00  0.00     0.020 C 
HETATM   21  C10 UNL     1     -12.824  17.897 -20.375  1.00  0.00     0.148 C 
HETATM   22  O2  UNL     1     -13.716  16.848 -20.993  1.00  0.00    -0.362 OA
HETATM   23  C11 UNL     1     -11.912  17.285 -19.460  1.00  0.00     0.042 C 
BRANCH  18  24
HETATM   24  O3  UNL     1     -13.735  18.819 -18.336  1.00  0.00    -0.392 OA
ATOM     25  H3  UNL     1     -14.016  19.638 -17.946  1.00  0.00     0.210 HD
ENDBRANCH  18  24
ENDBRANCH   3  11
BRANCH   4  26
HETATM   26  O4  UNL     1     -14.403  14.171 -17.330  1.00  0.00    -0.384 OA
ATOM     27  H4  UNL     1     -14.780  13.770 -16.556  1.00  0.00     0.211 HD
ENDBRANCH   4  26
TORSDOF 7
ENDMDL
