MODEL 1
REMARK VINA RESULT: -7.452163280      0.000      0.000
REMARK  9 active torsions:
REMARK  status: ('A' for Active; 'I' for Inactive)
REMARK    1  A    between atoms: C19_22  and  O4_24 
REMARK    2  A    between atoms: C21_26  and  O5_27 
REMARK    3  A    between atoms: C22_29  and  O6_30 
REMARK    4  A    between atoms: O6_30  and  C23_31 
REMARK    5  A    between atoms: C24_33  and  C25_34 
REMARK    6  A    between atoms: C25_34  and  O8_35 
REMARK    7  A    between atoms: C26_37  and  O9_38 
REMARK    8  A    between atoms: C27_40  and  O10_41 
REMARK    9  A    between atoms: C28_43  and  O11_44 
ROOT
HETATM    1  C1  UNL     1      -7.720  -2.828   9.765  1.00  0.00     0.011 C 
HETATM    2  C2  UNL     1      -8.303  -3.124   8.349  1.00  0.00    -0.007 C 
HETATM    3  C3  UNL     1      -7.331  -2.432   7.481  1.00  0.00     0.010 C 
HETATM    4  C4  UNL     1      -7.175  -2.755   6.023  1.00  0.00     0.075 C 
HETATM    5  C5  UNL     1      -8.170  -3.780   5.643  1.00  0.00     0.232 C 
HETATM    6  O1  UNL     1      -7.955  -4.618   4.511  1.00  0.00    -0.197 OA
HETATM    7  O2  UNL     1      -8.562  -5.723   4.626  1.00  0.00    -0.229 OA
HETATM    8  C6  UNL     1      -9.441  -6.264   5.377  1.00  0.00     0.202 C 
HETATM    9  C7  UNL     1      -9.465  -7.723   4.835  1.00  0.00     0.038 C 
HETATM   10  C8  UNL     1      -8.140  -8.140   4.303  1.00  0.00     0.003 C 
HETATM   11  C9  UNL     1      -6.940  -7.999   5.127  1.00  0.00     0.004 C 
HETATM   12  C10 UNL     1      -6.987  -8.535   6.493  1.00  0.00     0.037 C 
HETATM   13  C11 UNL     1      -7.488  -7.576   7.577  1.00  0.00    -0.049 C 
HETATM   14  C12 UNL     1      -6.719  -6.362   7.771  1.00  0.00     0.011 C 
HETATM   15  C13 UNL     1      -7.253  -5.028   7.478  1.00  0.00     0.157 C 
HETATM   16  O3  UNL     1      -7.773  -4.731   6.391  1.00  0.00    -0.340 OA
HETATM   17  C14 UNL     1      -8.489  -4.599   8.305  1.00  0.00     0.055 C 
HETATM   18  C15 UNL     1      -9.748  -5.130   7.682  1.00  0.00    -0.027 C 
HETATM   19  C16 UNL     1     -10.808  -4.224   7.187  1.00  0.00    -0.057 C 
HETATM   20  C17 UNL     1     -11.681  -3.636   8.321  1.00  0.00     0.048 C 
HETATM   21  C18 UNL     1     -10.587  -3.176   6.217  1.00  0.00     0.023 C 
HETATM   22  C19 UNL     1      -9.427  -3.147   5.305  1.00  0.00     0.131 C 
HETATM   23  C20 UNL     1      -9.256  -1.619   5.000  1.00  0.00     0.056 C 
HETATM   24  C21 UNL     1      -9.624  -6.394   6.828  1.00  0.00     0.141 C 
HETATM   25  C22 UNL     1      -8.972  -7.464   7.616  1.00  0.00     0.195 C 
ENDROOT
BRANCH  25  26
HETATM   26  O6  UNL     1      -9.327  -7.258   8.943  1.00  0.00    -0.345 OA
BRANCH  26  27
HETATM   27  C23 UNL     1      -9.396  -8.363   9.745  1.00  0.00     0.292 C 
HETATM   28  O7  UNL     1      -9.819  -7.841  10.959  1.00  0.00    -0.348 OA
HETATM   29  C24 UNL     1     -10.823  -8.458  11.610  1.00  0.00     0.179 C 
HETATM   30  C26 UNL     1     -11.981  -8.599  10.605  1.00  0.00     0.180 C 
HETATM   31  C27 UNL     1     -11.523  -9.743   9.730  1.00  0.00     0.183 C 
HETATM   32  C28 UNL     1     -10.107  -9.552   9.243  1.00  0.00     0.204 C 
BRANCH  29  33
HETATM   33  C25 UNL     1     -11.357  -7.471  12.661  1.00  0.00     0.198 C 
BRANCH  33  34
HETATM   34  O8  UNL     1     -12.078  -6.452  12.042  1.00  0.00    -0.398 OA
ATOM     35  H8  UNL     1     -11.964  -5.636  12.513  1.00  0.00     0.209 HD
ENDBRANCH  33  34
ENDBRANCH  29  33
BRANCH  30  36
HETATM   36  O9  UNL     1     -13.090  -8.992  11.310  1.00  0.00    -0.390 OA
ATOM     37  H9  UNL     1     -13.822  -9.003  10.704  1.00  0.00     0.210 HD
ENDBRANCH  30  36
BRANCH  31  38
HETATM   38  O10 UNL     1     -12.407  -9.928   8.662  1.00  0.00    -0.390 OA
ATOM     39  H10 UNL     1     -12.681 -10.836   8.611  1.00  0.00     0.210 HD
ENDBRANCH  31  38
BRANCH  32  40
HETATM   40  O11 UNL     1      -9.451 -10.740   9.662  1.00  0.00    -0.388 OA
ATOM     41  H11 UNL     1      -9.787 -11.492   9.187  1.00  0.00     0.210 HD
ENDBRANCH  32  40
ENDBRANCH  26  27
ENDBRANCH  25  26
BRANCH  24  42
HETATM   42  O5  UNL     1     -10.978  -6.909   6.945  1.00  0.00    -0.379 OA
ATOM     43  H5  UNL     1     -11.391  -6.294   7.539  1.00  0.00     0.211 HD
ENDBRANCH  24  42
BRANCH  22  44
HETATM   44  O4  UNL     1      -9.879  -3.402   3.953  1.00  0.00    -0.380 OA
ATOM     45  H4  UNL     1      -9.188  -3.641   3.348  1.00  0.00     0.211 HD
ENDBRANCH  22  44
TORSDOF 9
ENDMDL
MODEL 2
REMARK VINA RESULT: -7.287915489      1.374      2.383
REMARK  9 active torsions:
REMARK  status: ('A' for Active; 'I' for Inactive)
REMARK    1  A    between atoms: C19_22  and  O4_24 
REMARK    2  A    between atoms: C21_26  and  O5_27 
REMARK    3  A    between atoms: C22_29  and  O6_30 
REMARK    4  A    between atoms: O6_30  and  C23_31 
REMARK    5  A    between atoms: C24_33  and  C25_34 
REMARK    6  A    between atoms: C25_34  and  O8_35 
REMARK    7  A    between atoms: C26_37  and  O9_38 
REMARK    8  A    between atoms: C27_40  and  O10_41 
REMARK    9  A    between atoms: C28_43  and  O11_44 
ROOT
HETATM    1  C1  UNL     1      -8.852  -2.346  10.378  1.00  0.00     0.011 C 
HETATM    2  C2  UNL     1      -9.024  -2.792   8.893  1.00  0.00    -0.007 C 
HETATM    3  C3  UNL     1      -7.681  -2.516   8.346  1.00  0.00     0.010 C 
HETATM    4  C4  UNL     1      -7.174  -3.154   7.086  1.00  0.00     0.075 C 
HETATM    5  C5  UNL     1      -8.241  -3.998   6.505  1.00  0.00     0.232 C 
HETATM    6  O1  UNL     1      -7.920  -5.075   5.629  1.00  0.00    -0.197 OA
HETATM    7  O2  UNL     1      -8.807  -5.976   5.654  1.00  0.00    -0.229 OA
HETATM    8  C6  UNL     1      -9.989  -6.152   6.107  1.00  0.00     0.202 C 
HETATM    9  C7  UNL     1     -10.237  -7.651   5.769  1.00  0.00     0.038 C 
HETATM   10  C8  UNL     1      -8.977  -8.442   5.790  1.00  0.00     0.003 C 
HETATM   11  C9  UNL     1      -8.102  -8.397   6.960  1.00  0.00     0.004 C 
HETATM   12  C10 UNL     1      -8.713  -8.621   8.276  1.00  0.00     0.037 C 
HETATM   13  C11 UNL     1      -9.246  -7.377   8.992  1.00  0.00    -0.049 C 
HETATM   14  C12 UNL     1      -8.277  -6.342   9.298  1.00  0.00     0.011 C 
HETATM   15  C13 UNL     1      -8.312  -5.013   8.680  1.00  0.00     0.157 C 
HETATM   16  O3  UNL     1      -8.368  -4.839   7.452  1.00  0.00    -0.340 OA
HETATM   17  C14 UNL     1      -9.579  -4.170   8.962  1.00  0.00     0.055 C 
HETATM   18  C15 UNL     1     -10.676  -4.534   8.004  1.00  0.00    -0.027 C 
HETATM   19  C16 UNL     1     -11.243  -3.542   7.064  1.00  0.00    -0.057 C 
HETATM   20  C17 UNL     1     -12.232  -2.562   7.741  1.00  0.00     0.048 C 
HETATM   21  C18 UNL     1     -10.458  -2.785   6.117  1.00  0.00     0.023 C 
HETATM   22  C19 UNL     1      -9.110  -3.192   5.674  1.00  0.00     0.131 C 
HETATM   23  C20 UNL     1      -8.445  -1.831   5.269  1.00  0.00     0.056 C 
HETATM   24  C21 UNL     1     -10.640  -5.942   7.405  1.00  0.00     0.141 C 
HETATM   25  C22 UNL     1     -10.581  -6.943   8.494  1.00  0.00     0.195 C 
ENDROOT
BRANCH  25  26
HETATM   26  O6  UNL     1     -11.260  -6.401   9.576  1.00  0.00    -0.345 OA
BRANCH  26  27
HETATM   27  C23 UNL     1     -12.240  -7.168  10.141  1.00  0.00     0.292 C 
HETATM   28  O7  UNL     1     -12.777  -7.840   9.051  1.00  0.00    -0.348 OA
HETATM   29  C24 UNL     1     -12.980  -9.168   9.151  1.00  0.00     0.179 C 
HETATM   30  C26 UNL     1     -11.647  -9.785   9.614  1.00  0.00     0.180 C 
HETATM   31  C27 UNL     1     -11.614  -9.437  11.084  1.00  0.00     0.183 C 
HETATM   32  C28 UNL     1     -11.905  -7.976  11.326  1.00  0.00     0.204 C 
BRANCH  29  33
HETATM   33  C25 UNL     1     -13.165  -9.706   7.723  1.00  0.00     0.198 C 
BRANCH  33  34
HETATM   34  O8  UNL     1     -13.243  -8.651   6.816  1.00  0.00    -0.398 OA
ATOM     35  H8  UNL     1     -12.818  -8.887   6.000  1.00  0.00     0.209 HD
ENDBRANCH  33  34
ENDBRANCH  29  33
BRANCH  30  36
HETATM   36  O9  UNL     1     -11.757 -11.146   9.479  1.00  0.00    -0.390 OA
ATOM     37  H9  UNL     1     -12.525 -11.418   9.966  1.00  0.00     0.210 HD
ENDBRANCH  30  36
BRANCH  31  38
HETATM   38  O10 UNL     1     -10.391  -9.812  11.649  1.00  0.00    -0.390 OA
ATOM     39  H10 UNL     1     -10.515 -10.103  12.545  1.00  0.00     0.210 HD
ENDBRANCH  31  38
BRANCH  32  40
HETATM   40  O11 UNL     1     -12.994  -8.003  12.237  1.00  0.00    -0.388 OA
ATOM     41  H11 UNL     1     -12.681  -8.097  13.130  1.00  0.00     0.210 HD
ENDBRANCH  32  40
ENDBRANCH  26  27
ENDBRANCH  25  26
BRANCH  24  42
HETATM   42  O5  UNL     1     -12.050  -6.119   7.099  1.00  0.00    -0.379 OA
ATOM     43  H5  UNL     1     -12.129  -7.060   6.991  1.00  0.00     0.211 HD
ENDBRANCH  24  42
BRANCH  22  44
HETATM   44  O4  UNL     1      -9.171  -3.614   4.290  1.00  0.00    -0.380 OA
ATOM     45  H4  UNL     1      -9.369  -2.916   3.677  1.00  0.00     0.211 HD
ENDBRANCH  22  44
TORSDOF 9
ENDMDL
MODEL 3
REMARK VINA RESULT: -7.286233136      2.471      4.639
REMARK  9 active torsions:
REMARK  status: ('A' for Active; 'I' for Inactive)
REMARK    1  A    between atoms: C19_22  and  O4_24 
REMARK    2  A    between atoms: C21_26  and  O5_27 
REMARK    3  A    between atoms: C22_29  and  O6_30 
REMARK    4  A    between atoms: O6_30  and  C23_31 
REMARK    5  A    between atoms: C24_33  and  C25_34 
REMARK    6  A    between atoms: C25_34  and  O8_35 
REMARK    7  A    between atoms: C26_37  and  O9_38 
REMARK    8  A    between atoms: C27_40  and  O10_41 
REMARK    9  A    between atoms: C28_43  and  O11_44 
ROOT
HETATM    1  C1  UNL     1      -7.352  -2.207   5.584  1.00  0.00     0.011 C 
HETATM    2  C2  UNL     1      -8.587  -2.834   6.302  1.00  0.00    -0.007 C 
HETATM    3  C3  UNL     1      -9.698  -2.090   5.678  1.00  0.00     0.010 C 
HETATM    4  C4  UNL     1     -11.113  -2.590   5.688  1.00  0.00     0.075 C 
HETATM    5  C5  UNL     1     -11.177  -3.851   6.458  1.00  0.00     0.232 C 
HETATM    6  O1  UNL     1     -12.229  -4.786   6.236  1.00  0.00    -0.197 OA
HETATM    7  O2  UNL     1     -11.877  -5.965   6.534  1.00  0.00    -0.229 OA
HETATM    8  C6  UNL     1     -10.914  -6.561   7.124  1.00  0.00     0.202 C 
HETATM    9  C7  UNL     1     -11.275  -8.057   6.887  1.00  0.00     0.038 C 
HETATM   10  C8  UNL     1     -12.005  -8.255   5.605  1.00  0.00     0.003 C 
HETATM   11  C9  UNL     1     -11.449  -7.736   4.356  1.00  0.00     0.004 C 
HETATM   12  C10 UNL     1     -10.049  -8.054   4.051  1.00  0.00     0.037 C 
HETATM   13  C11 UNL     1      -9.002  -7.071   4.583  1.00  0.00    -0.049 C 
HETATM   14  C12 UNL     1      -9.097  -5.705   4.105  1.00  0.00     0.011 C 
HETATM   15  C13 UNL     1      -9.427  -4.578   4.983  1.00  0.00     0.157 C 
HETATM   16  O3  UNL     1     -10.419  -4.569   5.729  1.00  0.00    -0.340 OA
HETATM   17  C14 UNL     1      -8.430  -4.304   6.134  1.00  0.00     0.055 C 
HETATM   18  C15 UNL     1      -8.735  -5.181   7.314  1.00  0.00    -0.027 C 
HETATM   19  C16 UNL     1      -9.113  -4.611   8.626  1.00  0.00    -0.057 C 
HETATM   20  C17 UNL     1      -7.903  -4.058   9.418  1.00  0.00     0.048 C 
HETATM   21  C18 UNL     1     -10.217  -3.700   8.823  1.00  0.00     0.023 C 
HETATM   22  C19 UNL     1     -11.334  -3.562   7.868  1.00  0.00     0.131 C 
HETATM   23  C20 UNL     1     -11.834  -2.098   8.118  1.00  0.00     0.056 C 
HETATM   24  C21 UNL     1      -9.450  -6.504   7.032  1.00  0.00     0.141 C 
HETATM   25  C22 UNL     1      -8.689  -7.276   6.024  1.00  0.00     0.195 C 
ENDROOT
BRANCH  25  26
HETATM   26  O6  UNL     1      -7.350  -6.952   6.197  1.00  0.00    -0.345 OA
BRANCH  26  27
HETATM   27  C23 UNL     1      -6.435  -7.931   5.930  1.00  0.00     0.292 C 
HETATM   28  O7  UNL     1      -5.317  -7.515   6.639  1.00  0.00    -0.348 OA
HETATM   29  C24 UNL     1      -4.667  -8.416   7.401  1.00  0.00     0.179 C 
HETATM   30  C26 UNL     1      -5.723  -9.068   8.313  1.00  0.00     0.180 C 
HETATM   31  C27 UNL     1      -6.432 -10.016   7.372  1.00  0.00     0.183 C 
HETATM   32  C28 UNL     1      -6.844  -9.337   6.089  1.00  0.00     0.204 C 
BRANCH  29  33
HETATM   33  C25 UNL     1      -3.771  -7.628   8.371  1.00  0.00     0.198 C 
BRANCH  33  34
HETATM   34  O8  UNL     1      -2.580  -8.316   8.594  1.00  0.00    -0.398 OA
ATOM     35  H8  UNL     1      -2.497  -9.037   7.982  1.00  0.00     0.209 HD
ENDBRANCH  33  34
ENDBRANCH  29  33
BRANCH  30  36
HETATM   36  O9  UNL     1      -5.052  -9.798   9.261  1.00  0.00    -0.390 OA
ATOM     37  H9  UNL     1      -4.211  -9.378   9.400  1.00  0.00     0.210 HD
ENDBRANCH  30  36
BRANCH  31  38
HETATM   38  O10 UNL     1      -7.527 -10.609   8.008  1.00  0.00    -0.390 OA
ATOM     39  H10 UNL     1      -7.465 -10.497   8.950  1.00  0.00     0.210 HD
ENDBRANCH  31  38
BRANCH  32  40
HETATM   40  O11 UNL     1      -6.253 -10.147   5.083  1.00  0.00    -0.388 OA
ATOM     41  H11 UNL     1      -6.195 -11.050   5.372  1.00  0.00     0.210 HD
ENDBRANCH  32  40
ENDBRANCH  26  27
ENDBRANCH  25  26
BRANCH  24  42
HETATM   42  O5  UNL     1      -9.017  -7.274   8.186  1.00  0.00    -0.379 OA
ATOM     43  H5  UNL     1      -8.246  -7.726   7.866  1.00  0.00     0.211 HD
ENDBRANCH  24  42
BRANCH  22  44
HETATM   44  O4  UNL     1     -12.536  -4.112   8.459  1.00  0.00    -0.380 OA
ATOM     45  H4  UNL     1     -12.385  -4.851   9.036  1.00  0.00     0.211 HD
ENDBRANCH  22  44
TORSDOF 9
ENDMDL
MODEL 4
REMARK VINA RESULT: -7.186789090      0.954      1.603
REMARK  9 active torsions:
REMARK  status: ('A' for Active; 'I' for Inactive)
REMARK    1  A    between atoms: C19_22  and  O4_24 
REMARK    2  A    between atoms: C21_26  and  O5_27 
REMARK    3  A    between atoms: C22_29  and  O6_30 
REMARK    4  A    between atoms: O6_30  and  C23_31 
REMARK    5  A    between atoms: C24_33  and  C25_34 
REMARK    6  A    between atoms: C25_34  and  O8_35 
REMARK    7  A    between atoms: C26_37  and  O9_38 
REMARK    8  A    between atoms: C27_40  and  O10_41 
REMARK    9  A    between atoms: C28_43  and  O11_44 
ROOT
HETATM    1  C1  UNL     1      -8.254  -2.922   9.816  1.00  0.00     0.011 C 
HETATM    2  C2  UNL     1      -8.662  -3.111   8.322  1.00  0.00    -0.007 C 
HETATM    3  C3  UNL     1      -7.522  -2.485   7.625  1.00  0.00     0.010 C 
HETATM    4  C4  UNL     1      -7.197  -2.770   6.188  1.00  0.00     0.075 C 
HETATM    5  C5  UNL     1      -8.219  -3.682   5.630  1.00  0.00     0.232 C 
HETATM    6  O1  UNL     1      -7.926  -4.497   4.498  1.00  0.00    -0.197 OA
HETATM    7  O2  UNL     1      -8.639  -5.542   4.479  1.00  0.00    -0.229 OA
HETATM    8  C6  UNL     1      -9.658  -6.023   5.080  1.00  0.00     0.202 C 
HETATM    9  C7  UNL     1      -9.738  -7.454   4.471  1.00  0.00     0.038 C 
HETATM   10  C8  UNL     1      -8.394  -7.975   4.101  1.00  0.00     0.003 C 
HETATM   11  C9  UNL     1      -7.312  -7.978   5.084  1.00  0.00     0.004 C 
HETATM   12  C10 UNL     1      -7.593  -8.555   6.404  1.00  0.00     0.037 C 
HETATM   13  C11 UNL     1      -8.150  -7.591   7.456  1.00  0.00    -0.049 C 
HETATM   14  C12 UNL     1      -7.309  -6.462   7.808  1.00  0.00     0.011 C 
HETATM   15  C13 UNL     1      -7.677  -5.075   7.510  1.00  0.00     0.157 C 
HETATM   16  O3  UNL     1      -8.015  -4.692   6.379  1.00  0.00    -0.340 OA
HETATM   17  C14 UNL     1      -8.971  -4.559   8.184  1.00  0.00     0.055 C 
HETATM   18  C15 UNL     1     -10.175  -4.946   7.374  1.00  0.00    -0.027 C 
HETATM   19  C16 UNL     1     -11.072  -3.927   6.786  1.00  0.00    -0.057 C 
HETATM   20  C17 UNL     1     -12.037  -3.298   7.821  1.00  0.00     0.048 C 
HETATM   21  C18 UNL     1     -10.628  -2.871   5.906  1.00  0.00     0.023 C 
HETATM   22  C19 UNL     1      -9.356  -2.921   5.158  1.00  0.00     0.131 C 
HETATM   23  C20 UNL     1      -9.008  -1.406   4.952  1.00  0.00     0.056 C 
HETATM   24  C21 UNL     1     -10.049  -6.186   6.486  1.00  0.00     0.141 C 
HETATM   25  C22 UNL     1      -9.610  -7.339   7.302  1.00  0.00     0.195 C 
ENDROOT
BRANCH  25  26
HETATM   26  O6  UNL     1     -10.123  -7.148   8.578  1.00  0.00    -0.345 OA
BRANCH  26  27
HETATM   27  C23 UNL     1     -10.801  -8.194   9.137  1.00  0.00     0.292 C 
HETATM   28  O7  UNL     1      -9.892  -8.699  10.057  1.00  0.00    -0.348 OA
HETATM   29  C24 UNL     1     -10.323  -8.970  11.304  1.00  0.00     0.179 C 
HETATM   30  C26 UNL     1     -11.022  -7.697  11.817  1.00  0.00     0.180 C 
HETATM   31  C27 UNL     1     -12.348  -7.733  11.092  1.00  0.00     0.183 C 
HETATM   32  C28 UNL     1     -12.177  -7.967   9.611  1.00  0.00     0.204 C 
BRANCH  29  33
HETATM   33  C25 UNL     1      -9.077  -9.098  12.196  1.00  0.00     0.198 C 
BRANCH  33  34
HETATM   34  O8  UNL     1      -9.319  -9.993  13.237  1.00  0.00    -0.398 OA
ATOM     35  H8  UNL     1      -9.963  -9.633  13.836  1.00  0.00     0.209 HD
ENDBRANCH  33  34
ENDBRANCH  29  33
BRANCH  30  36
HETATM   36  O9  UNL     1     -11.242  -7.864  13.160  1.00  0.00    -0.390 OA
ATOM     37  H9  UNL     1     -11.278  -6.999  13.552  1.00  0.00     0.210 HD
ENDBRANCH  30  36
BRANCH  31  38
HETATM   38  O10 UNL     1     -13.074  -6.565  11.342  1.00  0.00    -0.390 OA
ATOM     39  H10 UNL     1     -13.950  -6.634  10.980  1.00  0.00     0.210 HD
ENDBRANCH  31  38
BRANCH  32  40
HETATM   40  O11 UNL     1     -12.986  -9.107   9.362  1.00  0.00    -0.388 OA
ATOM     41  H11 UNL     1     -13.481  -9.343  10.138  1.00  0.00     0.210 HD
ENDBRANCH  32  40
ENDBRANCH  26  27
ENDBRANCH  25  26
BRANCH  24  42
HETATM   42  O5  UNL     1     -11.447  -6.573   6.396  1.00  0.00    -0.379 OA
ATOM     43  H5  UNL     1     -11.888  -5.902   6.903  1.00  0.00     0.211 HD
ENDBRANCH  24  42
BRANCH  22  44
HETATM   44  O4  UNL     1      -9.639  -3.084   3.748  1.00  0.00    -0.380 OA
ATOM     45  H4  UNL     1     -10.404  -2.610   3.445  1.00  0.00     0.211 HD
ENDBRANCH  22  44
TORSDOF 9
ENDMDL
MODEL 5
REMARK VINA RESULT: -6.989336520      1.027      2.034
REMARK  9 active torsions:
REMARK  status: ('A' for Active; 'I' for Inactive)
REMARK    1  A    between atoms: C19_22  and  O4_24 
REMARK    2  A    between atoms: C21_26  and  O5_27 
REMARK    3  A    between atoms: C22_29  and  O6_30 
REMARK    4  A    between atoms: O6_30  and  C23_31 
REMARK    5  A    between atoms: C24_33  and  C25_34 
REMARK    6  A    between atoms: C25_34  and  O8_35 
REMARK    7  A    between atoms: C26_37  and  O9_38 
REMARK    8  A    between atoms: C27_40  and  O10_41 
REMARK    9  A    between atoms: C28_43  and  O11_44 
ROOT
HETATM    1  C1  UNL     1      -7.992  -2.722   9.778  1.00  0.00     0.011 C 
HETATM    2  C2  UNL     1      -8.486  -2.984   8.322  1.00  0.00    -0.007 C 
HETATM    3  C3  UNL     1      -7.369  -2.435   7.529  1.00  0.00     0.010 C 
HETATM    4  C4  UNL     1      -7.132  -2.813   6.096  1.00  0.00     0.075 C 
HETATM    5  C5  UNL     1      -8.208  -3.723   5.648  1.00  0.00     0.232 C 
HETATM    6  O1  UNL     1      -8.000  -4.611   4.553  1.00  0.00    -0.197 OA
HETATM    7  O2  UNL     1      -8.742  -5.633   4.634  1.00  0.00    -0.229 OA
HETATM    8  C6  UNL     1      -9.740  -6.047   5.316  1.00  0.00     0.202 C 
HETATM    9  C7  UNL     1      -9.893  -7.507   4.798  1.00  0.00     0.038 C 
HETATM   10  C8  UNL     1      -8.587  -8.090   4.389  1.00  0.00     0.003 C 
HETATM   11  C9  UNL     1      -7.452  -8.070   5.310  1.00  0.00     0.004 C 
HETATM   12  C10 UNL     1      -7.677  -8.560   6.676  1.00  0.00     0.037 C 
HETATM   13  C11 UNL     1      -8.148  -7.520   7.696  1.00  0.00    -0.049 C 
HETATM   14  C12 UNL     1      -7.258  -6.400   7.936  1.00  0.00     0.011 C 
HETATM   15  C13 UNL     1      -7.602  -5.021   7.576  1.00  0.00     0.157 C 
HETATM   16  O3  UNL     1      -7.991  -4.694   6.444  1.00  0.00    -0.340 OA
HETATM   17  C14 UNL     1      -8.843  -4.428   8.286  1.00  0.00     0.055 C 
HETATM   18  C15 UNL     1     -10.100  -4.823   7.566  1.00  0.00    -0.027 C 
HETATM   19  C16 UNL     1     -10.999  -3.813   6.966  1.00  0.00    -0.057 C 
HETATM   20  C17 UNL     1     -11.888  -3.095   8.012  1.00  0.00     0.048 C 
HETATM   21  C18 UNL     1     -10.575  -2.823   6.003  1.00  0.00     0.023 C 
HETATM   22  C19 UNL     1      -9.347  -2.956   5.193  1.00  0.00     0.131 C 
HETATM   23  C20 UNL     1      -8.970  -1.467   4.879  1.00  0.00     0.056 C 
HETATM   24  C21 UNL     1     -10.057  -6.115   6.747  1.00  0.00     0.141 C 
HETATM   25  C22 UNL     1      -9.606  -7.233   7.606  1.00  0.00     0.195 C 
ENDROOT
BRANCH  25  26
HETATM   26  O6  UNL     1     -10.043  -6.952   8.894  1.00  0.00    -0.345 OA
BRANCH  26  27
HETATM   27  C23 UNL     1     -11.364  -7.179   9.163  1.00  0.00     0.292 C 
HETATM   28  O7  UNL     1     -11.493  -8.546   8.964  1.00  0.00    -0.348 OA
HETATM   29  C24 UNL     1     -12.143  -9.273   9.892  1.00  0.00     0.179 C 
HETATM   30  C26 UNL     1     -11.490  -8.944  11.248  1.00  0.00     0.180 C 
HETATM   31  C27 UNL     1     -12.061  -7.581  11.567  1.00  0.00     0.183 C 
HETATM   32  C28 UNL     1     -11.932  -6.627  10.405  1.00  0.00     0.204 C 
BRANCH  29  33
HETATM   33  C25 UNL     1     -11.779 -10.747   9.650  1.00  0.00     0.198 C 
BRANCH  33  34
HETATM   34  O8  UNL     1     -12.852 -11.570   9.988  1.00  0.00    -0.398 OA
ATOM     35  H8  UNL     1     -13.562 -11.456   9.367  1.00  0.00     0.209 HD
ENDBRANCH  33  34
ENDBRANCH  29  33
BRANCH  30  36
HETATM   36  O9  UNL     1     -11.962  -9.852  12.161  1.00  0.00    -0.390 OA
ATOM     37  H9  UNL     1     -12.124  -9.382  12.971  1.00  0.00     0.210 HD
ENDBRANCH  30  36
BRANCH  31  38
HETATM   38  O10 UNL     1     -11.467  -7.060  12.721  1.00  0.00    -0.390 OA
ATOM     39  H10 UNL     1     -11.186  -7.762  13.296  1.00  0.00     0.210 HD
ENDBRANCH  31  38
BRANCH  32  40
HETATM   40  O11 UNL     1     -13.265  -6.185  10.192  1.00  0.00    -0.388 OA
ATOM     41  H11 UNL     1     -13.313  -5.237  10.227  1.00  0.00     0.210 HD
ENDBRANCH  32  40
ENDBRANCH  26  27
ENDBRANCH  25  26
BRANCH  24  42
HETATM   42  O5  UNL     1     -11.468  -6.464   6.755  1.00  0.00    -0.379 OA
ATOM     43  H5  UNL     1     -11.599  -6.810   7.630  1.00  0.00     0.211 HD
ENDBRANCH  24  42
BRANCH  22  44
HETATM   44  O4  UNL     1      -9.712  -3.192   3.812  1.00  0.00    -0.380 OA
ATOM     45  H4  UNL     1      -9.693  -2.416   3.264  1.00  0.00     0.211 HD
ENDBRANCH  22  44
TORSDOF 9
ENDMDL
