MODEL 1
REMARK VINA RESULT: -8.300389359      0.000      0.000
REMARK  10 active torsions:
REMARK  status: ('A' for Active; 'I' for Inactive)
REMARK    1  A    between atoms: O1_2  and  C2_3 
REMARK    2  A    between atoms: C2_3  and  C3_4 
REMARK    3  A    between atoms: C3_4  and  O2_5 
REMARK    4  A    between atoms: O2_5  and  C4_6 
REMARK    5  A    between atoms: C9_12  and  O3_13 
REMARK    6  A    between atoms: N1_19  and  C15_20 
REMARK    7  A    between atoms: C15_20  and  C16_21 
REMARK    8  A    between atoms: C19_24  and  O4_25 
REMARK    9  A    between atoms: C25_33  and  O6_34 
REMARK   10  A    between atoms: C28_39  and  N2_40 
ROOT
HETATM    1  C4  UNL     1      36.208 -23.957  25.384  1.00  0.00     0.114 A 
HETATM    2  C5  UNL     1      36.833 -25.017  25.804  1.00  0.00     0.041 A 
HETATM    3 BR1  UNL     1      36.397 -26.687  25.220  1.00  0.00    -0.051 Br
HETATM    4  C6  UNL     1      37.982 -24.819  26.526  1.00  0.00     0.064 A 
HETATM    5  C7  UNL     1      38.585 -24.760  26.907  1.00  0.00    -0.013 A 
HETATM    6  C8  UNL     1      38.116 -23.163  26.572  1.00  0.00     0.086 A 
HETATM    7  C9  UNL     1      37.038 -22.902  25.879  1.00  0.00     0.099 A 
HETATM    8  C11 UNL     1      38.730 -21.917  27.007  1.00  0.00    -0.002 C 
HETATM    9  C12 UNL     1      40.076 -21.706  26.959  1.00  0.00     0.079 C 
HETATM   10  C13 UNL     1      40.921 -20.644  27.276  1.00  0.00     0.030 C 
HETATM   11  C14 UNL     1      40.284 -19.330  27.244  1.00  0.00     0.157 C 
HETATM   12  N1  UNL     1      39.240 -19.325  28.209  1.00  0.00    -0.362 N 
HETATM   13  C23 UNL     1      38.034 -19.673  27.569  1.00  0.00     0.091 C 
HETATM   14  C24 UNL     1      37.785 -21.065  27.659  1.00  0.00     0.028 C 
HETATM   15  O5  UNL     1      40.966 -22.716  26.521  1.00  0.00    -0.303 OA
HETATM   16  C25 UNL     1      40.460 -23.977  26.595  1.00  0.00     0.271 C 
HETATM   17  O7  UNL     1      38.962 -23.961  26.835  1.00  0.00     0.000 OA
HETATM   18  C27 UNL     1      40.691 -24.404  27.963  1.00  0.00     0.081 A 
HETATM   19  S1  UNL     1      41.594 -24.586  29.314  1.00  0.00    -0.051 SA
HETATM   20  C28 UNL     1      40.552 -25.687  30.119  1.00  0.00     0.143 A 
HETATM   21  N3  UNL     1      39.571 -25.825  29.270  1.00  0.00    -0.336 N 
ATOM     22  H3  UNL     1      38.791 -26.443  29.495  1.00  0.00     0.168 HD
HETATM   23  C29 UNL     1      39.579 -25.146  28.071  1.00  0.00     0.058 A 
ENDROOT
BRANCH  12  24
HETATM   24  C15 UNL     1      39.290 -18.540  29.327  1.00  0.00     0.102 C 
BRANCH  24  25
HETATM   25  C16 UNL     1      38.396 -17.339  29.145  1.00  0.00    -0.018 A 
HETATM   26  C17 UNL     1      37.164 -17.272  29.760  1.00  0.00     0.016 A 
HETATM   27  C18 UNL     1      36.316 -16.199  29.624  1.00  0.00     0.041 A 
HETATM   28  C19 UNL     1      36.687 -15.124  28.846  1.00  0.00     0.106 A 
HETATM   29  C21 UNL     1      37.926 -15.167  28.215  1.00  0.00     0.150 A 
HETATM   30  F1  UNL     1      38.287 -14.107  27.445  1.00  0.00    -0.203 F 
HETATM   31  C22 UNL     1      38.749 -16.261  28.374  1.00  0.00     0.058 A 
BRANCH  28  32
HETATM   32  O4  UNL     1      35.848 -14.049  28.706  1.00  0.00    -0.353 OA
HETATM   33  C20 UNL     1      34.761 -13.855  29.571  1.00  0.00     0.210 C 
ENDBRANCH  28  32
ENDBRANCH  24  25
ENDBRANCH  12  24
BRANCH  16  34
HETATM   34  O6  UNL     1      40.782 -24.780  25.589  1.00  0.00    -0.351 OA
HETATM   35  C26 UNL     1      42.092 -24.394  25.439  1.00  0.00     0.206 C 
ENDBRANCH  16  34
BRANCH   7  36
HETATM   36  O3  UNL     1      36.561 -21.612  25.520  1.00  0.00    -0.356 OA
HETATM   37  C10 UNL     1      36.999 -21.235  24.256  1.00  0.00     0.209 C 
ENDBRANCH   7  36
BRANCH   1  38
HETATM   38  O2  UNL     1      35.103 -23.800  24.685  1.00  0.00    -0.345 OA
BRANCH  38  39
HETATM   39  C3  UNL     1      34.702 -24.367  23.494  1.00  0.00     0.202 C 
BRANCH  39  40
HETATM   40  C2  UNL     1      35.614 -23.910  22.391  1.00  0.00     0.193 C 
BRANCH  40  41
HETATM   41  O1  UNL     1      36.477 -24.919  22.001  1.00  0.00    -0.394 OA
HETATM   42  C1  UNL     1      37.802 -24.612  22.129  1.00  0.00     0.201 C 
ENDBRANCH  40  41
ENDBRANCH  39  40
ENDBRANCH  38  39
ENDBRANCH   1  38
BRANCH  20  43
HETATM   43  N2  UNL     1      40.595 -26.287  31.265  1.00  0.00    -0.380 N 
ATOM     44  H22 UNL     1      40.862 -25.824  32.133  1.00  0.00     0.158 HD
ATOM     45  H21 UNL     1      40.411 -27.244  31.568  1.00  0.00     0.158 HD
ENDBRANCH  20  43
TORSDOF 10
ENDMDL
MODEL 2
REMARK VINA RESULT: -8.251956891      0.860      1.125
REMARK  10 active torsions:
REMARK  status: ('A' for Active; 'I' for Inactive)
REMARK    1  A    between atoms: O1_2  and  C2_3 
REMARK    2  A    between atoms: C2_3  and  C3_4 
REMARK    3  A    between atoms: C3_4  and  O2_5 
REMARK    4  A    between atoms: O2_5  and  C4_6 
REMARK    5  A    between atoms: C9_12  and  O3_13 
REMARK    6  A    between atoms: N1_19  and  C15_20 
REMARK    7  A    between atoms: C15_20  and  C16_21 
REMARK    8  A    between atoms: C19_24  and  O4_25 
REMARK    9  A    between atoms: C25_33  and  O6_34 
REMARK   10  A    between atoms: C28_39  and  N2_40 
ROOT
HETATM    1  C4  UNL     1      36.169 -23.767  25.312  1.00  0.00     0.114 A 
HETATM    2  C5  UNL     1      36.804 -24.820  25.734  1.00  0.00     0.041 A 
HETATM    3 BR1  UNL     1      36.411 -26.492  25.125  1.00  0.00    -0.051 Br
HETATM    4  C6  UNL     1      37.935 -24.609  26.482  1.00  0.00     0.064 A 
HETATM    5  C7  UNL     1      38.528 -24.543  26.875  1.00  0.00    -0.013 A 
HETATM    6  C8  UNL     1      38.037 -22.951  26.546  1.00  0.00     0.086 A 
HETATM    7  C9  UNL     1      36.969 -22.703  25.834  1.00  0.00     0.099 A 
HETATM    8  C11 UNL     1      38.619 -21.698  27.006  1.00  0.00    -0.002 C 
HETATM    9  C12 UNL     1      39.962 -21.463  26.988  1.00  0.00     0.079 C 
HETATM   10  C13 UNL     1      40.781 -20.390  27.333  1.00  0.00     0.030 C 
HETATM   11  C14 UNL     1      40.121 -19.087  27.301  1.00  0.00     0.157 C 
HETATM   12  N1  UNL     1      39.057 -19.110  28.244  1.00  0.00    -0.362 N 
HETATM   13  C23 UNL     1      37.872 -19.474  27.576  1.00  0.00     0.091 C 
HETATM   14  C24 UNL     1      37.645 -20.871  27.647  1.00  0.00     0.028 C 
HETATM   15  O5  UNL     1      40.879 -22.453  26.560  1.00  0.00    -0.303 OA
HETATM   16  C25 UNL     1      40.395 -23.723  26.610  1.00  0.00     0.271 C 
HETATM   17  O7  UNL     1      38.892 -23.737  26.820  1.00  0.00     0.000 OA
HETATM   18  C27 UNL     1      40.605 -24.160  27.978  1.00  0.00     0.081 A 
HETATM   19  S1  UNL     1      41.483 -24.339  29.346  1.00  0.00    -0.051 SA
HETATM   20  C28 UNL     1      40.445 -25.466  30.118  1.00  0.00     0.143 A 
HETATM   21  N3  UNL     1      39.484 -25.614  29.248  1.00  0.00    -0.336 N 
ATOM     22  H3  UNL     1      38.712 -26.248  29.451  1.00  0.00     0.168 HD
HETATM   23  C29 UNL     1      39.505 -24.922  28.056  1.00  0.00     0.058 A 
ENDROOT
BRANCH  12  24
HETATM   24  C15 UNL     1      39.070 -18.336  29.371  1.00  0.00     0.102 C 
BRANCH  24  25
HETATM   25  C16 UNL     1      38.211 -17.115  29.158  1.00  0.00    -0.018 A 
HETATM   26  C17 UNL     1      38.667 -16.047  28.414  1.00  0.00     0.016 A 
HETATM   27  C18 UNL     1      37.922 -14.915  28.192  1.00  0.00     0.041 A 
HETATM   28  C19 UNL     1      36.654 -14.812  28.723  1.00  0.00     0.106 A 
HETATM   29  C21 UNL     1      36.170 -15.876  29.477  1.00  0.00     0.150 A 
HETATM   30  F1  UNL     1      34.921 -15.769  30.002  1.00  0.00    -0.203 F 
HETATM   31  C22 UNL     1      36.948 -16.995  29.679  1.00  0.00     0.058 A 
BRANCH  28  32
HETATM   32  O4  UNL     1      35.902 -13.686  28.506  1.00  0.00    -0.353 OA
HETATM   33  C20 UNL     1      36.101 -12.883  27.373  1.00  0.00     0.210 C 
ENDBRANCH  28  32
ENDBRANCH  24  25
ENDBRANCH  12  24
BRANCH  16  34
HETATM   34  O6  UNL     1      40.752 -24.510  25.604  1.00  0.00    -0.351 OA
HETATM   35  C26 UNL     1      42.052 -24.087  25.473  1.00  0.00     0.206 C 
ENDBRANCH  16  34
BRANCH   7  36
HETATM   36  O3  UNL     1      36.476 -21.418  25.478  1.00  0.00    -0.356 OA
HETATM   37  C10 UNL     1      36.923 -21.026  24.222  1.00  0.00     0.209 C 
ENDBRANCH   7  36
BRANCH   1  38
HETATM   38  O2  UNL     1      35.075 -23.623  24.591  1.00  0.00    -0.345 OA
BRANCH  38  39
HETATM   39  C3  UNL     1      34.696 -24.211  23.404  1.00  0.00     0.202 C 
BRANCH  39  40
HETATM   40  C2  UNL     1      35.585 -23.720  22.296  1.00  0.00     0.193 C 
BRANCH  40  41
HETATM   41  O1  UNL     1      36.531 -24.670  21.953  1.00  0.00    -0.394 OA
HETATM   42  C1  UNL     1      37.824 -24.236  22.032  1.00  0.00     0.201 C 
ENDBRANCH  40  41
ENDBRANCH  39  40
ENDBRANCH  38  39
ENDBRANCH   1  38
BRANCH  20  43
HETATM   43  N2  UNL     1      40.475 -26.078  31.259  1.00  0.00    -0.380 N 
ATOM     44  H22 UNL     1      40.633 -25.603  32.148  1.00  0.00     0.158 HD
ATOM     45  H21 UNL     1      40.375 -27.053  31.540  1.00  0.00     0.158 HD
ENDBRANCH  20  43
TORSDOF 10
ENDMDL
MODEL 3
REMARK VINA RESULT: -8.023343286      1.434      1.776
REMARK  10 active torsions:
REMARK  status: ('A' for Active; 'I' for Inactive)
REMARK    1  A    between atoms: O1_2  and  C2_3 
REMARK    2  A    between atoms: C2_3  and  C3_4 
REMARK    3  A    between atoms: C3_4  and  O2_5 
REMARK    4  A    between atoms: O2_5  and  C4_6 
REMARK    5  A    between atoms: C9_12  and  O3_13 
REMARK    6  A    between atoms: N1_19  and  C15_20 
REMARK    7  A    between atoms: C15_20  and  C16_21 
REMARK    8  A    between atoms: C19_24  and  O4_25 
REMARK    9  A    between atoms: C25_33  and  O6_34 
REMARK   10  A    between atoms: C28_39  and  N2_40 
ROOT
HETATM    1  C4  UNL     1      36.831 -23.953  25.946  1.00  0.00     0.114 A 
HETATM    2  C5  UNL     1      37.715 -24.824  26.334  1.00  0.00     0.041 A 
HETATM    3 BR1  UNL     1      37.618 -26.577  25.846  1.00  0.00    -0.051 Br
HETATM    4  C6  UNL     1      38.850 -24.339  26.932  1.00  0.00     0.064 A 
HETATM    5  C7  UNL     1      39.455 -24.127  27.249  1.00  0.00    -0.013 A 
HETATM    6  C8  UNL     1      38.608 -22.694  26.915  1.00  0.00     0.086 A 
HETATM    7  C9  UNL     1      37.441 -22.716  26.325  1.00  0.00     0.099 A 
HETATM    8  C11 UNL     1      38.960 -21.322  27.249  1.00  0.00    -0.002 C 
HETATM    9  C12 UNL     1      40.213 -20.819  27.062  1.00  0.00     0.079 C 
HETATM   10  C13 UNL     1      40.821 -19.581  27.262  1.00  0.00     0.030 C 
HETATM   11  C14 UNL     1      39.903 -18.445  27.254  1.00  0.00     0.157 C 
HETATM   12  N1  UNL     1      38.975 -18.623  28.317  1.00  0.00    -0.362 N 
HETATM   13  C23 UNL     1      37.827 -19.263  27.810  1.00  0.00     0.091 C 
HETATM   14  C24 UNL     1      37.909 -20.670  27.966  1.00  0.00     0.028 C 
HETATM   15  O5  UNL     1      41.266 -21.627  26.569  1.00  0.00    -0.303 OA
HETATM   16  C25 UNL     1      41.068 -22.963  26.730  1.00  0.00     0.271 C 
HETATM   17  O7  UNL     1      39.633 -23.269  27.117  1.00  0.00     0.000 OA
HETATM   18  C27 UNL     1      41.512 -23.257  28.080  1.00  0.00     0.081 A 
HETATM   19  S1  UNL     1      42.550 -23.164  29.340  1.00  0.00    -0.051 SA
HETATM   20  C28 UNL     1      41.860 -24.426  30.277  1.00  0.00     0.143 A 
HETATM   21  N3  UNL     1      40.864 -24.823  29.534  1.00  0.00    -0.336 N 
ATOM     22  H3  UNL     1      40.269 -25.586  29.854  1.00  0.00     0.168 HD
HETATM   23  C29 UNL     1      40.610 -24.221  28.320  1.00  0.00     0.058 A 
ENDROOT
BRANCH  12  24
HETATM   24  C15 UNL     1      38.946 -17.790  29.401  1.00  0.00     0.102 C 
BRANCH  24  25
HETATM   25  C16 UNL     1      38.024 -16.629  29.124  1.00  0.00    -0.018 A 
HETATM   26  C17 UNL     1      38.412 -15.596  28.298  1.00  0.00     0.016 A 
HETATM   27  C18 UNL     1      37.607 -14.519  28.016  1.00  0.00     0.041 A 
HETATM   28  C19 UNL     1      36.348 -14.438  28.569  1.00  0.00     0.106 A 
HETATM   29  C21 UNL     1      35.932 -15.468  29.408  1.00  0.00     0.150 A 
HETATM   30  F1  UNL     1      34.691 -15.383  29.955  1.00  0.00    -0.203 F 
HETATM   31  C22 UNL     1      36.769 -16.532  29.667  1.00  0.00     0.058 A 
BRANCH  28  32
HETATM   32  O4  UNL     1      35.538 -13.368  28.293  1.00  0.00    -0.353 OA
HETATM   33  C20 UNL     1      35.695 -12.618  27.118  1.00  0.00     0.210 C 
ENDBRANCH  28  32
ENDBRANCH  24  25
ENDBRANCH  12  24
BRANCH  16  34
HETATM   34  O6  UNL     1      41.472 -23.725  25.722  1.00  0.00    -0.351 OA
HETATM   35  C26 UNL     1      42.652 -23.079  25.446  1.00  0.00     0.206 C 
ENDBRANCH  16  34
BRANCH   7  36
HETATM   36  O3  UNL     1      36.654 -21.585  25.976  1.00  0.00    -0.356 OA
HETATM   37  C10 UNL     1      36.957 -21.120  24.702  1.00  0.00     0.209 C 
ENDBRANCH   7  36
BRANCH   1  38
HETATM   38  O2  UNL     1      35.661 -24.082  25.355  1.00  0.00    -0.345 OA
BRANCH  38  39
HETATM   39  C3  UNL     1      35.301 -23.949  24.031  1.00  0.00     0.202 C 
BRANCH  39  40
HETATM   40  C2  UNL     1      35.025 -25.306  23.449  1.00  0.00     0.193 C 
BRANCH  40  41
HETATM   41  O1  UNL     1      34.433 -26.141  24.379  1.00  0.00    -0.394 OA
HETATM   42  C1  UNL     1      34.502 -27.471  24.072  1.00  0.00     0.201 C 
ENDBRANCH  40  41
ENDBRANCH  39  40
ENDBRANCH  38  39
ENDBRANCH   1  38
BRANCH  20  43
HETATM   43  N2  UNL     1      42.141 -24.942  31.430  1.00  0.00    -0.380 N 
ATOM     44  H22 UNL     1      41.751 -25.825  31.762  1.00  0.00     0.158 HD
ATOM     45  H21 UNL     1      42.731 -24.651  32.210  1.00  0.00     0.158 HD
ENDBRANCH  20  43
TORSDOF 10
ENDMDL
MODEL 4
REMARK VINA RESULT: -7.836122264      4.031      8.598
REMARK  10 active torsions:
REMARK  status: ('A' for Active; 'I' for Inactive)
REMARK    1  A    between atoms: O1_2  and  C2_3 
REMARK    2  A    between atoms: C2_3  and  C3_4 
REMARK    3  A    between atoms: C3_4  and  O2_5 
REMARK    4  A    between atoms: O2_5  and  C4_6 
REMARK    5  A    between atoms: C9_12  and  O3_13 
REMARK    6  A    between atoms: N1_19  and  C15_20 
REMARK    7  A    between atoms: C15_20  and  C16_21 
REMARK    8  A    between atoms: C19_24  and  O4_25 
REMARK    9  A    between atoms: C25_33  and  O6_34 
REMARK   10  A    between atoms: C28_39  and  N2_40 
ROOT
HETATM    1  C4  UNL     1      38.065 -17.321  27.866  1.00  0.00     0.114 A 
HETATM    2  C5  UNL     1      38.003 -16.734  26.708  1.00  0.00     0.041 A 
HETATM    3 BR1  UNL     1      37.997 -14.918  26.548  1.00  0.00    -0.051 Br
HETATM    4  C6  UNL     1      38.175 -17.521  25.599  1.00  0.00     0.064 A 
HETATM    5  C7  UNL     1      38.258 -17.896  24.995  1.00  0.00    -0.013 A 
HETATM    6  C8  UNL     1      38.411 -19.034  26.246  1.00  0.00     0.086 A 
HETATM    7  C9  UNL     1      38.313 -18.682  27.501  1.00  0.00     0.099 A 
HETATM    8  C11 UNL     1      38.595 -20.476  26.156  1.00  0.00    -0.002 C 
HETATM    9  C12 UNL     1      39.488 -21.050  25.302  1.00  0.00     0.079 C 
HETATM   10  C13 UNL     1      39.885 -22.355  25.019  1.00  0.00     0.030 C 
HETATM   11  C14 UNL     1      39.666 -23.306  26.106  1.00  0.00     0.157 C 
HETATM   12  N1  UNL     1      38.271 -23.352  26.376  1.00  0.00    -0.362 N 
HETATM   13  C23 UNL     1      37.984 -22.445  27.415  1.00  0.00     0.091 C 
HETATM   14  C24 UNL     1      37.600 -21.179  26.905  1.00  0.00     0.028 C 
HETATM   15  O5  UNL     1      40.263 -20.269  24.410  1.00  0.00    -0.303 OA
HETATM   16  C25 UNL     1      39.749 -19.036  24.156  1.00  0.00     0.271 C 
HETATM   17  O7  UNL     1      38.638 -18.685  25.128  1.00  0.00     0.000 OA
HETATM   18  C27 UNL     1      38.779 -19.235  23.095  1.00  0.00     0.081 A 
HETATM   19  S1  UNL     1      38.265 -19.847  21.668  1.00  0.00    -0.051 SA
HETATM   20  C28 UNL     1      36.869 -18.862  21.505  1.00  0.00     0.143 A 
HETATM   21  N3  UNL     1      36.908 -18.130  22.584  1.00  0.00    -0.336 N 
ATOM     22  H3  UNL     1      36.180 -17.435  22.749  1.00  0.00     0.168 HD
HETATM   23  C29 UNL     1      37.923 -18.287  23.503  1.00  0.00     0.058 A 
ENDROOT
BRANCH  12  24
HETATM   24  C15 UNL     1      37.522 -24.469  26.134  1.00  0.00     0.102 C 
BRANCH  24  25
HETATM   25  C16 UNL     1      36.867 -24.359  24.780  1.00  0.00    -0.018 A 
HETATM   26  C17 UNL     1      37.454 -24.910  23.661  1.00  0.00     0.016 A 
HETATM   27  C18 UNL     1      36.896 -24.836  22.408  1.00  0.00     0.041 A 
HETATM   28  C19 UNL     1      35.692 -24.189  22.229  1.00  0.00     0.106 A 
HETATM   29  C21 UNL     1      35.079 -23.624  23.343  1.00  0.00     0.150 A 
HETATM   30  F1  UNL     1      33.894 -22.983  23.162  1.00  0.00    -0.203 F 
HETATM   31  C22 UNL     1      35.671 -23.718  24.584  1.00  0.00     0.058 A 
BRANCH  28  32
HETATM   32  O4  UNL     1      35.127 -24.111  20.983  1.00  0.00    -0.353 OA
HETATM   33  C20 UNL     1      35.906 -24.210  19.821  1.00  0.00     0.210 C 
ENDBRANCH  28  32
ENDBRANCH  24  25
ENDBRANCH  12  24
BRANCH  16  34
HETATM   34  O6  UNL     1      40.638 -18.056  24.062  1.00  0.00    -0.351 OA
HETATM   35  C26 UNL     1      41.534 -18.681  23.229  1.00  0.00     0.206 C 
ENDBRANCH  16  34
BRANCH   7  36
HETATM   36  O3  UNL     1      38.445 -19.539  28.628  1.00  0.00    -0.356 OA
HETATM   37  C10 UNL     1      39.688 -19.402  29.235  1.00  0.00     0.209 C 
ENDBRANCH   7  36
BRANCH   1  38
HETATM   38  O2  UNL     1      37.943 -16.867  29.097  1.00  0.00    -0.345 OA
BRANCH  38  39
HETATM   39  C3  UNL     1      36.836 -16.753  29.910  1.00  0.00     0.202 C 
BRANCH  39  40
HETATM   40  C2  UNL     1      36.047 -15.538  29.511  1.00  0.00     0.193 C 
BRANCH  40  41
HETATM   41  O1  UNL     1      34.721 -15.653  29.889  1.00  0.00    -0.394 OA
HETATM   42  C1  UNL     1      34.128 -14.474  30.241  1.00  0.00     0.201 C 
ENDBRANCH  40  41
ENDBRANCH  39  40
ENDBRANCH  38  39
ENDBRANCH   1  38
BRANCH  20  43
HETATM   43  N2  UNL     1      35.936 -18.770  20.612  1.00  0.00    -0.380 N 
ATOM     44  H22 UNL     1      35.946 -18.085  19.857  1.00  0.00     0.158 HD
ATOM     45  H21 UNL     1      35.064 -19.273  20.448  1.00  0.00     0.158 HD
ENDBRANCH  20  43
TORSDOF 10
ENDMDL
MODEL 5
REMARK VINA RESULT: -7.776352040      2.261      2.828
REMARK  10 active torsions:
REMARK  status: ('A' for Active; 'I' for Inactive)
REMARK    1  A    between atoms: O1_2  and  C2_3 
REMARK    2  A    between atoms: C2_3  and  C3_4 
REMARK    3  A    between atoms: C3_4  and  O2_5 
REMARK    4  A    between atoms: O2_5  and  C4_6 
REMARK    5  A    between atoms: C9_12  and  O3_13 
REMARK    6  A    between atoms: N1_19  and  C15_20 
REMARK    7  A    between atoms: C15_20  and  C16_21 
REMARK    8  A    between atoms: C19_24  and  O4_25 
REMARK    9  A    between atoms: C25_33  and  O6_34 
REMARK   10  A    between atoms: C28_39  and  N2_40 
ROOT
HETATM    1  C4  UNL     1      36.378 -21.865  24.943  1.00  0.00     0.114 A 
HETATM    2  C5  UNL     1      37.034 -22.697  25.697  1.00  0.00     0.041 A 
HETATM    3 BR1  UNL     1      36.681 -24.484  25.692  1.00  0.00    -0.051 Br
HETATM    4  C6  UNL     1      38.155 -22.219  26.326  1.00  0.00     0.064 A 
HETATM    5  C7  UNL     1      38.745 -22.009  26.672  1.00  0.00    -0.013 A 
HETATM    6  C8  UNL     1      38.220 -20.636  25.823  1.00  0.00     0.086 A 
HETATM    7  C9  UNL     1      37.151 -20.668  25.071  1.00  0.00     0.099 A 
HETATM    8  C11 UNL     1      38.772 -19.288  25.828  1.00  0.00    -0.002 C 
HETATM    9  C12 UNL     1      40.109 -19.042  25.729  1.00  0.00     0.079 C 
HETATM   10  C13 UNL     1      40.902 -17.898  25.687  1.00  0.00     0.030 C 
HETATM   11  C14 UNL     1      40.214 -16.699  25.216  1.00  0.00     0.157 C 
HETATM   12  N1  UNL     1      39.146 -16.424  26.112  1.00  0.00    -0.362 N 
HETATM   13  C23 UNL     1      37.972 -17.020  25.609  1.00  0.00     0.091 C 
HETATM   14  C24 UNL     1      37.776 -18.315  26.152  1.00  0.00     0.028 C 
HETATM   15  O5  UNL     1      41.050 -20.098  25.660  1.00  0.00    -0.303 OA
HETATM   16  C25 UNL     1      40.594 -21.286  26.140  1.00  0.00     0.271 C 
HETATM   17  O7  UNL     1      39.091 -21.262  26.345  1.00  0.00     0.000 OA
HETATM   18  C27 UNL     1      40.806 -21.227  27.575  1.00  0.00     0.081 A 
HETATM   19  S1  UNL     1      41.680 -20.911  28.921  1.00  0.00    -0.051 SA
HETATM   20  C28 UNL     1      40.662 -21.732  30.032  1.00  0.00     0.143 A 
HETATM   21  N3  UNL     1      39.711 -22.189  29.266  1.00  0.00    -0.336 N 
ATOM     22  H3  UNL     1      38.951 -22.733  29.674  1.00  0.00     0.168 HD
HETATM   23  C29 UNL     1      39.722 -21.943  27.910  1.00  0.00     0.058 A 
ENDROOT
BRANCH  12  24
HETATM   24  C15 UNL     1      39.134 -15.313  26.908  1.00  0.00     0.102 C 
BRANCH  24  25
HETATM   25  C16 UNL     1      37.950 -15.368  27.840  1.00  0.00    -0.018 A 
HETATM   26  C17 UNL     1      37.043 -14.331  27.897  1.00  0.00     0.016 A 
HETATM   27  C18 UNL     1      35.950 -14.336  28.728  1.00  0.00     0.041 A 
HETATM   28  C19 UNL     1      35.720 -15.414  29.556  1.00  0.00     0.106 A 
HETATM   29  C21 UNL     1      36.621 -16.473  29.518  1.00  0.00     0.150 A 
HETATM   30  F1  UNL     1      36.393 -17.533  30.338  1.00  0.00    -0.203 F 
HETATM   31  C22 UNL     1      37.707 -16.432  28.671  1.00  0.00     0.058 A 
BRANCH  28  32
HETATM   32  O4  UNL     1      34.631 -15.428  30.388  1.00  0.00    -0.353 OA
HETATM   33  C20 UNL     1      33.810 -14.300  30.534  1.00  0.00     0.210 C 
ENDBRANCH  28  32
ENDBRANCH  24  25
ENDBRANCH  12  24
BRANCH  16  34
HETATM   34  O6  UNL     1      40.974 -22.360  25.460  1.00  0.00    -0.351 OA
HETATM   35  C26 UNL     1      42.235 -21.939  25.115  1.00  0.00     0.206 C 
ENDBRANCH  16  34
BRANCH   7  36
HETATM   36  O3  UNL     1      36.632 -19.593  24.300  1.00  0.00    -0.356 OA
HETATM   37  C10 UNL     1      37.099 -19.626  22.991  1.00  0.00     0.209 C 
ENDBRANCH   7  36
BRANCH   1  38
HETATM   38  O2  UNL     1      35.286 -21.999  24.218  1.00  0.00    -0.345 OA
BRANCH  38  39
HETATM   39  C3  UNL     1      35.107 -22.485  22.941  1.00  0.00     0.202 C 
BRANCH  39  40
HETATM   40  C2  UNL     1      34.139 -23.633  22.974  1.00  0.00     0.193 C 
BRANCH  40  41
HETATM   41  O1  UNL     1      34.688 -24.770  22.408  1.00  0.00    -0.394 OA
HETATM   42  C1  UNL     1      35.950 -24.603  21.911  1.00  0.00     0.201 C 
ENDBRANCH  40  41
ENDBRANCH  39  40
ENDBRANCH  38  39
ENDBRANCH   1  38
BRANCH  20  43
HETATM   43  N2  UNL     1      40.700 -21.919  31.313  1.00  0.00    -0.380 N 
ATOM     44  H22 UNL     1      41.192 -21.300  31.957  1.00  0.00     0.158 HD
ATOM     45  H21 UNL     1      40.315 -22.630  31.934  1.00  0.00     0.158 HD
ENDBRANCH  20  43
TORSDOF 10
ENDMDL
