MODEL 1
REMARK VINA RESULT: -6.293430358      0.000      0.000
REMARK  4 active torsions:
REMARK  status: ('A' for Active; 'I' for Inactive)
REMARK    1  A    between atoms: C2_2  and  C4_4 
REMARK    2  A    between atoms: C16_16  and  C17_17 
REMARK    3  A    between atoms: C24_28  and  O5_29 
REMARK    4  A    between atoms: C24_28  and  C25_31 
ROOT
HETATM    1  C4  UNL     1     -14.357  19.520 -11.259  1.00  0.00     0.022 C 
HETATM    2  C5  UNL     1     -13.255  19.840 -12.212  1.00  0.00    -0.001 C 
HETATM    3  C6  UNL     1     -12.641  18.536 -11.655  1.00  0.00     0.011 C 
HETATM    4  C7  UNL     1     -13.242  19.128 -10.334  1.00  0.00     0.003 C 
HETATM    5  C8  UNL     1     -12.424  20.365 -10.181  1.00  0.00     0.048 C 
HETATM    6  C9  UNL     1     -12.313  20.827 -11.570  1.00  0.00     0.002 C 
HETATM    7  C10 UNL     1     -11.087  20.949 -12.363  1.00  0.00    -0.013 C 
HETATM    8  C11 UNL     1     -11.633  20.894 -13.833  1.00  0.00     0.010 C 
HETATM    9  C12 UNL     1     -10.345  22.285 -12.278  1.00  0.00     0.017 C 
HETATM   10  C13 UNL     1      -9.032  22.263 -11.551  1.00  0.00    -0.025 C 
HETATM   11  C14 UNL     1      -8.123  23.207 -12.437  1.00  0.00     0.019 C 
HETATM   12  C15 UNL     1      -8.295  20.993 -11.669  1.00  0.00    -0.009 C 
HETATM   13  C16 UNL     1      -8.283  19.911 -10.898  1.00  0.00    -0.025 C 
HETATM   14  C20 UNL     1      -9.083  19.712  -9.661  1.00  0.00     0.302 C 
HETATM   15  O1  UNL     1      -9.708  18.441  -9.499  1.00  0.00    -0.283 OA
HETATM   16  C21 UNL     1     -10.941  18.788  -8.852  1.00  0.00     0.305 C 
HETATM   17  O2  UNL     1     -11.575  18.024  -8.071  1.00  0.00    -0.261 OA
HETATM   18  C22 UNL     1     -11.255  20.172  -9.302  1.00  0.00     0.218 C 
HETATM   19  O3  UNL     1     -10.193  20.374 -10.011  1.00  0.00    -0.327 OA
HETATM   20  C23 UNL     1     -11.118  21.171  -8.191  1.00  0.00     0.206 C 
HETATM   21  O4  UNL     1     -11.751  20.830  -7.193  1.00  0.00    -0.291 OA
HETATM   22  C24 UNL     1     -10.372  22.415  -8.159  1.00  0.00     0.124 C 
HETATM   23  C28 UNL     1     -10.172  23.182  -9.429  1.00  0.00     0.047 C 
HETATM   24  C29 UNL     1      -8.950  22.996 -10.233  1.00  0.00     0.016 C 
ENDROOT
BRANCH  22  25
HETATM   25  O5  UNL     1      -9.170  22.354  -7.423  1.00  0.00    -0.382 OA
ATOM     26  H5  UNL     1      -9.283  22.436  -6.483  1.00  0.00     0.211 HD
ENDBRANCH  22  25
BRANCH  22  27
HETATM   27  C25 UNL     1     -11.220  23.314  -7.215  1.00  0.00     0.019 C 
HETATM   28  C26 UNL     1     -11.950  24.382  -7.930  1.00  0.00     0.013 C 
HETATM   29  C27 UNL     1     -10.368  23.827  -6.087  1.00  0.00     0.013 C 
ENDBRANCH  22  27
BRANCH   1  30
HETATM   30  C2  UNL     1     -15.410  20.407 -10.909  1.00  0.00    -0.088 C 
HETATM   31  C1  UNL     1     -16.075  21.202 -11.698  1.00  0.00     0.014 C 
HETATM   32  C3  UNL     1     -15.847  20.415  -9.446  1.00  0.00     0.043 C 
ENDBRANCH   1  30
BRANCH  13  33
HETATM   33  C17 UNL     1      -7.419  18.760 -11.280  1.00  0.00     0.011 C 
HETATM   34  C18 UNL     1      -8.041  18.008 -12.445  1.00  0.00     0.014 C 
HETATM   35  C19 UNL     1      -6.073  19.255 -11.698  1.00  0.00     0.014 C 
ENDBRANCH  13  33
TORSDOF 4
ENDMDL
MODEL 2
REMARK VINA RESULT: -5.667797662      0.783      1.021
REMARK  4 active torsions:
REMARK  status: ('A' for Active; 'I' for Inactive)
REMARK    1  A    between atoms: C2_2  and  C4_4 
REMARK    2  A    between atoms: C16_16  and  C17_17 
REMARK    3  A    between atoms: C24_28  and  O5_29 
REMARK    4  A    between atoms: C24_28  and  C25_31 
ROOT
HETATM    1  C4  UNL     1     -13.703  19.109 -12.133  1.00  0.00     0.022 C 
HETATM    2  C5  UNL     1     -12.581  19.628 -12.969  1.00  0.00    -0.001 C 
HETATM    3  C6  UNL     1     -11.863  18.353 -12.472  1.00  0.00     0.011 C 
HETATM    4  C7  UNL     1     -12.616  18.760 -11.158  1.00  0.00     0.003 C 
HETATM    5  C8  UNL     1     -11.955  20.058 -10.844  1.00  0.00     0.048 C 
HETATM    6  C9  UNL     1     -11.803  20.650 -12.179  1.00  0.00     0.002 C 
HETATM    7  C10 UNL     1     -10.548  20.972 -12.863  1.00  0.00    -0.013 C 
HETATM    8  C11 UNL     1     -10.983  20.988 -14.371  1.00  0.00     0.010 C 
HETATM    9  C12 UNL     1      -9.969  22.367 -12.614  1.00  0.00     0.017 C 
HETATM   10  C13 UNL     1      -8.715  22.422 -11.792  1.00  0.00    -0.025 C 
HETATM   11  C14 UNL     1      -7.860  23.532 -12.527  1.00  0.00     0.019 C 
HETATM   12  C15 UNL     1      -7.832  21.254 -11.953  1.00  0.00    -0.009 C 
HETATM   13  C16 UNL     1      -7.751  20.115 -11.273  1.00  0.00    -0.025 C 
HETATM   14  C20 UNL     1      -8.605  19.724 -10.121  1.00  0.00     0.302 C 
HETATM   15  O1  UNL     1      -9.092  18.384 -10.110  1.00  0.00    -0.283 OA
HETATM   16  C21 UNL     1     -10.397  18.539  -9.535  1.00  0.00     0.305 C 
HETATM   17  O2  UNL     1     -10.992  17.645  -8.868  1.00  0.00    -0.261 OA
HETATM   18  C22 UNL     1     -10.835  19.915  -9.896  1.00  0.00     0.218 C 
HETATM   19  O3  UNL     1      -9.756  20.292 -10.502  1.00  0.00    -0.327 OA
HETATM   20  C23 UNL     1     -10.888  20.822  -8.702  1.00  0.00     0.206 C 
HETATM   21  O4  UNL     1     -11.544  20.328  -7.786  1.00  0.00    -0.291 OA
HETATM   22  C24 UNL     1     -10.292  22.131  -8.513  1.00  0.00     0.124 C 
HETATM   23  C28 UNL     1     -10.093  23.024  -9.698  1.00  0.00     0.047 C 
HETATM   24  C29 UNL     1      -8.807  23.041 -10.417  1.00  0.00     0.016 C 
ENDROOT
BRANCH  22  25
HETATM   25  O5  UNL     1      -9.144  22.134  -7.693  1.00  0.00    -0.382 OA
ATOM     26  H5  UNL     1      -8.354  22.435  -8.126  1.00  0.00     0.211 HD
ENDBRANCH  22  25
BRANCH  22  27
HETATM   27  C25 UNL     1     -11.298  22.848  -7.569  1.00  0.00     0.019 C 
HETATM   28  C26 UNL     1     -12.220  23.755  -8.283  1.00  0.00     0.013 C 
HETATM   29  C27 UNL     1     -10.563  23.514  -6.438  1.00  0.00     0.013 C 
ENDBRANCH  22  27
BRANCH   1  30
HETATM   30  C2  UNL     1     -14.870  19.844 -11.795  1.00  0.00    -0.088 C 
HETATM   31  C1  UNL     1     -15.283  20.178 -10.605  1.00  0.00     0.014 C 
HETATM   32  C3  UNL     1     -15.733  20.339 -12.954  1.00  0.00     0.043 C 
ENDBRANCH   1  30
BRANCH  13  33
HETATM   33  C17 UNL     1      -6.737  19.102 -11.677  1.00  0.00     0.011 C 
HETATM   34  C18 UNL     1      -7.130  18.477 -13.005  1.00  0.00     0.014 C 
HETATM   35  C19 UNL     1      -5.403  19.756 -11.835  1.00  0.00     0.014 C 
ENDBRANCH  13  33
TORSDOF 4
ENDMDL
MODEL 3
REMARK VINA RESULT: -4.462512385      2.147      5.024
REMARK  4 active torsions:
REMARK  status: ('A' for Active; 'I' for Inactive)
REMARK    1  A    between atoms: C2_2  and  C4_4 
REMARK    2  A    between atoms: C16_16  and  C17_17 
REMARK    3  A    between atoms: C24_28  and  O5_29 
REMARK    4  A    between atoms: C24_28  and  C25_31 
ROOT
HETATM    1  C4  UNL     1     -11.112  18.819  -7.148  1.00  0.00     0.022 C 
HETATM    2  C5  UNL     1      -9.981  18.489  -8.063  1.00  0.00    -0.001 C 
HETATM    3  C6  UNL     1      -9.673  19.998  -7.929  1.00  0.00     0.011 C 
HETATM    4  C7  UNL     1     -11.238  20.054  -7.992  1.00  0.00     0.003 C 
HETATM    5  C8  UNL     1     -11.485  19.547  -9.372  1.00  0.00     0.048 C 
HETATM    6  C9  UNL     1     -10.479  18.484  -9.487  1.00  0.00     0.002 C 
HETATM    7  C10 UNL     1      -9.349  18.437 -10.419  1.00  0.00    -0.013 C 
HETATM    8  C11 UNL     1      -8.362  17.453  -9.698  1.00  0.00     0.010 C 
HETATM    9  C12 UNL     1      -9.611  17.790 -11.781  1.00  0.00     0.017 C 
HETATM   10  C13 UNL     1      -9.631  18.720 -12.959  1.00  0.00    -0.025 C 
HETATM   11  C14 UNL     1      -8.878  17.892 -14.076  1.00  0.00     0.019 C 
HETATM   12  C15 UNL     1      -8.732  19.879 -12.831  1.00  0.00    -0.009 C 
HETATM   13  C16 UNL     1      -8.942  21.106 -12.366  1.00  0.00    -0.025 C 
HETATM   14  C20 UNL     1     -10.222  21.622 -11.813  1.00  0.00     0.302 C 
HETATM   15  O1  UNL     1     -10.136  22.403 -10.623  1.00  0.00    -0.283 OA
HETATM   16  C21 UNL     1     -11.329  22.022  -9.922  1.00  0.00     0.305 C 
HETATM   17  O2  UNL     1     -11.947  22.768  -9.111  1.00  0.00    -0.261 OA
HETATM   18  C22 UNL     1     -11.626  20.631 -10.362  1.00  0.00     0.218 C 
HETATM   19  O3  UNL     1     -10.667  20.507 -11.220  1.00  0.00    -0.327 OA
HETATM   20  C23 UNL     1     -12.858  20.560 -11.216  1.00  0.00     0.206 C 
HETATM   21  O4  UNL     1     -13.815  21.115 -10.678  1.00  0.00    -0.291 OA
HETATM   22  C24 UNL     1     -13.039  19.953 -12.521  1.00  0.00     0.124 C 
HETATM   23  C28 UNL     1     -12.209  18.767 -12.899  1.00  0.00     0.047 C 
HETATM   24  C29 UNL     1     -10.954  18.939 -13.654  1.00  0.00     0.016 C 
ENDROOT
BRANCH  22  25
HETATM   25  O5  UNL     1     -13.100  20.875 -13.587  1.00  0.00    -0.382 OA
ATOM     26  H5  UNL     1     -13.519  20.539 -14.371  1.00  0.00     0.211 HD
ENDBRANCH  22  25
BRANCH  22  27
HETATM   27  C25 UNL     1     -14.520  19.480 -12.490  1.00  0.00     0.019 C 
HETATM   28  C26 UNL     1     -14.664  18.045 -12.165  1.00  0.00     0.013 C 
HETATM   29  C27 UNL     1     -15.216  19.875 -13.764  1.00  0.00     0.013 C 
ENDBRANCH  22  27
BRANCH   1  30
HETATM   30  C2  UNL     1     -12.191  17.946  -6.845  1.00  0.00    -0.088 C 
HETATM   31  C1  UNL     1     -13.096  17.487  -7.663  1.00  0.00     0.014 C 
HETATM   32  C3  UNL     1     -12.295  17.453  -5.404  1.00  0.00     0.043 C 
ENDBRANCH   1  30
BRANCH  13  33
HETATM   33  C17 UNL     1      -7.817  22.082 -12.365  1.00  0.00     0.011 C 
HETATM   34  C18 UNL     1      -6.490  21.343 -12.387  1.00  0.00     0.014 C 
HETATM   35  C19 UNL     1      -7.900  22.951 -13.578  1.00  0.00     0.014 C 
ENDBRANCH  13  33
TORSDOF 4
ENDMDL
MODEL 4
REMARK VINA RESULT: -4.123957484      1.903      5.721
REMARK  4 active torsions:
REMARK  status: ('A' for Active; 'I' for Inactive)
REMARK    1  A    between atoms: C2_2  and  C4_4 
REMARK    2  A    between atoms: C16_16  and  C17_17 
REMARK    3  A    between atoms: C24_28  and  O5_29 
REMARK    4  A    between atoms: C24_28  and  C25_31 
ROOT
HETATM    1  C4  UNL     1      -8.784  17.453 -11.264  1.00  0.00     0.022 C 
HETATM    2  C5  UNL     1      -9.346  17.838  -9.936  1.00  0.00    -0.001 C 
HETATM    3  C6  UNL     1     -10.698  17.686 -10.669  1.00  0.00     0.011 C 
HETATM    4  C7  UNL     1      -9.855  18.353 -11.810  1.00  0.00     0.003 C 
HETATM    5  C8  UNL     1      -9.572  19.687 -11.210  1.00  0.00     0.048 C 
HETATM    6  C9  UNL     1      -9.326  19.341  -9.804  1.00  0.00     0.002 C 
HETATM    7  C10 UNL     1     -10.115  19.758  -8.643  1.00  0.00    -0.013 C 
HETATM    8  C11 UNL     1      -9.763  18.654  -7.585  1.00  0.00     0.010 C 
HETATM    9  C12 UNL     1      -9.708  21.074  -7.975  1.00  0.00     0.017 C 
HETATM   10  C13 UNL     1     -10.660  22.222  -8.148  1.00  0.00    -0.025 C 
HETATM   11  C14 UNL     1     -10.647  22.908  -6.723  1.00  0.00     0.019 C 
HETATM   12  C15 UNL     1     -12.076  21.826  -8.241  1.00  0.00    -0.009 C 
HETATM   13  C16 UNL     1     -12.843  21.553  -9.291  1.00  0.00    -0.025 C 
HETATM   14  C20 UNL     1     -12.412  21.570 -10.714  1.00  0.00     0.302 C 
HETATM   15  O1  UNL     1     -12.857  20.489 -11.531  1.00  0.00    -0.283 OA
HETATM   16  C21 UNL     1     -11.735  20.282 -12.400  1.00  0.00     0.305 C 
HETATM   17  O2  UNL     1     -11.819  19.820 -13.573  1.00  0.00    -0.261 OA
HETATM   18  C22 UNL     1     -10.541  20.718 -11.626  1.00  0.00     0.218 C 
HETATM   19  O3  UNL     1     -11.156  21.129 -10.566  1.00  0.00    -0.327 OA
HETATM   20  C23 UNL     1      -9.938  21.976 -12.179  1.00  0.00     0.206 C 
HETATM   21  O4  UNL     1      -9.727  21.885 -13.388  1.00  0.00    -0.291 OA
HETATM   22  C24 UNL     1      -9.598  23.211 -11.497  1.00  0.00     0.124 C 
HETATM   23  C28 UNL     1      -9.203  23.166 -10.054  1.00  0.00     0.047 C 
HETATM   24  C29 UNL     1     -10.205  23.386  -8.995  1.00  0.00     0.016 C 
ENDROOT
BRANCH  22  25
HETATM   25  O5  UNL     1     -10.499  24.271 -11.732  1.00  0.00    -0.382 OA
ATOM     26  H5  UNL     1     -10.279  25.078 -11.282  1.00  0.00     0.211 HD
ENDBRANCH  22  25
BRANCH  22  27
HETATM   27  C25 UNL     1      -8.364  23.726 -12.289  1.00  0.00     0.019 C 
HETATM   28  C26 UNL     1      -7.278  22.728 -12.389  1.00  0.00     0.013 C 
HETATM   29  C27 UNL     1      -7.908  25.049 -11.736  1.00  0.00     0.013 C 
ENDBRANCH  22  27
BRANCH   1  30
HETATM   30  C2  UNL     1      -7.412  17.539 -11.619  1.00  0.00    -0.088 C 
HETATM   31  C1  UNL     1      -6.380  17.477 -10.826  1.00  0.00     0.014 C 
HETATM   32  C3  UNL     1      -7.093  17.684 -13.105  1.00  0.00     0.043 C 
ENDBRANCH   1  30
BRANCH  13  33
HETATM   33  C17 UNL     1     -14.266  21.176  -9.069  1.00  0.00     0.011 C 
HETATM   34  C18 UNL     1     -14.585  21.206  -7.584  1.00  0.00     0.014 C 
HETATM   35  C19 UNL     1     -15.162  22.146  -9.768  1.00  0.00     0.014 C 
ENDBRANCH  13  33
TORSDOF 4
ENDMDL
MODEL 5
REMARK VINA RESULT: -4.113785933      1.869      5.737
REMARK  4 active torsions:
REMARK  status: ('A' for Active; 'I' for Inactive)
REMARK    1  A    between atoms: C2_2  and  C4_4 
REMARK    2  A    between atoms: C16_16  and  C17_17 
REMARK    3  A    between atoms: C24_28  and  O5_29 
REMARK    4  A    between atoms: C24_28  and  C25_31 
ROOT
HETATM    1  C4  UNL     1      -8.057  18.145 -10.979  1.00  0.00     0.022 C 
HETATM    2  C5  UNL     1      -8.982  18.229  -9.811  1.00  0.00    -0.001 C 
HETATM    3  C6  UNL     1     -10.073  18.106 -10.899  1.00  0.00     0.011 C 
HETATM    4  C7  UNL     1      -9.060  19.039 -11.648  1.00  0.00     0.003 C 
HETATM    5  C8  UNL     1      -9.112  20.258 -10.791  1.00  0.00     0.048 C 
HETATM    6  C9  UNL     1      -9.189  19.678  -9.444  1.00  0.00     0.002 C 
HETATM    7  C10 UNL     1     -10.293  19.806  -8.491  1.00  0.00    -0.013 C 
HETATM    8  C11 UNL     1     -10.083  18.557  -7.564  1.00  0.00     0.010 C 
HETATM    9  C12 UNL     1     -10.242  21.004  -7.539  1.00  0.00     0.017 C 
HETATM   10  C13 UNL     1     -11.258  22.082  -7.782  1.00  0.00    -0.025 C 
HETATM   11  C14 UNL     1     -11.695  22.491  -6.318  1.00  0.00     0.019 C 
HETATM   12  C15 UNL     1     -12.540  21.596  -8.319  1.00  0.00    -0.009 C 
HETATM   13  C16 UNL     1     -12.974  21.461  -9.567  1.00  0.00    -0.025 C 
HETATM   14  C20 UNL     1     -12.203  21.776 -10.798  1.00  0.00     0.302 C 
HETATM   15  O1  UNL     1     -12.283  20.833 -11.864  1.00  0.00    -0.283 OA
HETATM   16  C21 UNL     1     -10.960  20.884 -12.417  1.00  0.00     0.305 C 
HETATM   17  O2  UNL     1     -10.684  20.643 -13.626  1.00  0.00    -0.261 OA
HETATM   18  C22 UNL     1     -10.068  21.265 -11.288  1.00  0.00     0.218 C 
HETATM   19  O3  UNL     1     -10.980  21.421 -10.384  1.00  0.00    -0.327 OA
HETATM   20  C23 UNL     1      -9.511  22.649 -11.451  1.00  0.00     0.206 C 
HETATM   21  O4  UNL     1      -8.990  22.802 -12.555  1.00  0.00    -0.291 OA
HETATM   22  C24 UNL     1      -9.517  23.759 -10.517  1.00  0.00     0.124 C 
HETATM   23  C28 UNL     1      -9.499  23.480  -9.047  1.00  0.00     0.047 C 
HETATM   24  C29 UNL     1     -10.756  23.417  -8.279  1.00  0.00     0.016 C 
ENDROOT
BRANCH  22  25
HETATM   25  O5  UNL     1     -10.457  24.768 -10.818  1.00  0.00    -0.382 OA
ATOM     26  H5  UNL     1     -10.237  25.624 -10.471  1.00  0.00     0.211 HD
ENDBRANCH  22  25
BRANCH  22  27
HETATM   27  C25 UNL     1      -8.199  24.513 -10.852  1.00  0.00     0.019 C 
HETATM   28  C26 UNL     1      -7.674  25.300  -9.716  1.00  0.00     0.013 C 
HETATM   29  C27 UNL     1      -8.370  25.322 -12.109  1.00  0.00     0.013 C 
ENDBRANCH  22  27
BRANCH   1  30
HETATM   30  C2  UNL     1      -6.662  18.407 -10.930  1.00  0.00    -0.088 C 
HETATM   31  C1  UNL     1      -6.008  19.352 -11.545  1.00  0.00     0.014 C 
HETATM   32  C3  UNL     1      -5.822  17.507 -10.026  1.00  0.00     0.043 C 
ENDBRANCH   1  30
BRANCH  13  33
HETATM   33  C17 UNL     1     -14.347  20.933  -9.803  1.00  0.00     0.011 C 
HETATM   34  C18 UNL     1     -14.612  19.751  -8.887  1.00  0.00     0.014 C 
HETATM   35  C19 UNL     1     -15.355  21.997  -9.512  1.00  0.00     0.014 C 
ENDBRANCH  13  33
TORSDOF 4
ENDMDL
