MODEL 1
REMARK VINA RESULT: -8.738774472      0.000      0.000
REMARK  17 active torsions:
REMARK  status: ('A' for Active; 'I' for Inactive)
REMARK    1  A    between atoms: C2_2  and  O1_5 
REMARK    2  A    between atoms: O1_5  and  C5_6 
REMARK    3  A    between atoms: C5_6  and  C6_8 
REMARK    4  A    between atoms: C6_8  and  C7_9 
REMARK    5  A    between atoms: C7_9  and  C8_10 
REMARK    6  A    between atoms: C8_10  and  O3_11 
REMARK       I    between atoms: N1_13  and  C9_15 
REMARK    7  A    between atoms: C9_15  and  C10_17 
REMARK    8  A    between atoms: C11_18  and  C12_19 
REMARK    9  A    between atoms: C12_19  and  C13_20 
REMARK   10  A    between atoms: C13_20  and  C14_21 
REMARK   11  A    between atoms: C14_21  and  C15_22 
REMARK   12  A    between atoms: C15_22  and  C16_23 
REMARK   13  A    between atoms: C16_23  and  C17_24 
REMARK   14  A    between atoms: C17_24  and  N2_25 
REMARK   15  A    between atoms: C17_24  and  C18_29 
REMARK       I    between atoms: N3_33  and  C20_34 
REMARK   16  A    between atoms: C20_34  and  O8_36 
REMARK   17  A    between atoms: O8_36  and  C21_37 
ROOT
HETATM    1  C10 UNL     1     121.445  54.910  15.037  1.00  0.00     0.108 C 
HETATM    2  C11 UNL     1     120.466  54.193  15.875  1.00  0.00     0.025 C 
HETATM    3  C19 UNL     1     120.596  54.999  17.142  1.00  0.00     0.104 C 
HETATM    4  N3  UNL     1     121.945  55.500  17.190  1.00  0.00    -0.316 N 
HETATM    5  C20 UNL     1     123.091  55.507  17.999  1.00  0.00     0.364 C 
HETATM    6  O7  UNL     1     123.114  54.944  19.123  1.00  0.00    -0.238 OA
HETATM    7  C26 UNL     1     121.617  56.139  15.923  1.00  0.00     0.113 C 
HETATM    8  C27 UNL     1     120.289  56.400  16.598  1.00  0.00    -0.005 C 
HETATM    9  C28 UNL     1     119.088  56.605  15.798  1.00  0.00     0.019 C 
HETATM   10  C29 UNL     1     120.455  57.446  17.677  1.00  0.00     0.019 C 
ENDROOT
BRANCH   1  11
HETATM   11  C9  UNL     1     122.719  54.303  14.703  1.00  0.00     0.228 C 
HETATM   12  N1  UNL     1     123.188  53.030  15.022  1.00  0.00    -0.331 N 
HETATM   13  C7  UNL     1     124.066  52.342  14.422  1.00  0.00     0.022 C 
ATOM     14  H1  UNL     1     122.770  52.596  15.846  1.00  0.00     0.168 HD
HETATM   15  O4  UNL     1     123.509  55.048  14.019  1.00  0.00    -0.273 OA
BRANCH  13  16
HETATM   16  C6  UNL     1     124.520  50.983  14.821  1.00  0.00     0.165 C 
BRANCH  16  17
HETATM   17  C5  UNL     1     124.662  49.999  13.759  1.00  0.00     0.265 C 
HETATM   18  O2  UNL     1     125.627  49.948  12.969  1.00  0.00    -0.265 OA
BRANCH  17  19
HETATM   19  O1  UNL     1     123.654  49.060  13.619  1.00  0.00    -0.311 OA
BRANCH  19  20
HETATM   20  C2  UNL     1     123.645  47.751  14.067  1.00  0.00     0.060 C 
HETATM   21  C1  UNL     1     124.380  47.482  15.336  1.00  0.00     0.045 C 
HETATM   22  C3  UNL     1     124.103  46.754  13.021  1.00  0.00     0.045 C 
HETATM   23  C4  UNL     1     122.172  47.398  14.338  1.00  0.00     0.045 C 
ENDBRANCH  19  20
ENDBRANCH  17  19
ENDBRANCH  16  17
ENDBRANCH  13  16
BRANCH  13  24
HETATM   24  C8  UNL     1     124.792  52.875  13.210  1.00  0.00     0.217 C 
BRANCH  24  25
HETATM   25  O3  UNL     1     124.123  52.628  12.040  1.00  0.00    -0.395 OA
ATOM     26  H3  UNL     1     124.504  53.080  11.296  1.00  0.00     0.209 HD
ENDBRANCH  24  25
ENDBRANCH  13  24
ENDBRANCH   1  11
BRANCH   2  27
HETATM   27  C12 UNL     1     120.297  52.768  15.958  1.00  0.00     0.007 C 
BRANCH  27  28
HETATM   28  C13 UNL     1     118.984  52.157  15.667  1.00  0.00     0.000 C 
BRANCH  28  29
HETATM   29  C14 UNL     1     117.986  52.826  14.818  1.00  0.00     0.000 C 
BRANCH  29  30
HETATM   30  C15 UNL     1     117.512  51.969  13.669  1.00  0.00     0.002 C 
BRANCH  30  31
HETATM   31  C16 UNL     1     118.226  50.750  13.323  1.00  0.00     0.044 C 
BRANCH  31  32
HETATM   32  C17 UNL     1     119.275  50.703  12.272  1.00  0.00     0.283 C 
BRANCH  32  33
HETATM   33  N2  UNL     1     119.516  49.205  12.136  1.00  0.00    -0.065 N 
ATOM     34  H23 UNL     1     119.102  48.632  12.871  1.00  0.00     0.275 HD
ATOM     35  H22 UNL     1     119.016  48.754  11.370  1.00  0.00     0.275 HD
ATOM     36  H21 UNL     1     120.533  49.161  12.075  1.00  0.00     0.275 HD
ENDBRANCH  32  33
BRANCH  32  37
HETATM   37  C18 UNL     1     120.597  51.245  12.554  1.00  0.00     0.204 C 
HETATM   38  O5  UNL     1     121.304  50.737  13.495  1.00  0.00    -0.646 OA
HETATM   39  O6  UNL     1     121.191  52.284  11.882  1.00  0.00    -0.646 OA
ENDBRANCH  32  37
ENDBRANCH  31  32
ENDBRANCH  30  31
ENDBRANCH  29  30
ENDBRANCH  28  29
ENDBRANCH  27  28
ENDBRANCH   2  27
BRANCH   5  40
HETATM   40  O8  UNL     1     124.270  56.136  17.607  1.00  0.00    -0.298 OA
BRANCH  40  41
HETATM   41  C21 UNL     1     124.907  57.169  18.286  1.00  0.00     0.142 C 
HETATM   42  C22 UNL     1     125.636  58.132  17.390  1.00  0.00     0.017 C 
HETATM   43  C23 UNL     1     124.285  58.443  16.806  1.00  0.00     0.014 C 
HETATM   44  C25 UNL     1     125.320  59.174  18.421  1.00  0.00     0.014 C 
HETATM   45  C24 UNL     1     124.040  58.409  18.292  1.00  0.00     0.017 C 
ENDBRANCH  40  41
ENDBRANCH   5  40
TORSDOF 17
ENDMDL
MODEL 2
REMARK VINA RESULT: -8.661353587      1.203      1.686
REMARK  17 active torsions:
REMARK  status: ('A' for Active; 'I' for Inactive)
REMARK    1  A    between atoms: C2_2  and  O1_5 
REMARK    2  A    between atoms: O1_5  and  C5_6 
REMARK    3  A    between atoms: C5_6  and  C6_8 
REMARK    4  A    between atoms: C6_8  and  C7_9 
REMARK    5  A    between atoms: C7_9  and  C8_10 
REMARK    6  A    between atoms: C8_10  and  O3_11 
REMARK       I    between atoms: N1_13  and  C9_15 
REMARK    7  A    between atoms: C9_15  and  C10_17 
REMARK    8  A    between atoms: C11_18  and  C12_19 
REMARK    9  A    between atoms: C12_19  and  C13_20 
REMARK   10  A    between atoms: C13_20  and  C14_21 
REMARK   11  A    between atoms: C14_21  and  C15_22 
REMARK   12  A    between atoms: C15_22  and  C16_23 
REMARK   13  A    between atoms: C16_23  and  C17_24 
REMARK   14  A    between atoms: C17_24  and  N2_25 
REMARK   15  A    between atoms: C17_24  and  C18_29 
REMARK       I    between atoms: N3_33  and  C20_34 
REMARK   16  A    between atoms: C20_34  and  O8_36 
REMARK   17  A    between atoms: O8_36  and  C21_37 
ROOT
HETATM    1  C10 UNL     1     121.431  54.854  14.999  1.00  0.00     0.108 C 
HETATM    2  C11 UNL     1     120.434  54.127  15.806  1.00  0.00     0.025 C 
HETATM    3  C19 UNL     1     120.512  54.938  17.075  1.00  0.00     0.104 C 
HETATM    4  N3  UNL     1     121.853  55.456  17.165  1.00  0.00    -0.316 N 
HETATM    5  C20 UNL     1     122.971  55.479  18.011  1.00  0.00     0.364 C 
HETATM    6  O7  UNL     1     122.964  54.920  19.137  1.00  0.00    -0.238 OA
HETATM    7  C26 UNL     1     121.558  56.088  15.887  1.00  0.00     0.113 C 
HETATM    8  C27 UNL     1     120.206  56.334  16.517  1.00  0.00    -0.005 C 
HETATM    9  C28 UNL     1     119.029  56.522  15.678  1.00  0.00     0.019 C 
HETATM   10  C29 UNL     1     120.324  57.384  17.598  1.00  0.00     0.019 C 
ENDROOT
BRANCH   1  11
HETATM   11  C9  UNL     1     122.722  54.263  14.709  1.00  0.00     0.228 C 
HETATM   12  N1  UNL     1     123.159  52.962  14.951  1.00  0.00    -0.331 N 
HETATM   13  C7  UNL     1     124.075  52.317  14.360  1.00  0.00     0.022 C 
ATOM     14  H1  UNL     1     122.679  52.465  15.702  1.00  0.00     0.168 HD
HETATM   15  O4  UNL     1     123.565  55.053  14.151  1.00  0.00    -0.273 OA
BRANCH  13  16
HETATM   16  C6  UNL     1     124.491  50.923  14.674  1.00  0.00     0.165 C 
BRANCH  16  17
HETATM   17  C5  UNL     1     124.125  49.896  13.712  1.00  0.00     0.265 C 
HETATM   18  O2  UNL     1     122.953  49.534  13.476  1.00  0.00    -0.265 OA
BRANCH  17  19
HETATM   19  O1  UNL     1     125.150  49.280  13.013  1.00  0.00    -0.311 OA
BRANCH  19  20
HETATM   20  C2  UNL     1     125.590  47.973  13.127  1.00  0.00     0.060 C 
HETATM   21  C1  UNL     1     125.079  47.013  12.106  1.00  0.00     0.045 C 
HETATM   22  C3  UNL     1     125.366  47.381  14.504  1.00  0.00     0.045 C 
HETATM   23  C4  UNL     1     127.118  48.015  12.953  1.00  0.00     0.045 C 
ENDBRANCH  19  20
ENDBRANCH  17  19
ENDBRANCH  16  17
ENDBRANCH  13  16
BRANCH  13  24
HETATM   24  C8  UNL     1     124.892  52.942  13.255  1.00  0.00     0.217 C 
BRANCH  24  25
HETATM   25  O3  UNL     1     124.287  52.846  12.029  1.00  0.00    -0.395 OA
ATOM     26  H3  UNL     1     124.883  53.024  11.310  1.00  0.00     0.209 HD
ENDBRANCH  24  25
ENDBRANCH  13  24
ENDBRANCH   1  11
BRANCH   2  27
HETATM   27  C12 UNL     1     120.280  52.700  15.888  1.00  0.00     0.007 C 
BRANCH  27  28
HETATM   28  C13 UNL     1     119.066  52.052  15.352  1.00  0.00     0.000 C 
BRANCH  28  29
HETATM   29  C14 UNL     1     118.109  52.775  14.500  1.00  0.00     0.000 C 
BRANCH  29  30
HETATM   30  C15 UNL     1     118.012  52.212  13.103  1.00  0.00     0.002 C 
BRANCH  30  31
HETATM   31  C16 UNL     1     117.525  50.857  12.894  1.00  0.00     0.044 C 
BRANCH  31  32
HETATM   32  C17 UNL     1     118.371  49.777  12.325  1.00  0.00     0.283 C 
BRANCH  32  33
HETATM   33  N2  UNL     1     117.392  49.064  11.402  1.00  0.00    -0.065 N 
ATOM     34  H23 UNL     1     116.617  48.595  11.871  1.00  0.00     0.275 HD
ATOM     35  H22 UNL     1     116.804  49.677  10.838  1.00  0.00     0.275 HD
ATOM     36  H21 UNL     1     118.011  48.451  10.872  1.00  0.00     0.275 HD
ENDBRANCH  32  33
BRANCH  32  37
HETATM   37  C18 UNL     1     118.864  48.718  13.197  1.00  0.00     0.204 C 
HETATM   38  O5  UNL     1     118.477  47.510  13.009  1.00  0.00    -0.646 OA
HETATM   39  O6  UNL     1     119.743  48.889  14.237  1.00  0.00    -0.646 OA
ENDBRANCH  32  37
ENDBRANCH  31  32
ENDBRANCH  30  31
ENDBRANCH  29  30
ENDBRANCH  28  29
ENDBRANCH  27  28
ENDBRANCH   2  27
BRANCH   5  40
HETATM   40  O8  UNL     1     124.155  56.122  17.657  1.00  0.00    -0.298 OA
BRANCH  40  41
HETATM   41  C21 UNL     1     124.735  57.191  18.331  1.00  0.00     0.142 C 
HETATM   42  C22 UNL     1     125.536  58.109  17.449  1.00  0.00     0.017 C 
HETATM   43  C23 UNL     1     124.237  58.384  16.742  1.00  0.00     0.014 C 
HETATM   44  C25 UNL     1     125.138  59.201  18.396  1.00  0.00     0.014 C 
HETATM   45  C24 UNL     1     123.872  58.426  18.202  1.00  0.00     0.017 C 
ENDBRANCH  40  41
ENDBRANCH   5  40
TORSDOF 17
ENDMDL
MODEL 3
REMARK VINA RESULT: -8.649306847      2.700      4.789
REMARK  17 active torsions:
REMARK  status: ('A' for Active; 'I' for Inactive)
REMARK    1  A    between atoms: C2_2  and  O1_5 
REMARK    2  A    between atoms: O1_5  and  C5_6 
REMARK    3  A    between atoms: C5_6  and  C6_8 
REMARK    4  A    between atoms: C6_8  and  C7_9 
REMARK    5  A    between atoms: C7_9  and  C8_10 
REMARK    6  A    between atoms: C8_10  and  O3_11 
REMARK       I    between atoms: N1_13  and  C9_15 
REMARK    7  A    between atoms: C9_15  and  C10_17 
REMARK    8  A    between atoms: C11_18  and  C12_19 
REMARK    9  A    between atoms: C12_19  and  C13_20 
REMARK   10  A    between atoms: C13_20  and  C14_21 
REMARK   11  A    between atoms: C14_21  and  C15_22 
REMARK   12  A    between atoms: C15_22  and  C16_23 
REMARK   13  A    between atoms: C16_23  and  C17_24 
REMARK   14  A    between atoms: C17_24  and  N2_25 
REMARK   15  A    between atoms: C17_24  and  C18_29 
REMARK       I    between atoms: N3_33  and  C20_34 
REMARK   16  A    between atoms: C20_34  and  O8_36 
REMARK   17  A    between atoms: O8_36  and  C21_37 
ROOT
HETATM    1  C10 UNL     1     120.958  58.564  17.335  1.00  0.00     0.108 C 
HETATM    2  C11 UNL     1     119.580  58.537  17.860  1.00  0.00     0.025 C 
HETATM    3  C19 UNL     1     119.708  59.592  18.929  1.00  0.00     0.104 C 
HETATM    4  N3  UNL     1     121.073  59.569  19.387  1.00  0.00    -0.316 N 
HETATM    5  C20 UNL     1     121.844  59.417  20.548  1.00  0.00     0.364 C 
HETATM    6  O7  UNL     1     121.318  59.258  21.679  1.00  0.00    -0.238 OA
HETATM    7  C26 UNL     1     121.409  59.860  18.000  1.00  0.00     0.113 C 
HETATM    8  C27 UNL     1     120.204  60.770  18.081  1.00  0.00    -0.005 C 
HETATM    9  C28 UNL     1     119.476  61.132  16.872  1.00  0.00     0.019 C 
HETATM   10  C29 UNL     1     120.518  61.966  18.951  1.00  0.00     0.019 C 
ENDROOT
BRANCH   1  11
HETATM   11  C9  UNL     1     121.874  57.473  17.604  1.00  0.00     0.228 C 
HETATM   12  N1  UNL     1     123.089  57.182  16.987  1.00  0.00    -0.331 N 
HETATM   13  C7  UNL     1     124.071  56.529  17.451  1.00  0.00     0.022 C 
ATOM     14  H1  UNL     1     123.203  57.542  16.039  1.00  0.00     0.168 HD
HETATM   15  O4  UNL     1     121.506  56.677  18.541  1.00  0.00    -0.273 OA
BRANCH  13  16
HETATM   16  C6  UNL     1     125.344  56.256  16.731  1.00  0.00     0.165 C 
BRANCH  16  17
HETATM   17  C5  UNL     1     125.639  54.866  16.422  1.00  0.00     0.265 C 
HETATM   18  O2  UNL     1     126.788  54.377  16.400  1.00  0.00    -0.265 OA
BRANCH  17  19
HETATM   19  O1  UNL     1     124.571  54.034  16.132  1.00  0.00    -0.311 OA
BRANCH  19  20
HETATM   20  C2  UNL     1     124.002  53.781  14.897  1.00  0.00     0.060 C 
HETATM   21  C1  UNL     1     124.777  54.237  13.707  1.00  0.00     0.045 C 
HETATM   22  C3  UNL     1     122.580  54.291  14.774  1.00  0.00     0.045 C 
HETATM   23  C4  UNL     1     123.890  52.251  14.779  1.00  0.00     0.045 C 
ENDBRANCH  19  20
ENDBRANCH  17  19
ENDBRANCH  16  17
ENDBRANCH  13  16
BRANCH  13  24
HETATM   24  C8  UNL     1     124.026  55.909  18.826  1.00  0.00     0.217 C 
BRANCH  24  25
HETATM   25  O3  UNL     1     123.295  54.750  18.861  1.00  0.00    -0.395 OA
ATOM     26  H3  UNL     1     122.589  54.780  19.497  1.00  0.00     0.209 HD
ENDBRANCH  24  25
ENDBRANCH  13  24
ENDBRANCH   1  11
BRANCH   2  27
HETATM   27  C12 UNL     1     118.788  57.365  18.115  1.00  0.00     0.007 C 
BRANCH  27  28
HETATM   28  C13 UNL     1     118.164  56.632  16.995  1.00  0.00     0.000 C 
BRANCH  28  29
HETATM   29  C14 UNL     1     118.961  56.070  15.893  1.00  0.00     0.000 C 
BRANCH  29  30
HETATM   30  C15 UNL     1     118.344  54.835  15.282  1.00  0.00     0.002 C 
BRANCH  30  31
HETATM   31  C16 UNL     1     118.943  53.529  15.513  1.00  0.00     0.044 C 
BRANCH  31  32
HETATM   32  C17 UNL     1     118.651  52.349  14.658  1.00  0.00     0.283 C 
BRANCH  32  33
HETATM   33  N2  UNL     1     119.659  51.331  15.176  1.00  0.00    -0.065 N 
ATOM     34  H23 UNL     1     119.418  50.897  16.067  1.00  0.00     0.275 HD
ATOM     35  H22 UNL     1     119.698  50.457  14.652  1.00  0.00     0.275 HD
ATOM     36  H21 UNL     1     120.523  51.873  15.178  1.00  0.00     0.275 HD
ENDBRANCH  32  33
BRANCH  32  37
HETATM   37  C18 UNL     1     118.924  52.415  13.229  1.00  0.00     0.204 C 
HETATM   38  O5  UNL     1     120.120  52.622  12.819  1.00  0.00    -0.646 OA
HETATM   39  O6  UNL     1     117.991  52.262  12.233  1.00  0.00    -0.646 OA
ENDBRANCH  32  37
ENDBRANCH  31  32
ENDBRANCH  30  31
ENDBRANCH  29  30
ENDBRANCH  28  29
ENDBRANCH  27  28
ENDBRANCH   2  27
BRANCH   5  40
HETATM   40  O8  UNL     1     123.237  59.433  20.521  1.00  0.00    -0.298 OA
BRANCH  40  41
HETATM   41  C21 UNL     1     124.031  60.467  20.039  1.00  0.00     0.142 C 
HETATM   42  C22 UNL     1     125.419  60.494  20.618  1.00  0.00     0.017 C 
HETATM   43  C23 UNL     1     125.598  59.149  19.968  1.00  0.00     0.014 C 
HETATM   44  C25 UNL     1     125.847  61.075  19.303  1.00  0.00     0.014 C 
HETATM   45  C24 UNL     1     124.911  59.974  18.912  1.00  0.00     0.017 C 
ENDBRANCH  40  41
ENDBRANCH   5  40
TORSDOF 17
ENDMDL
MODEL 4
REMARK VINA RESULT: -8.260771425      2.171      5.910
REMARK  17 active torsions:
REMARK  status: ('A' for Active; 'I' for Inactive)
REMARK    1  A    between atoms: C2_2  and  O1_5 
REMARK    2  A    between atoms: O1_5  and  C5_6 
REMARK    3  A    between atoms: C5_6  and  C6_8 
REMARK    4  A    between atoms: C6_8  and  C7_9 
REMARK    5  A    between atoms: C7_9  and  C8_10 
REMARK    6  A    between atoms: C8_10  and  O3_11 
REMARK       I    between atoms: N1_13  and  C9_15 
REMARK    7  A    between atoms: C9_15  and  C10_17 
REMARK    8  A    between atoms: C11_18  and  C12_19 
REMARK    9  A    between atoms: C12_19  and  C13_20 
REMARK   10  A    between atoms: C13_20  and  C14_21 
REMARK   11  A    between atoms: C14_21  and  C15_22 
REMARK   12  A    between atoms: C15_22  and  C16_23 
REMARK   13  A    between atoms: C16_23  and  C17_24 
REMARK   14  A    between atoms: C17_24  and  N2_25 
REMARK   15  A    between atoms: C17_24  and  C18_29 
REMARK       I    between atoms: N3_33  and  C20_34 
REMARK   16  A    between atoms: C20_34  and  O8_36 
REMARK   17  A    between atoms: O8_36  and  C21_37 
ROOT
HETATM    1  C10 UNL     1     123.925  56.625  18.605  1.00  0.00     0.108 C 
HETATM    2  C11 UNL     1     124.853  57.287  17.669  1.00  0.00     0.025 C 
HETATM    3  C19 UNL     1     124.342  58.701  17.781  1.00  0.00     0.104 C 
HETATM    4  N3  UNL     1     122.936  58.622  18.083  1.00  0.00    -0.316 N 
HETATM    5  C20 UNL     1     121.683  59.040  17.616  1.00  0.00     0.364 C 
HETATM    6  O7  UNL     1     121.562  59.766  16.597  1.00  0.00    -0.238 OA
HETATM    7  C26 UNL     1     123.363  57.881  19.263  1.00  0.00     0.113 C 
HETATM    8  C27 UNL     1     124.470  58.910  19.295  1.00  0.00    -0.005 C 
HETATM    9  C28 UNL     1     125.735  58.605  19.951  1.00  0.00     0.019 C 
HETATM   10  C29 UNL     1     123.913  60.255  19.703  1.00  0.00     0.019 C 
ENDROOT
BRANCH   1  11
HETATM   11  C9  UNL     1     122.874  55.756  18.114  1.00  0.00     0.228 C 
HETATM   12  N1  UNL     1     122.068  55.914  16.988  1.00  0.00    -0.331 N 
HETATM   13  C7  UNL     1     121.466  55.021  16.320  1.00  0.00     0.022 C 
ATOM     14  H1  UNL     1     121.946  56.872  16.659  1.00  0.00     0.168 HD
HETATM   15  O4  UNL     1     122.671  54.703  18.818  1.00  0.00    -0.273 OA
BRANCH  13  16
HETATM   16  C6  UNL     1     120.617  55.263  15.123  1.00  0.00     0.165 C 
BRANCH  16  17
HETATM   17  C5  UNL     1     119.571  54.290  14.851  1.00  0.00     0.265 C 
HETATM   18  O2  UNL     1     118.455  54.279  15.410  1.00  0.00    -0.265 OA
BRANCH  17  19
HETATM   19  O1  UNL     1     119.838  53.312  13.908  1.00  0.00    -0.311 OA
BRANCH  19  20
HETATM   20  C2  UNL     1     119.191  52.101  13.733  1.00  0.00     0.060 C 
HETATM   21  C1  UNL     1     117.797  52.167  13.207  1.00  0.00     0.045 C 
HETATM   22  C3  UNL     1     119.201  51.230  14.973  1.00  0.00     0.045 C 
HETATM   23  C4  UNL     1     120.009  51.321  12.689  1.00  0.00     0.045 C 
ENDBRANCH  19  20
ENDBRANCH  17  19
ENDBRANCH  16  17
ENDBRANCH  13  16
BRANCH  13  24
HETATM   24  C8  UNL     1     121.528  53.566  16.715  1.00  0.00     0.217 C 
BRANCH  24  25
HETATM   25  O3  UNL     1     122.284  52.814  15.854  1.00  0.00    -0.395 OA
ATOM     26  H3  UNL     1     123.158  52.641  16.186  1.00  0.00     0.209 HD
ENDBRANCH  24  25
ENDBRANCH  13  24
ENDBRANCH   1  11
BRANCH   2  27
HETATM   27  C12 UNL     1     125.273  56.787  16.388  1.00  0.00     0.007 C 
BRANCH  27  28
HETATM   28  C13 UNL     1     126.092  55.562  16.301  1.00  0.00     0.000 C 
BRANCH  28  29
HETATM   29  C14 UNL     1     125.491  54.219  16.344  1.00  0.00     0.000 C 
BRANCH  29  30
HETATM   30  C15 UNL     1     125.808  53.386  15.127  1.00  0.00     0.002 C 
BRANCH  30  31
HETATM   31  C16 UNL     1     125.174  53.683  13.852  1.00  0.00     0.044 C 
BRANCH  31  32
HETATM   32  C17 UNL     1     124.512  52.644  13.021  1.00  0.00     0.283 C 
BRANCH  32  33
HETATM   33  N2  UNL     1     123.042  53.013  13.170  1.00  0.00    -0.065 N 
ATOM     34  H23 UNL     1     122.594  52.675  14.022  1.00  0.00     0.275 HD
ATOM     35  H22 UNL     1     122.860  54.000  13.353  1.00  0.00     0.275 HD
ATOM     36  H21 UNL     1     122.646  52.654  12.301  1.00  0.00     0.275 HD
ENDBRANCH  32  33
BRANCH  32  37
HETATM   37  C18 UNL     1     124.566  51.250  13.440  1.00  0.00     0.204 C 
HETATM   38  O5  UNL     1     123.690  50.799  14.259  1.00  0.00    -0.646 OA
HETATM   39  O6  UNL     1     125.495  50.330  13.023  1.00  0.00    -0.646 OA
ENDBRANCH  32  37
ENDBRANCH  31  32
ENDBRANCH  30  31
ENDBRANCH  29  30
ENDBRANCH  28  29
ENDBRANCH  27  28
ENDBRANCH   2  27
BRANCH   5  40
HETATM   40  O8  UNL     1     120.496  58.678  18.250  1.00  0.00    -0.298 OA
BRANCH  40  41
HETATM   41  C21 UNL     1     119.328  58.265  17.619  1.00  0.00     0.142 C 
HETATM   42  C22 UNL     1     118.833  56.917  18.068  1.00  0.00     0.017 C 
HETATM   43  C23 UNL     1     118.679  57.548  19.426  1.00  0.00     0.014 C 
HETATM   44  C25 UNL     1     117.458  57.439  17.780  1.00  0.00     0.014 C 
HETATM   45  C24 UNL     1     118.125  58.581  18.479  1.00  0.00     0.017 C 
ENDBRANCH  40  41
ENDBRANCH   5  40
TORSDOF 17
ENDMDL
MODEL 5
REMARK VINA RESULT: -8.247513066      3.780      8.246
REMARK  17 active torsions:
REMARK  status: ('A' for Active; 'I' for Inactive)
REMARK    1  A    between atoms: C2_2  and  O1_5 
REMARK    2  A    between atoms: O1_5  and  C5_6 
REMARK    3  A    between atoms: C5_6  and  C6_8 
REMARK    4  A    between atoms: C6_8  and  C7_9 
REMARK    5  A    between atoms: C7_9  and  C8_10 
REMARK    6  A    between atoms: C8_10  and  O3_11 
REMARK       I    between atoms: N1_13  and  C9_15 
REMARK    7  A    between atoms: C9_15  and  C10_17 
REMARK    8  A    between atoms: C11_18  and  C12_19 
REMARK    9  A    between atoms: C12_19  and  C13_20 
REMARK   10  A    between atoms: C13_20  and  C14_21 
REMARK   11  A    between atoms: C14_21  and  C15_22 
REMARK   12  A    between atoms: C15_22  and  C16_23 
REMARK   13  A    between atoms: C16_23  and  C17_24 
REMARK   14  A    between atoms: C17_24  and  N2_25 
REMARK   15  A    between atoms: C17_24  and  C18_29 
REMARK       I    between atoms: N3_33  and  C20_34 
REMARK   16  A    between atoms: C20_34  and  O8_36 
REMARK   17  A    between atoms: O8_36  and  C21_37 
ROOT
HETATM    1  C10 UNL     1     121.011  56.399  18.189  1.00  0.00     0.108 C 
HETATM    2  C11 UNL     1     120.849  56.167  16.741  1.00  0.00     0.025 C 
HETATM    3  C19 UNL     1     122.296  56.242  16.322  1.00  0.00     0.104 C 
HETATM    4  N3  UNL     1     122.958  57.135  17.238  1.00  0.00    -0.316 N 
HETATM    5  C20 UNL     1     123.723  58.309  17.275  1.00  0.00     0.364 C 
HETATM    6  O7  UNL     1     124.061  58.915  16.227  1.00  0.00    -0.238 OA
HETATM    7  C26 UNL     1     122.521  56.198  18.265  1.00  0.00     0.113 C 
HETATM    8  C27 UNL     1     122.892  55.160  17.231  1.00  0.00    -0.005 C 
HETATM    9  C28 UNL     1     122.276  53.840  17.263  1.00  0.00     0.019 C 
HETATM   10  C29 UNL     1     124.395  55.097  17.079  1.00  0.00     0.019 C 
ENDROOT
BRANCH   1  11
HETATM   11  C9  UNL     1     120.602  57.655  18.787  1.00  0.00     0.228 C 
HETATM   12  N1  UNL     1     121.260  58.415  19.752  1.00  0.00    -0.331 N 
HETATM   13  C7  UNL     1     121.160  59.658  19.977  1.00  0.00     0.022 C 
ATOM     14  H1  UNL     1     121.906  57.905  20.355  1.00  0.00     0.168 HD
HETATM   15  O4  UNL     1     119.486  58.120  18.358  1.00  0.00    -0.273 OA
BRANCH  13  16
HETATM   16  C6  UNL     1     121.896  60.407  21.030  1.00  0.00     0.165 C 
BRANCH  16  17
HETATM   17  C5  UNL     1     121.097  61.180  21.968  1.00  0.00     0.265 C 
HETATM   18  O2  UNL     1     120.842  62.396  21.844  1.00  0.00    -0.265 OA
BRANCH  17  19
HETATM   19  O1  UNL     1     120.588  60.516  23.072  1.00  0.00    -0.311 OA
BRANCH  19  20
HETATM   20  C2  UNL     1     121.024  60.591  24.383  1.00  0.00     0.060 C 
HETATM   21  C1  UNL     1     122.304  61.320  24.613  1.00  0.00     0.045 C 
HETATM   22  C3  UNL     1     121.105  59.240  25.067  1.00  0.00     0.045 C 
HETATM   23  C4  UNL     1     119.940  61.364  25.155  1.00  0.00     0.045 C 
ENDBRANCH  19  20
ENDBRANCH  17  19
ENDBRANCH  16  17
ENDBRANCH  13  16
BRANCH  13  24
HETATM   24  C8  UNL     1     120.215  60.529  19.184  1.00  0.00     0.217 C 
BRANCH  24  25
HETATM   25  O3  UNL     1     120.777  61.007  18.029  1.00  0.00    -0.395 OA
ATOM     26  H3  UNL     1     120.175  60.994  17.294  1.00  0.00     0.209 HD
ENDBRANCH  24  25
ENDBRANCH  13  24
ENDBRANCH   1  11
BRANCH   2  27
HETATM   27  C12 UNL     1     119.838  56.737  15.894  1.00  0.00     0.007 C 
BRANCH  27  28
HETATM   28  C13 UNL     1     118.603  55.981  15.600  1.00  0.00     0.000 C 
BRANCH  28  29
HETATM   29  C14 UNL     1     118.620  54.740  14.811  1.00  0.00     0.000 C 
BRANCH  29  30
HETATM   30  C15 UNL     1     118.434  53.499  15.650  1.00  0.00     0.002 C 
BRANCH  30  31
HETATM   31  C16 UNL     1     119.231  52.311  15.384  1.00  0.00     0.044 C 
BRANCH  31  32
HETATM   32  C17 UNL     1     118.923  51.367  14.279  1.00  0.00     0.283 C 
BRANCH  32  33
HETATM   33  N2  UNL     1     119.984  50.293  14.478  1.00  0.00    -0.065 N 
ATOM     34  H23 UNL     1     120.944  50.595  14.309  1.00  0.00     0.275 HD
ATOM     35  H22 UNL     1     120.142  50.016  15.447  1.00  0.00     0.275 HD
ATOM     36  H21 UNL     1     119.650  49.551  13.864  1.00  0.00     0.275 HD
ENDBRANCH  32  33
BRANCH  32  37
HETATM   37  C18 UNL     1     119.114  51.794  12.899  1.00  0.00     0.204 C 
HETATM   38  O5  UNL     1     118.114  52.233  12.226  1.00  0.00    -0.646 OA
HETATM   39  O6  UNL     1     120.306  51.781  12.219  1.00  0.00    -0.646 OA
ENDBRANCH  32  37
ENDBRANCH  31  32
ENDBRANCH  30  31
ENDBRANCH  29  30
ENDBRANCH  28  29
ENDBRANCH  27  28
ENDBRANCH   2  27
BRANCH   5  40
HETATM   40  O8  UNL     1     124.154  58.875  18.472  1.00  0.00    -0.298 OA
BRANCH  40  41
HETATM   41  C21 UNL     1     125.041  59.939  18.598  1.00  0.00     0.142 C 
HETATM   42  C22 UNL     1     125.350  60.313  20.022  1.00  0.00     0.017 C 
HETATM   43  C23 UNL     1     125.934  58.932  20.143  1.00  0.00     0.014 C 
HETATM   44  C25 UNL     1     126.698  60.729  19.513  1.00  0.00     0.014 C 
HETATM   45  C24 UNL     1     126.448  59.428  18.818  1.00  0.00     0.017 C 
ENDBRANCH  40  41
ENDBRANCH   5  40
TORSDOF 17
ENDMDL
