MODEL 1
REMARK VINA RESULT: -8.532034551      0.000      0.000
REMARK  10 active torsions:
REMARK  status: ('A' for Active; 'I' for Inactive)
REMARK    1  A    between atoms: C2_2  and  C3_3 
REMARK    2  A    between atoms: C3_3  and  N1_4 
REMARK    3  A    between atoms: C3_3  and  C19_44 
REMARK    4  A    between atoms: N1_4  and  C4_6 
REMARK    5  A    between atoms: C8_17  and  C9_18 
REMARK    6  A    between atoms: C9_18  and  O1_19 
REMARK    7  A    between atoms: C9_18  and  C10_21 
REMARK    8  A    between atoms: C10_21  and  O2_22 
REMARK    9  A    between atoms: C13_29  and  N7_30 
REMARK   10  A    between atoms: C15_35  and  C16_36 
ROOT
HETATM    1  C4  UNL     1      -4.722  25.587  28.752  1.00  0.00     0.113 C 
HETATM    2  N2  UNL     1      -4.766  24.361  28.193  1.00  0.00    -0.180 N 
ATOM      3  H2  UNL     1      -4.467  24.196  27.232  1.00  0.00     0.185 HD
HETATM    4  C5  UNL     1      -5.241  23.334  28.999  1.00  0.00     0.675 C 
HETATM    5  N3  UNL     1      -5.608  22.242  28.555  1.00  0.00    -0.235 N 
ATOM      6  H31 UNL     1      -5.957  21.488  29.146  1.00  0.00     0.174 HD
ATOM      7  H32 UNL     1      -5.577  22.084  27.548  1.00  0.00     0.174 HD
HETATM    8  N4  UNL     1      -5.285  23.551  30.371  1.00  0.00    -0.197 N 
ATOM      9  H4  UNL     1      -5.411  22.763  31.006  1.00  0.00     0.180 HD
HETATM   10  C6  UNL     1      -5.154  24.863  30.891  1.00  0.00     0.161 A 
HETATM   11  C7  UNL     1      -5.835  26.264  30.353  1.00  0.00     0.116 A 
HETATM   12  C8  UNL     1      -6.938  26.650  31.171  1.00  0.00     0.034 A 
HETATM   13  N5  UNL     1      -6.419  26.873  31.806  1.00  0.00    -0.364 N 
ATOM     14  H5  UNL     1      -6.641  27.254  32.726  1.00  0.00     0.161 HD
HETATM   15  C11 UNL     1      -5.164  26.568  31.231  1.00  0.00     0.152 A 
HETATM   16  C12 UNL     1      -5.506  26.073  29.906  1.00  0.00     0.131 A 
HETATM   17  N6  UNL     1      -4.137  26.654  32.281  1.00  0.00    -0.297 N 
HETATM   18  C13 UNL     1      -3.580  27.704  32.947  1.00  0.00     0.189 C 
HETATM   19  C15 UNL     1      -3.610  25.348  32.621  1.00  0.00     0.136 C 
HETATM   20  N11 UNL     1      -4.213  24.531  31.843  1.00  0.00    -0.345 N 
ATOM     21  H11 UNL     1      -3.977  23.542  31.937  1.00  0.00     0.163 HD
ENDROOT
BRANCH   1  22
HETATM   22  N1  UNL     1      -4.011  26.425  28.202  1.00  0.00    -0.368 N 
ATOM     23  H1  UNL     1      -4.638  27.058  27.706  1.00  0.00     0.161 HD
BRANCH  22  24
HETATM   24  C3  UNL     1      -2.847  26.836  27.990  1.00  0.00     0.134 C 
BRANCH  24  25
HETATM   25  C2  UNL     1      -2.903  28.343  28.120  1.00  0.00     0.027 C 
HETATM   26  C1  UNL     1      -1.708  28.897  28.824  1.00  0.00     0.007 C 
ENDBRANCH  24  25
BRANCH  24  27
HETATM   27  C19 UNL     1      -2.467  26.346  26.663  1.00  0.00     0.050 A 
HETATM   28  C20 UNL     1      -1.191  26.463  26.230  1.00  0.00     0.047 A 
HETATM   29  C21 UNL     1      -1.111  25.921  24.960  1.00  0.00     0.111 A 
HETATM   30  N12 UNL     1      -2.335  25.498  24.673  1.00  0.00    -0.308 N 
HETATM   31  C22 UNL     1      -2.719  24.842  23.411  1.00  0.00     0.177 C 
HETATM   32  N13 UNL     1      -3.134  25.751  25.678  1.00  0.00    -0.301 N 
ATOM     33  H13 UNL     1      -4.128  25.523  25.703  1.00  0.00     0.187 HD
ENDBRANCH  24  27
ENDBRANCH  22  24
ENDBRANCH   1  22
BRANCH  12  34
HETATM   34  C9  UNL     1      -8.115  26.964  31.786  1.00  0.00     0.188 C 
BRANCH  34  35
HETATM   35  O1  UNL     1      -8.623  25.916  32.599  1.00  0.00    -0.388 OA
ATOM     36  H1  UNL     1      -9.535  26.032  32.836  1.00  0.00     0.210 HD
ENDBRANCH  34  35
BRANCH  34  37
HETATM   37  C10 UNL     1      -7.790  27.985  32.999  1.00  0.00     0.201 C 
BRANCH  37  38
HETATM   38  O2  UNL     1      -8.172  29.161  32.359  1.00  0.00    -0.398 OA
ATOM     39  H2  UNL     1      -7.423  29.241  31.781  1.00  0.00     0.209 HD
ENDBRANCH  37  38
ENDBRANCH  34  37
ENDBRANCH  12  34
BRANCH  18  40
HETATM   40  N7  UNL     1      -2.537  28.232  32.195  1.00  0.00    -0.329 N 
HETATM   41  C14 UNL     1      -1.449  28.551  32.691  1.00  0.00     0.201 C 
HETATM   42  N8  UNL     1      -1.178  28.403  34.058  1.00  0.00    -0.066 NA
HETATM   43  N9  UNL     1      -0.482  29.059  31.810  1.00  0.00    -0.066 NA
ATOM     44  H7  UNL     1      -2.674  28.363  31.194  1.00  0.00     0.168 HD
ENDBRANCH  18  40
BRANCH  19  45
HETATM   45  C16 UNL     1      -2.604  25.101  33.561  1.00  0.00     0.083 A 
HETATM   46  C17 UNL     1      -2.886  24.900  34.892  1.00  0.00     0.084 A 
HETATM   47  S1  UNL     1      -1.314  24.717  35.506  1.00  0.00    -0.094 SA
HETATM   48  C18 UNL     1      -0.407  24.902  34.068  1.00  0.00     0.138 A 
HETATM   49  N10 UNL     1      -1.354  25.095  33.194  1.00  0.00    -0.357 N 
ATOM     50  H10 UNL     1      -1.114  25.244  32.215  1.00  0.00     0.166 HD
ENDBRANCH  19  45
TORSDOF 10
ENDMDL
MODEL 2
REMARK VINA RESULT: -8.403179178      0.923      1.050
REMARK  10 active torsions:
REMARK  status: ('A' for Active; 'I' for Inactive)
REMARK    1  A    between atoms: C2_2  and  C3_3 
REMARK    2  A    between atoms: C3_3  and  N1_4 
REMARK    3  A    between atoms: C3_3  and  C19_44 
REMARK    4  A    between atoms: N1_4  and  C4_6 
REMARK    5  A    between atoms: C8_17  and  C9_18 
REMARK    6  A    between atoms: C9_18  and  O1_19 
REMARK    7  A    between atoms: C9_18  and  C10_21 
REMARK    8  A    between atoms: C10_21  and  O2_22 
REMARK    9  A    between atoms: C13_29  and  N7_30 
REMARK   10  A    between atoms: C15_35  and  C16_36 
ROOT
HETATM    1  C4  UNL     1      -4.327  25.207  28.699  1.00  0.00     0.113 C 
HETATM    2  N2  UNL     1      -4.260  23.898  28.383  1.00  0.00    -0.180 N 
ATOM      3  H2  UNL     1      -3.977  23.581  27.456  1.00  0.00     0.185 HD
HETATM    4  C5  UNL     1      -4.596  23.004  29.392  1.00  0.00     0.675 C 
HETATM    5  N3  UNL     1      -4.860  21.817  29.180  1.00  0.00    -0.235 N 
ATOM      6  H31 UNL     1      -5.107  21.160  29.920  1.00  0.00     0.174 HD
ATOM      7  H32 UNL     1      -4.846  21.472  28.221  1.00  0.00     0.174 HD
HETATM    8  N4  UNL     1      -4.617  23.475  30.699  1.00  0.00    -0.197 N 
ATOM      9  H4  UNL     1      -4.638  22.816  31.477  1.00  0.00     0.180 HD
HETATM   10  C6  UNL     1      -4.609  24.869  30.955  1.00  0.00     0.161 A 
HETATM   11  C7  UNL     1      -5.451  26.067  30.201  1.00  0.00     0.116 A 
HETATM   12  C8  UNL     1      -6.561  26.494  30.989  1.00  0.00     0.034 A 
HETATM   13  N5  UNL     1      -6.048  26.884  31.542  1.00  0.00    -0.364 N 
ATOM     14  H5  UNL     1      -6.278  27.412  32.385  1.00  0.00     0.161 HD
HETATM   15  C11 UNL     1      -4.788  26.598  30.969  1.00  0.00     0.152 A 
HETATM   16  C12 UNL     1      -5.118  25.828  29.781  1.00  0.00     0.131 A 
HETATM   17  N6  UNL     1      -3.741  26.984  31.929  1.00  0.00    -0.297 N 
HETATM   18  C13 UNL     1      -3.275  28.192  32.356  1.00  0.00     0.189 C 
HETATM   19  C15 UNL     1      -3.067  25.826  32.479  1.00  0.00     0.136 C 
HETATM   20  N11 UNL     1      -3.607  24.819  31.902  1.00  0.00    -0.345 N 
ATOM     21  H11 UNL     1      -3.264  23.895  32.167  1.00  0.00     0.163 HD
ENDROOT
BRANCH   1  22
HETATM   22  N1  UNL     1      -3.727  25.989  27.965  1.00  0.00    -0.368 N 
ATOM     23  H1  UNL     1      -4.357  26.205  27.192  1.00  0.00     0.161 HD
BRANCH  22  24
HETATM   24  C3  UNL     1      -2.675  26.636  27.758  1.00  0.00     0.134 C 
BRANCH  24  25
HETATM   25  C2  UNL     1      -3.034  28.094  27.942  1.00  0.00     0.027 C 
HETATM   26  C1  UNL     1      -1.835  28.984  27.899  1.00  0.00     0.007 C 
ENDBRANCH  24  25
BRANCH  24  27
HETATM   27  C19 UNL     1      -2.222  26.277  26.412  1.00  0.00     0.050 A 
HETATM   28  C20 UNL     1      -3.032  25.584  25.579  1.00  0.00     0.047 A 
HETATM   29  C21 UNL     1      -2.363  25.387  24.386  1.00  0.00     0.111 A 
HETATM   30  N12 UNL     1      -1.179  25.966  24.538  1.00  0.00    -0.308 N 
HETATM   31  C22 UNL     1      -0.128  26.006  23.506  1.00  0.00     0.177 C 
HETATM   32  N13 UNL     1      -1.097  26.489  25.734  1.00  0.00    -0.301 N 
ATOM     33  H13 UNL     1      -0.285  26.989  26.096  1.00  0.00     0.187 HD
ENDBRANCH  24  27
ENDBRANCH  22  24
ENDBRANCH   1  22
BRANCH  12  34
HETATM   34  C9  UNL     1      -7.743  26.804  31.596  1.00  0.00     0.188 C 
BRANCH  34  35
HETATM   35  O1  UNL     1      -8.163  25.832  32.542  1.00  0.00    -0.388 OA
ATOM     36  H1  UNL     1      -9.077  25.915  32.787  1.00  0.00     0.210 HD
ENDBRANCH  34  35
BRANCH  34  37
HETATM   37  C10 UNL     1      -7.462  27.983  32.668  1.00  0.00     0.201 C 
BRANCH  37  38
HETATM   38  O2  UNL     1      -8.401  28.894  32.192  1.00  0.00    -0.398 OA
ATOM     39  H2  UNL     1      -7.817  29.405  31.644  1.00  0.00     0.209 HD
ENDBRANCH  37  38
ENDBRANCH  34  37
ENDBRANCH  12  34
BRANCH  18  40
HETATM   40  N7  UNL     1      -2.320  28.665  31.464  1.00  0.00    -0.329 N 
HETATM   41  C14 UNL     1      -1.231  29.121  31.832  1.00  0.00     0.201 C 
HETATM   42  N8  UNL     1      -0.869  29.198  33.183  1.00  0.00    -0.066 NA
HETATM   43  N9  UNL     1      -0.356  29.551  30.820  1.00  0.00    -0.066 NA
ATOM     44  H7  UNL     1      -2.525  28.634  30.466  1.00  0.00     0.168 HD
ENDBRANCH  18  40
BRANCH  19  45
HETATM   45  C16 UNL     1      -2.010  25.862  33.395  1.00  0.00     0.083 A 
HETATM   46  C17 UNL     1      -2.224  25.979  34.748  1.00  0.00     0.084 A 
HETATM   47  S1  UNL     1      -0.620  26.026  35.302  1.00  0.00    -0.094 SA
HETATM   48  C18 UNL     1       0.214  25.898  33.813  1.00  0.00     0.138 A 
HETATM   49  N10 UNL     1      -0.778  25.827  32.973  1.00  0.00    -0.357 N 
ATOM     50  H10 UNL     1      -0.589  25.744  31.974  1.00  0.00     0.166 HD
ENDBRANCH  19  45
TORSDOF 10
ENDMDL
MODEL 3
REMARK VINA RESULT: -8.027062165      1.456      1.725
REMARK  10 active torsions:
REMARK  status: ('A' for Active; 'I' for Inactive)
REMARK    1  A    between atoms: C2_2  and  C3_3 
REMARK    2  A    between atoms: C3_3  and  N1_4 
REMARK    3  A    between atoms: C3_3  and  C19_44 
REMARK    4  A    between atoms: N1_4  and  C4_6 
REMARK    5  A    between atoms: C8_17  and  C9_18 
REMARK    6  A    between atoms: C9_18  and  O1_19 
REMARK    7  A    between atoms: C9_18  and  C10_21 
REMARK    8  A    between atoms: C10_21  and  O2_22 
REMARK    9  A    between atoms: C13_29  and  N7_30 
REMARK   10  A    between atoms: C15_35  and  C16_36 
ROOT
HETATM    1  C4  UNL     1      -4.186  24.341  29.026  1.00  0.00     0.113 C 
HETATM    2  N2  UNL     1      -4.022  23.061  28.635  1.00  0.00    -0.180 N 
ATOM      3  H2  UNL     1      -3.866  22.813  27.658  1.00  0.00     0.185 HD
HETATM    4  C5  UNL     1      -4.077  22.099  29.636  1.00  0.00     0.675 C 
HETATM    5  N3  UNL     1      -4.234  20.897  29.408  1.00  0.00    -0.235 N 
ATOM      6  H31 UNL     1      -4.274  20.191  30.142  1.00  0.00     0.174 HD
ATOM      7  H32 UNL     1      -4.342  20.588  28.442  1.00  0.00     0.174 HD
HETATM    8  N4  UNL     1      -3.930  22.521  30.952  1.00  0.00    -0.197 N 
ATOM      9  H4  UNL     1      -3.743  21.839  31.686  1.00  0.00     0.180 HD
HETATM   10  C6  UNL     1      -4.041  23.897  31.277  1.00  0.00     0.161 A 
HETATM   11  C7  UNL     1      -5.132  25.006  30.736  1.00  0.00     0.116 A 
HETATM   12  C8  UNL     1      -6.134  25.267  31.717  1.00  0.00     0.034 A 
HETATM   13  N5  UNL     1      -5.584  25.699  32.198  1.00  0.00    -0.364 N 
ATOM     14  H5  UNL     1      -5.727  26.166  33.094  1.00  0.00     0.161 HD
HETATM   15  C11 UNL     1      -4.414  25.589  31.412  1.00  0.00     0.152 A 
HETATM   16  C12 UNL     1      -4.849  24.823  30.255  1.00  0.00     0.131 A 
HETATM   17  N6  UNL     1      -3.272  26.069  32.206  1.00  0.00    -0.297 N 
HETATM   18  C13 UNL     1      -2.884  27.310  32.614  1.00  0.00     0.189 C 
HETATM   19  C15 UNL     1      -2.385  24.985  32.576  1.00  0.00     0.136 C 
HETATM   20  N11 UNL     1      -2.894  23.939  32.043  1.00  0.00    -0.345 N 
ATOM     21  H11 UNL     1      -2.407  23.056  32.198  1.00  0.00     0.163 HD
ENDROOT
BRANCH   1  22
HETATM   22  N1  UNL     1      -3.814  25.215  28.246  1.00  0.00    -0.368 N 
ATOM     23  H1  UNL     1      -4.454  25.189  27.453  1.00  0.00     0.161 HD
BRANCH  22  24
HETATM   24  C3  UNL     1      -2.986  26.123  28.007  1.00  0.00     0.134 C 
BRANCH  24  25
HETATM   25  C2  UNL     1      -3.738  27.428  28.158  1.00  0.00     0.027 C 
HETATM   26  C1  UNL     1      -5.129  27.347  27.621  1.00  0.00     0.007 C 
ENDBRANCH  24  25
BRANCH  24  27
HETATM   27  C19 UNL     1      -2.461  25.867  26.664  1.00  0.00     0.050 A 
HETATM   28  C20 UNL     1      -1.449  26.617  26.169  1.00  0.00     0.047 A 
HETATM   29  C21 UNL     1      -1.151  26.161  24.898  1.00  0.00     0.111 A 
HETATM   30  N12 UNL     1      -1.988  25.157  24.671  1.00  0.00    -0.308 N 
HETATM   31  C22 UNL     1      -2.027  24.365  23.430  1.00  0.00     0.177 C 
HETATM   32  N13 UNL     1      -2.761  24.986  25.713  1.00  0.00    -0.301 N 
ATOM     33  H13 UNL     1      -3.491  24.277  25.787  1.00  0.00     0.187 HD
ENDBRANCH  24  27
ENDBRANCH  22  24
ENDBRANCH   1  22
BRANCH  12  34
HETATM   34  C9  UNL     1      -7.224  25.409  32.525  1.00  0.00     0.188 C 
BRANCH  34  35
HETATM   35  O1  UNL     1      -6.916  25.968  33.794  1.00  0.00    -0.388 OA
ATOM     36  H1  UNL     1      -7.658  26.392  34.208  1.00  0.00     0.210 HD
ENDBRANCH  34  35
BRANCH  34  37
HETATM   37  C10 UNL     1      -8.089  26.665  31.985  1.00  0.00     0.201 C 
BRANCH  37  38
HETATM   38  O2  UNL     1      -9.331  26.254  32.458  1.00  0.00    -0.398 OA
ATOM     39  H2  UNL     1      -9.062  26.027  33.341  1.00  0.00     0.209 HD
ENDBRANCH  37  38
ENDBRANCH  34  37
ENDBRANCH  12  34
BRANCH  18  40
HETATM   40  N7  UNL     1      -2.155  27.926  31.605  1.00  0.00    -0.329 N 
HETATM   41  C14 UNL     1      -2.381  29.082  31.226  1.00  0.00     0.201 C 
HETATM   42  N8  UNL     1      -3.396  29.868  31.787  1.00  0.00    -0.066 NA
HETATM   43  N9  UNL     1      -1.556  29.582  30.206  1.00  0.00    -0.066 NA
ATOM     44  H7  UNL     1      -1.402  27.405  31.157  1.00  0.00     0.168 HD
ENDBRANCH  18  40
BRANCH  19  45
HETATM   45  C16 UNL     1      -1.200  25.121  33.306  1.00  0.00     0.083 A 
HETATM   46  C17 UNL     1      -0.796  24.177  34.222  1.00  0.00     0.084 A 
HETATM   47  S1  UNL     1       0.624  24.906  34.797  1.00  0.00    -0.094 SA
HETATM   48  C18 UNL     1       0.625  26.339  33.863  1.00  0.00     0.138 A 
HETATM   49  N10 UNL     1      -0.461  26.185  33.162  1.00  0.00    -0.357 N 
ATOM     50  H10 UNL     1      -0.737  26.903  32.493  1.00  0.00     0.166 HD
ENDBRANCH  19  45
TORSDOF 10
ENDMDL
MODEL 4
REMARK VINA RESULT: -7.809950381      2.700      6.462
REMARK  10 active torsions:
REMARK  status: ('A' for Active; 'I' for Inactive)
REMARK    1  A    between atoms: C2_2  and  C3_3 
REMARK    2  A    between atoms: C3_3  and  N1_4 
REMARK    3  A    between atoms: C3_3  and  C19_44 
REMARK    4  A    between atoms: N1_4  and  C4_6 
REMARK    5  A    between atoms: C8_17  and  C9_18 
REMARK    6  A    between atoms: C9_18  and  O1_19 
REMARK    7  A    between atoms: C9_18  and  C10_21 
REMARK    8  A    between atoms: C10_21  and  O2_22 
REMARK    9  A    between atoms: C13_29  and  N7_30 
REMARK   10  A    between atoms: C15_35  and  C16_36 
ROOT
HETATM    1  C4  UNL     1      -2.673  26.155  32.385  1.00  0.00     0.113 C 
HETATM    2  N2  UNL     1      -2.088  27.368  32.334  1.00  0.00    -0.180 N 
ATOM      3  H2  UNL     1      -1.225  27.571  32.839  1.00  0.00     0.185 HD
HETATM    4  C5  UNL     1      -2.723  28.327  31.556  1.00  0.00     0.675 C 
HETATM    5  N3  UNL     1      -2.480  29.533  31.640  1.00  0.00    -0.235 N 
ATOM      6  H31 UNL     1      -2.946  30.238  31.068  1.00  0.00     0.174 HD
ATOM      7  H32 UNL     1      -1.789  29.851  32.320  1.00  0.00     0.174 HD
HETATM    8  N4  UNL     1      -3.664  27.893  30.629  1.00  0.00    -0.197 N 
ATOM      9  H4  UNL     1      -3.985  28.526  29.897  1.00  0.00     0.180 HD
HETATM   10  C6  UNL     1      -4.180  26.575  30.700  1.00  0.00     0.161 A 
HETATM   11  C7  UNL     1      -4.658  25.717  32.024  1.00  0.00     0.116 A 
HETATM   12  C8  UNL     1      -6.080  25.682  32.131  1.00  0.00     0.034 A 
HETATM   13  N5  UNL     1      -6.140  25.147  31.474  1.00  0.00    -0.364 N 
ATOM     14  H5  UNL     1      -6.966  24.727  31.047  1.00  0.00     0.161 HD
HETATM   15  C11 UNL     1      -4.774  25.000  31.137  1.00  0.00     0.152 A 
HETATM   16  C12 UNL     1      -4.090  25.832  32.114  1.00  0.00     0.131 A 
HETATM   17  N6  UNL     1      -4.685  24.296  29.849  1.00  0.00    -0.297 N 
HETATM   18  C13 UNL     1      -4.916  23.003  29.482  1.00  0.00     0.189 C 
HETATM   19  C15 UNL     1      -4.218  25.170  28.792  1.00  0.00     0.136 C 
HETATM   20  N11 UNL     1      -4.002  26.296  29.361  1.00  0.00    -0.345 N 
ATOM     21  H11 UNL     1      -3.668  27.057  28.769  1.00  0.00     0.163 HD
ENDROOT
BRANCH   1  22
HETATM   22  N1  UNL     1      -1.981  25.216  32.772  1.00  0.00    -0.368 N 
ATOM     23  H1  UNL     1      -1.898  24.572  31.985  1.00  0.00     0.161 HD
BRANCH  22  24
HETATM   24  C3  UNL     1      -1.332  24.711  33.716  1.00  0.00     0.134 C 
BRANCH  24  25
HETATM   25  C2  UNL     1      -0.012  25.449  33.763  1.00  0.00     0.027 C 
HETATM   26  C1  UNL     1       0.158  26.229  35.025  1.00  0.00     0.007 C 
ENDBRANCH  24  25
BRANCH  24  27
HETATM   27  C19 UNL     1      -1.227  23.278  33.431  1.00  0.00     0.050 A 
HETATM   28  C20 UNL     1      -2.250  22.621  32.838  1.00  0.00     0.047 A 
HETATM   29  C21 UNL     1      -1.886  21.296  32.685  1.00  0.00     0.111 A 
HETATM   30  N12 UNL     1      -0.662  21.200  33.187  1.00  0.00    -0.308 N 
HETATM   31  C22 UNL     1       0.129  19.958  33.232  1.00  0.00     0.177 C 
HETATM   32  N13 UNL     1      -0.275  22.369  33.628  1.00  0.00    -0.301 N 
ATOM     33  H13 UNL     1       0.628  22.559  34.063  1.00  0.00     0.187 HD
ENDBRANCH  24  27
ENDBRANCH  22  24
ENDBRANCH   1  22
BRANCH  12  34
HETATM   34  C9  UNL     1      -7.414  25.779  32.400  1.00  0.00     0.188 C 
BRANCH  34  35
HETATM   35  O1  UNL     1      -7.692  26.291  33.695  1.00  0.00    -0.388 OA
ATOM     36  H1  UNL     1      -6.943  26.267  34.278  1.00  0.00     0.210 HD
ENDBRANCH  34  35
BRANCH  34  37
HETATM   37  C10 UNL     1      -7.999  27.046  31.581  1.00  0.00     0.201 C 
BRANCH  37  38
HETATM   38  O2  UNL     1      -7.128  28.009  32.081  1.00  0.00    -0.398 OA
ATOM     39  H2  UNL     1      -7.750  28.472  32.629  1.00  0.00     0.209 HD
ENDBRANCH  37  38
ENDBRANCH  34  37
ENDBRANCH  12  34
BRANCH  18  40
HETATM   40  N7  UNL     1      -3.781  22.239  29.725  1.00  0.00    -0.329 N 
HETATM   41  C14 UNL     1      -3.316  21.449  28.894  1.00  0.00     0.201 C 
HETATM   42  N8  UNL     1      -3.898  21.260  27.634  1.00  0.00    -0.066 NA
HETATM   43  N9  UNL     1      -2.156  20.753  29.271  1.00  0.00    -0.066 NA
ATOM     44  H7  UNL     1      -3.312  22.334  30.625  1.00  0.00     0.168 HD
ENDBRANCH  18  40
BRANCH  19  45
HETATM   45  C16 UNL     1      -4.002  24.791  27.463  1.00  0.00     0.083 A 
HETATM   46  C17 UNL     1      -5.022  24.759  26.541  1.00  0.00     0.084 A 
HETATM   47  S1  UNL     1      -4.180  24.188  25.183  1.00  0.00    -0.094 SA
HETATM   48  C18 UNL     1      -2.613  24.025  25.849  1.00  0.00     0.138 A 
HETATM   49  N10 UNL     1      -2.817  24.415  27.075  1.00  0.00    -0.357 N 
ATOM     50  H10 UNL     1      -2.042  24.425  27.737  1.00  0.00     0.166 HD
ENDBRANCH  19  45
TORSDOF 10
ENDMDL
MODEL 5
REMARK VINA RESULT: -7.693199687      3.044      5.207
REMARK  10 active torsions:
REMARK  status: ('A' for Active; 'I' for Inactive)
REMARK    1  A    between atoms: C2_2  and  C3_3 
REMARK    2  A    between atoms: C3_3  and  N1_4 
REMARK    3  A    between atoms: C3_3  and  C19_44 
REMARK    4  A    between atoms: N1_4  and  C4_6 
REMARK    5  A    between atoms: C8_17  and  C9_18 
REMARK    6  A    between atoms: C9_18  and  O1_19 
REMARK    7  A    between atoms: C9_18  and  C10_21 
REMARK    8  A    between atoms: C10_21  and  O2_22 
REMARK    9  A    between atoms: C13_29  and  N7_30 
REMARK   10  A    between atoms: C15_35  and  C16_36 
ROOT
HETATM    1  C4  UNL     1      -4.353  25.510  31.449  1.00  0.00     0.113 C 
HETATM    2  N2  UNL     1      -5.680  25.378  31.648  1.00  0.00    -0.180 N 
ATOM      3  H2  UNL     1      -6.107  24.473  31.845  1.00  0.00     0.185 HD
HETATM    4  C5  UNL     1      -6.433  26.542  31.570  1.00  0.00     0.675 C 
HETATM    5  N3  UNL     1      -7.660  26.545  31.440  1.00  0.00    -0.235 N 
ATOM      6  H31 UNL     1      -8.213  27.400  31.383  1.00  0.00     0.174 HD
ATOM      7  H32 UNL     1      -8.151  25.653  31.374  1.00  0.00     0.174 HD
HETATM    8  N4  UNL     1      -5.763  27.757  31.660  1.00  0.00    -0.197 N 
ATOM      9  H4  UNL     1      -6.288  28.615  31.830  1.00  0.00     0.180 HD
HETATM   10  C6  UNL     1      -4.354  27.807  31.516  1.00  0.00     0.161 A 
HETATM   11  C7  UNL     1      -3.394  27.026  30.428  1.00  0.00     0.116 A 
HETATM   12  C8  UNL     1      -2.973  27.904  29.386  1.00  0.00     0.034 A 
HETATM   13  N5  UNL     1      -2.444  28.312  29.911  1.00  0.00    -0.364 N 
ATOM     14  H5  UNL     1      -1.817  29.095  29.727  1.00  0.00     0.161 HD
HETATM   15  C11 UNL     1      -2.676  27.602  31.111  1.00  0.00     0.152 A 
HETATM   16  C12 UNL     1      -3.659  26.600  30.732  1.00  0.00     0.131 A 
HETATM   17  N6  UNL     1      -2.027  28.327  32.215  1.00  0.00    -0.297 N 
HETATM   18  C13 UNL     1      -0.722  28.502  32.567  1.00  0.00     0.189 C 
HETATM   19  C15 UNL     1      -3.000  28.929  33.104  1.00  0.00     0.136 C 
HETATM   20  N11 UNL     1      -4.139  28.590  32.632  1.00  0.00    -0.345 N 
ATOM     21  H11 UNL     1      -4.965  28.929  33.126  1.00  0.00     0.163 HD
ENDROOT
BRANCH   1  22
HETATM   22  N1  UNL     1      -3.636  24.589  31.837  1.00  0.00    -0.368 N 
ATOM     23  H1  UNL     1      -2.710  24.987  31.990  1.00  0.00     0.161 HD
BRANCH  22  24
HETATM   24  C3  UNL     1      -3.555  23.374  32.125  1.00  0.00     0.134 C 
BRANCH  24  25
HETATM   25  C2  UNL     1      -2.338  23.232  33.013  1.00  0.00     0.027 C 
HETATM   26  C1  UNL     1      -2.187  24.380  33.957  1.00  0.00     0.007 C 
ENDBRANCH  24  25
BRANCH  24  27
HETATM   27  C19 UNL     1      -3.479  22.648  30.856  1.00  0.00     0.050 A 
HETATM   28  C20 UNL     1      -2.781  21.492  30.768  1.00  0.00     0.047 A 
HETATM   29  C21 UNL     1      -2.879  21.022  29.471  1.00  0.00     0.111 A 
HETATM   30  N12 UNL     1      -3.630  21.904  28.825  1.00  0.00    -0.308 N 
HETATM   31  C22 UNL     1      -4.003  21.804  27.403  1.00  0.00     0.177 C 
HETATM   32  N13 UNL     1      -3.982  22.863  29.642  1.00  0.00    -0.301 N 
ATOM     33  H13 UNL     1      -4.560  23.664  29.386  1.00  0.00     0.187 HD
ENDBRANCH  24  27
ENDBRANCH  22  24
ENDBRANCH   1  22
BRANCH  12  34
HETATM   34  C9  UNL     1      -2.703  28.632  28.264  1.00  0.00     0.188 C 
BRANCH  34  35
HETATM   35  O1  UNL     1      -1.486  29.359  28.343  1.00  0.00    -0.388 OA
ATOM     36  H1  UNL     1      -1.282  29.839  27.549  1.00  0.00     0.210 HD
ENDBRANCH  34  35
BRANCH  34  37
HETATM   37  C10 UNL     1      -2.222  27.609  27.106  1.00  0.00     0.201 C 
BRANCH  37  38
HETATM   38  O2  UNL     1      -0.935  28.112  26.937  1.00  0.00    -0.398 OA
ATOM     39  H2  UNL     1      -0.974  28.248  25.998  1.00  0.00     0.209 HD
ENDBRANCH  37  38
ENDBRANCH  34  37
ENDBRANCH  12  34
BRANCH  18  40
HETATM   40  N7  UNL     1      -0.295  27.418  33.325  1.00  0.00    -0.329 N 
HETATM   41  C14 UNL     1       0.274  27.547  34.416  1.00  0.00     0.201 C 
HETATM   42  N8  UNL     1       0.534  28.803  34.980  1.00  0.00    -0.066 NA
HETATM   43  N9  UNL     1       0.639  26.364  35.078  1.00  0.00    -0.066 NA
ATOM     44  H7  UNL     1      -0.456  26.477  32.966  1.00  0.00     0.168 HD
ENDBRANCH  18  40
BRANCH  19  45
HETATM   45  C16 UNL     1      -2.699  29.659  34.258  1.00  0.00     0.083 A 
HETATM   46  C17 UNL     1      -3.015  29.198  35.514  1.00  0.00     0.084 A 
HETATM   47  S1  UNL     1      -2.473  30.501  36.457  1.00  0.00    -0.094 SA
HETATM   48  C18 UNL     1      -1.889  31.537  35.228  1.00  0.00     0.138 A 
HETATM   49  N10 UNL     1      -2.140  30.832  34.162  1.00  0.00    -0.357 N 
ATOM     50  H10 UNL     1      -1.896  31.202  33.244  1.00  0.00     0.166 HD
ENDBRANCH  19  45
TORSDOF 10
ENDMDL
