MODEL 1
REMARK VINA RESULT: -10.734716160      0.000      0.000
REMARK  10 active torsions:
REMARK  status: ('A' for Active; 'I' for Inactive)
REMARK    1  A    between atoms: O1_2  and  C2_3 
REMARK    2  A    between atoms: C4_5  and  O2_6 
REMARK    3  A    between atoms: C8_11  and  N1_12 
REMARK    4  A    between atoms: C9_15  and  C10_16 
REMARK       I    between atoms: C10_16  and  N2_18 
REMARK    5  A    between atoms: N2_18  and  N3_20 
REMARK    6  A    between atoms: N3_20  and  S1_22 
REMARK    7  A    between atoms: C13_29  and  O8_30 
REMARK    8  A    between atoms: C15_32  and  C16_33 
REMARK    9  A    between atoms: C19_39  and  N5_40 
REMARK   10  A    between atoms: N5_40  and  O11_42 
ROOT
HETATM    1  C2  UNL     1      -2.637  25.208  25.471  1.00  0.00     0.080 A 
HETATM    2  C3  UNL     1      -2.647  26.634  25.602  1.00  0.00     0.074 A 
HETATM    3  C4  UNL     1      -3.191  26.977  26.764  1.00  0.00     0.072 A 
HETATM    4  C5  UNL     1      -3.587  25.991  27.523  1.00  0.00    -0.018 A 
HETATM    5  C6  UNL     1      -3.656  24.974  27.592  1.00  0.00     0.054 A 
HETATM    6  C7  UNL     1      -3.122  24.476  26.424  1.00  0.00     0.018 A 
HETATM    7  C8  UNL     1      -3.004  23.110  25.838  1.00  0.00     0.055 C 
HETATM    8  C9  UNL     1      -3.021  22.017  26.590  1.00  0.00     0.107 C 
HETATM    9  C11 UNL     1      -3.321  22.245  27.975  1.00  0.00     0.184 C 
HETATM   10  O7  UNL     1      -3.067  21.623  28.857  1.00  0.00    -0.291 OA
HETATM   11  C12 UNL     1      -4.038  23.405  28.308  1.00  0.00     0.108 A 
HETATM   12  C13 UNL     1      -3.977  24.954  28.263  1.00  0.00     0.042 A 
HETATM   13  O8  UNL     1      -4.415  25.847  29.230  1.00  0.00     0.000 OA
HETATM   14  C14 UNL     1      -4.593  26.192  29.622  1.00  0.00    -0.026 A 
HETATM   15  C15 UNL     1      -5.099  26.919  30.719  1.00  0.00     0.080 C 
HETATM   16  C17 UNL     1      -4.378  24.799  29.081  1.00  0.00     0.093 A 
HETATM   17  C18 UNL     1      -4.853  23.708  29.892  1.00  0.00     0.191 C 
HETATM   18  O10 UNL     1      -4.976  23.675  31.028  1.00  0.00    -0.290 OA
HETATM   19  C19 UNL     1      -5.074  22.816  28.901  1.00  0.00     0.098 C 
ENDROOT
BRANCH   8  20
HETATM   20  C10 UNL     1      -2.910  20.770  26.138  1.00  0.00     0.276 C 
HETATM   21  O3  UNL     1      -3.746  20.351  25.237  1.00  0.00    -0.266 OA
HETATM   22  N2  UNL     1      -1.973  19.787  26.510  1.00  0.00    -0.254 N 
ATOM     23  H2  UNL     1      -1.272  20.016  27.214  1.00  0.00     0.191 HD
BRANCH  22  24
HETATM   24  N3  UNL     1      -1.969  18.505  25.947  1.00  0.00    -0.205 N 
ATOM     25  H3  UNL     1      -2.443  18.222  25.089  1.00  0.00     0.202 HD
BRANCH  24  26
HETATM   26  S1  UNL     1      -1.021  17.495  26.963  1.00  0.00     0.223 S 
HETATM   27  O4  UNL     1      -0.462  18.206  28.144  1.00  0.00    -0.577 OA
HETATM   28  O5  UNL     1      -1.839  16.323  27.473  1.00  0.00    -0.577 OA
HETATM   29  O6  UNL     1       0.224  16.841  26.047  1.00  0.00    -0.577 OA
ENDBRANCH  24  26
ENDBRANCH  22  24
ENDBRANCH   8  20
BRANCH   7  30
HETATM   30  N1  UNL     1      -2.994  22.931  24.558  1.00  0.00    -0.398 N 
ATOM     31  H12 UNL     1      -2.651  23.707  23.991  1.00  0.00     0.156 HD
ATOM     32  H11 UNL     1      -3.234  22.027  24.151  1.00  0.00     0.156 HD
ENDBRANCH   7  30
BRANCH   1  33
HETATM   33  O1  UNL     1      -2.112  24.719  24.364  1.00  0.00    -0.355 OA
HETATM   34  C1  UNL     1      -1.611  25.497  23.317  1.00  0.00     0.210 C 
ENDBRANCH   1  33
BRANCH  19  35
HETATM   35  N5  UNL     1      -5.718  21.932  28.523  1.00  0.00    -0.268 N 
ATOM     36  H5  UNL     1      -6.360  22.105  27.750  1.00  0.00     0.194 HD
BRANCH  35  37
HETATM   37  O11 UNL     1      -5.674  20.695  29.040  1.00  0.00    -0.290 OA
ATOM     38  H11 UNL     1      -5.967  20.474  29.916  1.00  0.00     0.244 HD
ENDBRANCH  35  37
ENDBRANCH  19  35
BRANCH   3  39
HETATM   39  O2  UNL     1      -3.478  28.067  27.441  1.00  0.00    -0.360 OA
ATOM     40  H2  UNL     1      -4.196  28.427  27.949  1.00  0.00     0.217 HD
ENDBRANCH   3  39
BRANCH  15  41
HETATM   41  C16 UNL     1      -4.169  26.934  31.795  1.00  0.00     0.255 C 
HETATM   42  N4  UNL     1      -2.832  27.422  31.738  1.00  0.00    -0.058 NA
HETATM   43  O9  UNL     1      -4.563  26.475  32.891  1.00  0.00    -0.272 OA
ENDBRANCH  15  41
TORSDOF 10
ENDMDL
MODEL 2
REMARK VINA RESULT: -10.544038881      1.545      1.784
REMARK  10 active torsions:
REMARK  status: ('A' for Active; 'I' for Inactive)
REMARK    1  A    between atoms: O1_2  and  C2_3 
REMARK    2  A    between atoms: C4_5  and  O2_6 
REMARK    3  A    between atoms: C8_11  and  N1_12 
REMARK    4  A    between atoms: C9_15  and  C10_16 
REMARK       I    between atoms: C10_16  and  N2_18 
REMARK    5  A    between atoms: N2_18  and  N3_20 
REMARK    6  A    between atoms: N3_20  and  S1_22 
REMARK    7  A    between atoms: C13_29  and  O8_30 
REMARK    8  A    between atoms: C15_32  and  C16_33 
REMARK    9  A    between atoms: C19_39  and  N5_40 
REMARK   10  A    between atoms: N5_40  and  O11_42 
ROOT
HETATM    1  C2  UNL     1      -3.319  23.665  25.256  1.00  0.00     0.080 A 
HETATM    2  C3  UNL     1      -3.870  24.983  25.170  1.00  0.00     0.074 A 
HETATM    3  C4  UNL     1      -4.294  25.375  26.366  1.00  0.00     0.072 A 
HETATM    4  C5  UNL     1      -4.127  24.519  27.339  1.00  0.00    -0.018 A 
HETATM    5  C6  UNL     1      -3.774  23.590  27.574  1.00  0.00     0.054 A 
HETATM    6  C7  UNL     1      -3.299  23.054  26.398  1.00  0.00     0.018 A 
HETATM    7  C8  UNL     1      -2.753  21.721  26.013  1.00  0.00     0.055 C 
HETATM    8  C9  UNL     1      -2.203  20.902  26.899  1.00  0.00     0.107 C 
HETATM    9  C11 UNL     1      -2.322  21.327  28.265  1.00  0.00     0.184 C 
HETATM   10  O7  UNL     1      -1.692  21.061  29.137  1.00  0.00    -0.291 OA
HETATM   11  C12 UNL     1      -3.370  22.203  28.590  1.00  0.00     0.108 A 
HETATM   12  C13 UNL     1      -3.937  23.617  28.300  1.00  0.00     0.042 A 
HETATM   13  O8  UNL     1      -4.517  24.497  29.201  1.00  0.00     0.000 OA
HETATM   14  C14 UNL     1      -4.746  24.839  29.569  1.00  0.00    -0.026 A 
HETATM   15  C15 UNL     1      -5.299  25.576  30.637  1.00  0.00     0.080 C 
HETATM   16  C17 UNL     1      -4.095  23.526  29.206  1.00  0.00     0.093 A 
HETATM   17  C18 UNL     1      -3.948  22.561  30.265  1.00  0.00     0.191 C 
HETATM   18  O10 UNL     1      -3.847  22.754  31.387  1.00  0.00    -0.290 OA
HETATM   19  C19 UNL     1      -3.966  21.443  29.506  1.00  0.00     0.098 C 
ENDROOT
BRANCH   8  20
HETATM   20  C10 UNL     1      -1.687  19.706  26.626  1.00  0.00     0.276 C 
HETATM   21  O3  UNL     1      -0.895  19.582  25.603  1.00  0.00    -0.266 OA
HETATM   22  N2  UNL     1      -1.882  18.493  27.314  1.00  0.00    -0.254 N 
ATOM     23  H2  UNL     1      -2.490  18.484  28.132  1.00  0.00     0.191 HD
BRANCH  22  24
HETATM   24  N3  UNL     1      -1.269  17.298  26.914  1.00  0.00    -0.205 N 
ATOM     25  H3  UNL     1      -1.347  16.859  25.997  1.00  0.00     0.202 HD
BRANCH  24  26
HETATM   26  S1  UNL     1      -0.364  16.708  28.249  1.00  0.00     0.223 S 
HETATM   27  O4  UNL     1       1.107  16.787  28.046  1.00  0.00    -0.577 OA
HETATM   28  O5  UNL     1      -0.699  17.480  29.512  1.00  0.00    -0.577 OA
HETATM   29  O6  UNL     1      -0.817  15.117  28.533  1.00  0.00    -0.577 OA
ENDBRANCH  24  26
ENDBRANCH  22  24
ENDBRANCH   8  20
BRANCH   7  30
HETATM   30  N1  UNL     1      -2.897  21.262  24.813  1.00  0.00    -0.398 N 
ATOM     31  H12 UNL     1      -2.359  21.725  24.080  1.00  0.00     0.156 HD
ATOM     32  H11 UNL     1      -3.451  20.426  24.632  1.00  0.00     0.156 HD
ENDBRANCH   7  30
BRANCH   1  33
HETATM   33  O1  UNL     1      -2.845  23.148  24.138  1.00  0.00    -0.355 OA
HETATM   34  C1  UNL     1      -2.373  23.898  23.058  1.00  0.00     0.210 C 
ENDBRANCH   1  33
BRANCH  19  35
HETATM   35  N5  UNL     1      -4.262  20.326  29.439  1.00  0.00    -0.268 N 
ATOM     36  H5  UNL     1      -4.862  20.036  28.667  1.00  0.00     0.194 HD
BRANCH  35  37
HETATM   37  O11 UNL     1      -3.866  19.390  30.313  1.00  0.00    -0.290 OA
ATOM     38  H11 UNL     1      -3.239  18.704  30.111  1.00  0.00     0.244 HD
ENDBRANCH  35  37
ENDBRANCH  19  35
BRANCH   3  39
HETATM   39  O2  UNL     1      -4.866  26.419  26.923  1.00  0.00    -0.360 OA
ATOM     40  H2  UNL     1      -4.698  27.041  27.620  1.00  0.00     0.217 HD
ENDBRANCH   3  39
BRANCH  15  41
HETATM   41  C16 UNL     1      -4.278  26.171  31.429  1.00  0.00     0.255 C 
HETATM   42  N4  UNL     1      -3.319  27.123  30.980  1.00  0.00    -0.058 NA
HETATM   43  O9  UNL     1      -4.220  25.823  32.631  1.00  0.00    -0.272 OA
ENDBRANCH  15  41
TORSDOF 10
ENDMDL
MODEL 3
REMARK VINA RESULT: -10.543146959      3.202      6.061
REMARK  10 active torsions:
REMARK  status: ('A' for Active; 'I' for Inactive)
REMARK    1  A    between atoms: O1_2  and  C2_3 
REMARK    2  A    between atoms: C4_5  and  O2_6 
REMARK    3  A    between atoms: C8_11  and  N1_12 
REMARK    4  A    between atoms: C9_15  and  C10_16 
REMARK       I    between atoms: C10_16  and  N2_18 
REMARK    5  A    between atoms: N2_18  and  N3_20 
REMARK    6  A    between atoms: N3_20  and  S1_22 
REMARK    7  A    between atoms: C13_29  and  O8_30 
REMARK    8  A    between atoms: C15_32  and  C16_33 
REMARK    9  A    between atoms: C19_39  and  N5_40 
REMARK   10  A    between atoms: N5_40  and  O11_42 
ROOT
HETATM    1  C2  UNL     1      -1.156  18.654  26.347  1.00  0.00     0.080 A 
HETATM    2  C3  UNL     1      -0.785  18.717  24.966  1.00  0.00     0.074 A 
HETATM    3  C4  UNL     1      -1.316  19.796  24.404  1.00  0.00     0.072 A 
HETATM    4  C5  UNL     1      -2.036  20.553  25.188  1.00  0.00    -0.018 A 
HETATM    5  C6  UNL     1      -2.387  20.661  26.141  1.00  0.00     0.054 A 
HETATM    6  C7  UNL     1      -1.908  19.582  26.850  1.00  0.00     0.018 A 
HETATM    7  C8  UNL     1      -2.118  19.076  28.236  1.00  0.00     0.055 C 
HETATM    8  C9  UNL     1      -2.502  19.871  29.226  1.00  0.00     0.107 C 
HETATM    9  C11 UNL     1      -2.852  21.204  28.824  1.00  0.00     0.184 C 
HETATM   10  O7  UNL     1      -2.859  22.136  29.424  1.00  0.00    -0.291 OA
HETATM   11  C12 UNL     1      -3.249  21.405  27.492  1.00  0.00     0.108 A 
HETATM   12  C13 UNL     1      -2.761  21.295  26.024  1.00  0.00     0.042 A 
HETATM   13  O8  UNL     1      -3.021  22.167  24.978  1.00  0.00     0.000 OA
HETATM   14  C14 UNL     1      -3.132  22.521  24.569  1.00  0.00    -0.026 A 
HETATM   15  C15 UNL     1      -3.516  23.523  23.654  1.00  0.00     0.080 C 
HETATM   16  C17 UNL     1      -3.262  22.071  26.006  1.00  0.00     0.093 A 
HETATM   17  C18 UNL     1      -4.090  22.877  26.865  1.00  0.00     0.191 C 
HETATM   18  O10 UNL     1      -4.319  23.993  26.780  1.00  0.00    -0.290 OA
HETATM   19  C19 UNL     1      -4.456  21.910  27.735  1.00  0.00     0.098 C 
ENDROOT
BRANCH   8  20
HETATM   20  C10 UNL     1      -2.698  19.492  30.486  1.00  0.00     0.276 C 
HETATM   21  O3  UNL     1      -3.609  18.602  30.741  1.00  0.00    -0.266 OA
HETATM   22  N2  UNL     1      -2.031  19.934  31.645  1.00  0.00    -0.254 N 
ATOM     23  H2  UNL     1      -1.297  20.636  31.552  1.00  0.00     0.191 HD
BRANCH  22  24
HETATM   24  N3  UNL     1      -2.339  19.444  32.920  1.00  0.00    -0.205 N 
ATOM     25  H3  UNL     1      -3.234  19.534  33.400  1.00  0.00     0.202 HD
BRANCH  24  26
HETATM   26  S1  UNL     1      -0.935  18.664  33.528  1.00  0.00     0.223 S 
HETATM   27  O4  UNL     1      -0.629  19.017  34.941  1.00  0.00    -0.577 OA
HETATM   28  O5  UNL     1      -1.079  17.156  33.450  1.00  0.00    -0.577 OA
HETATM   29  O6  UNL     1       0.363  19.067  32.545  1.00  0.00    -0.577 OA
ENDBRANCH  24  26
ENDBRANCH  22  24
ENDBRANCH   8  20
BRANCH   7  30
HETATM   30  N1  UNL     1      -2.041  17.814  28.505  1.00  0.00    -0.398 N 
ATOM     31  H12 UNL     1      -1.137  17.368  28.350  1.00  0.00     0.156 HD
ATOM     32  H11 UNL     1      -2.823  17.318  28.933  1.00  0.00     0.156 HD
ENDBRANCH   7  30
BRANCH   1  33
HETATM   33  O1  UNL     1      -0.687  17.633  27.039  1.00  0.00    -0.355 OA
HETATM   34  C1  UNL     1       0.220  16.693  26.545  1.00  0.00     0.210 C 
ENDBRANCH   1  33
BRANCH  19  35
HETATM   35  N5  UNL     1      -5.282  21.506  28.439  1.00  0.00    -0.268 N 
ATOM     36  H5  UNL     1      -5.435  20.499  28.469  1.00  0.00     0.194 HD
BRANCH  35  37
HETATM   37  O11 UNL     1      -6.051  22.282  29.217  1.00  0.00    -0.290 OA
ATOM     38  H11 UNL     1      -6.628  21.950  29.894  1.00  0.00     0.244 HD
ENDBRANCH  35  37
ENDBRANCH  19  35
BRANCH   3  39
HETATM   39  O2  UNL     1      -1.352  20.388  23.230  1.00  0.00    -0.360 OA
ATOM     40  H2  UNL     1      -1.527  20.169  22.323  1.00  0.00     0.217 HD
ENDBRANCH   3  39
BRANCH  15  41
HETATM   41  C16 UNL     1      -2.719  24.690  23.811  1.00  0.00     0.255 C 
HETATM   42  N4  UNL     1      -2.823  25.638  24.868  1.00  0.00    -0.058 NA
HETATM   43  O9  UNL     1      -1.846  24.902  22.938  1.00  0.00    -0.272 OA
ENDBRANCH  15  41
TORSDOF 10
ENDMDL
MODEL 4
REMARK VINA RESULT: -9.876637816      2.338      3.718
REMARK  10 active torsions:
REMARK  status: ('A' for Active; 'I' for Inactive)
REMARK    1  A    between atoms: O1_2  and  C2_3 
REMARK    2  A    between atoms: C4_5  and  O2_6 
REMARK    3  A    between atoms: C8_11  and  N1_12 
REMARK    4  A    between atoms: C9_15  and  C10_16 
REMARK       I    between atoms: C10_16  and  N2_18 
REMARK    5  A    between atoms: N2_18  and  N3_20 
REMARK    6  A    between atoms: N3_20  and  S1_22 
REMARK    7  A    between atoms: C13_29  and  O8_30 
REMARK    8  A    between atoms: C15_32  and  C16_33 
REMARK    9  A    between atoms: C19_39  and  N5_40 
REMARK   10  A    between atoms: N5_40  and  O11_42 
ROOT
HETATM    1  C2  UNL     1      -3.131  22.303  25.258  1.00  0.00     0.080 A 
HETATM    2  C3  UNL     1      -2.888  23.210  24.177  1.00  0.00     0.074 A 
HETATM    3  C4  UNL     1      -2.978  24.463  24.609  1.00  0.00     0.072 A 
HETATM    4  C5  UNL     1      -3.254  24.611  25.877  1.00  0.00    -0.018 A 
HETATM    5  C6  UNL     1      -3.447  24.111  26.747  1.00  0.00     0.054 A 
HETATM    6  C7  UNL     1      -3.392  22.770  26.438  1.00  0.00     0.018 A 
HETATM    7  C8  UNL     1      -3.669  21.519  27.198  1.00  0.00     0.055 C 
HETATM    8  C9  UNL     1      -3.608  21.471  28.523  1.00  0.00     0.107 C 
HETATM    9  C11 UNL     1      -3.415  22.742  29.162  1.00  0.00     0.184 C 
HETATM   10  O7  UNL     1      -2.990  22.965  30.160  1.00  0.00    -0.291 OA
HETATM   11  C12 UNL     1      -3.809  23.894  28.463  1.00  0.00     0.108 A 
HETATM   12  C13 UNL     1      -3.537  24.714  27.175  1.00  0.00     0.042 A 
HETATM   13  O8  UNL     1      -3.508  26.094  27.041  1.00  0.00     0.000 OA
HETATM   14  C14 UNL     1      -3.499  26.645  27.000  1.00  0.00    -0.026 A 
HETATM   15  C15 UNL     1      -3.517  28.053  27.081  1.00  0.00     0.080 C 
HETATM   16  C17 UNL     1      -3.677  25.378  27.803  1.00  0.00     0.093 A 
HETATM   17  C18 UNL     1      -4.025  25.533  29.192  1.00  0.00     0.191 C 
HETATM   18  O10 UNL     1      -3.785  26.409  29.885  1.00  0.00    -0.290 OA
HETATM   19  C19 UNL     1      -4.678  24.362  29.355  1.00  0.00     0.098 C 
ENDROOT
BRANCH   8  20
HETATM   20  C10 UNL     1      -3.832  20.389  29.265  1.00  0.00     0.276 C 
HETATM   21  O3  UNL     1      -5.050  20.113  29.622  1.00  0.00    -0.266 OA
HETATM   22  N2  UNL     1      -2.898  19.452  29.747  1.00  0.00    -0.254 N 
ATOM     23  H2  UNL     1      -1.912  19.581  29.523  1.00  0.00     0.191 HD
BRANCH  22  24
HETATM   24  N3  UNL     1      -3.276  18.349  30.522  1.00  0.00    -0.205 N 
ATOM     25  H3  UNL     1      -3.876  17.580  30.225  1.00  0.00     0.202 HD
BRANCH  24  26
HETATM   26  S1  UNL     1      -2.544  18.525  32.066  1.00  0.00     0.223 S 
HETATM   27  O4  UNL     1      -3.232  17.755  33.137  1.00  0.00    -0.577 OA
HETATM   28  O5  UNL     1      -1.096  18.076  32.031  1.00  0.00    -0.577 OA
HETATM   29  O6  UNL     1      -2.524  20.157  32.459  1.00  0.00    -0.577 OA
ENDBRANCH  24  26
ENDBRANCH  22  24
ENDBRANCH   8  20
BRANCH   7  30
HETATM   30  N1  UNL     1      -4.093  20.454  26.600  1.00  0.00    -0.398 N 
ATOM     31  H12 UNL     1      -5.090  20.416  26.388  1.00  0.00     0.156 HD
ATOM     32  H11 UNL     1      -3.443  19.735  26.283  1.00  0.00     0.156 HD
ENDBRANCH   7  30
BRANCH   1  33
HETATM   33  O1  UNL     1      -3.063  21.016  24.976  1.00  0.00    -0.355 OA
HETATM   34  C1  UNL     1      -2.336  20.477  23.912  1.00  0.00     0.210 C 
ENDBRANCH   1  33
BRANCH  19  35
HETATM   35  N5  UNL     1      -5.533  23.800  29.898  1.00  0.00    -0.268 N 
ATOM     36  H5  UNL     1      -6.097  23.148  29.354  1.00  0.00     0.194 HD
BRANCH  35  37
HETATM   37  O11 UNL     1      -5.828  23.955  31.197  1.00  0.00    -0.290 OA
ATOM     38  H11 UNL     1      -6.132  23.254  31.760  1.00  0.00     0.244 HD
ENDBRANCH  35  37
ENDBRANCH  19  35
BRANCH   3  39
HETATM   39  O2  UNL     1      -2.870  25.685  24.138  1.00  0.00    -0.360 OA
ATOM     40  H2  UNL     1      -2.663  26.121  23.320  1.00  0.00     0.217 HD
ENDBRANCH   3  39
BRANCH  15  41
HETATM   41  C16 UNL     1      -2.302  28.548  27.630  1.00  0.00     0.255 C 
HETATM   42  N4  UNL     1      -2.117  29.021  28.960  1.00  0.00    -0.058 NA
HETATM   43  O9  UNL     1      -1.306  28.570  26.871  1.00  0.00    -0.272 OA
ENDBRANCH  15  41
TORSDOF 10
ENDMDL
MODEL 5
REMARK VINA RESULT: -9.804660806      1.088      1.373
REMARK  10 active torsions:
REMARK  status: ('A' for Active; 'I' for Inactive)
REMARK    1  A    between atoms: O1_2  and  C2_3 
REMARK    2  A    between atoms: C4_5  and  O2_6 
REMARK    3  A    between atoms: C8_11  and  N1_12 
REMARK    4  A    between atoms: C9_15  and  C10_16 
REMARK       I    between atoms: C10_16  and  N2_18 
REMARK    5  A    between atoms: N2_18  and  N3_20 
REMARK    6  A    between atoms: N3_20  and  S1_22 
REMARK    7  A    between atoms: C13_29  and  O8_30 
REMARK    8  A    between atoms: C15_32  and  C16_33 
REMARK    9  A    between atoms: C19_39  and  N5_40 
REMARK   10  A    between atoms: N5_40  and  O11_42 
ROOT
HETATM    1  C2  UNL     1      -2.139  25.993  25.207  1.00  0.00     0.080 A 
HETATM    2  C3  UNL     1      -1.969  27.400  25.403  1.00  0.00     0.074 A 
HETATM    3  C4  UNL     1      -2.496  27.761  26.567  1.00  0.00     0.072 A 
HETATM    4  C5  UNL     1      -3.035  26.803  27.272  1.00  0.00    -0.018 A 
HETATM    5  C6  UNL     1      -3.235  25.801  27.293  1.00  0.00     0.054 A 
HETATM    6  C7  UNL     1      -2.739  25.289  26.115  1.00  0.00     0.018 A 
HETATM    7  C8  UNL     1      -2.781  23.946  25.470  1.00  0.00     0.055 C 
HETATM    8  C9  UNL     1      -2.958  22.832  26.170  1.00  0.00     0.107 C 
HETATM    9  C11 UNL     1      -3.263  23.038  27.557  1.00  0.00     0.184 C 
HETATM   10  O7  UNL     1      -3.114  22.352  28.415  1.00  0.00    -0.291 OA
HETATM   11  C12 UNL     1      -3.834  24.266  27.928  1.00  0.00     0.108 A 
HETATM   12  C13 UNL     1      -3.574  25.794  27.955  1.00  0.00     0.042 A 
HETATM   13  O8  UNL     1      -3.919  26.694  28.953  1.00  0.00     0.000 OA
HETATM   14  C14 UNL     1      -4.062  27.043  29.357  1.00  0.00    -0.026 A 
HETATM   15  C15 UNL     1      -4.500  27.781  30.476  1.00  0.00     0.080 C 
HETATM   16  C17 UNL     1      -4.014  25.657  28.757  1.00  0.00     0.093 A 
HETATM   17  C18 UNL     1      -4.646  24.603  29.507  1.00  0.00     0.191 C 
HETATM   18  O10 UNL     1      -4.802  24.538  30.638  1.00  0.00    -0.290 OA
HETATM   19  C19 UNL     1      -4.952  23.791  28.472  1.00  0.00     0.098 C 
ENDROOT
BRANCH   8  20
HETATM   20  C10 UNL     1      -2.995  21.602  25.664  1.00  0.00     0.276 C 
HETATM   21  O3  UNL     1      -3.886  21.321  24.761  1.00  0.00    -0.266 OA
HETATM   22  N2  UNL     1      -2.172  20.504  25.977  1.00  0.00    -0.254 N 
ATOM     23  H2  UNL     1      -1.440  20.621  26.677  1.00  0.00     0.191 HD
BRANCH  22  24
HETATM   24  N3  UNL     1      -2.322  19.256  25.360  1.00  0.00    -0.205 N 
ATOM     25  H3  UNL     1      -2.953  19.036  24.590  1.00  0.00     0.202 HD
BRANCH  24  26
HETATM   26  S1  UNL     1      -1.249  18.162  26.136  1.00  0.00     0.223 S 
HETATM   27  O4  UNL     1      -1.881  16.859  26.479  1.00  0.00    -0.577 OA
HETATM   28  O5  UNL     1      -0.044  17.876  25.261  1.00  0.00    -0.577 OA
HETATM   29  O6  UNL     1      -0.662  18.894  27.527  1.00  0.00    -0.577 OA
ENDBRANCH  24  26
ENDBRANCH  22  24
ENDBRANCH   8  20
BRANCH   7  30
HETATM   30  N1  UNL     1      -2.760  23.822  24.183  1.00  0.00    -0.398 N 
ATOM     31  H12 UNL     1      -2.603  24.674  23.645  1.00  0.00     0.156 HD
ATOM     32  H11 UNL     1      -2.809  22.904  23.741  1.00  0.00     0.156 HD
ENDBRANCH   7  30
BRANCH   1  33
HETATM   33  O1  UNL     1      -1.651  25.488  24.090  1.00  0.00    -0.355 OA
HETATM   34  C1  UNL     1      -0.794  26.170  23.223  1.00  0.00     0.210 C 
ENDBRANCH   1  33
BRANCH  19  35
HETATM   35  N5  UNL     1      -5.694  23.015  28.041  1.00  0.00    -0.268 N 
ATOM     36  H5  UNL     1      -6.136  23.221  27.145  1.00  0.00     0.194 HD
BRANCH  35  37
HETATM   37  O11 UNL     1      -6.010  21.860  28.645  1.00  0.00    -0.290 OA
ATOM     38  H11 UNL     1      -5.590  21.542  29.436  1.00  0.00     0.244 HD
ENDBRANCH  35  37
ENDBRANCH  19  35
BRANCH   3  39
HETATM   39  O2  UNL     1      -2.658  28.849  27.288  1.00  0.00    -0.360 OA
ATOM     40  H2  UNL     1      -2.579  29.790  27.192  1.00  0.00     0.217 HD
ENDBRANCH   3  39
BRANCH  15  41
HETATM   41  C16 UNL     1      -3.604  27.630  31.570  1.00  0.00     0.255 C 
HETATM   42  N4  UNL     1      -3.868  26.917  32.774  1.00  0.00    -0.058 NA
HETATM   43  O9  UNL     1      -2.482  28.174  31.463  1.00  0.00    -0.272 OA
ENDBRANCH  15  41
TORSDOF 10
ENDMDL
