MODEL 1
REMARK VINA RESULT: -7.195089256      0.000      0.000
REMARK  9 active torsions:
REMARK  status: ('A' for Active; 'I' for Inactive)
REMARK    1  A    between atoms: C2_2  and  C3_4 
REMARK    2  A    between atoms: C4_5  and  O2_6 
REMARK    3  A    between atoms: N1_9  and  O3_11 
REMARK    4  A    between atoms: O3_11  and  C6_12 
REMARK    5  A    between atoms: C6_12  and  C7_13 
REMARK    6  A    between atoms: C7_13  and  N2_14 
REMARK    7  A    between atoms: C18_25  and  O4_26 
REMARK    8  A    between atoms: C26_36  and  C28_38 
REMARK    9  A    between atoms: C28_38  and  C29_39 
ROOT
HETATM    1  C3  UNL     1      18.000   2.092  18.031  1.00  0.00     0.037 C 
HETATM    2  C4  UNL     1      17.733   2.650  16.673  1.00  0.00     0.102 C 
HETATM    3  C5  UNL     1      18.764   2.839  15.655  1.00  0.00     0.077 C 
HETATM    4  N1  UNL     1      18.878   3.723  14.886  1.00  0.00    -0.267 N 
ATOM      5  H1  UNL     1      18.130   4.407  14.999  1.00  0.00     0.194 HD
HETATM    6  C12 UNL     1      19.730   1.605  15.749  1.00  0.00     0.021 C 
HETATM    7  C13 UNL     1      20.980   2.302  15.614  1.00  0.00     0.026 C 
HETATM    8  C14 UNL     1      19.516   0.851  14.449  1.00  0.00     0.026 C 
HETATM    9  C15 UNL     1      19.131   1.029  16.925  1.00  0.00    -0.062 C 
HETATM   10  C16 UNL     1      18.457   0.232  17.635  1.00  0.00     0.008 C 
HETATM   11  C17 UNL     1      17.654  -0.963  17.563  1.00  0.00     0.062 C 
HETATM   12  C18 UNL     1      18.392  -1.528  18.680  1.00  0.00     0.128 C 
HETATM   13  C19 UNL     1      18.909  -2.802  18.626  1.00  0.00     0.162 C 
HETATM   14  O5  UNL     1      18.496  -3.671  19.426  1.00  0.00    -0.295 OA
HETATM   15  C20 UNL     1      19.934  -3.287  17.702  1.00  0.00     0.081 C 
HETATM   16  C21 UNL     1      21.044  -2.253  17.779  1.00  0.00     0.008 C 
HETATM   17  C22 UNL     1      20.455  -0.953  17.492  1.00  0.00     0.014 C 
HETATM   18  C23 UNL     1      19.492  -0.407  18.517  1.00  0.00     0.012 C 
HETATM   19  C24 UNL     1      20.144  -0.693  19.833  1.00  0.00     0.020 C 
HETATM   20  C25 UNL     1      19.108   1.047  18.235  1.00  0.00     0.034 A 
HETATM   21  C26 UNL     1      19.636   1.526  19.331  1.00  0.00    -0.010 A 
HETATM   22  C27 UNL     1      20.861   2.187  18.896  1.00  0.00     0.018 C 
HETATM   23  O6  UNL     1      18.600   0.866  19.089  1.00  0.00     0.000 OA
ENDROOT
BRANCH   2  24
HETATM   24  O2  UNL     1      16.521   2.129  16.114  1.00  0.00    -0.358 OA
ATOM     25  H2  UNL     1      16.143   2.724  15.477  1.00  0.00     0.217 HD
ENDBRANCH   2  24
BRANCH   4  26
HETATM   26  O3  UNL     1      19.692   4.071  13.930  1.00  0.00    -0.278 OA
BRANCH  26  27
HETATM   27  C6  UNL     1      19.341   4.290  12.582  1.00  0.00     0.231 C 
BRANCH  27  28
HETATM   28  C7  UNL     1      19.982   3.251  11.728  1.00  0.00     0.301 C 
BRANCH  28  29
HETATM   29  N2  UNL     1      19.075   2.332  11.091  1.00  0.00     0.090 N 
HETATM   30  C8  UNL     1      17.835   3.097  10.869  1.00  0.00     0.272 C 
HETATM   31  C9  UNL     1      17.118   2.401   9.752  1.00  0.00     0.032 C 
HETATM   32  C10 UNL     1      18.171   1.604   9.047  1.00  0.00     0.032 C 
HETATM   33  C11 UNL     1      19.448   2.048   9.715  1.00  0.00     0.272 C 
ENDBRANCH  28  29
ENDBRANCH  27  28
ENDBRANCH  26  27
ENDBRANCH   4  26
BRANCH   1  34
HETATM   34  C2  UNL     1      16.773   2.315  18.682  1.00  0.00     0.155 C 
HETATM   35  C1  UNL     1      16.562   3.661  19.259  1.00  0.00     0.096 C 
HETATM   36  O1  UNL     1      15.762   1.666  18.923  1.00  0.00    -0.293 OA
ENDBRANCH   1  34
BRANCH  21  37
HETATM   37  C28 UNL     1      19.294   2.151  20.591  1.00  0.00     0.128 C 
BRANCH  37  38
HETATM   38  C29 UNL     1      18.650   2.025  21.818  1.00  0.00     0.388 C 
HETATM   39  F1  UNL     1      17.692   2.709  22.440  1.00  0.00    -0.171 F 
HETATM   40  F2  UNL     1      19.710   2.100  22.815  1.00  0.00    -0.171 F 
HETATM   41  F3  UNL     1      18.212   0.695  22.171  1.00  0.00    -0.171 F 
ENDBRANCH  37  38
ENDBRANCH  21  37
BRANCH  12  42
HETATM   42  O4  UNL     1      17.687  -1.313  19.859  1.00  0.00    -0.381 OA
ATOM     43  H4  UNL     1      16.813  -1.676  19.777  1.00  0.00     0.211 HD
ENDBRANCH  12  42
TORSDOF 9
ENDMDL
MODEL 2
REMARK VINA RESULT: -7.068914547      1.030      1.306
REMARK  9 active torsions:
REMARK  status: ('A' for Active; 'I' for Inactive)
REMARK    1  A    between atoms: C2_2  and  C3_4 
REMARK    2  A    between atoms: C4_5  and  O2_6 
REMARK    3  A    between atoms: N1_9  and  O3_11 
REMARK    4  A    between atoms: O3_11  and  C6_12 
REMARK    5  A    between atoms: C6_12  and  C7_13 
REMARK    6  A    between atoms: C7_13  and  N2_14 
REMARK    7  A    between atoms: C18_25  and  O4_26 
REMARK    8  A    between atoms: C26_36  and  C28_38 
REMARK    9  A    between atoms: C28_38  and  C29_39 
ROOT
HETATM    1  C3  UNL     1      18.004   2.115  18.035  1.00  0.00     0.037 C 
HETATM    2  C4  UNL     1      17.730   2.683  16.683  1.00  0.00     0.102 C 
HETATM    3  C5  UNL     1      18.756   2.877  15.660  1.00  0.00     0.077 C 
HETATM    4  N1  UNL     1      18.867   3.767  14.897  1.00  0.00    -0.267 N 
ATOM      5  H1  UNL     1      18.121   4.452  15.019  1.00  0.00     0.194 HD
HETATM    6  C12 UNL     1      19.721   1.641  15.739  1.00  0.00     0.021 C 
HETATM    7  C13 UNL     1      20.970   2.338  15.602  1.00  0.00     0.026 C 
HETATM    8  C14 UNL     1      19.497   0.898  14.435  1.00  0.00     0.026 C 
HETATM    9  C15 UNL     1      19.127   1.058  16.914  1.00  0.00    -0.062 C 
HETATM   10  C16 UNL     1      18.456   0.257  17.623  1.00  0.00     0.008 C 
HETATM   11  C17 UNL     1      17.651  -0.936  17.546  1.00  0.00     0.062 C 
HETATM   12  C18 UNL     1      18.394  -1.511  18.655  1.00  0.00     0.128 C 
HETATM   13  C19 UNL     1      18.908  -2.785  18.588  1.00  0.00     0.162 C 
HETATM   14  O5  UNL     1      18.498  -3.660  19.385  1.00  0.00    -0.295 OA
HETATM   15  C20 UNL     1      19.927  -3.265  17.654  1.00  0.00     0.081 C 
HETATM   16  C21 UNL     1      21.039  -2.234  17.733  1.00  0.00     0.008 C 
HETATM   17  C22 UNL     1      20.451  -0.931  17.459  1.00  0.00     0.014 C 
HETATM   18  C23 UNL     1      19.495  -0.390  18.494  1.00  0.00     0.012 C 
HETATM   19  C24 UNL     1      20.154  -0.687  19.804  1.00  0.00     0.020 C 
HETATM   20  C25 UNL     1      19.112   1.067  18.224  1.00  0.00     0.034 A 
HETATM   21  C26 UNL     1      19.647   1.536  19.321  1.00  0.00    -0.010 A 
HETATM   22  C27 UNL     1      20.870   2.199  18.884  1.00  0.00     0.018 C 
HETATM   23  O6  UNL     1      18.609   0.880  19.080  1.00  0.00     0.000 OA
ENDROOT
BRANCH   2  24
HETATM   24  O2  UNL     1      16.514   2.169  16.127  1.00  0.00    -0.358 OA
ATOM     25  H2  UNL     1      15.774   2.317  16.702  1.00  0.00     0.217 HD
ENDBRANCH   2  24
BRANCH   4  26
HETATM   26  O3  UNL     1      19.676   4.121  13.939  1.00  0.00    -0.278 OA
BRANCH  26  27
HETATM   27  C6  UNL     1      19.377   4.124  12.561  1.00  0.00     0.231 C 
BRANCH  27  28
HETATM   28  C7  UNL     1      19.535   5.505  12.022  1.00  0.00     0.301 C 
BRANCH  28  29
HETATM   29  N2  UNL     1      19.501   5.612  10.587  1.00  0.00     0.090 N 
HETATM   30  C8  UNL     1      20.878   5.339  10.141  1.00  0.00     0.272 C 
HETATM   31  C9  UNL     1      20.766   4.890   8.716  1.00  0.00     0.032 C 
HETATM   32  C10 UNL     1      19.349   4.435   8.558  1.00  0.00     0.032 C 
HETATM   33  C11 UNL     1      18.806   4.498   9.963  1.00  0.00     0.272 C 
ENDBRANCH  28  29
ENDBRANCH  27  28
ENDBRANCH  26  27
ENDBRANCH   4  26
BRANCH   1  34
HETATM   34  C2  UNL     1      16.782   2.335  18.694  1.00  0.00     0.155 C 
HETATM   35  C1  UNL     1      16.569   3.683  19.265  1.00  0.00     0.096 C 
HETATM   36  O1  UNL     1      15.777   1.682  18.948  1.00  0.00    -0.293 OA
ENDBRANCH   1  34
BRANCH  21  37
HETATM   37  C28 UNL     1      19.313   2.152  20.588  1.00  0.00     0.128 C 
BRANCH  37  38
HETATM   38  C29 UNL     1      18.630   2.040  21.795  1.00  0.00     0.388 C 
HETATM   39  F1  UNL     1      17.603   2.684  22.344  1.00  0.00    -0.171 F 
HETATM   40  F2  UNL     1      19.641   2.239  22.826  1.00  0.00    -0.171 F 
HETATM   41  F3  UNL     1      18.271   0.701  22.198  1.00  0.00    -0.171 F 
ENDBRANCH  37  38
ENDBRANCH  21  37
BRANCH  12  42
HETATM   42  O4  UNL     1      17.696  -1.303  19.840  1.00  0.00    -0.381 OA
ATOM     43  H4  UNL     1      17.049  -0.620  19.711  1.00  0.00     0.211 HD
ENDBRANCH  12  42
TORSDOF 9
ENDMDL
MODEL 3
REMARK VINA RESULT: -6.819983248      2.072      3.267
REMARK  9 active torsions:
REMARK  status: ('A' for Active; 'I' for Inactive)
REMARK    1  A    between atoms: C2_2  and  C3_4 
REMARK    2  A    between atoms: C4_5  and  O2_6 
REMARK    3  A    between atoms: N1_9  and  O3_11 
REMARK    4  A    between atoms: O3_11  and  C6_12 
REMARK    5  A    between atoms: C6_12  and  C7_13 
REMARK    6  A    between atoms: C7_13  and  N2_14 
REMARK    7  A    between atoms: C18_25  and  O4_26 
REMARK    8  A    between atoms: C26_36  and  C28_38 
REMARK    9  A    between atoms: C28_38  and  C29_39 
ROOT
HETATM    1  C3  UNL     1      18.078   1.914  18.128  1.00  0.00     0.037 C 
HETATM    2  C4  UNL     1      17.947   2.476  16.752  1.00  0.00     0.102 C 
HETATM    3  C5  UNL     1      19.076   2.677  15.846  1.00  0.00     0.077 C 
HETATM    4  N1  UNL     1      19.261   3.566  15.096  1.00  0.00    -0.267 N 
ATOM      5  H1  UNL     1      18.500   4.244  15.134  1.00  0.00     0.194 HD
HETATM    6  C12 UNL     1      20.037   1.450  16.033  1.00  0.00     0.021 C 
HETATM    7  C13 UNL     1      21.288   2.157  16.030  1.00  0.00     0.026 C 
HETATM    8  C14 UNL     1      19.962   0.701  14.715  1.00  0.00     0.026 C 
HETATM    9  C15 UNL     1      19.324   0.864  17.140  1.00  0.00    -0.062 C 
HETATM   10  C16 UNL     1      18.587   0.060  17.774  1.00  0.00     0.008 C 
HETATM   11  C17 UNL     1      17.805  -1.141  17.615  1.00  0.00     0.062 C 
HETATM   12  C18 UNL     1      18.430  -1.705  18.800  1.00  0.00     0.128 C 
HETATM   13  C19 UNL     1      18.959  -2.976  18.795  1.00  0.00     0.162 C 
HETATM   14  O5  UNL     1      18.473  -3.852  19.545  1.00  0.00    -0.295 OA
HETATM   15  C20 UNL     1      20.076  -3.449  17.978  1.00  0.00     0.081 C 
HETATM   16  C21 UNL     1      21.165  -2.408  18.173  1.00  0.00     0.008 C 
HETATM   17  C22 UNL     1      20.598  -1.111  17.832  1.00  0.00     0.014 C 
HETATM   18  C23 UNL     1      19.532  -0.575  18.755  1.00  0.00     0.012 C 
HETATM   19  C24 UNL     1      20.048  -0.863  20.130  1.00  0.00     0.020 C 
HETATM   20  C25 UNL     1      19.167   0.877  18.440  1.00  0.00     0.034 A 
HETATM   21  C26 UNL     1      19.576   1.354  19.587  1.00  0.00    -0.010 A 
HETATM   22  C27 UNL     1      20.834   2.027  19.282  1.00  0.00     0.018 C 
HETATM   23  O6  UNL     1      18.576   0.688  19.237  1.00  0.00     0.000 OA
ENDROOT
BRANCH   2  24
HETATM   24  O2  UNL     1      16.803   1.949  16.070  1.00  0.00    -0.358 OA
ATOM     25  H2  UNL     1      16.999   1.738  15.165  1.00  0.00     0.217 HD
ENDBRANCH   2  24
BRANCH   4  26
HETATM   26  O3  UNL     1      20.166   3.925  14.230  1.00  0.00    -0.278 OA
BRANCH  26  27
HETATM   27  C6  UNL     1      20.687   5.225  14.068  1.00  0.00     0.231 C 
BRANCH  27  28
HETATM   28  C7  UNL     1      20.895   5.846  15.407  1.00  0.00     0.301 C 
BRANCH  28  29
HETATM   29  N2  UNL     1      20.572   7.246  15.492  1.00  0.00     0.090 N 
HETATM   30  C8  UNL     1      19.259   7.306  16.158  1.00  0.00     0.272 C 
HETATM   31  C9  UNL     1      19.164   8.676  16.756  1.00  0.00     0.032 C 
HETATM   32  C10 UNL     1      20.579   9.156  16.862  1.00  0.00     0.032 C 
HETATM   33  C11 UNL     1      21.386   7.944  16.474  1.00  0.00     0.272 C 
ENDBRANCH  28  29
ENDBRANCH  27  28
ENDBRANCH  26  27
ENDBRANCH   4  26
BRANCH   1  34
HETATM   34  C2  UNL     1      16.789   2.125  18.651  1.00  0.00     0.155 C 
HETATM   35  C1  UNL     1      16.492   3.483  19.157  1.00  0.00     0.096 C 
HETATM   36  O1  UNL     1      15.775   1.458  18.817  1.00  0.00    -0.293 OA
ENDBRANCH   1  34
BRANCH  21  37
HETATM   37  C28 UNL     1      19.102   1.971  20.807  1.00  0.00     0.128 C 
BRANCH  37  38
HETATM   38  C29 UNL     1      18.281   1.863  21.925  1.00  0.00     0.388 C 
HETATM   39  F1  UNL     1      17.746   2.738  22.774  1.00  0.00    -0.171 F 
HETATM   40  F2  UNL     1      19.014   1.014  22.857  1.00  0.00    -0.171 F 
HETATM   41  F3  UNL     1      17.142   0.986  21.794  1.00  0.00    -0.171 F 
ENDBRANCH  37  38
ENDBRANCH  21  37
BRANCH  12  42
HETATM   42  O4  UNL     1      17.605  -1.501  19.902  1.00  0.00    -0.381 OA
ATOM     43  H4  UNL     1      18.121  -1.547  20.697  1.00  0.00     0.211 HD
ENDBRANCH  12  42
TORSDOF 9
ENDMDL
MODEL 4
REMARK VINA RESULT: -6.611651417      3.260      4.309
REMARK  9 active torsions:
REMARK  status: ('A' for Active; 'I' for Inactive)
REMARK    1  A    between atoms: C2_2  and  C3_4 
REMARK    2  A    between atoms: C4_5  and  O2_6 
REMARK    3  A    between atoms: N1_9  and  O3_11 
REMARK    4  A    between atoms: O3_11  and  C6_12 
REMARK    5  A    between atoms: C6_12  and  C7_13 
REMARK    6  A    between atoms: C7_13  and  N2_14 
REMARK    7  A    between atoms: C18_25  and  O4_26 
REMARK    8  A    between atoms: C26_36  and  C28_38 
REMARK    9  A    between atoms: C28_38  and  C29_39 
ROOT
HETATM    1  C3  UNL     1      17.538   1.922  18.387  1.00  0.00     0.037 C 
HETATM    2  C4  UNL     1      18.059   2.814  17.311  1.00  0.00     0.102 C 
HETATM    3  C5  UNL     1      19.301   3.577  17.418  1.00  0.00     0.077 C 
HETATM    4  N1  UNL     1      19.526   4.665  17.028  1.00  0.00    -0.267 N 
ATOM      5  H1  UNL     1      18.708   5.067  16.569  1.00  0.00     0.194 HD
HETATM    6  C12 UNL     1      20.338   2.659  18.157  1.00  0.00     0.021 C 
HETATM    7  C13 UNL     1      20.911   3.646  19.030  1.00  0.00     0.026 C 
HETATM    8  C14 UNL     1      21.391   2.350  17.108  1.00  0.00     0.026 C 
HETATM    9  C15 UNL     1      19.414   1.598  18.463  1.00  0.00    -0.062 C 
HETATM   10  C16 UNL     1      18.848   0.471  18.397  1.00  0.00     0.008 C 
HETATM   11  C17 UNL     1      18.895  -0.791  17.702  1.00  0.00     0.062 C 
HETATM   12  C18 UNL     1      18.828  -1.494  18.972  1.00  0.00     0.128 C 
HETATM   13  C19 UNL     1      19.706  -2.510  19.275  1.00  0.00     0.162 C 
HETATM   14  O5  UNL     1      19.270  -3.669  19.462  1.00  0.00    -0.295 OA
HETATM   15  C20 UNL     1      21.157  -2.394  19.413  1.00  0.00     0.081 C 
HETATM   16  C21 UNL     1      21.363  -1.205  20.336  1.00  0.00     0.008 C 
HETATM   17  C22 UNL     1      20.660  -0.071  19.755  1.00  0.00     0.014 C 
HETATM   18  C23 UNL     1      19.154  -0.148  19.731  1.00  0.00     0.012 C 
HETATM   19  C24 UNL     1      18.786  -0.685  21.079  1.00  0.00     0.020 C 
HETATM   20  C25 UNL     1      18.511   1.175  19.312  1.00  0.00     0.034 A 
HETATM   21  C26 UNL     1      17.901   1.377  20.451  1.00  0.00    -0.010 A 
HETATM   22  C27 UNL     1      18.675   2.425  21.107  1.00  0.00     0.018 C 
HETATM   23  O6  UNL     1      17.698   0.602  19.489  1.00  0.00     0.000 OA
ENDROOT
BRANCH   2  24
HETATM   24  O2  UNL     1      17.904   2.227  16.013  1.00  0.00    -0.358 OA
ATOM     25  H2  UNL     1      18.485   2.625  15.375  1.00  0.00     0.217 HD
ENDBRANCH   2  24
BRANCH   4  26
HETATM   26  O3  UNL     1      20.527   5.499  17.020  1.00  0.00    -0.278 OA
BRANCH  26  27
HETATM   27  C6  UNL     1      21.316   5.833  15.901  1.00  0.00     0.231 C 
BRANCH  27  28
HETATM   28  C7  UNL     1      21.093   7.264  15.547  1.00  0.00     0.301 C 
BRANCH  28  29
HETATM   29  N2  UNL     1      20.694   8.113  16.638  1.00  0.00     0.090 N 
HETATM   30  C8  UNL     1      21.391   9.392  16.415  1.00  0.00     0.272 C 
HETATM   31  C9  UNL     1      20.597  10.427  17.152  1.00  0.00     0.032 C 
HETATM   32  C10 UNL     1      19.238   9.825  17.330  1.00  0.00     0.032 C 
HETATM   33  C11 UNL     1      19.314   8.554  16.522  1.00  0.00     0.272 C 
ENDBRANCH  28  29
ENDBRANCH  27  28
ENDBRANCH  26  27
ENDBRANCH   4  26
BRANCH   1  34
HETATM   34  C2  UNL     1      16.254   1.608  17.907  1.00  0.00     0.155 C 
HETATM   35  C1  UNL     1      15.318   2.740  17.722  1.00  0.00     0.096 C 
HETATM   36  O1  UNL     1      15.650   0.595  17.576  1.00  0.00    -0.293 OA
ENDBRANCH   1  34
BRANCH  21  37
HETATM   37  C28 UNL     1      16.585   1.446  21.051  1.00  0.00     0.128 C 
BRANCH  37  38
HETATM   38  C29 UNL     1      15.402   0.776  21.345  1.00  0.00     0.388 C 
HETATM   39  F1  UNL     1      14.163   0.820  20.860  1.00  0.00    -0.171 F 
HETATM   40  F2  UNL     1      15.139   1.063  22.750  1.00  0.00    -0.171 F 
HETATM   41  F3  UNL     1      15.506  -0.655  21.506  1.00  0.00    -0.171 F 
ENDBRANCH  37  38
ENDBRANCH  21  37
BRANCH  12  42
HETATM   42  O4  UNL     1      17.512  -1.862  19.231  1.00  0.00    -0.381 OA
ATOM     43  H4  UNL     1      17.377  -1.918  20.169  1.00  0.00     0.211 HD
ENDBRANCH  12  42
TORSDOF 9
ENDMDL
MODEL 5
REMARK VINA RESULT: -6.415249498     15.209     19.916
REMARK  9 active torsions:
REMARK  status: ('A' for Active; 'I' for Inactive)
REMARK    1  A    between atoms: C2_2  and  C3_4 
REMARK    2  A    between atoms: C4_5  and  O2_6 
REMARK    3  A    between atoms: N1_9  and  O3_11 
REMARK    4  A    between atoms: O3_11  and  C6_12 
REMARK    5  A    between atoms: C6_12  and  C7_13 
REMARK    6  A    between atoms: C7_13  and  N2_14 
REMARK    7  A    between atoms: C18_25  and  O4_26 
REMARK    8  A    between atoms: C26_36  and  C28_38 
REMARK    9  A    between atoms: C28_38  and  C29_39 
ROOT
HETATM    1  C3  UNL     1      15.791  -0.549  -2.527  1.00  0.00     0.037 C 
HETATM    2  C4  UNL     1      16.120   0.549  -1.572  1.00  0.00     0.102 C 
HETATM    3  C5  UNL     1      16.245   0.360  -0.128  1.00  0.00     0.077 C 
HETATM    4  N1  UNL     1      15.904   1.083   0.736  1.00  0.00    -0.267 N 
ATOM      5  H1  UNL     1      15.474   1.929   0.359  1.00  0.00     0.194 HD
HETATM    6  C12 UNL     1      16.957  -1.022   0.092  1.00  0.00     0.021 C 
HETATM    7  C13 UNL     1      16.150  -1.507   1.178  1.00  0.00     0.026 C 
HETATM    8  C14 UNL     1      18.308  -0.666   0.686  1.00  0.00     0.026 C 
HETATM    9  C15 UNL     1      16.955  -1.418  -1.293  1.00  0.00    -0.062 C 
HETATM   10  C16 UNL     1      17.397  -1.663  -2.450  1.00  0.00     0.008 C 
HETATM   11  C17 UNL     1      18.606  -1.666  -3.234  1.00  0.00     0.062 C 
HETATM   12  C18 UNL     1      18.293  -3.000  -3.716  1.00  0.00     0.128 C 
HETATM   13  C19 UNL     1      19.228  -4.010  -3.689  1.00  0.00     0.162 C 
HETATM   14  O5  UNL     1      19.615  -4.523  -4.763  1.00  0.00    -0.295 OA
HETATM   15  C20 UNL     1      19.853  -4.585  -2.498  1.00  0.00     0.081 C 
HETATM   16  C21 UNL     1      18.695  -4.891  -1.563  1.00  0.00     0.008 C 
HETATM   17  C22 UNL     1      17.937  -3.661  -1.385  1.00  0.00     0.014 C 
HETATM   18  C23 UNL     1      17.193  -3.145  -2.592  1.00  0.00     0.012 C 
HETATM   19  C24 UNL     1      16.570  -4.364  -3.197  1.00  0.00     0.020 C 
HETATM   20  C25 UNL     1      16.256  -1.986  -2.244  1.00  0.00     0.034 A 
HETATM   21  C26 UNL     1      15.158  -2.619  -2.565  1.00  0.00    -0.010 A 
HETATM   22  C27 UNL     1      14.544  -2.969  -1.289  1.00  0.00     0.018 C 
HETATM   23  O6  UNL     1      16.080  -2.099  -3.232  1.00  0.00     0.000 OA
ENDROOT
BRANCH   2  24
HETATM   24  O2  UNL     1      17.140   1.413  -2.087  1.00  0.00    -0.358 OA
ATOM     25  H2  UNL     1      17.911   1.416  -1.533  1.00  0.00     0.217 HD
ENDBRANCH   2  24
BRANCH   4  26
HETATM   26  O3  UNL     1      15.921   1.106   2.038  1.00  0.00    -0.278 OA
BRANCH  26  27
HETATM   27  C6  UNL     1      14.876   1.556   2.872  1.00  0.00     0.231 C 
BRANCH  27  28
HETATM   28  C7  UNL     1      13.591   0.941   2.431  1.00  0.00     0.301 C 
BRANCH  28  29
HETATM   29  N2  UNL     1      12.688   0.578   3.492  1.00  0.00     0.090 N 
HETATM   30  C8  UNL     1      13.246   1.192   4.710  1.00  0.00     0.272 C 
HETATM   31  C9  UNL     1      12.100   1.324   5.665  1.00  0.00     0.032 C 
HETATM   32  C10 UNL     1      10.870   1.270   4.812  1.00  0.00     0.032 C 
HETATM   33  C11 UNL     1      11.421   1.286   3.408  1.00  0.00     0.272 C 
ENDBRANCH  28  29
ENDBRANCH  27  28
ENDBRANCH  26  27
ENDBRANCH   4  26
BRANCH   1  34
HETATM   34  C2  UNL     1      15.574   0.161  -3.721  1.00  0.00     0.155 C 
HETATM   35  C1  UNL     1      14.263   0.833  -3.864  1.00  0.00     0.096 C 
HETATM   36  O1  UNL     1      16.204   0.395  -4.745  1.00  0.00    -0.293 OA
ENDBRANCH   1  34
BRANCH  21  37
HETATM   37  C28 UNL     1      14.072  -2.620  -3.521  1.00  0.00     0.128 C 
BRANCH  37  38
HETATM   38  C29 UNL     1      12.695  -2.634  -3.722  1.00  0.00     0.388 C 
HETATM   39  F1  UNL     1      11.638  -2.583  -2.915  1.00  0.00    -0.171 F 
HETATM   40  F2  UNL     1      12.424  -3.881  -4.425  1.00  0.00    -0.171 F 
HETATM   41  F3  UNL     1      12.197  -1.767  -4.764  1.00  0.00    -0.171 F 
ENDBRANCH  37  38
ENDBRANCH  21  37
BRANCH  12  42
HETATM   42  O4  UNL     1      17.673  -2.912  -4.958  1.00  0.00    -0.381 OA
ATOM     43  H4  UNL     1      17.109  -2.149  -4.977  1.00  0.00     0.211 HD
ENDBRANCH  12  42
TORSDOF 9
ENDMDL
