REMARK  9 active torsions:
REMARK  status: ('A' for Active; 'I' for Inactive)
REMARK    1  A    between atoms: O1_2  and  C2_3 
REMARK    2  A    between atoms: C5_7  and  O3_8 
REMARK    3  A    between atoms: C6_10  and  O4_11 
REMARK    4  A    between atoms: C7_13  and  O5_15 
REMARK    5  A    between atoms: C15_23  and  O6_24 
REMARK    6  A    between atoms: C20_30  and  C21_31 
REMARK    7  A    between atoms: C21_31  and  C22_33 
REMARK    8  A    between atoms: C22_33  and  C23_34 
REMARK    9  A    between atoms: C26_37  and  C27_38 
ROOT
HETATM    1  C2  UNL     1       0.148   0.985  -1.740  1.00  0.00     0.196 C 
HETATM    2  C3  UNL     1      -0.093   0.595  -0.359  1.00  0.00     0.093 C 
HETATM    3  C4  UNL     1      -1.155   1.573  -0.032  1.00  0.00     0.153 C 
HETATM    4  O2  UNL     1      -1.132   2.640  -0.972  1.00  0.00    -0.344 OA
HETATM    5  C5  UNL     1       0.146   2.517  -1.443  1.00  0.00     0.219 C 
HETATM    6  C6  UNL     1       0.964   2.952  -0.295  1.00  0.00     0.218 C 
HETATM    7  C7  UNL     1       0.272   3.068   1.038  1.00  0.00     0.101 C 
HETATM    8  C8  UNL     1      -0.175   4.509   1.285  1.00  0.00     0.050 C 
HETATM    9  C9  UNL     1      -0.825   2.054   1.329  1.00  0.00     0.064 C 
HETATM   10  C10 UNL     1      -2.109   2.705   1.760  1.00  0.00    -0.009 C 
HETATM   11  C11 UNL     1      -3.214   2.073   2.393  1.00  0.00    -0.001 C 
HETATM   12  C12 UNL     1      -4.111   1.027   1.919  1.00  0.00    -0.079 C 
HETATM   13  C13 UNL     1      -5.022   1.613   0.790  1.00  0.00     0.043 C 
HETATM   14  C14 UNL     1      -3.878  -0.324   1.538  1.00  0.00     0.104 C 
HETATM   15  C15 UNL     1      -2.436  -0.924   1.613  1.00  0.00     0.190 C 
HETATM   16  C17 UNL     1      -1.959  -0.533   2.945  1.00  0.00     0.237 C 
HETATM   17  O7  UNL     1      -1.288   0.559   3.177  1.00  0.00    -0.379 OA
HETATM   18  C18 UNL     1      -0.359   1.084   2.331  1.00  0.00     0.140 C 
HETATM   19  C19 UNL     1       0.658   0.060   2.125  1.00  0.00     0.049 C 
HETATM   20  C20 UNL     1       0.388  -1.123   1.239  1.00  0.00     0.100 C 
HETATM   21  C26 UNL     1      -0.542  -0.743   0.106  1.00  0.00     0.136 C 
HETATM   22  O10 UNL     1      -1.838  -0.738   0.465  1.00  0.00    -0.333 OA
ENDROOT
BRANCH  20  23
HETATM   23  C21 UNL     1       1.654  -1.708   0.765  1.00  0.00     0.134 C 
HETATM   24  O8  UNL     1       1.817  -2.951   0.803  1.00  0.00    -0.297 OA
BRANCH  23  25
HETATM   25  C22 UNL     1       2.830  -0.992   0.226  1.00  0.00     0.082 C 
BRANCH  25  26
HETATM   26  C23 UNL     1       3.982  -1.931  -0.089  1.00  0.00    -0.016 C 
HETATM   27  C24 UNL     1       5.106  -1.079  -0.625  1.00  0.00     0.010 C 
HETATM   28  C25 UNL     1       4.458  -2.669   1.130  1.00  0.00     0.010 C 
ENDBRANCH  25  26
ENDBRANCH  23  25
ENDBRANCH  20  23
BRANCH  21  29
HETATM   29  C27 UNL     1      -0.220  -1.662  -1.025  1.00  0.00     0.270 C 
HETATM   30  O9  UNL     1      -0.964  -2.338  -1.664  1.00  0.00    -0.304 OA
ENDBRANCH  21  29
BRANCH   1  31
HETATM   31  O1  UNL     1      -0.825   0.778  -2.675  1.00  0.00    -0.385 OA
HETATM   32  C1  UNL     1      -0.311   0.448  -3.921  1.00  0.00     0.202 C 
ENDBRANCH   1  31
BRANCH  15  33
HETATM   33  O6  UNL     1      -2.690  -2.294   1.770  1.00  0.00    -0.358 OA
HETATM   34  C16 UNL     1      -3.498  -2.898   0.877  1.00  0.00     0.205 C 
ENDBRANCH  15  33
BRANCH   7  35
HETATM   35  O5  UNL     1       1.339   2.951   1.976  1.00  0.00    -0.386 OA
ATOM     36  H5  UNL     1       0.903   3.024   2.817  1.00  0.00     0.210 HD
ENDBRANCH   7  35
BRANCH   5  37
HETATM   37  O3  UNL     1       0.348   3.205  -2.616  1.00  0.00    -0.361 OA
ATOM     38  H3  UNL     1       0.347   4.138  -2.435  1.00  0.00     0.213 HD
ENDBRANCH   5  37
BRANCH   6  39
HETATM   39  O4  UNL     1       1.359   4.278  -0.661  1.00  0.00    -0.387 OA
ATOM     40  H4  UNL     1       1.886   4.558   0.078  1.00  0.00     0.210 HD
ENDBRANCH   6  39
TORSDOF 9
