REMARK  18 active torsions:
REMARK  status: ('A' for Active; 'I' for Inactive)
REMARK    1  A    between atoms: C2_2  and  C3_3 
REMARK    2  A    between atoms: C3_3  and  C4_4 
REMARK    3  A    between atoms: C4_4  and  C5_5 
REMARK    4  A    between atoms: C7_7  and  C8_8 
REMARK    5  A    between atoms: C8_8  and  C9_9 
REMARK    6  A    between atoms: C9_9  and  N1_10 
REMARK    7  A    between atoms: C9_9  and  C24_29 
REMARK    8  A    between atoms: N1_10  and  C10_12 
REMARK    9  A    between atoms: C10_12  and  C11_13 
REMARK   10  A    between atoms: C10_12  and  C18_20 
REMARK   11  A    between atoms: C11_13  and  C12_14 
REMARK       I    between atoms: C18_20  and  N2_22 
REMARK   12  A    between atoms: N2_22  and  C19_24 
REMARK   13  A    between atoms: C19_24  and  C20_25 
REMARK   14  A    between atoms: C24_29  and  C32_41 
REMARK   15  A    between atoms: C25_30  and  C26_31 
REMARK   16  A    between atoms: C26_31  and  O2_32 
REMARK   17  A    between atoms: C26_31  and  C27_34 
REMARK   18  A    between atoms: C27_34  and  C28_35 
ROOT
HETATM    1  C9  UNL     1      -1.090  -0.195   1.182  1.00  0.00     0.111 C 
ENDROOT
BRANCH   1   2
HETATM    2  C8  UNL     1      -1.274  -0.808   2.582  1.00  0.00     0.069 C 
BRANCH   2   3
HETATM    3  C7  UNL     1      -0.703  -2.111   2.856  1.00  0.00    -0.008 C 
HETATM    4  C6  UNL     1      -1.158  -3.260   1.997  1.00  0.00     0.065 C 
HETATM    5  C5  UNL     1       0.019  -4.175   2.000  1.00  0.00     0.088 C 
HETATM    6  N3  UNL     1       1.176  -3.256   2.158  1.00  0.00    -0.352 N 
HETATM    7  C38 UNL     1       0.747  -2.239   3.067  1.00  0.00     0.244 C 
ATOM      8  H3  UNL     1       2.089  -3.335   1.710  1.00  0.00     0.163 HD
HETATM    9  O5  UNL     1       1.546  -1.654   3.839  1.00  0.00    -0.268 OA
BRANCH   5  10
HETATM   10  C4  UNL     1       0.279  -5.043   0.839  1.00  0.00     0.025 C 
BRANCH  10  11
HETATM   11  C3  UNL     1      -0.743  -6.047   0.469  1.00  0.00     0.002 C 
BRANCH  11  12
HETATM   12  C2  UNL     1      -2.069  -5.602  -0.010  1.00  0.00    -0.004 C 
HETATM   13  C1  UNL     1      -1.937  -4.822  -1.311  1.00  0.00     0.005 C 
ENDBRANCH  11  12
ENDBRANCH  10  11
ENDBRANCH   5  10
ENDBRANCH   2   3
ENDBRANCH   1   2
BRANCH   1  14
HETATM   14  N1  UNL     1       0.238  -0.021   0.929  1.00  0.00    -0.401 N 
ATOM     15  H1  UNL     1       0.901  -0.287   1.657  1.00  0.00     0.154 HD
BRANCH  14  16
HETATM   16  C10 UNL     1       0.767   0.514  -0.300  1.00  0.00     0.170 C 
BRANCH  16  17
HETATM   17  C11 UNL     1       2.262   0.539   0.006  1.00  0.00     0.039 C 
BRANCH  17  18
HETATM   18  C12 UNL     1       3.196   1.079  -0.952  1.00  0.00    -0.012 C 
HETATM   19  C13 UNL     1       3.049   2.537  -1.305  1.00  0.00     0.005 C 
HETATM   20  C14 UNL     1       4.026   2.906  -2.373  1.00  0.00     0.000 C 
HETATM   21  C15 UNL     1       5.405   2.340  -2.136  1.00  0.00     0.000 C 
HETATM   22  C16 UNL     1       5.509   2.014  -0.664  1.00  0.00     0.000 C 
HETATM   23  C17 UNL     1       4.608   0.843  -0.395  1.00  0.00     0.005 C 
ENDBRANCH  17  18
ENDBRANCH  16  17
BRANCH  16  24
HETATM   24  C18 UNL     1       0.612  -0.461  -1.420  1.00  0.00     0.240 C 
HETATM   25  O1  UNL     1       0.280  -1.605  -1.106  1.00  0.00    -0.271 OA
HETATM   26  N2  UNL     1       0.826  -0.097  -2.743  1.00  0.00    -0.359 N 
ATOM     27  H2  UNL     1       1.081   0.882  -2.874  1.00  0.00     0.162 HD
BRANCH  26  28
HETATM   28  C19 UNL     1       0.751  -0.852  -3.948  1.00  0.00     0.131 C 
BRANCH  28  29
HETATM   29  C20 UNL     1       1.682  -1.950  -4.207  1.00  0.00    -0.035 C 
HETATM   30  C21 UNL     1       1.331  -2.525  -5.601  1.00  0.00     0.016 C 
HETATM   31  C22 UNL     1       3.082  -1.350  -4.416  1.00  0.00     0.016 C 
HETATM   32  C23 UNL     1       1.730  -3.110  -3.293  1.00  0.00     0.016 C 
ENDBRANCH  28  29
ENDBRANCH  26  28
ENDBRANCH  16  24
ENDBRANCH  14  16
ENDBRANCH   1  14
BRANCH   1  33
HETATM   33  C24 UNL     1      -2.117   0.877   1.070  1.00  0.00    -0.055 C 
HETATM   34  C25 UNL     1      -2.203   2.019   1.934  1.00  0.00     0.010 C 
BRANCH  34  35
HETATM   35  C26 UNL     1      -1.307   3.120   2.211  1.00  0.00     0.143 C 
BRANCH  35  36
HETATM   36  O2  UNL     1      -2.070   3.979   3.150  1.00  0.00    -0.392 OA
ATOM     37  H2  UNL     1      -1.481   4.702   3.332  1.00  0.00     0.210 HD
ENDBRANCH  35  36
BRANCH  35  38
HETATM   38  C27 UNL     1      -0.112   2.886   3.102  1.00  0.00     0.067 C 
BRANCH  38  39
HETATM   39  C28 UNL     1       0.711   4.137   3.238  1.00  0.00     0.129 C 
HETATM   40  C29 UNL     1       0.104   5.347   3.825  1.00  0.00     0.058 C 
HETATM   41  C30 UNL     1      -0.088   5.169   5.312  1.00  0.00     0.173 C 
HETATM   42  O3  UNL     1       0.475   4.000   5.795  1.00  0.00    -0.367 OA
HETATM   43  C31 UNL     1       1.727   3.743   5.304  1.00  0.00     0.338 C 
HETATM   44  O4  UNL     1       1.902   3.873   3.954  1.00  0.00    -0.362 OA
ENDBRANCH  38  39
ENDBRANCH  35  38
ENDBRANCH  34  35
BRANCH  33  45
HETATM   45  C32 UNL     1      -2.666   1.087  -0.340  1.00  0.00     0.016 C 
HETATM   46  C33 UNL     1      -3.682   2.221  -0.364  1.00  0.00     0.009 C 
HETATM   47  C34 UNL     1      -4.267   2.298  -1.760  1.00  0.00     0.001 C 
HETATM   48  C35 UNL     1      -3.529   1.437  -2.758  1.00  0.00     0.000 C 
HETATM   49  C36 UNL     1      -3.589  -0.025  -2.381  1.00  0.00     0.001 C 
HETATM   50  C37 UNL     1      -3.441  -0.088  -0.879  1.00  0.00     0.009 C 
ENDBRANCH  33  45
ENDBRANCH   1  33
TORSDOF 18
