REMARK  20 active torsions:
REMARK  status: ('A' for Active; 'I' for Inactive)
REMARK       I    between atoms: N1_2  and  C2_4 
REMARK    1  A    between atoms: C2_4  and  C3_6 
REMARK    2  A    between atoms: C3_6  and  C6_9 
REMARK    3  A    between atoms: C6_9  and  N2_10 
REMARK    4  A    between atoms: C6_9  and  C7_14 
REMARK       I    between atoms: C7_14  and  N3_16 
REMARK    5  A    between atoms: N3_16  and  C9_18 
REMARK    6  A    between atoms: C9_18  and  C10_19 
REMARK    7  A    between atoms: C10_19  and  C11_20 
REMARK    8  A    between atoms: C10_19  and  C18_30 
REMARK    9  A    between atoms: C11_20  and  C12_21 
REMARK   10  A    between atoms: C12_21  and  C13_22 
REMARK   11  A    between atoms: C18_30  and  C19_31 
REMARK   12  A    between atoms: C18_30  and  N5_38 
REMARK   13  A    between atoms: C19_31  and  C20_32 
REMARK       I    between atoms: N5_38  and  C26_40 
REMARK   14  A    between atoms: C26_40  and  C27_42 
REMARK   15  A    between atoms: C27_42  and  C28_43 
REMARK       I    between atoms: C28_43  and  N6_45 
REMARK   16  A    between atoms: N6_45  and  C29_47 
REMARK   17  A    between atoms: C29_47  and  C30_48 
REMARK   18  A    between atoms: C30_48  and  C31_49 
REMARK   19  A    between atoms: C31_49  and  C32_50 
REMARK   20  A    between atoms: C32_50  and  N7_51 
ROOT
HETATM    1  C18 UNL     1      -0.389   0.907   0.660  1.00  0.00     0.035 C 
ENDROOT
BRANCH   1   2
HETATM    2  C10 UNL     1      -0.770   2.013  -0.170  1.00  0.00    -0.036 C 
BRANCH   2   3
HETATM    3  C9  UNL     1      -1.550   2.010  -1.394  1.00  0.00     0.161 C 
BRANCH   3   4
HETATM    4  N3  UNL     1      -1.438   0.888  -2.319  1.00  0.00    -0.351 N 
HETATM    5  C7  UNL     1      -2.292  -0.221  -2.312  1.00  0.00     0.251 C 
HETATM    6  O2  UNL     1      -3.266  -0.181  -1.474  1.00  0.00    -0.271 OA
HETATM    7  C8  UNL     1      -0.343   0.943  -3.299  1.00  0.00     0.153 C 
BRANCH   5   8
HETATM    8  C6  UNL     1      -2.231  -1.421  -3.121  1.00  0.00     0.291 C 
BRANCH   8   9
HETATM    9  C3  UNL     1      -3.585  -1.890  -3.651  1.00  0.00     0.070 C 
HETATM   10  C4  UNL     1      -4.126  -0.933  -4.693  1.00  0.00     0.028 C 
HETATM   11  C5  UNL     1      -3.348  -3.225  -4.349  1.00  0.00     0.028 C 
BRANCH   9  12
HETATM   12  C2  UNL     1      -4.592  -2.060  -2.602  1.00  0.00     0.227 C 
HETATM   13  N1  UNL     1      -4.389  -2.957  -1.506  1.00  0.00    -0.365 N 
HETATM   14  C1  UNL     1      -5.362  -3.139  -0.476  1.00  0.00     0.149 C 
ATOM     15  H1  UNL     1      -3.518  -3.486  -1.458  1.00  0.00     0.161 HD
HETATM   16  O1  UNL     1      -5.671  -1.424  -2.633  1.00  0.00    -0.273 OA
ENDBRANCH   9  12
ENDBRANCH   8   9
BRANCH   8  17
HETATM   17  N2  UNL     1      -1.341  -1.305  -4.233  1.00  0.00    -0.065 N 
ATOM     18  H23 UNL     1      -1.276  -2.164  -4.779  1.00  0.00     0.275 HD
ATOM     19  H22 UNL     1      -1.707  -0.703  -4.971  1.00  0.00     0.275 HD
ATOM     20  H21 UNL     1      -0.437  -0.992  -3.879  1.00  0.00     0.275 HD
ENDBRANCH   8  17
ENDBRANCH   5   8
ENDBRANCH   3   4
ENDBRANCH   2   3
BRANCH   2  21
HETATM   21  C11 UNL     1      -1.048   3.327   0.606  1.00  0.00     0.038 C 
BRANCH  21  22
HETATM   22  C12 UNL     1      -0.613   4.541  -0.231  1.00  0.00     0.009 C 
BRANCH  22  23
HETATM   23  C13 UNL     1      -0.862   5.801   0.585  1.00  0.00    -0.011 C 
HETATM   24  C14 UNL     1      -0.090   5.815   1.878  1.00  0.00     0.032 C 
HETATM   25  C15 UNL     1      -0.075   7.255   2.363  1.00  0.00     0.232 C 
HETATM   26  N4  UNL     1       0.780   8.062   1.513  1.00  0.00    -0.075 N 
HETATM   27  C16 UNL     1       0.864   7.528   0.172  1.00  0.00     0.232 C 
ATOM     28  H42 UNL     1       0.482   9.037   1.506  1.00  0.00     0.277 HD
ATOM     29  H41 UNL     1       1.706   8.181   1.924  1.00  0.00     0.277 HD
HETATM   30  C17 UNL     1      -0.494   6.977  -0.276  1.00  0.00     0.032 C 
ENDBRANCH  22  23
ENDBRANCH  21  22
ENDBRANCH   2  21
ENDBRANCH   1   2
BRANCH   1  31
HETATM   31  C19 UNL     1      -1.168  -0.083   1.373  1.00  0.00     0.008 C 
BRANCH  31  32
HETATM   32  C20 UNL     1      -2.127   0.265   2.447  1.00  0.00     0.010 C 
HETATM   33  C21 UNL     1      -3.262   1.102   2.052  1.00  0.00     0.008 C 
HETATM   34  C22 UNL     1      -4.599   0.569   2.569  1.00  0.00     0.001 C 
HETATM   35  C23 UNL     1      -4.475   0.325   4.058  1.00  0.00     0.000 C 
HETATM   36  C24 UNL     1      -3.493  -0.774   4.270  1.00  0.00     0.001 C 
HETATM   37  C25 UNL     1      -2.571  -1.034   3.139  1.00  0.00     0.008 C 
ENDBRANCH  31  32
ENDBRANCH   1  31
BRANCH   1  38
HETATM   38  N5  UNL     1       0.854   0.243   0.124  1.00  0.00    -0.324 N 
HETATM   39  C26 UNL     1       2.083   0.302   0.785  1.00  0.00     0.266 C 
HETATM   40  O3  UNL     1       2.081   0.965   1.889  1.00  0.00    -0.269 OA
ATOM     41  H5  UNL     1       0.795  -0.269  -0.756  1.00  0.00     0.169 HD
BRANCH  39  42
HETATM   42  C27 UNL     1       3.375  -0.286   0.398  1.00  0.00     0.222 C 
HETATM   43  C33 UNL     1       3.793   0.245  -0.929  1.00  0.00     0.058 C 
HETATM   44  C34 UNL     1       5.273   0.056  -1.203  1.00  0.00     0.006 C 
HETATM   45  C35 UNL     1       6.020   0.804  -0.128  1.00  0.00     0.026 C 
HETATM   46  C36 UNL     1       5.201   0.981   1.119  1.00  0.00     0.170 C 
HETATM   47  O5  UNL     1       4.335  -0.035   1.396  1.00  0.00    -0.361 OA
BRANCH  42  48
HETATM   48  C28 UNL     1       3.242  -1.749   0.335  1.00  0.00     0.262 C 
HETATM   49  O4  UNL     1       3.729  -2.474   1.233  1.00  0.00    -0.270 OA
HETATM   50  N6  UNL     1       2.573  -2.380  -0.730  1.00  0.00    -0.358 N 
ATOM     51  H6  UNL     1       2.180  -1.807  -1.477  1.00  0.00     0.162 HD
BRANCH  50  52
HETATM   52  C29 UNL     1       2.424  -3.844  -0.797  1.00  0.00     0.122 C 
BRANCH  52  53
HETATM   53  C30 UNL     1       1.691  -4.174  -2.078  1.00  0.00     0.021 C 
BRANCH  53  54
HETATM   54  C31 UNL     1       1.465  -5.629  -2.282  1.00  0.00     0.029 C 
BRANCH  54  55
HETATM   55  C32 UNL     1       0.632  -6.224  -1.185  1.00  0.00     0.229 C 
BRANCH  55  56
HETATM   56  N7  UNL     1       0.417  -7.653  -1.406  1.00  0.00    -0.079 N 
ATOM     57  H73 UNL     1       0.014  -7.835  -2.325  1.00  0.00     0.274 HD
ATOM     58  H72 UNL     1       1.299  -8.152  -1.522  1.00  0.00     0.274 HD
ATOM     59  H71 UNL     1      -0.149  -8.057  -0.660  1.00  0.00     0.274 HD
ENDBRANCH  55  56
ENDBRANCH  54  55
ENDBRANCH  53  54
ENDBRANCH  52  53
ENDBRANCH  50  52
ENDBRANCH  42  48
ENDBRANCH  39  42
ENDBRANCH   1  38
TORSDOF 20
