REMARK  9 active torsions:
REMARK  status: ('A' for Active; 'I' for Inactive)
REMARK    1  A    between atoms: C2_2  and  C3_3 
REMARK    2  A    between atoms: C3_3  and  N1_4 
REMARK    3  A    between atoms: C7_8  and  C21_29 
REMARK    4  A    between atoms: C14_18  and  C15_19 
REMARK    5  A    between atoms: N3_21  and  C17_22 
REMARK    6  A    between atoms: C17_22  and  C18_23 
REMARK    7  A    between atoms: C18_23  and  C19_24 
REMARK    8  A    between atoms: C19_24  and  O2_25 
REMARK    9  A    between atoms: C21_29  and  O4_30 
ROOT
HETATM    1  N1  UNL     1      -1.221  -0.250   0.287  1.00  0.00     0.168 N 
HETATM    2  C4  UNL     1      -0.472   0.846   1.065  1.00  0.00     0.321 A 
HETATM    3  C5  UNL     1       0.281   1.876   0.578  1.00  0.00     0.095 C 
HETATM    4  C6  UNL     1       1.251   2.486   1.551  1.00  0.00     0.030 C 
HETATM    5  C7  UNL     1       2.249   2.318   0.479  1.00  0.00     0.031 C 
HETATM    6  C8  UNL     1       1.128   2.277  -0.475  1.00  0.00     0.046 C 
HETATM    7  C9  UNL     1       1.302   1.334  -1.590  1.00  0.00     0.179 C 
HETATM    8  O1  UNL     1       2.473   1.613  -2.258  1.00  0.00    -0.295 OA
HETATM    9  N2  UNL     1       3.601   1.103  -1.921  1.00  0.00    -0.193 NA
HETATM   10  C10 UNL     1       3.627  -0.264  -1.450  1.00  0.00     0.130 C 
HETATM   11  C11 UNL     1       2.683  -0.091  -0.320  1.00  0.00     0.067 C 
HETATM   12  C12 UNL     1       1.257  -0.001  -0.993  1.00  0.00     0.091 C 
HETATM   13 CL1  UNL     1       1.405  -0.981  -2.570  1.00  0.00    -0.112 Cl
HETATM   14  C13 UNL     1       0.296  -0.646  -0.217  1.00  0.00     0.048 C 
HETATM   15  C14 UNL     1      -0.945  -0.024   0.496  1.00  0.00     0.355 A 
HETATM   16  N3  UNL     1      -1.632   1.129  -0.054  1.00  0.00     0.198 N 
HETATM   17  C20 UNL     1      -0.952   2.467   0.141  1.00  0.00     0.365 C 
HETATM   18  O3  UNL     1      -1.344   3.570  -0.024  1.00  0.00    -0.262 OA
HETATM   19  C21 UNL     1       3.132   1.166   0.318  1.00  0.00     0.085 C 
HETATM   20  C23 UNL     1       4.195   1.674  -0.694  1.00  0.00     0.159 C 
ENDROOT
BRANCH  16  21
HETATM   21  C17 UNL     1      -2.826   1.527  -0.727  1.00  0.00     0.289 C 
BRANCH  21  22
HETATM   22  C18 UNL     1      -2.676   1.774  -2.188  1.00  0.00     0.057 C 
BRANCH  22  23
HETATM   23  C19 UNL     1      -2.329   0.672  -3.114  1.00  0.00     0.165 C 
BRANCH  23  24
HETATM   24  O2  UNL     1      -2.197   1.237  -4.387  1.00  0.00    -0.401 OA
ATOM     25  H2  UNL     1      -1.974   0.530  -4.981  1.00  0.00     0.209 HD
ENDBRANCH  23  24
ENDBRANCH  22  23
ENDBRANCH  21  22
ENDBRANCH  16  21
BRANCH  15  26
HETATM   26  C15 UNL     1      -0.924  -0.559   2.003  1.00  0.00     0.074 C 
HETATM   27  C16 UNL     1      -0.411  -1.902   2.154  1.00  0.00     0.010 C 
ENDBRANCH  15  26
BRANCH   1  28
HETATM   28  C3  UNL     1      -2.328  -0.976   0.535  1.00  0.00     0.241 C 
BRANCH  28  29
HETATM   29  C2  UNL     1      -2.689  -2.035  -0.435  1.00  0.00     0.017 C 
HETATM   30  C1  UNL     1      -3.776  -2.198  -1.081  1.00  0.00     0.013 C 
ENDBRANCH  28  29
ENDBRANCH   1  28
BRANCH  19  31
HETATM   31  O4  UNL     1       3.712   1.038   1.569  1.00  0.00    -0.383 OA
HETATM   32  C22 UNL     1       4.612   0.066   1.779  1.00  0.00     0.202 C 
ENDBRANCH  19  31
TORSDOF 9
