REMARK  6 active torsions:
REMARK  status: ('A' for Active; 'I' for Inactive)
REMARK    1  A    between atoms: C2_2  and  O1_3 
REMARK    2  A    between atoms: C2_2  and  C3_5 
REMARK    3  A    between atoms: C5_7  and  O2_8 
REMARK    4  A    between atoms: C6_10  and  O3_11 
REMARK    5  A    between atoms: C6_10  and  O4_13 
REMARK    6  A    between atoms: C7_15  and  C8_17 
ROOT
HETATM    1  C3  UNL     1       0.358   0.603   1.245  1.00  0.00     0.078 A 
HETATM    2  C4  UNL     1       0.649   0.149  -0.046  1.00  0.00     0.075 A 
HETATM    3  C5  UNL     1       1.541   1.449  -0.122  1.00  0.00     0.159 C 
HETATM    4  C6  UNL     1       1.900   0.649   1.045  1.00  0.00     0.208 C 
HETATM    5  C7  UNL     1       0.550   1.477  -1.156  1.00  0.00     0.171 C 
HETATM    6  F1  UNL     1       0.737   0.507  -2.144  1.00  0.00    -0.236 F 
HETATM    7  C9  UNL     1      -0.437   1.008  -0.051  1.00  0.00     0.100 A 
HETATM    8 CL1  UNL     1      -2.048   0.602  -0.320  1.00  0.00    -0.114 Cl
ENDROOT
BRANCH   1   9
HETATM    9  C2  UNL     1      -0.259  -0.293   2.229  1.00  0.00     0.130 C 
HETATM   10  C1  UNL     1      -0.466   0.435   3.526  1.00  0.00     0.040 C 
BRANCH   9  11
HETATM   11  O1  UNL     1      -1.444  -0.799   1.737  1.00  0.00    -0.395 OA
ATOM     12  H1  UNL     1      -1.313  -1.260   0.916  1.00  0.00     0.210 HD
ENDBRANCH   9  11
ENDBRANCH   1   9
BRANCH   4  13
HETATM   13  O3  UNL     1       2.592   1.196   2.075  1.00  0.00    -0.362 OA
ATOM     14  H3  UNL     1       3.534   1.224   1.953  1.00  0.00     0.213 HD
ENDBRANCH   4  13
BRANCH   4  15
HETATM   15  O4  UNL     1       2.444  -0.641   0.824  1.00  0.00    -0.362 OA
ATOM     16  H4  UNL     1       3.386  -0.613   0.702  1.00  0.00     0.213 HD
ENDBRANCH   4  15
BRANCH   3  17
HETATM   17  O2  UNL     1       1.196   2.584   0.570  1.00  0.00    -0.380 OA
ATOM     18  H2  UNL     1       1.733   3.366   0.524  1.00  0.00     0.211 HD
ENDBRANCH   3  17
BRANCH   5  19
HETATM   19  C8  UNL     1       0.220   2.761  -1.791  1.00  0.00     0.134 C 
HETATM   20 BR1  UNL     1       1.851   3.463  -2.611  1.00  0.00    -0.093 Br
ENDBRANCH   5  19
TORSDOF 6
