REMARK  9 active torsions:
REMARK  status: ('A' for Active; 'I' for Inactive)
REMARK    1  A    between atoms: C3_3  and  O1_4 
REMARK    2  A    between atoms: C7_11  and  C8_12 
REMARK    3  A    between atoms: C11_16  and  O5_17 
REMARK    4  A    between atoms: C11_16  and  C12_19 
REMARK    5  A    between atoms: C15_22  and  O6_23 
REMARK    6  A    between atoms: C16_25  and  O7_26 
REMARK    7  A    between atoms: C17_28  and  C18_29 
REMARK    8  A    between atoms: C22_33  and  O8_34 
REMARK    9  A    between atoms: C23_36  and  O9_37 
ROOT
HETATM    1  C1  UNL     1       0.337  -4.452  -3.616  1.00  0.00     0.020 C 
HETATM    2  C2  UNL     1      -0.566  -3.908  -2.831  1.00  0.00    -0.024 C 
HETATM    3  C3  UNL     1      -1.998  -3.718  -3.167  1.00  0.00     0.290 C 
HETATM    4  O2  UNL     1      -2.261  -2.469  -2.606  1.00  0.00    -0.327 OA
HETATM    5  C4  UNL     1      -1.722  -2.654  -1.304  1.00  0.00     0.275 C 
HETATM    6  O3  UNL     1      -1.951  -1.727  -0.419  1.00  0.00    -0.346 OA
HETATM    7  C5  UNL     1      -1.532  -0.388  -0.555  1.00  0.00     0.098 C 
HETATM    8  C6  UNL     1      -2.553   0.237  -1.491  1.00  0.00     0.050 C 
HETATM    9  C7  UNL     1      -1.602   0.155   0.815  1.00  0.00     0.188 C 
HETATM   10  O4  UNL     1      -0.749   1.029   1.286  1.00  0.00    -0.339 OA
HETATM   11  C11 UNL     1       0.524   0.789   1.710  1.00  0.00     0.200 C 
HETATM   12  C15 UNL     1       1.435   0.774   0.568  1.00  0.00     0.151 C 
HETATM   13  C16 UNL     1       0.820   1.702  -0.453  1.00  0.00     0.169 C 
HETATM   14  C17 UNL     1       0.773   0.520  -1.397  1.00  0.00     0.014 C 
HETATM   15  C21 UNL     1      -0.278  -0.448  -1.275  1.00  0.00     0.073 C 
HETATM   16  C22 UNL     1       0.600  -1.393  -0.505  1.00  0.00     0.103 C 
HETATM   17  C23 UNL     1       0.850  -2.582  -1.341  1.00  0.00     0.167 C 
HETATM   18  C24 UNL     1      -0.430  -3.354  -1.451  1.00  0.00     0.106 C 
HETATM   19  C25 UNL     1       1.531  -0.249  -0.442  1.00  0.00     0.040 C 
HETATM   20  C26 UNL     1       2.920  -0.732  -0.724  1.00  0.00     0.023 C 
ENDROOT
BRANCH  11  21
HETATM   21  O5  UNL     1       0.696  -0.121   2.724  1.00  0.00    -0.363 OA
ATOM     22  H5  UNL     1       1.583  -0.288   3.020  1.00  0.00     0.213 HD
ENDBRANCH  11  21
BRANCH  11  23
HETATM   23  C12 UNL     1       0.794   2.101   2.507  1.00  0.00     0.043 C 
HETATM   24  C13 UNL     1       2.131   2.181   3.137  1.00  0.00     0.015 C 
HETATM   25  C14 UNL     1      -0.191   1.991   3.690  1.00  0.00     0.015 C 
ENDBRANCH  11  23
BRANCH  12  26
HETATM   26  O6  UNL     1       2.734   1.243   0.892  1.00  0.00    -0.381 OA
ATOM     27  H6  UNL     1       3.326   1.233   0.149  1.00  0.00     0.211 HD
ENDBRANCH  12  26
BRANCH   9  28
HETATM   28  C8  UNL     1      -2.994   0.760   0.983  1.00  0.00    -0.061 C 
HETATM   29  C9  UNL     1      -3.152   2.049   1.227  1.00  0.00     0.016 C 
HETATM   30  C10 UNL     1      -4.231  -0.063   0.888  1.00  0.00     0.045 C 
ENDBRANCH   9  28
BRANCH  13  31
HETATM   31  O7  UNL     1       1.674   2.743  -0.829  1.00  0.00    -0.391 OA
ATOM     32  H7  UNL     1       1.287   3.327  -1.471  1.00  0.00     0.210 HD
ENDBRANCH  13  31
BRANCH  14  33
HETATM   33  C18 UNL     1       1.197   1.043  -2.710  1.00  0.00    -0.010 C 
HETATM   34  C19 UNL     1       0.268   2.153  -3.220  1.00  0.00     0.010 C 
HETATM   35  C20 UNL     1       1.417   0.162  -3.872  1.00  0.00     0.010 C 
ENDBRANCH  14  33
BRANCH  16  36
HETATM   36  O8  UNL     1       0.121  -1.931   0.667  1.00  0.00    -0.386 OA
ATOM     37  H8  UNL     1       0.676  -2.529   1.154  1.00  0.00     0.210 HD
ENDBRANCH  16  36
BRANCH  17  38
HETATM   38  O9  UNL     1       1.802  -3.349  -0.605  1.00  0.00    -0.392 OA
ATOM     39  H9  UNL     1       1.963  -4.115  -1.144  1.00  0.00     0.210 HD
ENDBRANCH  17  38
BRANCH   3  40
HETATM   40  O1  UNL     1      -2.247  -3.756  -4.531  1.00  0.00    -0.367 OA
ATOM     41  H1  UNL     1      -3.164  -3.634  -4.746  1.00  0.00     0.213 HD
ENDBRANCH   3  40
TORSDOF 9
