REMARK  3 active torsions:
REMARK  status: ('A' for Active; 'I' for Inactive)
REMARK    1  A    between atoms: C2_2  and  O2_4 
REMARK    2  A    between atoms: O2_4  and  C3_5 
REMARK    3  A    between atoms: C13_17  and  C15_19 
ROOT
HETATM    1  C3  UNL     1      -0.249  -2.086  -1.198  1.00  0.00     0.141 C 
HETATM    2  C4  UNL     1       1.067  -1.909  -1.832  1.00  0.00     0.034 C 
HETATM    3  C5  UNL     1       1.636  -0.523  -1.857  1.00  0.00     0.020 C 
HETATM    4  C6  UNL     1       1.314   0.439  -0.750  1.00  0.00     0.040 A 
HETATM    5  C7  UNL     1       0.178   1.304  -1.074  1.00  0.00     0.024 C 
HETATM    6  C8  UNL     1       1.108  -0.606   0.186  1.00  0.00     0.053 A 
HETATM    7  C9  UNL     1       2.197   0.111   0.106  1.00  0.00     0.121 A 
HETATM    8  C10 UNL     1       2.915   1.239  -0.607  1.00  0.00     0.213 C 
HETATM    9  O3  UNL     1       3.347   1.472   0.514  1.00  0.00    -0.354 OA
HETATM   10  C11 UNL     1       2.128   0.809   0.485  1.00  0.00     0.154 A 
HETATM   11  C12 UNL     1       1.362   1.366   1.604  1.00  0.00     0.077 C 
HETATM   12  O4  UNL     1       2.946  -0.261   0.937  1.00  0.00    -0.340 OA
HETATM   13  C13 UNL     1      -0.094  -1.229   0.080  1.00  0.00     0.003 C 
HETATM   14  C14 UNL     1      -1.429  -0.580   0.224  1.00  0.00     0.019 C 
ENDROOT
BRANCH   1  15
HETATM   15  O2  UNL     1      -1.257  -1.671  -1.986  1.00  0.00    -0.316 OA
BRANCH  15  16
HETATM   16  C2  UNL     1      -2.339  -2.305  -2.501  1.00  0.00     0.255 C 
HETATM   17  C1  UNL     1      -3.272  -1.557  -3.342  1.00  0.00     0.126 C 
HETATM   18  O1  UNL     1      -2.432  -3.512  -2.191  1.00  0.00    -0.266 OA
ENDBRANCH  15  16
ENDBRANCH   1  15
BRANCH  13  19
HETATM   19  C15 UNL     1      -0.242  -2.330   1.209  1.00  0.00     0.126 C 
HETATM   20 CL1  UNL     1       1.003  -3.554   1.060  1.00  0.00    -0.130 Cl
ENDBRANCH  13  19
TORSDOF 3
