REMARK  3 active torsions:
REMARK  status: ('A' for Active; 'I' for Inactive)
REMARK       I    between atoms: C2_2  and  N1_4 
REMARK    1  A    between atoms: N1_4  and  C4_6 
REMARK    2  A    between atoms: C4_6  and  O2_7 
REMARK    3  A    between atoms: C4_6  and  C5_9 
ROOT
HETATM    1  C5  UNL     1       0.034  -1.118   1.068  1.00  0.00     0.200 A 
HETATM    2  N2  UNL     1      -0.858  -2.016   1.740  1.00  0.00    -0.053 N 
ATOM      3  H21 UNL     1      -1.794  -2.196   1.376  1.00  0.00     0.279 HD
ATOM      4  H22 UNL     1      -1.276  -1.767   2.636  1.00  0.00     0.279 HD
HETATM    5  C6  UNL     1       0.179  -3.023   1.657  1.00  0.00     0.195 C 
HETATM    6  C7  UNL     1       0.583  -3.369   0.214  1.00  0.00     0.041 C 
HETATM    7  C8  UNL     1       0.935  -1.894   0.147  1.00  0.00     0.041 A 
HETATM    8  C9  UNL     1       1.148  -1.915   1.562  1.00  0.00     0.068 A 
ENDROOT
BRANCH   1   9
HETATM    9  C4  UNL     1      -0.021   0.307   0.981  1.00  0.00     0.158 C 
BRANCH   9  10
HETATM   10  N1  UNL     1      -0.854   1.288   1.442  1.00  0.00    -0.305 N 
HETATM   11  C2  UNL     1      -2.007   1.150   2.214  1.00  0.00     0.221 C 
HETATM   12  C1  UNL     1      -2.823   2.349   2.646  1.00  0.00     0.117 C 
HETATM   13  O1  UNL     1      -2.450   0.066   2.603  1.00  0.00    -0.273 OA
HETATM   14  C3  UNL     1      -0.533   2.707   1.106  1.00  0.00     0.161 C 
ENDBRANCH   9  10
BRANCH   9  15
HETATM   15  O2  UNL     1       0.991   0.792   0.275  1.00  0.00    -0.347 OA
ATOM     16  H2  UNL     1       1.570   0.110  -0.045  1.00  0.00     0.219 HD
ENDBRANCH   9  15
ENDBRANCH   1   9
TORSDOF 3
