REMARK  3 active torsions:
REMARK  status: ('A' for Active; 'I' for Inactive)
REMARK    1  A    between atoms: C2_2  and  C3_3 
REMARK    2  A    between atoms: C3_3  and  C4_4 
REMARK    3  A    between atoms: C4_4  and  C5_5 
ROOT
HETATM    1  C5  UNL     1       0.214   0.472   0.279  1.00  0.00    -0.013 C 
HETATM    2  C6  UNL     1      -1.150   0.032   0.109  1.00  0.00    -0.004 C 
HETATM    3  C7  UNL     1      -1.655  -1.118   0.947  1.00  0.00     0.041 C 
HETATM    4  C8  UNL     1      -2.902  -1.632   0.255  1.00  0.00     0.010 C 
HETATM    5  C9  UNL     1      -3.290  -0.420  -0.599  1.00  0.00     0.080 C 
HETATM    6  C10 UNL     1      -1.869  -0.209  -1.192  1.00  0.00     0.254 C 
HETATM    7  O1  UNL     1      -1.756  -1.114  -2.107  1.00  0.00    -0.190 OA
HETATM    8  O2  UNL     1      -1.146  -1.114  -3.244  1.00  0.00    -0.198 OA
HETATM    9  C11 UNL     1       0.081  -0.597  -3.467  1.00  0.00     0.368 C 
HETATM   10  O3  UNL     1       1.312  -0.870  -2.882  1.00  0.00    -0.339 OA
HETATM   11  C12 UNL     1       1.524   0.244  -1.989  1.00  0.00     0.240 C 
HETATM   12  C13 UNL     1       1.426  -0.019  -0.473  1.00  0.00     0.151 C 
HETATM   13  C14 UNL     1       2.751   0.178   0.070  1.00  0.00     0.058 C 
HETATM   14  O4  UNL     1       1.191  -1.384  -0.594  1.00  0.00    -0.219 OA
HETATM   15  O5  UNL     1       0.301  -1.253  -1.422  1.00  0.00    -0.188 OA
HETATM   16  C15 UNL     1       0.143   0.003  -2.040  1.00  0.00     0.309 C 
HETATM   17  O6  UNL     1      -0.607   0.993  -2.149  1.00  0.00    -0.186 OA
HETATM   18  O7  UNL     1      -1.856   1.055  -1.850  1.00  0.00    -0.189 OA
ENDROOT
BRANCH   1  19
HETATM   19  C4  UNL     1       0.607   0.602   1.696  1.00  0.00    -0.006 C 
BRANCH  19  20
HETATM   20  C3  UNL     1       0.196   1.468   2.778  1.00  0.00    -0.022 C 
HETATM   21  C16 UNL     1       0.868   2.879   2.698  1.00  0.00     0.013 C 
HETATM   22  C17 UNL     1       1.305   2.712   4.115  1.00  0.00     0.002 C 
HETATM   23  C18 UNL     1       1.201   1.252   3.985  1.00  0.00     0.013 C 
BRANCH  20  24
HETATM   24  C2  UNL     1      -1.109   1.681   3.420  1.00  0.00     0.009 C 
HETATM   25  C1  UNL     1      -2.272   2.252   2.713  1.00  0.00     0.006 C 
ENDBRANCH  20  24
ENDBRANCH  19  20
ENDBRANCH   1  19
TORSDOF 3
