REMARK  5 active torsions:
REMARK  status: ('A' for Active; 'I' for Inactive)
REMARK    1  A    between atoms: O1_2  and  C2_3 
REMARK    2  A    between atoms: C2_3  and  O2_4 
REMARK    3  A    between atoms: C2_3  and  C3_6 
REMARK    4  A    between atoms: N7_22  and  C7_23 
REMARK    5  A    between atoms: C7_23  and  C8_24 
ROOT
HETATM    1  C3  UNL     1       0.208   0.783  -0.200  1.00  0.00     0.151 A 
HETATM    2  N1  UNL     1      -0.200   1.823   0.665  1.00  0.00    -0.300 N 
ATOM      3  H1  UNL     1       0.237   2.744   0.645  1.00  0.00     0.171 HD
HETATM    4  C4  UNL     1      -1.187   1.530   1.506  1.00  0.00     0.279 A 
HETATM    5  N2  UNL     1      -1.459   0.445   1.286  1.00  0.00    -0.333 NA
HETATM    6  C5  UNL     1      -1.456  -0.699   0.770  1.00  0.00     0.284 A 
HETATM    7  N3  UNL     1      -2.330  -1.445   1.296  1.00  0.00    -0.147 N 
ATOM      8  H3  UNL     1      -2.493  -2.414   1.023  1.00  0.00     0.188 HD
HETATM    9  C6  UNL     1      -3.138  -0.698   2.426  1.00  0.00     0.694 A 
HETATM   10  N4  UNL     1      -4.001  -1.496   2.908  1.00  0.00    -0.233 N 
ATOM     11  H41 UNL     1      -4.524  -1.013   3.639  1.00  0.00     0.174 HD
ATOM     12  H42 UNL     1      -4.067  -2.445   2.541  1.00  0.00     0.174 HD
HETATM   13  N5  UNL     1      -3.046   0.629   2.939  1.00  0.00    -0.129 N 
ATOM     14  H5  UNL     1      -3.703   0.840   3.690  1.00  0.00     0.205 HD
HETATM   15  N6  UNL     1      -2.154   1.755   2.563  1.00  0.00    -0.245 N 
ATOM     16  H6  UNL     1      -2.219   2.658   3.033  1.00  0.00     0.191 HD
HETATM   17  N7  UNL     1      -0.423  -0.535  -0.170  1.00  0.00    -0.263 N 
ENDROOT
BRANCH  17  18
HETATM   18  C7  UNL     1      -0.173  -1.729  -0.847  1.00  0.00     0.151 C 
BRANCH  18  19
HETATM   19  C8  UNL     1       0.907  -2.589  -0.322  1.00  0.00     0.129 A 
HETATM   20  N8  UNL     1       0.695  -3.523   0.631  1.00  0.00    -0.293 N 
HETATM   21  C9  UNL     1       1.676  -4.309   1.097  1.00  0.00     0.329 A 
ATOM     22  H8  UNL     1      -0.246  -3.634   1.010  1.00  0.00     0.172 HD
HETATM   23  O3  UNL     1       1.473  -5.188   1.996  1.00  0.00    -0.246 OA
HETATM   24  N9  UNL     1       2.921  -4.157   0.589  1.00  0.00    -0.260 N 
HETATM   25  C10 UNL     1       3.176  -3.245  -0.357  1.00  0.00     0.329 A 
ATOM     26  H9  UNL     1       3.678  -4.748   0.933  1.00  0.00     0.175 HD
HETATM   27  O4  UNL     1       4.340  -3.117  -0.818  1.00  0.00    -0.246 OA
HETATM   28  N10 UNL     1       2.151  -2.477  -0.792  1.00  0.00    -0.293 N 
ATOM     29  H10 UNL     1       2.338  -1.780  -1.513  1.00  0.00     0.172 HD
ENDBRANCH  18  19
ENDBRANCH  17  18
BRANCH   1  30
HETATM   30  C2  UNL     1       1.256   1.077  -1.109  1.00  0.00     0.326 C 
BRANCH  30  31
HETATM   31  O1  UNL     1       0.731   1.202  -2.387  1.00  0.00    -0.359 OA
HETATM   32  C1  UNL     1       1.456   0.652  -3.394  1.00  0.00     0.205 C 
ENDBRANCH  30  31
BRANCH  30  33
HETATM   33  O2  UNL     1       1.735   2.416  -0.847  1.00  0.00    -0.365 OA
ATOM     34  H2  UNL     1       2.095   2.330   0.028  1.00  0.00     0.213 HD
ENDBRANCH  30  33
ENDBRANCH   1  30
TORSDOF 5
