REMARK  1 active torsions:
REMARK  status: ('A' for Active; 'I' for Inactive)
REMARK    1  A    between atoms: O1_1  and  C1_3 
ROOT
HETATM    1  C1  UNL     1      -0.734   0.142   1.008  1.00  0.00     0.130 C 
HETATM    2  C2  UNL     1      -1.076   1.579   0.575  1.00  0.00     0.022 C 
HETATM    3  C3  UNL     1      -2.411   1.483  -0.121  1.00  0.00     0.008 C 
HETATM    4  C4  UNL     1      -2.089   0.446  -1.209  1.00  0.00     0.006 C 
HETATM    5  C5  UNL     1      -0.609   0.466  -1.367  1.00  0.00     0.002 C 
HETATM    6  C6  UNL     1       0.054  -0.273  -0.203  1.00  0.00     0.053 C 
HETATM    7  C7  UNL     1       1.088   0.853  -0.254  1.00  0.00     0.181 C 
HETATM    8  F1  UNL     1       1.938   0.745  -1.305  1.00  0.00    -0.248 F 
HETATM    9  C8  UNL     1      -0.132   1.700  -0.585  1.00  0.00     0.031 C 
ENDROOT
BRANCH   1  10
HETATM   10  O1  UNL     1       0.090   0.257   2.111  1.00  0.00    -0.395 OA
ATOM     11  H1  UNL     1       0.301  -0.630   2.378  1.00  0.00     0.210 HD
ENDBRANCH   1  10
TORSDOF 1
