REMARK  1 active torsions:
REMARK  status: ('A' for Active; 'I' for Inactive)
REMARK    1  A    between atoms: N4_11  and  N5_13 
ROOT
HETATM    1  N1  UNL     1       3.686   2.821  -1.897  1.00  0.00    -0.197 NA
HETATM    2  C1  UNL     1       3.201   1.934  -1.488  1.00  0.00     0.064 C 
HETATM    3  C2  UNL     1       2.581   0.764  -0.936  1.00  0.00     0.093 C 
HETATM    4  C3  UNL     1       1.578   1.145   0.173  1.00  0.00     0.020 C 
HETATM    5  N2  UNL     1       0.669   0.054  -0.220  1.00  0.00     0.000 N 
HETATM    6  C4  UNL     1      -0.668   0.140  -1.099  1.00  0.00     0.000 A 
HETATM    7  C5  UNL     1      -0.799   0.288  -0.046  1.00  0.00     0.000 A 
HETATM    8  N3  UNL     1       0.522  -0.228  -0.714  1.00  0.00     0.000 N 
HETATM    9  C6  UNL     1       1.484   0.169  -1.808  1.00  0.00     0.020 C 
HETATM   10  C7  UNL     1       0.843  -1.218  -0.019  1.00  0.00     0.108 A 
HETATM   11  N4  UNL     1       1.136  -2.368   0.528  1.00  0.00    -0.303 N 
ATOM     12  H4  UNL     1       1.486  -2.331   1.485  1.00  0.00     0.186 HD
ENDROOT
BRANCH  11  13
HETATM   13  N5  UNL     1       1.033  -3.588  -0.013  1.00  0.00    -0.345 N 
ATOM     14  H52 UNL     1       0.681  -3.604  -0.970  1.00  0.00     0.176 HD
ATOM     15  H51 UNL     1       1.262  -4.486   0.414  1.00  0.00     0.176 HD
ENDBRANCH  11  13
TORSDOF 1
