REMARK  4 active torsions:
REMARK  status: ('A' for Active; 'I' for Inactive)
REMARK    1  A    between atoms: C2_2  and  C4_4 
REMARK    2  A    between atoms: C16_16  and  C17_17 
REMARK    3  A    between atoms: C24_28  and  O5_29 
REMARK    4  A    between atoms: C24_28  and  C25_31 
ROOT
HETATM    1  C4  UNL     1      -1.664  -2.631  -2.902  1.00  0.00     0.022 C 
HETATM    2  C5  UNL     1      -2.048  -1.191  -2.823  1.00  0.00    -0.001 C 
HETATM    3  C6  UNL     1      -0.566  -0.964  -3.198  1.00  0.00     0.011 C 
HETATM    4  C7  UNL     1      -0.406  -2.178  -2.219  1.00  0.00     0.003 C 
HETATM    5  C8  UNL     1      -0.867  -1.571  -0.938  1.00  0.00     0.048 C 
HETATM    6  C9  UNL     1      -1.991  -0.739  -1.385  1.00  0.00     0.002 C 
HETATM    7  C10 UNL     1      -2.093   0.720  -1.308  1.00  0.00    -0.013 C 
HETATM    8  C11 UNL     1      -3.154   1.041  -2.419  1.00  0.00     0.010 C 
HETATM    9  C12 UNL     1      -2.693   1.299  -0.024  1.00  0.00     0.017 C 
HETATM   10  C13 UNL     1      -1.739   2.023   0.880  1.00  0.00    -0.025 C 
HETATM   11  C14 UNL     1      -2.591   3.261   1.373  1.00  0.00     0.019 C 
HETATM   12  C15 UNL     1      -0.644   2.714   0.178  1.00  0.00    -0.009 C 
HETATM   13  C16 UNL     1       0.584   2.317  -0.138  1.00  0.00    -0.025 C 
HETATM   14  C20 UNL     1       1.171   0.982   0.151  1.00  0.00     0.302 C 
HETATM   15  O1  UNL     1       1.920   0.371  -0.897  1.00  0.00    -0.283 OA
HETATM   16  C21 UNL     1       1.603  -1.018  -0.728  1.00  0.00     0.305 C 
HETATM   17  O2  UNL     1       2.371  -1.968  -1.051  1.00  0.00    -0.261 OA
HETATM   18  C22 UNL     1       0.244  -1.049  -0.121  1.00  0.00     0.218 C 
HETATM   19  O3  UNL     1       0.075   0.227   0.003  1.00  0.00    -0.327 OA
HETATM   20  C23 UNL     1       0.272  -1.528   1.301  1.00  0.00     0.206 C 
HETATM   21  O4  UNL     1       0.877  -2.594   1.409  1.00  0.00    -0.291 OA
HETATM   22  C24 UNL     1      -0.295  -0.918   2.489  1.00  0.00     0.124 C 
HETATM   23  C28 UNL     1      -1.525  -0.075   2.364  1.00  0.00     0.047 C 
HETATM   24  C29 UNL     1      -1.420   1.388   2.213  1.00  0.00     0.016 C 
ENDROOT
BRANCH  22  25
HETATM   25  O5  UNL     1       0.651  -0.293   3.329  1.00  0.00    -0.382 OA
ATOM     26  H5  UNL     1       0.280   0.106   4.107  1.00  0.00     0.211 HD
ENDBRANCH  22  25
BRANCH  22  27
HETATM   27  C25 UNL     1      -0.671  -2.141   3.372  1.00  0.00     0.019 C 
HETATM   28  C26 UNL     1      -1.646  -3.046   2.727  1.00  0.00     0.013 C 
HETATM   29  C27 UNL     1      -1.099  -1.681   4.739  1.00  0.00     0.013 C 
ENDBRANCH  22  27
BRANCH   1  30
HETATM   30  C2  UNL     1      -2.470  -3.711  -2.454  1.00  0.00    -0.088 C 
HETATM   31  C1  UNL     1      -2.225  -4.532  -1.472  1.00  0.00     0.014 C 
HETATM   32  C3  UNL     1      -3.799  -3.925  -3.175  1.00  0.00     0.043 C 
ENDBRANCH   1  30
BRANCH  13  33
HETATM   33  C17 UNL     1       1.484   3.256  -0.863  1.00  0.00     0.011 C 
HETATM   34  C18 UNL     1       2.739   3.508  -0.044  1.00  0.00     0.014 C 
HETATM   35  C19 UNL     1       1.883   2.663  -2.175  1.00  0.00     0.014 C 
ENDBRANCH  13  33
TORSDOF 4
