REMARK  17 active torsions:
REMARK  status: ('A' for Active; 'I' for Inactive)
REMARK    1  A    between atoms: C2_2  and  O1_5 
REMARK    2  A    between atoms: O1_5  and  C5_6 
REMARK    3  A    between atoms: C5_6  and  C6_8 
REMARK    4  A    between atoms: C6_8  and  C7_9 
REMARK    5  A    between atoms: C7_9  and  C8_10 
REMARK    6  A    between atoms: C8_10  and  O3_11 
REMARK       I    between atoms: N1_13  and  C9_15 
REMARK    7  A    between atoms: C9_15  and  C10_17 
REMARK    8  A    between atoms: C11_18  and  C12_19 
REMARK    9  A    between atoms: C12_19  and  C13_20 
REMARK   10  A    between atoms: C13_20  and  C14_21 
REMARK   11  A    between atoms: C14_21  and  C15_22 
REMARK   12  A    between atoms: C15_22  and  C16_23 
REMARK   13  A    between atoms: C16_23  and  C17_24 
REMARK   14  A    between atoms: C17_24  and  N2_25 
REMARK   15  A    between atoms: C17_24  and  C18_29 
REMARK       I    between atoms: N3_33  and  C20_34 
REMARK   16  A    between atoms: C20_34  and  O8_36 
REMARK   17  A    between atoms: O8_36  and  C21_37 
ROOT
HETATM    1  C10 UNL     1       1.828  -0.961   1.817  1.00  0.00     0.108 C 
HETATM    2  C11 UNL     1       0.979  -2.136   1.546  1.00  0.00     0.025 C 
HETATM    3  C19 UNL     1       1.727  -2.708   0.368  1.00  0.00     0.104 C 
HETATM    4  N3  UNL     1       2.349  -1.604  -0.316  1.00  0.00    -0.316 N 
HETATM    5  C20 UNL     1       2.422  -0.985  -1.572  1.00  0.00     0.364 C 
HETATM    6  O7  UNL     1       1.806  -1.435  -2.571  1.00  0.00    -0.238 OA
HETATM    7  C26 UNL     1       3.020  -1.362   0.954  1.00  0.00     0.113 C 
HETATM    8  C27 UNL     1       3.119  -2.870   0.991  1.00  0.00    -0.005 C 
HETATM    9  C28 UNL     1       3.252  -3.565   2.265  1.00  0.00     0.019 C 
HETATM   10  C29 UNL     1       4.118  -3.347  -0.039  1.00  0.00     0.019 C 
ENDROOT
BRANCH   1  11
HETATM   11  C9  UNL     1       1.362   0.376   1.506  1.00  0.00     0.228 C 
HETATM   12  N1  UNL     1       0.517   0.787   0.477  1.00  0.00    -0.331 N 
HETATM   13  C7  UNL     1      -0.218   1.818   0.427  1.00  0.00     0.022 C 
ATOM     14  H1  UNL     1       0.486   0.179  -0.342  1.00  0.00     0.168 HD
HETATM   15  O4  UNL     1       1.790   1.294   2.294  1.00  0.00    -0.273 OA
BRANCH  13  16
HETATM   16  C6  UNL     1      -1.099   2.196  -0.710  1.00  0.00     0.165 C 
BRANCH  16  17
HETATM   17  C5  UNL     1      -1.236   1.227  -1.786  1.00  0.00     0.265 C 
HETATM   18  O2  UNL     1      -0.403   1.067  -2.702  1.00  0.00    -0.265 OA
BRANCH  17  19
HETATM   19  O1  UNL     1      -2.370   0.432  -1.790  1.00  0.00    -0.311 OA
BRANCH  19  20
HETATM   20  C2  UNL     1      -2.720  -0.544  -2.706  1.00  0.00     0.060 C 
HETATM   21  C1  UNL     1      -1.774  -1.688  -2.846  1.00  0.00     0.045 C 
HETATM   22  C3  UNL     1      -3.023   0.007  -4.085  1.00  0.00     0.045 C 
HETATM   23  C4  UNL     1      -4.050  -1.141  -2.213  1.00  0.00     0.045 C 
ENDBRANCH  19  20
ENDBRANCH  17  19
ENDBRANCH  16  17
ENDBRANCH  13  16
BRANCH  13  24
HETATM   24  C8  UNL     1      -0.243   2.823   1.553  1.00  0.00     0.217 C 
BRANCH  24  25
HETATM   25  O3  UNL     1       0.497   3.944   1.280  1.00  0.00    -0.395 OA
ATOM     26  H3  UNL     1       0.481   4.577   1.989  1.00  0.00     0.209 HD
ENDBRANCH  24  25
ENDBRANCH  13  24
ENDBRANCH   1  11
BRANCH   2  27
HETATM   27  C12 UNL     1      -0.458  -2.170   1.555  1.00  0.00     0.007 C 
BRANCH  27  28
HETATM   28  C13 UNL     1      -1.199  -1.933   2.810  1.00  0.00     0.000 C 
BRANCH  28  29
HETATM   29  C14 UNL     1      -1.097  -0.663   3.546  1.00  0.00     0.000 C 
BRANCH  29  30
HETATM   30  C15 UNL     1      -1.938  -0.632   4.799  1.00  0.00     0.002 C 
BRANCH  30  31
HETATM   31  C16 UNL     1      -3.379  -0.814   4.717  1.00  0.00     0.044 C 
BRANCH  31  32
HETATM   32  C17 UNL     1      -4.272   0.145   4.017  1.00  0.00     0.283 C 
BRANCH  32  33
HETATM   33  N2  UNL     1      -5.642  -0.480   4.243  1.00  0.00    -0.065 N 
ATOM     34  H23 UNL     1      -5.730  -1.451   3.943  1.00  0.00     0.275 HD
ATOM     35  H22 UNL     1      -5.880  -0.660   5.218  1.00  0.00     0.275 HD
ATOM     36  H21 UNL     1      -6.255   0.178   3.762  1.00  0.00     0.275 HD
ENDBRANCH  32  33
BRANCH  32  37
HETATM   37  C18 UNL     1      -4.184   0.280   2.569  1.00  0.00     0.204 C 
HETATM   38  O5  UNL     1      -4.769  -0.576   1.815  1.00  0.00    -0.646 OA
HETATM   39  O6  UNL     1      -3.517   1.277   1.902  1.00  0.00    -0.646 OA
ENDBRANCH  32  37
ENDBRANCH  31  32
ENDBRANCH  30  31
ENDBRANCH  29  30
ENDBRANCH  28  29
ENDBRANCH  27  28
ENDBRANCH   2  27
BRANCH   5  40
HETATM   40  O8  UNL     1       3.179   0.164  -1.789  1.00  0.00    -0.298 OA
BRANCH  40  41
HETATM   41  C21 UNL     1       3.308   0.839  -2.998  1.00  0.00     0.142 C 
HETATM   42  C22 UNL     1       3.312   2.337  -2.865  1.00  0.00     0.017 C 
HETATM   43  C23 UNL     1       4.569   2.153  -2.059  1.00  0.00     0.014 C 
HETATM   44  C25 UNL     1       4.204   2.340  -4.070  1.00  0.00     0.014 C 
HETATM   45  C24 UNL     1       4.751   1.227  -3.233  1.00  0.00     0.017 C 
ENDBRANCH  40  41
ENDBRANCH   5  40
TORSDOF 17
