REMARK  19 active torsions:
REMARK  status: ('A' for Active; 'I' for Inactive)
REMARK    1  A    between atoms: C10_10  and  O1_11 
REMARK    2  A    between atoms: C20_22  and  C21_23 
REMARK    3  A    between atoms: C21_23  and  C22_24 
REMARK    4  A    between atoms: C22_24  and  N1_25 
REMARK    5  A    between atoms: N1_25  and  C23_26 
REMARK    6  A    between atoms: N1_25  and  C25_30 
REMARK    7  A    between atoms: C23_26  and  C24_27 
REMARK    8  A    between atoms: C24_27  and  O2_28 
REMARK    9  A    between atoms: C25_30  and  C26_31 
REMARK   10  A    between atoms: C26_31  and  O3_32 
REMARK   11  A    between atoms: C29_36  and  C30_37 
REMARK   12  A    between atoms: C30_37  and  O4_38 
REMARK   13  A    between atoms: O4_38  and  C31_39 
REMARK   14  A    between atoms: C31_39  and  C32_41 
REMARK   15  A    between atoms: C32_41  and  N2_42 
REMARK   16  A    between atoms: N2_42  and  C33_44 
REMARK   17  A    between atoms: C33_44  and  C34_45 
REMARK   18  A    between atoms: C34_45  and  C35_46 
REMARK   19  A    between atoms: C35_46  and  N3_47 
ROOT
HETATM    1  C1  UNL     1      -1.106   0.939   2.345  1.00  0.00     0.049 C 
HETATM    2  C2  UNL     1      -1.747  -0.077   1.478  1.00  0.00    -0.050 C 
HETATM    3  C3  UNL     1      -3.105   0.261   1.009  1.00  0.00    -0.070 C 
HETATM    4  C4  UNL     1      -3.834   1.517   1.281  1.00  0.00     0.035 C 
HETATM    5  C5  UNL     1      -4.550   1.954  -0.014  1.00  0.00     0.009 C 
HETATM    6  C6  UNL     1      -4.968   0.892  -0.957  1.00  0.00    -0.007 C 
HETATM    7  C7  UNL     1      -4.076   0.488  -2.083  1.00  0.00     0.039 C 
HETATM    8  C8  UNL     1      -3.317  -0.840  -1.952  1.00  0.00    -0.070 C 
HETATM    9  C9  UNL     1      -3.881  -1.803  -1.009  1.00  0.00     0.072 C 
HETATM   10  C10 UNL     1      -4.820  -1.301   0.054  1.00  0.00     0.065 C 
HETATM   11  C11 UNL     1      -5.757  -0.247  -0.363  1.00  0.00     0.043 C 
HETATM   12  C12 UNL     1      -4.039  -0.851   1.221  1.00  0.00     0.072 C 
HETATM   13  C13 UNL     1      -1.810  -0.658  -1.995  1.00  0.00    -0.046 C 
HETATM   14  C14 UNL     1      -1.155  -0.715  -3.139  1.00  0.00    -0.018 C 
HETATM   15  C15 UNL     1       0.301  -0.523  -3.038  1.00  0.00     0.034 C 
HETATM   16  C16 UNL     1       0.503  -0.814  -1.564  1.00  0.00     0.015 C 
HETATM   17  C17 UNL     1       1.649   0.057  -1.185  1.00  0.00    -0.039 C 
HETATM   18  C18 UNL     1       2.624   0.013  -2.402  1.00  0.00     0.015 C 
HETATM   19  C19 UNL     1       2.539  -0.322  -0.069  1.00  0.00     0.015 C 
HETATM   20  C20 UNL     1       0.978   1.359  -1.173  1.00  0.00    -0.003 C 
HETATM   21  C27 UNL     1      -0.481   1.155  -1.045  1.00  0.00     0.025 C 
HETATM   22  C28 UNL     1      -0.814  -0.374  -0.966  1.00  0.00     0.021 C 
HETATM   23  C29 UNL     1      -0.853  -0.781   0.434  1.00  0.00    -0.016 C 
ENDROOT
BRANCH  23  24
HETATM   24  C30 UNL     1      -0.543  -2.137   0.917  1.00  0.00     0.154 C 
BRANCH  24  25
HETATM   25  O4  UNL     1       0.197  -3.055   0.268  1.00  0.00    -0.289 OA
BRANCH  25  26
HETATM   26  C31 UNL     1       0.434  -4.298   0.820  1.00  0.00     0.280 C 
HETATM   27  O5  UNL     1      -0.047  -4.555   1.931  1.00  0.00    -0.263 OA
BRANCH  26  28
HETATM   28  C32 UNL     1       1.249  -5.305   0.097  1.00  0.00     0.225 C 
BRANCH  28  29
HETATM   29  N2  UNL     1       1.413  -6.486   0.867  1.00  0.00    -0.413 N 
ATOM     30  H2  UNL     1       0.967  -7.365   0.605  1.00  0.00     0.153 HD
BRANCH  29  31
HETATM   31  C33 UNL     1       2.238  -6.376   2.031  1.00  0.00     0.116 C 
BRANCH  31  32
HETATM   32  C34 UNL     1       2.321  -7.734   2.737  1.00  0.00     0.049 C 
BRANCH  32  33
HETATM   33  C35 UNL     1       3.204  -7.622   3.970  1.00  0.00     0.273 C 
BRANCH  33  34
HETATM   34  N3  UNL     1       4.547  -7.206   3.622  1.00  0.00     0.080 N 
HETATM   35  C36 UNL     1       5.257  -8.223   2.880  1.00  0.00     0.309 C 
HETATM   36  C37 UNL     1       5.270  -6.984   4.858  1.00  0.00     0.309 C 
ENDBRANCH  33  34
ENDBRANCH  32  33
ENDBRANCH  31  32
ENDBRANCH  29  31
ENDBRANCH  28  29
ENDBRANCH  26  28
ENDBRANCH  25  26
ENDBRANCH  24  25
ENDBRANCH  23  24
BRANCH  20  37
HETATM   37  C21 UNL     1       1.566   2.362  -0.168  1.00  0.00     0.036 C 
BRANCH  37  38
HETATM   38  C22 UNL     1       0.873   3.674  -0.213  1.00  0.00     0.273 C 
BRANCH  38  39
HETATM   39  N1  UNL     1       0.900   4.361  -1.456  1.00  0.00     0.092 N 
BRANCH  39  40
HETATM   40  C23 UNL     1       2.130   4.858  -1.904  1.00  0.00     0.298 C 
BRANCH  40  41
HETATM   41  C24 UNL     1       1.950   5.554  -3.235  1.00  0.00     0.194 C 
BRANCH  41  42
HETATM   42  O2  UNL     1       1.442   4.658  -4.194  1.00  0.00    -0.399 OA
ATOM     43  H2  UNL     1       1.329   5.095  -5.030  1.00  0.00     0.209 HD
ENDBRANCH  41  42
ENDBRANCH  40  41
ENDBRANCH  39  40
BRANCH  39  44
HETATM   44  C25 UNL     1      -0.095   5.402  -1.436  1.00  0.00     0.298 C 
BRANCH  44  45
HETATM   45  C26 UNL     1       0.288   6.515  -0.462  1.00  0.00     0.194 C 
BRANCH  45  46
HETATM   46  O3  UNL     1      -0.711   7.507  -0.478  1.00  0.00    -0.399 OA
ATOM     47  H3  UNL     1      -0.473   8.199   0.128  1.00  0.00     0.209 HD
ENDBRANCH  45  46
ENDBRANCH  44  45
ENDBRANCH  39  44
ENDBRANCH  38  39
ENDBRANCH  37  38
ENDBRANCH  20  37
BRANCH  10  48
HETATM   48  O1  UNL     1      -5.603  -2.381   0.541  1.00  0.00    -0.389 OA
ATOM     49  H1  UNL     1      -6.196  -2.064   1.212  1.00  0.00     0.210 HD
ENDBRANCH  10  48
TORSDOF 19
