REMARK  1 active torsions:
REMARK  status: ('A' for Active; 'I' for Inactive)
REMARK    1  A    between atoms: C8_11  and  N2_12 
ROOT
HETATM    1  C1  UNL     1       3.744  -3.790   4.818  1.00  0.00     0.054 C 
HETATM    2  C2  UNL     1       2.850  -3.343   3.732  1.00  0.00     0.015 A 
HETATM    3  C3  UNL     1       3.200  -2.177   3.067  1.00  0.00     0.031 A 
HETATM    4  C4  UNL     1       2.393  -1.751   2.070  1.00  0.00     0.047 A 
HETATM    5  C5  UNL     1       1.292  -2.498   1.787  1.00  0.00     0.171 A 
HETATM    6  O1  UNL     1       0.918  -3.582   2.365  1.00  0.00    -0.256 OA
HETATM    7  C6  UNL     1       1.705  -3.994   3.336  1.00  0.00     0.295 A 
HETATM    8  O2  UNL     1       1.368  -5.044   3.916  1.00  0.00    -0.259 OA
HETATM    9  N1  UNL     1       1.033  -1.605   0.853  1.00  0.00    -0.288 N 
HETATM   10  C7  UNL     1       2.107  -0.872   1.127  1.00  0.00     0.096 A 
HETATM   11  C8  UNL     1       2.029   0.116   0.267  1.00  0.00     0.126 A 
HETATM   12  N3  UNL     1       1.359   0.540  -0.605  1.00  0.00    -0.147 NA
HETATM   13  C11 UNL     1       0.454   0.443  -1.122  1.00  0.00     0.283 A 
HETATM   14  N4  UNL     1       0.074  -0.342  -2.276  1.00  0.00     0.151 N 
HETATM   15  C12 UNL     1      -1.467  -0.604  -2.274  1.00  0.00     0.283 A 
HETATM   16  C13 UNL     1      -1.055  -1.905  -2.507  1.00  0.00     0.009 C 
HETATM   17  C14 UNL     1      -1.070  -2.803  -1.373  1.00  0.00    -0.022 C 
HETATM   18  C15 UNL     1      -0.656  -2.355  -0.090  1.00  0.00     0.086 C 
HETATM   19  C16 UNL     1       0.229  -1.199  -0.121  1.00  0.00     0.046 A 
HETATM   20  N5  UNL     1       0.413  -0.065  -0.875  1.00  0.00     0.000 N 
HETATM   21  C17 UNL     1      -0.106   0.988  -2.001  1.00  0.00     0.251 A 
HETATM   22  C18 UNL     1       0.533   1.856  -2.774  1.00  0.00     0.034 C 
HETATM   23  C19 UNL     1      -1.618   0.682  -2.027  1.00  0.00     0.013 A 
HETATM   24  C20 UNL     1      -1.695   1.986  -1.775  1.00  0.00    -0.022 A 
HETATM   25  C21 UNL     1      -2.129   2.912  -2.378  1.00  0.00     0.012 A 
HETATM   26  C22 UNL     1      -2.139   4.245  -1.888  1.00  0.00     0.001 A 
HETATM   27  C23 UNL     1      -1.627   4.515  -0.647  1.00  0.00     0.001 A 
HETATM   28  C24 UNL     1      -1.119   3.489   0.070  1.00  0.00     0.008 A 
HETATM   29  C25 UNL     1      -1.157   2.322  -0.476  1.00  0.00    -0.044 A 
HETATM   30  C26 UNL     1      -0.299   1.222   0.128  1.00  0.00     0.103 C 
ENDROOT
BRANCH  11  31
HETATM   31  N2  UNL     1       3.094   1.046   0.112  1.00  0.00    -0.377 N 
HETATM   32  C9  UNL     1       3.106   2.070   1.094  1.00  0.00     0.150 C 
HETATM   33  C10 UNL     1       4.062   0.935  -0.935  1.00  0.00     0.150 C 
ENDBRANCH  11  31
TORSDOF 1
