REMARK  16 active torsions:
REMARK  status: ('A' for Active; 'I' for Inactive)
REMARK    1  A    between atoms: C4_6  and  C5_7 
REMARK    2  A    between atoms: C8_10  and  C9_11 
REMARK    3  A    between atoms: C9_11  and  C10_12 
REMARK    4  A    between atoms: C15_21  and  C16_22 
REMARK    5  A    between atoms: C17_23  and  C18_24 
REMARK    6  A    between atoms: C18_24  and  N4_25 
REMARK    7  A    between atoms: N4_25  and  C20_27 
REMARK    8  A    between atoms: C20_27  and  C21_28 
REMARK    9  A    between atoms: C27_34  and  C28_35 
REMARK       I    between atoms: C28_35  and  N5_37 
REMARK   10  A    between atoms: C29_39  and  C30_40 
REMARK   11  A    between atoms: C30_40  and  C31_41 
REMARK   12  A    between atoms: C35_45  and  C36_46 
REMARK   13  A    between atoms: C36_46  and  N6_47 
REMARK   14  A    between atoms: N6_47  and  N7_49 
REMARK   15  A    between atoms: C38_53  and  C39_54 
REMARK   16  A    between atoms: C39_54  and  C40_55 
ROOT
HETATM    1  C1  UNL     1       1.452   0.294  -5.980  1.00  0.00     0.040 C 
HETATM    2  C2  UNL     1       1.536   0.033  -4.518  1.00  0.00     0.017 C 
HETATM    3  C3  UNL     1       0.543   0.396  -3.700  1.00  0.00     0.101 A 
HETATM    4  N1  UNL     1      -0.657   1.028  -4.005  1.00  0.00    -0.342 N 
ATOM      5  H1  UNL     1      -0.932   1.299  -4.949  1.00  0.00     0.167 HD
HETATM    6  C4  UNL     1      -1.473   1.259  -2.830  1.00  0.00     0.067 A 
HETATM    7  C13 UNL     1      -0.659   0.820  -1.678  1.00  0.00     0.083 A 
HETATM    8  C14 UNL     1      -0.232   2.051  -0.890  1.00  0.00     0.046 C 
HETATM    9  C15 UNL     1      -1.153  -0.305  -0.856  1.00  0.00     0.057 C 
HETATM   10  C27 UNL     1       0.147  -1.077  -0.461  1.00  0.00     0.116 C 
HETATM   11  C35 UNL     1       1.257  -0.453  -1.230  1.00  0.00     0.141 C 
HETATM   12  N9  UNL     1       0.524   0.199  -2.308  1.00  0.00    -0.342 N 
ENDROOT
BRANCH  11  13
HETATM   13  C36 UNL     1       2.131   0.450  -0.496  1.00  0.00     0.107 C 
BRANCH  13  14
HETATM   14  N6  UNL     1       2.517   0.289   0.721  1.00  0.00    -0.306 N 
ATOM     15  H6  UNL     1       2.198  -0.532   1.235  1.00  0.00     0.186 HD
BRANCH  14  16
HETATM   16  N7  UNL     1       3.357   1.200   1.361  1.00  0.00    -0.255 N 
HETATM   17  C37 UNL     1       4.253   1.997   0.803  1.00  0.00     0.207 A 
HETATM   18  N8  UNL     1       4.840   2.724   1.767  1.00  0.00    -0.353 N 
HETATM   19  C38 UNL     1       4.318   2.390   2.957  1.00  0.00     0.034 A 
ATOM     20  H8  UNL     1       5.569   3.422   1.618  1.00  0.00     0.166 HD
HETATM   21  C42 UNL     1       3.368   1.412   2.688  1.00  0.00     0.053 A 
HETATM   22  C43 UNL     1       2.510   0.718   3.682  1.00  0.00     0.072 C 
BRANCH  19  23
HETATM   23  C39 UNL     1       4.701   2.967   4.241  1.00  0.00     0.059 C 
BRANCH  23  24
HETATM   24  C40 UNL     1       3.692   3.954   4.780  1.00  0.00     0.002 C 
HETATM   25  C41 UNL     1       3.455   5.130   3.886  1.00  0.00     0.005 C 
ENDBRANCH  23  24
ENDBRANCH  19  23
ENDBRANCH  14  16
ENDBRANCH  13  14
ENDBRANCH  11  13
BRANCH  10  26
HETATM   26  C28 UNL     1      -0.052  -2.477  -0.936  1.00  0.00     0.228 C 
HETATM   27  O1  UNL     1      -1.100  -2.768  -1.640  1.00  0.00    -0.273 OA
HETATM   28  N5  UNL     1       0.817  -3.529  -0.678  1.00  0.00    -0.340 N 
HETATM   29  C29 UNL     1       1.990  -3.609  -0.252  1.00  0.00     0.064 C 
ATOM     30  H5  UNL     1       0.407  -4.440  -0.882  1.00  0.00     0.167 HD
BRANCH  29  31
HETATM   31  C30 UNL     1       2.579  -4.989  -0.116  1.00  0.00     0.053 C 
BRANCH  31  32
HETATM   32  C31 UNL     1       2.511  -5.432   1.324  1.00  0.00    -0.047 C 
HETATM   33  C32 UNL     1       1.066  -5.455   1.808  1.00  0.00     0.015 C 
HETATM   34  C33 UNL     1       3.304  -4.591   2.267  1.00  0.00     0.015 C 
HETATM   35  C34 UNL     1       2.986  -6.879   1.406  1.00  0.00     0.015 C 
ENDBRANCH  31  32
ENDBRANCH  29  31
ENDBRANCH  10  26
BRANCH   9  36
HETATM   36  C16 UNL     1      -1.785   0.032   0.461  1.00  0.00    -0.021 C 
HETATM   37  C17 UNL     1      -2.956  -0.457   0.780  1.00  0.00    -0.001 C 
BRANCH  37  38
HETATM   38  C18 UNL     1      -3.734  -0.258   2.003  1.00  0.00     0.299 C 
BRANCH  38  39
HETATM   39  N4  UNL     1      -3.037   0.508   2.987  1.00  0.00     0.091 N 
HETATM   40  C19 UNL     1      -4.007   0.932   4.042  1.00  0.00     0.310 C 
BRANCH  39  41
HETATM   41  C20 UNL     1      -1.975  -0.219   3.677  1.00  0.00     0.310 C 
BRANCH  41  42
HETATM   42  C21 UNL     1      -2.410  -1.358   4.479  1.00  0.00    -0.030 A 
HETATM   43  C22 UNL     1      -2.481  -2.612   3.915  1.00  0.00     0.009 A 
HETATM   44  C23 UNL     1      -2.866  -3.727   4.635  1.00  0.00     0.001 A 
HETATM   45  C24 UNL     1      -3.194  -3.586   5.965  1.00  0.00     0.000 A 
HETATM   46  C25 UNL     1      -3.129  -2.340   6.544  1.00  0.00     0.001 A 
HETATM   47  C26 UNL     1      -2.739  -1.229   5.805  1.00  0.00     0.009 A 
ENDBRANCH  41  42
ENDBRANCH  39  41
ENDBRANCH  38  39
ENDBRANCH  37  38
ENDBRANCH   9  36
BRANCH   6  48
HETATM   48  C5  UNL     1      -2.687   1.799  -2.942  1.00  0.00     0.058 A 
HETATM   49  C6  UNL     1      -3.602   2.102  -1.983  1.00  0.00     0.034 A 
HETATM   50  C7  UNL     1      -4.738   2.624  -2.559  1.00  0.00     0.032 A 
HETATM   51  C8  UNL     1      -4.512   2.644  -3.932  1.00  0.00     0.034 A 
HETATM   52  N3  UNL     1      -3.306   2.155  -4.112  1.00  0.00    -0.355 N 
ATOM     53  H3  UNL     1      -2.874   2.051  -5.030  1.00  0.00     0.166 HD
BRANCH  51  54
HETATM   54  C9  UNL     1      -5.357   3.071  -4.836  1.00  0.00     0.054 C 
BRANCH  54  55
HETATM   55  C10 UNL     1      -5.163   3.110  -6.265  1.00  0.00     0.008 A 
HETATM   56  N2  UNL     1      -4.294   2.823  -7.142  1.00  0.00    -0.393 N 
HETATM   57  C11 UNL     1      -5.013   3.223  -8.310  1.00  0.00     0.125 A 
ATOM     58  H2  UNL     1      -3.360   2.425  -7.043  1.00  0.00     0.159 HD
HETATM   59  C12 UNL     1      -6.083   3.573  -7.371  1.00  0.00     0.076 A 
ENDBRANCH  54  55
ENDBRANCH  51  54
ENDBRANCH   6  48
TORSDOF 16
