REMARK  5 active torsions:
REMARK  status: ('A' for Active; 'I' for Inactive)
REMARK    1  A    between atoms: O1_2  and  C2_3 
REMARK    2  A    between atoms: C2_3  and  C3_5 
REMARK    3  A    between atoms: C13_16  and  C14_17 
REMARK    4  A    between atoms: C14_17  and  C15_18 
REMARK    5  A    between atoms: C15_18  and  N1_19 
REMARK       I    between atoms: N1_19  and  C16_21 
ROOT
HETATM    1  C3  UNL     1      -2.633   1.315  -0.038  1.00  0.00     0.180 A 
HETATM    2  C4  UNL     1      -1.618   0.443   0.616  1.00  0.00     0.058 C 
HETATM    3  C5  UNL     1      -0.303   1.024   0.879  1.00  0.00     0.007 C 
HETATM    4  C6  UNL     1      -0.185   2.518   0.735  1.00  0.00     0.003 C 
HETATM    5  C7  UNL     1       1.288   2.230   0.396  1.00  0.00     0.004 C 
HETATM    6  C8  UNL     1       1.665   2.569  -1.035  1.00  0.00     0.012 C 
HETATM    7  C9  UNL     1       0.338   1.853  -1.324  1.00  0.00     0.006 C 
HETATM    8  C10 UNL     1      -0.711   2.720  -0.664  1.00  0.00     0.033 C 
HETATM    9  C11 UNL     1      -2.103   2.281  -0.878  1.00  0.00     0.104 A 
HETATM   10  C12 UNL     1      -2.789   2.751  -2.116  1.00  0.00     0.050 C 
HETATM   11  O3  UNL     1      -2.867   2.600   0.381  1.00  0.00    -0.352 OA
HETATM   12  C13 UNL     1       0.768   0.973  -0.130  1.00  0.00    -0.009 C 
ENDROOT
BRANCH  12  13
HETATM   13  C14 UNL     1       1.455  -0.180  -0.562  1.00  0.00     0.001 C 
BRANCH  13  14
HETATM   14  C15 UNL     1       2.245  -1.051   0.319  1.00  0.00     0.087 C 
BRANCH  14  15
HETATM   15  N1  UNL     1       1.604  -1.698   1.393  1.00  0.00    -0.338 N 
HETATM   16  C16 UNL     1       2.296  -2.539   2.279  1.00  0.00     0.217 C 
HETATM   17  C17 UNL     1       1.620  -3.205   3.390  1.00  0.00     0.117 C 
HETATM   18  O4  UNL     1       3.551  -2.743   2.130  1.00  0.00    -0.274 OA
ATOM     19  H1  UNL     1       0.604  -1.551   1.532  1.00  0.00     0.168 HD
ENDBRANCH  14  15
ENDBRANCH  13  14
ENDBRANCH  12  13
BRANCH   1  20
HETATM   20  C2  UNL     1      -3.886   0.583  -0.429  1.00  0.00     0.296 C 
HETATM   21  O2  UNL     1      -5.026   1.113  -0.371  1.00  0.00    -0.262 OA
BRANCH  20  22
HETATM   22  O1  UNL     1      -3.835  -0.735  -0.881  1.00  0.00    -0.324 OA
HETATM   23  C1  UNL     1      -5.041  -1.407  -1.246  1.00  0.00     0.213 C 
ENDBRANCH  20  22
ENDBRANCH   1  20
TORSDOF 5
