REMARK  15 active torsions:
REMARK  status: ('A' for Active; 'I' for Inactive)
REMARK    1  A    between atoms: C2_2  and  C3_3 
REMARK    2  A    between atoms: C3_3  and  C4_4 
REMARK    3  A    between atoms: C4_4  and  C5_5 
REMARK       I    between atoms: C5_5  and  N1_7 
REMARK    4  A    between atoms: N1_7  and  C6_8 
REMARK    5  A    between atoms: N1_7  and  C8_10 
REMARK    6  A    between atoms: C8_10  and  C9_11 
REMARK    7  A    between atoms: C9_11  and  C10_12 
REMARK    8  A    between atoms: C9_11  and  C15_20 
REMARK    9  A    between atoms: C10_12  and  C11_13 
REMARK   10  A    between atoms: C11_13  and  C12_14 
REMARK   11  A    between atoms: C12_14  and  N2_15 
REMARK       I    between atoms: N2_15  and  C13_17 
REMARK   12  A    between atoms: C15_20  and  O3_21 
REMARK   13  A    between atoms: C15_20  and  N3_23 
REMARK       I    between atoms: N3_23  and  C16_25 
REMARK   14  A    between atoms: C16_25  and  C17_27 
REMARK   15  A    between atoms: C27_38  and  C29_40 
ROOT
HETATM    1  N3  UNL     1      -1.656   2.306   1.178  1.00  0.00    -0.332 N 
ATOM      2  H3  UNL     1      -1.404   3.238   1.505  1.00  0.00     0.165 HD
HETATM    3  C16 UNL     1      -0.708   1.264   1.346  1.00  0.00     0.255 C 
HETATM    4  O4  UNL     1      -1.040   0.127   0.930  1.00  0.00    -0.271 OA
ENDROOT
BRANCH   3   5
HETATM    5  C17 UNL     1       0.628   1.429   1.970  1.00  0.00     0.340 C 
HETATM    6  C18 UNL     1       0.540   1.366   3.482  1.00  0.00     0.216 C 
HETATM    7  O5  UNL     1       1.279   0.255   3.823  1.00  0.00    -0.354 OA
HETATM    8  C19 UNL     1       1.274  -0.648   2.751  1.00  0.00     0.364 C 
HETATM    9  C20 UNL     1       2.316  -1.672   2.836  1.00  0.00     0.055 C 
HETATM   10  N5  UNL     1       1.393   0.286   1.667  1.00  0.00     0.133 N 
HETATM   11  C21 UNL     1       1.876  -3.040   3.262  1.00  0.00     0.003 C 
HETATM   12  C32 UNL     1       3.328  -1.809   1.708  1.00  0.00     0.006 C 
HETATM   13  C22 UNL     1       0.735  -3.749   2.795  1.00  0.00     0.007 C 
HETATM   14  C35 UNL     1       3.218  -3.741   2.938  1.00  0.00    -0.034 C 
HETATM   15  C23 UNL     1       0.801  -4.877   1.765  1.00  0.00     0.010 C 
HETATM   16  C24 UNL     1       1.646  -4.707   0.612  1.00  0.00    -0.042 C 
HETATM   17  C25 UNL     1       0.805  -4.786  -0.692  1.00  0.00     0.015 C 
HETATM   18  C26 UNL     1       2.979  -5.202   0.333  1.00  0.00     0.028 C 
HETATM   19  C31 UNL     1       2.011  -3.244   0.716  1.00  0.00     0.021 C 
HETATM   20  C27 UNL     1       4.042  -4.128   0.692  1.00  0.00     0.044 C 
HETATM   21  C28 UNL     1       4.621  -3.489  -0.572  1.00  0.00     0.026 C 
HETATM   22  C30 UNL     1       3.260  -3.286   1.557  1.00  0.00    -0.013 C 
HETATM   23  C36 UNL     1       4.191  -3.076   3.919  1.00  0.00     0.016 C 
HETATM   24  C37 UNL     1       3.150  -5.086   3.455  1.00  0.00     0.016 C 
HETATM   25  C33 UNL     1       3.003  -0.945   0.558  1.00  0.00     0.036 C 
HETATM   26  C34 UNL     1       2.719   0.449   1.184  1.00  0.00     0.277 C 
BRANCH  20  27
HETATM   27  C29 UNL     1       5.234  -4.792   1.266  1.00  0.00     0.240 C 
HETATM   28  N4  UNL     1       6.340  -4.036   1.689  1.00  0.00    -0.061 NA
HETATM   29  O6  UNL     1       5.260  -6.023   1.374  1.00  0.00    -0.276 OA
ENDBRANCH  20  27
ENDBRANCH   3   5
BRANCH   1  30
HETATM   30  C15 UNL     1      -2.939   2.133   0.581  1.00  0.00     0.229 C 
BRANCH  30  31
HETATM   31  C9  UNL     1      -2.949   2.530  -0.923  1.00  0.00     0.073 C 
BRANCH  31  32
HETATM   32  C8  UNL     1      -4.221   2.127  -1.525  1.00  0.00     0.075 C 
BRANCH  32  33
HETATM   33  N1  UNL     1      -5.494   2.549  -1.147  1.00  0.00    -0.332 N 
HETATM   34  C5  UNL     1      -6.185   3.692  -1.561  1.00  0.00     0.223 C 
HETATM   35  O1  UNL     1      -7.393   3.868  -1.116  1.00  0.00    -0.273 OA
BRANCH  34  36
HETATM   36  C4  UNL     1      -5.746   4.764  -2.457  1.00  0.00     0.103 C 
BRANCH  36  37
HETATM   37  C3  UNL     1      -6.851   5.679  -2.907  1.00  0.00     0.009 C 
BRANCH  37  38
HETATM   38  C2  UNL     1      -6.288   6.761  -3.832  1.00  0.00    -0.004 C 
HETATM   39  C1  UNL     1      -5.252   7.570  -3.080  1.00  0.00     0.005 C 
ENDBRANCH  37  38
ENDBRANCH  36  37
ENDBRANCH  34  36
BRANCH  33  40
HETATM   40  C6  UNL     1      -6.315   1.670  -0.255  1.00  0.00     0.126 C 
HETATM   41  C7  UNL     1      -7.123   0.725  -1.154  1.00  0.00     0.027 C 
ENDBRANCH  33  40
ENDBRANCH  32  33
ENDBRANCH  31  32
BRANCH  31  42
HETATM   42  C10 UNL     1      -2.449   3.906  -1.024  1.00  0.00     0.016 C 
BRANCH  42  43
HETATM   43  C11 UNL     1      -2.014   4.507  -2.295  1.00  0.00     0.020 C 
BRANCH  43  44
HETATM   44  C12 UNL     1      -0.782   3.997  -2.936  1.00  0.00     0.122 C 
BRANCH  44  45
HETATM   45  N2  UNL     1      -0.795   2.645  -3.360  1.00  0.00    -0.361 N 
HETATM   46  C13 UNL     1      -1.652   2.195  -4.394  1.00  0.00     0.213 C 
HETATM   47  C14 UNL     1      -1.674   0.770  -4.842  1.00  0.00     0.117 C 
HETATM   48  O2  UNL     1      -2.413   3.032  -4.942  1.00  0.00    -0.274 OA
ATOM     49  H2  UNL     1      -0.170   1.977  -2.908  1.00  0.00     0.162 HD
ENDBRANCH  44  45
ENDBRANCH  43  44
ENDBRANCH  42  43
ENDBRANCH  31  42
ENDBRANCH  30  31
BRANCH  30  50
HETATM   50  O3  UNL     1      -3.917   2.847   1.207  1.00  0.00    -0.376 OA
ATOM     51  H3  UNL     1      -3.911   2.605   2.126  1.00  0.00     0.212 HD
ENDBRANCH  30  50
ENDBRANCH   1  30
TORSDOF 15
