REMARK  13 active torsions:
REMARK  status: ('A' for Active; 'I' for Inactive)
REMARK    1  A    between atoms: C2_2  and  C3_3 
REMARK    2  A    between atoms: C3_3  and  C4_4 
REMARK    3  A    between atoms: C4_4  and  O1_5 
REMARK    4  A    between atoms: O1_5  and  C5_6 
REMARK    5  A    between atoms: C9_11  and  O2_12 
REMARK    6  A    between atoms: O2_12  and  C10_13 
REMARK    7  A    between atoms: C10_13  and  C11_14 
REMARK    8  A    between atoms: C11_14  and  O3_15 
REMARK    9  A    between atoms: O3_15  and  C12_16 
REMARK   10  A    between atoms: C12_16  and  N2_17 
REMARK   11  A    between atoms: C14_21  and  C15_22 
REMARK   12  A    between atoms: S1_38  and  O5_39 
REMARK   13  A    between atoms: S1_38  and  O6_41 
ROOT
HETATM    1  C5  UNL     1      -0.128  -0.245   1.105  1.00  0.00     0.147 A 
HETATM    2  C6  UNL     1      -0.882  -1.368   0.991  1.00  0.00     0.075 A 
HETATM    3  C7  UNL     1      -1.830  -1.457  -0.047  1.00  0.00    -0.006 A 
HETATM    4  C8  UNL     1      -1.937  -0.398  -0.891  1.00  0.00     0.024 A 
HETATM    5  N1  UNL     1      -1.199   0.708  -0.782  1.00  0.00    -0.328 N 
HETATM    6  C9  UNL     1      -0.285   0.850   0.183  1.00  0.00     0.181 A 
HETATM    7  C17 UNL     1      -1.793   1.429  -1.939  1.00  0.00     0.137 A 
HETATM    8  C18 UNL     1      -2.622   0.210  -2.111  1.00  0.00     0.078 A 
HETATM    9  C19 UNL     1      -2.694  -2.636  -0.182  1.00  0.00     0.044 C 
HETATM   10  C20 UNL     1      -2.473  -3.568   1.057  1.00  0.00     0.026 C 
HETATM   11  C21 UNL     1      -1.450  -4.375   0.888  1.00  0.00     0.059 A 
HETATM   12  C22 UNL     1      -1.712  -5.580   0.263  1.00  0.00    -0.007 A 
HETATM   13  C23 UNL     1      -0.671  -5.048   0.746  1.00  0.00     0.118 A 
HETATM   14  C24 UNL     1      -0.316  -3.701   1.436  1.00  0.00     0.089 A 
HETATM   15  C25 UNL     1       0.993  -4.028   1.542  1.00  0.00     0.026 A 
HETATM   16  C26 UNL     1       0.116  -4.782   0.991  1.00  0.00     0.141 A 
HETATM   17  N5  UNL     1       0.610  -5.931   0.103  1.00  0.00    -0.320 N 
HETATM   18  C27 UNL     1       0.946  -6.374  -1.155  1.00  0.00     0.162 C 
HETATM   19  S1  UNL     1       0.535  -6.493   1.241  1.00  0.00     0.013 SA
HETATM   20  N6  UNL     1      -0.761  -2.526   1.881  1.00  0.00    -0.371 N 
ATOM     21  H6  UNL     1      -1.023  -2.431   2.862  1.00  0.00     0.161 HD
ENDROOT
BRANCH   6  22
HETATM   22  O2  UNL     1       0.488   1.922   0.364  1.00  0.00    -0.331 OA
BRANCH  22  23
HETATM   23  C10 UNL     1       0.944   3.102   0.037  1.00  0.00     0.203 C 
BRANCH  23  24
HETATM   24  C11 UNL     1       1.692   3.291  -1.268  1.00  0.00     0.196 C 
BRANCH  24  25
HETATM   25  O3  UNL     1       2.137   4.529  -1.499  1.00  0.00    -0.370 OA
BRANCH  25  26
HETATM   26  C12 UNL     1       1.307   5.554  -1.736  1.00  0.00     0.298 C 
BRANCH  26  27
HETATM   27  N2  UNL     1       0.564   5.440  -2.987  1.00  0.00    -0.329 N 
HETATM   28  C13 UNL     1       1.008   5.869  -4.193  1.00  0.00     0.185 A 
HETATM   29  N3  UNL     1       0.053   5.614  -5.087  1.00  0.00    -0.347 N 
HETATM   30  C14 UNL     1      -1.019   5.023  -4.474  1.00  0.00     0.114 A 
ATOM     31  H3  UNL     1       0.112   5.828  -6.083  1.00  0.00     0.167 HD
HETATM   32  C16 UNL     1      -0.646   4.932  -3.143  1.00  0.00     0.129 A 
BRANCH  30  33
HETATM   33  C15 UNL     1      -2.250   4.606  -5.092  1.00  0.00     0.282 C 
HETATM   34  N4  UNL     1      -3.333   4.034  -4.401  1.00  0.00    -0.056 NA
HETATM   35  O4  UNL     1      -2.386   4.762  -6.348  1.00  0.00    -0.269 OA
ENDBRANCH  30  33
ENDBRANCH  26  27
ENDBRANCH  25  26
ENDBRANCH  24  25
ENDBRANCH  23  24
ENDBRANCH  22  23
ENDBRANCH   6  22
BRANCH   1  36
HETATM   36  O1  UNL     1       0.824  -0.014   2.042  1.00  0.00    -0.345 OA
BRANCH  36  37
HETATM   37  C4  UNL     1       1.064   0.490   3.223  1.00  0.00     0.176 C 
BRANCH  37  38
HETATM   38  C3  UNL     1       0.547  -0.019   4.524  1.00  0.00     0.026 C 
BRANCH  38  39
HETATM   39  C2  UNL     1       1.037  -1.342   4.980  1.00  0.00    -0.002 C 
HETATM   40  C1  UNL     1       2.554  -1.337   5.157  1.00  0.00     0.005 C 
ENDBRANCH  38  39
ENDBRANCH  37  38
ENDBRANCH  36  37
ENDBRANCH   1  36
BRANCH  19  41
HETATM   41  O5  UNL     1       0.049  -7.266   2.294  1.00  0.00    -0.319 OA
ATOM     42  H5  UNL     1       0.638  -7.971   2.536  1.00  0.00     0.229 HD
ENDBRANCH  19  41
BRANCH  19  43
HETATM   43  O6  UNL     1       1.939  -6.127   1.768  1.00  0.00    -0.319 OA
ATOM     44  H6  UNL     1       2.528  -6.832   2.010  1.00  0.00     0.229 HD
ENDBRANCH  19  43
TORSDOF 13
