REMARK  5 active torsions:
REMARK  status: ('A' for Active; 'I' for Inactive)
REMARK    1  A    between atoms: C6_6  and  C8_8 
REMARK    2  A    between atoms: C12_12  and  O1_13 
REMARK    3  A    between atoms: C18_20  and  O2_21 
REMARK    4  A    between atoms: O2_21  and  C19_22 
REMARK       I    between atoms: C19_22  and  N1_24 
REMARK    5  A    between atoms: C36_44  and  O5_45 
ROOT
HETATM    1  C8  UNL     1      -0.602  -0.109   1.577  1.00  0.00    -0.035 C 
HETATM    2  C9  UNL     1       0.079   1.174   1.130  1.00  0.00    -0.054 C 
HETATM    3  C10 UNL     1      -0.533   2.428   1.844  1.00  0.00     0.041 C 
HETATM    4  C11 UNL     1      -0.930   3.553   0.864  1.00  0.00     0.037 C 
HETATM    5  C12 UNL     1      -1.777   3.101  -0.288  1.00  0.00     0.127 C 
HETATM    6  C13 UNL     1      -1.424   3.124  -1.650  1.00  0.00    -0.006 A 
HETATM    7  C14 UNL     1      -1.908   4.496  -2.220  1.00  0.00     0.019 C 
HETATM    8  C15 UNL     1      -0.675   2.449  -2.621  1.00  0.00     0.006 A 
HETATM    9  C16 UNL     1       0.704   1.957  -2.522  1.00  0.00     0.009 C 
HETATM   10  C17 UNL     1       1.628   2.557  -1.480  1.00  0.00     0.037 C 
HETATM   11  C18 UNL     1       2.137   1.718  -0.422  1.00  0.00     0.157 C 
HETATM   12  C26 UNL     1       1.466   1.437   0.887  1.00  0.00     0.013 C 
HETATM   13  C27 UNL     1      -1.960   1.830  -2.307  1.00  0.00    -0.029 A 
HETATM   14  C28 UNL     1      -3.206   2.206  -3.156  1.00  0.00     0.016 C 
HETATM   15  C29 UNL     1      -2.208   0.645  -1.486  1.00  0.00     0.013 C 
HETATM   16  C30 UNL     1      -1.235  -0.253  -0.902  1.00  0.00     0.036 C 
HETATM   17  C31 UNL     1      -1.476  -0.791   0.558  1.00  0.00     0.052 C 
HETATM   18  C32 UNL     1      -1.380  -2.294   0.391  1.00  0.00     0.061 C 
HETATM   19  C33 UNL     1      -2.676  -3.055   0.477  1.00  0.00     0.170 C 
HETATM   20  O4  UNL     1      -3.564  -2.896   1.429  1.00  0.00    -0.389 OA
HETATM   21  C34 UNL     1      -4.487  -1.933   1.502  1.00  0.00     0.186 C 
HETATM   22  C35 UNL     1      -3.804  -0.542   1.510  1.00  0.00     0.141 C 
HETATM   23  N2  UNL     1      -2.856  -0.622   0.580  1.00  0.00    -0.407 N 
ATOM     24  H2  UNL     1      -3.241  -0.537  -0.361  1.00  0.00     0.154 HD
ENDROOT
BRANCH   1  25
HETATM   25  C6  UNL     1       0.131  -0.881   2.640  1.00  0.00     0.008 C 
HETATM   26  C5  UNL     1      -0.607  -2.020   3.271  1.00  0.00     0.017 C 
HETATM   27  C4  UNL     1      -0.455  -2.230   4.789  1.00  0.00     0.010 C 
HETATM   28  C2  UNL     1      -0.932  -1.086   5.602  1.00  0.00    -0.045 C 
HETATM   29  C1  UNL     1      -0.267  -0.980   6.948  1.00  0.00     0.015 C 
HETATM   30  C3  UNL     1      -2.447  -1.133   5.838  1.00  0.00     0.015 C 
HETATM   31  C37 UNL     1      -0.662   0.152   4.781  1.00  0.00     0.041 C 
HETATM   32  C36 UNL     1       0.521  -0.144   3.848  1.00  0.00     0.131 C 
HETATM   33  C7  UNL     1       1.409  -1.560   2.103  1.00  0.00     0.023 C 
BRANCH  32  34
HETATM   34  O5  UNL     1       1.328   0.900   3.967  1.00  0.00    -0.394 OA
ATOM     35  H5  UNL     1       1.580   1.377   4.749  1.00  0.00     0.210 HD
ENDBRANCH  32  34
ENDBRANCH   1  25
BRANCH  11  36
HETATM   36  O2  UNL     1       2.576   0.491  -1.048  1.00  0.00    -0.295 OA
BRANCH  36  37
HETATM   37  C19 UNL     1       3.850   0.053  -1.176  1.00  0.00     0.363 C 
HETATM   38  O3  UNL     1       4.762   0.808  -0.690  1.00  0.00    -0.238 OA
HETATM   39  N1  UNL     1       4.150  -1.162  -1.808  1.00  0.00    -0.322 N 
HETATM   40  C20 UNL     1       3.373  -2.203  -2.438  1.00  0.00     0.135 C 
HETATM   41  C25 UNL     1       5.355  -1.897  -2.101  1.00  0.00     0.095 C 
HETATM   42  C21 UNL     1       4.615  -2.547  -3.241  1.00  0.00     0.027 C 
HETATM   43  C22 UNL     1       5.031  -3.982  -3.199  1.00  0.00     0.008 C 
HETATM   44  C23 UNL     1       5.572  -4.253  -1.826  1.00  0.00     0.002 C 
HETATM   45  C24 UNL     1       5.667  -2.954  -1.093  1.00  0.00     0.026 C 
ENDBRANCH  36  37
ENDBRANCH  11  36
BRANCH   5  46
HETATM   46  O1  UNL     1      -3.006   3.847  -0.080  1.00  0.00    -0.395 OA
ATOM     47  H1  UNL     1      -3.543   3.561  -0.810  1.00  0.00     0.210 HD
ENDBRANCH   5  46
TORSDOF 5
