REMARK  7 active torsions:
REMARK  status: ('A' for Active; 'I' for Inactive)
REMARK    1  A    between atoms: C3_3  and  C4_4 
REMARK    2  A    between atoms: C5_5  and  C6_6 
REMARK    3  A    between atoms: C7_7  and  C8_8 
REMARK    4  A    between atoms: C8_8  and  C9_9 
REMARK    5  A    between atoms: C14_16  and  C15_17 
REMARK    6  A    between atoms: C16_19  and  C17_20 
REMARK    7  A    between atoms: C19_24  and  C20_25 
ROOT
HETATM    1  C1  UNL     1      -0.150  -5.125  -7.280  1.00  0.00     0.113 C 
HETATM    2  C2  UNL     1      -0.399  -4.405  -6.034  1.00  0.00    -0.097 C 
HETATM    3  C3  UNL     1      -0.604  -3.796  -5.013  1.00  0.00    -0.015 C 
ENDROOT
BRANCH   3   4
HETATM    4  C4  UNL     1      -0.823  -3.069  -3.809  1.00  0.00    -0.011 C 
HETATM    5  C5  UNL     1      -1.004  -2.432  -2.792  1.00  0.00    -0.065 C 
BRANCH   5   6
HETATM    6  C6  UNL     1      -1.214  -1.662  -1.606  1.00  0.00     0.062 C 
HETATM    7  C7  UNL     1      -0.445  -1.760  -0.567  1.00  0.00     0.003 C 
BRANCH   7   8
HETATM    8  C8  UNL     1      -0.612  -0.988   0.690  1.00  0.00     0.072 A 
HETATM    9  C10 UNL     1       0.635  -0.757   1.487  1.00  0.00     0.037 A 
HETATM   10  C11 UNL     1       0.649   0.643   1.107  1.00  0.00    -0.008 A 
HETATM   11  C12 UNL     1      -0.622   0.473   0.362  1.00  0.00     0.020 A 
HETATM   12  C14 UNL     1      -0.083   1.650   1.997  1.00  0.00     0.002 C 
HETATM   13  C19 UNL     1       1.754   1.389   0.605  1.00  0.00     0.040 C 
HETATM   14  C13 UNL     1      -1.382   1.274   1.380  1.00  0.00     0.020 C 
HETATM   15  C16 UNL     1       0.492   2.964   1.616  1.00  0.00     0.104 C 
HETATM   16  C18 UNL     1       1.046   2.703   0.201  1.00  0.00     0.047 C 
HETATM   17  C24 UNL     1       1.820   3.039   2.333  1.00  0.00     0.070 C 
HETATM   18  C23 UNL     1       2.579   1.962   1.724  1.00  0.00     0.182 C 
HETATM   19  N1  UNL     1       2.113   3.884   3.245  1.00  0.00    -0.398 N 
HETATM   20  O5  UNL     1       3.727   1.609   2.106  1.00  0.00    -0.290 OA
ATOM     21  H12 UNL     1       1.580   4.641   3.673  1.00  0.00     0.156 HD
ATOM     22  H11 UNL     1       3.009   3.935   3.729  1.00  0.00     0.156 HD
BRANCH   8  23
HETATM   23  C9  UNL     1      -1.787  -1.517   1.414  1.00  0.00     0.186 C 
HETATM   24  O1  UNL     1      -1.611  -2.013   2.553  1.00  0.00    -0.647 OA
HETATM   25  O2  UNL     1      -3.042  -1.477   0.875  1.00  0.00    -0.647 OA
ENDBRANCH   8  23
BRANCH  12  26
HETATM   26  C15 UNL     1       0.059   1.291   3.465  1.00  0.00     0.097 C 
HETATM   27 BR1  UNL     1      -0.871   2.591   4.574  1.00  0.00    -0.096 Br
ENDBRANCH  12  26
BRANCH  15  28
HETATM   28  C17 UNL     1      -0.287   4.151   1.713  1.00  0.00     0.189 C 
HETATM   29  O3  UNL     1       0.021   5.100   2.507  1.00  0.00    -0.647 OA
HETATM   30  O4  UNL     1      -1.417   4.340   0.949  1.00  0.00    -0.647 OA
ENDBRANCH  15  28
BRANCH  13  31
HETATM   31  C20 UNL     1       2.638   1.015  -0.481  1.00  0.00    -0.006 C 
HETATM   32  C21 UNL     1       3.411  -0.266  -0.313  1.00  0.00     0.011 C 
HETATM   33  C22 UNL     1       2.076   1.073  -1.883  1.00  0.00     0.011 C 
ENDBRANCH  13  31
ENDBRANCH   7   8
ENDBRANCH   5   6
ENDBRANCH   3   4
TORSDOF 7
