REMARK  1 active torsions:
REMARK  status: ('A' for Active; 'I' for Inactive)
REMARK    1  A    between atoms: C4_6  and  O3_7 
ROOT
HETATM    1  C1  UNL     1      -0.655   3.214  -1.415  1.00  0.00     0.018 C 
HETATM    2  C2  UNL     1      -0.772   1.735  -1.639  1.00  0.00    -0.018 A 
HETATM    3  O1  UNL     1      -1.113   0.727  -0.619  1.00  0.00     0.000 OA
HETATM    4  C3  UNL     1      -0.843  -0.072   0.275  1.00  0.00     0.172 C 
HETATM    5  O2  UNL     1      -0.294  -1.282   0.196  1.00  0.00    -0.345 OA
HETATM    6  C4  UNL     1       0.661  -1.664   1.042  1.00  0.00     0.171 C 
HETATM    7  C5  UNL     1       1.545  -2.548   0.137  1.00  0.00     0.069 C 
HETATM    8  C6  UNL     1       2.089  -1.490  -0.789  1.00  0.00     0.011 C 
HETATM    9  C7  UNL     1       2.088  -0.183  -0.044  1.00  0.00     0.001 C 
HETATM   10  C8  UNL     1       1.387   0.916  -0.689  1.00  0.00     0.012 C 
HETATM   11  C9  UNL     1       0.256   1.641  -0.003  1.00  0.00     0.015 C 
HETATM   12  C10 UNL     1      -0.935   1.452  -0.989  1.00  0.00    -0.022 A 
HETATM   13  C11 UNL     1      -2.365   1.892  -0.588  1.00  0.00     0.017 C 
HETATM   14  O4  UNL     1      -0.793   0.266  -1.886  1.00  0.00     0.000 OA
HETATM   15  C12 UNL     1      -0.155   0.910   1.194  1.00  0.00     0.058 A 
HETATM   16  C13 UNL     1      -0.794   1.106   2.387  1.00  0.00     0.103 A 
HETATM   17  F1  UNL     1      -2.038   1.456   2.928  1.00  0.00    -0.210 F 
HETATM   18  C14 UNL     1       0.262   0.814   3.064  1.00  0.00     0.023 A 
HETATM   19  C15 UNL     1       1.042   0.605   1.908  1.00  0.00     0.006 A 
HETATM   20  C16 UNL     1       2.115   1.736   1.903  1.00  0.00     0.022 C 
HETATM   21  C17 UNL     1       1.638  -0.591   1.353  1.00  0.00     0.028 C 
HETATM   22  C18 UNL     1       2.782  -1.123   2.134  1.00  0.00     0.022 C 
ENDROOT
BRANCH   6  23
HETATM   23  O3  UNL     1       0.140  -2.318   2.100  1.00  0.00    -0.365 OA
ATOM     24  H3  UNL     1       0.821  -2.590   2.703  1.00  0.00     0.213 HD
ENDBRANCH   6  23
TORSDOF 1
