REMARK  18 active torsions:
REMARK  status: ('A' for Active; 'I' for Inactive)
REMARK    1  A    between atoms: C2_2  and  C3_3 
REMARK    2  A    between atoms: C3_3  and  C4_4 
REMARK    3  A    between atoms: C4_4  and  C5_5 
REMARK    4  A    between atoms: C5_5  and  C6_6 
REMARK    5  A    between atoms: C6_6  and  C7_7 
REMARK    6  A    between atoms: C7_7  and  C8_8 
REMARK    7  A    between atoms: C10_10  and  O1_11 
REMARK    8  A    between atoms: C12_14  and  O2_15 
REMARK    9  A    between atoms: C16_21  and  C17_22 
REMARK   10  A    between atoms: C17_22  and  O4_23 
REMARK   11  A    between atoms: C17_22  and  C18_25 
REMARK   12  A    between atoms: C17_22  and  C19_28 
REMARK   13  A    between atoms: C18_25  and  O5_26 
REMARK   14  A    between atoms: C19_28  and  C20_29 
REMARK   15  A    between atoms: C20_29  and  O6_30 
REMARK   16  A    between atoms: C25_38  and  C26_39 
REMARK   17  A    between atoms: C26_39  and  O9_42 
REMARK   18  A    between atoms: C29_44  and  C30_45 
ROOT
HETATM    1  C30 UNL     1       1.965  -1.034  -0.992  1.00  0.00     0.143 C 
HETATM    2  C31 UNL     1       2.773  -0.256  -0.072  1.00  0.00     0.060 C 
HETATM    3  N1  UNL     1       3.430   0.393   0.649  1.00  0.00    -0.197 NA
ENDROOT
BRANCH   1   4
HETATM    4  C29 UNL     1       0.530  -1.267  -0.555  1.00  0.00     0.053 C 
HETATM    5  C22 UNL     1       0.524  -1.996   0.686  1.00  0.00     0.101 C 
HETATM    6  C21 UNL     1      -0.475  -1.784   1.751  1.00  0.00     0.189 C 
HETATM    7  C23 UNL     1       1.783  -2.260   1.490  1.00  0.00     0.050 C 
HETATM    8  O8  UNL     1       0.279  -3.343   0.241  1.00  0.00    -0.370 OA
HETATM    9  C15 UNL     1      -1.651  -2.687   1.514  1.00  0.00     0.163 C 
HETATM   10  O7  UNL     1      -0.133  -2.343   3.015  1.00  0.00    -0.347 OA
HETATM   11  C14 UNL     1      -2.059  -2.703   0.133  1.00  0.00     0.051 C 
HETATM   12  O3  UNL     1      -2.354  -2.410   2.608  1.00  0.00    -0.350 OA
HETATM   13  C13 UNL     1      -2.810  -1.610  -0.460  1.00  0.00     0.071 C 
HETATM   14  C24 UNL     1      -0.834  -3.173  -0.618  1.00  0.00     0.137 C 
HETATM   15  C12 UNL     1      -2.551  -0.217  -0.097  1.00  0.00     0.136 C 
HETATM   16  C11 UNL     1      -3.417   0.571  -1.105  1.00  0.00     0.092 C 
HETATM   17  N2  UNL     1      -1.346   0.346   0.004  1.00  0.00    -0.359 N 
HETATM   18  C10 UNL     1      -2.757   0.625  -2.426  1.00  0.00     0.123 C 
HETATM   19  C9  UNL     1      -1.442   1.231  -2.560  1.00  0.00     0.042 C 
HETATM   20  C8  UNL     1      -0.200   0.819  -1.906  1.00  0.00     0.035 C 
HETATM   21  C32 UNL     1      -0.155   0.114  -0.610  1.00  0.00     0.004 C 
HETATM   22  C33 UNL     1      -1.451   1.730   0.502  1.00  0.00     0.152 C 
HETATM   23  C25 UNL     1      -0.144  -2.210  -1.532  1.00  0.00     0.067 C 
HETATM   24  C16 UNL     1      -1.326  -2.773   3.530  1.00  0.00     0.297 C 
BRANCH  15  25
HETATM   25  O2  UNL     1      -3.248   0.016   1.130  1.00  0.00    -0.371 OA
ATOM     26  H2  UNL     1      -2.716  -0.469   1.750  1.00  0.00     0.212 HD
ENDBRANCH  15  25
BRANCH  18  27
HETATM   27  O1  UNL     1      -3.627   1.415  -3.238  1.00  0.00    -0.395 OA
ATOM     28  H1  UNL     1      -4.486   1.019  -3.150  1.00  0.00     0.210 HD
ENDBRANCH  18  27
BRANCH  20  29
HETATM   29  C7  UNL     1       0.597   2.169  -1.885  1.00  0.00     0.014 C 
BRANCH  29  30
HETATM   30  C6  UNL     1       0.848   2.686  -3.248  1.00  0.00     0.027 C 
BRANCH  30  31
HETATM   31  C5  UNL     1       1.591   3.944  -3.376  1.00  0.00    -0.031 C 
BRANCH  31  32
HETATM   32  C4  UNL     1       2.972   4.100  -2.940  1.00  0.00    -0.031 C 
BRANCH  32  33
HETATM   33  C3  UNL     1       3.383   3.942  -1.539  1.00  0.00     0.026 C 
BRANCH  33  34
HETATM   34  C2  UNL     1       2.697   4.887  -0.572  1.00  0.00    -0.001 C 
HETATM   35  C1  UNL     1       3.169   4.663   0.846  1.00  0.00     0.005 C 
ENDBRANCH  33  34
ENDBRANCH  32  33
ENDBRANCH  31  32
ENDBRANCH  30  31
ENDBRANCH  29  30
ENDBRANCH  20  29
BRANCH  23  36
HETATM   36  C26 UNL     1       0.649  -3.119  -2.413  1.00  0.00     0.058 C 
HETATM   37  C27 UNL     1      -0.429  -4.003  -3.089  1.00  0.00     0.046 C 
HETATM   38  C28 UNL     1       1.456  -2.598  -3.518  1.00  0.00     0.046 C 
BRANCH  36  39
HETATM   39  O9  UNL     1       1.429  -4.061  -1.701  1.00  0.00    -0.390 OA
ATOM     40  H9  UNL     1       1.933  -4.639  -2.261  1.00  0.00     0.210 HD
ENDBRANCH  36  39
ENDBRANCH  23  36
BRANCH  24  41
HETATM   41  C17 UNL     1      -1.655  -2.559   4.934  1.00  0.00     0.130 C 
BRANCH  41  42
HETATM   42  O4  UNL     1      -2.838  -3.421   5.115  1.00  0.00    -0.383 OA
ATOM     43  H4  UNL     1      -3.052  -3.282   6.030  1.00  0.00     0.210 HD
ENDBRANCH  41  42
BRANCH  41  44
HETATM   44  C18 UNL     1      -0.665  -3.200   5.831  1.00  0.00     0.207 C 
BRANCH  44  45
HETATM   45  O5  UNL     1       0.563  -2.620   5.803  1.00  0.00    -0.398 OA
ATOM     46  H5  UNL     1       1.198  -3.031   6.378  1.00  0.00     0.209 HD
ENDBRANCH  44  45
ENDBRANCH  41  44
BRANCH  41  47
HETATM   47  C19 UNL     1      -2.157  -1.255   5.393  1.00  0.00     0.071 C 
BRANCH  47  48
HETATM   48  C20 UNL     1      -1.339  -0.033   5.206  1.00  0.00     0.167 C 
BRANCH  48  49
HETATM   49  O6  UNL     1      -0.122   0.023   5.811  1.00  0.00    -0.401 OA
ATOM     50  H6  UNL     1       0.402   0.806   5.691  1.00  0.00     0.209 HD
ENDBRANCH  48  49
ENDBRANCH  47  48
ENDBRANCH  41  47
ENDBRANCH  24  41
ENDBRANCH   1   4
TORSDOF 18
