REMARK  10 active torsions:
REMARK  status: ('A' for Active; 'I' for Inactive)
REMARK    1  A    between atoms: C2_2  and  C4_4 
REMARK    2  A    between atoms: C4_4  and  C5_5 
REMARK    3  A    between atoms: C5_5  and  C6_6 
REMARK    4  A    between atoms: C5_5  and  C14_19 
REMARK    5  A    between atoms: C6_6  and  O1_7 
REMARK    6  A    between atoms: O1_7  and  C7_8 
REMARK    7  A    between atoms: C7_8  and  C8_12 
REMARK    8  A    between atoms: C14_19  and  C15_20 
REMARK    9  A    between atoms: C15_20  and  C17_22 
REMARK   10  A    between atoms: C18_23  and  O3_24 
ROOT
HETATM    1  C5  UNL     1      -0.668   1.733  -0.981  1.00  0.00     0.014 C 
ENDROOT
BRANCH   1   2
HETATM    2  C4  UNL     1      -1.419   2.620  -0.049  1.00  0.00     0.039 C 
BRANCH   2   3
HETATM    3  C2  UNL     1      -2.007   2.070   1.170  1.00  0.00    -0.093 C 
HETATM    4  C1  UNL     1      -3.245   1.952   1.395  1.00  0.00     0.014 C 
HETATM    5  C3  UNL     1      -1.098   1.652   2.315  1.00  0.00     0.042 C 
ENDBRANCH   2   3
ENDBRANCH   1   2
BRANCH   1   6
HETATM    6  C6  UNL     1      -1.490   0.573  -1.486  1.00  0.00     0.182 C 
BRANCH   6   7
HETATM    7  O1  UNL     1      -1.923  -0.280  -0.486  1.00  0.00    -0.338 OA
BRANCH   7   8
HETATM    8  C7  UNL     1      -2.887  -1.256  -0.682  1.00  0.00     0.125 C 
HETATM    9  N1  UNL     1      -3.994  -0.749  -1.178  1.00  0.00    -0.383 N 
ATOM     10  H12 UNL     1      -4.099   0.245  -1.383  1.00  0.00     0.158 HD
ATOM     11  H11 UNL     1      -4.704  -1.467  -1.322  1.00  0.00     0.158 HD
BRANCH   8  12
HETATM   12  C8  UNL     1      -2.737  -2.670  -0.390  1.00  0.00     0.078 C 
HETATM   13  C9  UNL     1      -2.340  -3.020   1.042  1.00  0.00     0.190 C 
HETATM   14  O2  UNL     1      -2.957  -4.222   0.723  1.00  0.00    -0.377 OA
HETATM   15  C10 UNL     1      -3.808  -3.597  -0.246  1.00  0.00     0.082 A 
HETATM   16  C11 UNL     1      -4.470  -4.619  -1.006  1.00  0.00     0.047 A 
HETATM   17  C12 UNL     1      -3.461  -3.961  -1.742  1.00  0.00     0.026 A 
HETATM   18  C13 UNL     1      -2.061  -3.589  -1.333  1.00  0.00     0.031 C 
ENDBRANCH   8  12
ENDBRANCH   7   8
ENDBRANCH   6   7
ENDBRANCH   1   6
BRANCH   1  19
HETATM   19  C14 UNL     1       0.677   1.424  -0.504  1.00  0.00     0.011 C 
BRANCH  19  20
HETATM   20  C15 UNL     1       1.526   0.569  -1.398  1.00  0.00    -0.011 C 
HETATM   21  C16 UNL     1       1.760   1.240  -2.715  1.00  0.00     0.010 C 
BRANCH  20  22
HETATM   22  C17 UNL     1       2.764   0.092  -0.744  1.00  0.00     0.023 C 
HETATM   23  C18 UNL     1       3.738   1.058  -0.235  1.00  0.00     0.123 C 
HETATM   24  C19 UNL     1       4.015   0.736   1.244  1.00  0.00     0.042 C 
HETATM   25  C20 UNL     1       2.890  -0.145   1.666  1.00  0.00     0.029 C 
HETATM   26  C21 UNL     1       3.403  -1.201   2.601  1.00  0.00    -0.017 C 
HETATM   27  C25 UNL     1       2.457  -0.820   0.418  1.00  0.00     0.008 C 
HETATM   28  C22 UNL     1       3.409  -1.113   3.904  1.00  0.00     0.023 C 
HETATM   29  C23 UNL     1       3.843  -2.267   1.713  1.00  0.00     0.155 C 
HETATM   30  O4  UNL     1       4.652  -3.171   2.085  1.00  0.00    -0.293 OA
HETATM   31  C24 UNL     1       3.205  -2.102   0.380  1.00  0.00     0.089 C 
BRANCH  23  32
HETATM   32  O3  UNL     1       4.955   0.978  -0.939  1.00  0.00    -0.395 OA
ATOM     33  H3  UNL     1       5.587   1.605  -0.609  1.00  0.00     0.210 HD
ENDBRANCH  23  32
ENDBRANCH  20  22
ENDBRANCH  19  20
ENDBRANCH   1  19
TORSDOF 10
