REMARK  3 active torsions:
REMARK  status: ('A' for Active; 'I' for Inactive)
REMARK    1  A    between atoms: C7_7  and  C8_8 
REMARK    2  A    between atoms: C11_12  and  N1_13 
REMARK       I    between atoms: N1_13  and  C12_14 
REMARK    3  A    between atoms: C12_14  and  C13_16 
ROOT
HETATM    1  C1  UNL     1       3.308   2.536  -0.421  1.00  0.00     0.012 C 
HETATM    2  C2  UNL     1       2.415   2.395   0.361  1.00  0.00    -0.112 C 
HETATM    3  C3  UNL     1       1.341   2.229   1.289  1.00  0.00     0.072 C 
HETATM    4  C4  UNL     1       0.017   2.737   0.688  1.00  0.00     0.023 C 
HETATM    5  C5  UNL     1      -1.057   1.912   1.337  1.00  0.00    -0.000 C 
HETATM    6  C6  UNL     1      -1.202   0.548   0.775  1.00  0.00     0.037 C 
HETATM    7  C7  UNL     1      -1.264   0.038   2.184  1.00  0.00     0.059 C 
HETATM    8  C9  UNL     1      -0.302   1.135   2.439  1.00  0.00     0.010 C 
HETATM    9  C10 UNL     1       0.947   0.813   1.585  1.00  0.00     0.043 C 
HETATM   10  C11 UNL     1       0.273   0.168   0.404  1.00  0.00     0.178 C 
ENDROOT
BRANCH  10  11
HETATM   11  N1  UNL     1       0.298  -1.179   0.235  1.00  0.00    -0.400 NA
HETATM   12  C12 UNL     1       0.321  -2.548   0.062  1.00  0.00     0.394 C 
HETATM   13  O2  UNL     1      -0.468  -3.208  -0.620  1.00  0.00    -0.245 OA
BRANCH  12  14
HETATM   14  C13 UNL     1       1.395  -3.400   0.731  1.00  0.00     0.397 C 
HETATM   15  O3  UNL     1       2.244  -2.649   1.266  1.00  0.00    -0.244 OA
HETATM   16  N2  UNL     1       1.347  -4.743   0.688  1.00  0.00    -0.386 NA
HETATM   17  C14 UNL     1       1.299  -6.110   0.644  1.00  0.00     0.233 C 
ENDBRANCH  12  14
ENDBRANCH  10  11
BRANCH   7  18
HETATM   18  C8  UNL     1      -2.547   0.243   2.884  1.00  0.00     0.236 C 
HETATM   19  O1  UNL     1      -2.574   0.907   3.898  1.00  0.00    -0.306 OA
ENDBRANCH   7  18
TORSDOF 2
