REMARK  10 active torsions:
REMARK  status: ('A' for Active; 'I' for Inactive)
REMARK    1  A    between atoms: C2_2  and  O2_4 
REMARK    2  A    between atoms: O2_4  and  C3_5 
REMARK    3  A    between atoms: C3_5  and  C4_6 
REMARK    4  A    between atoms: C4_6  and  C5_7 
REMARK    5  A    between atoms: C5_7  and  C6_8 
REMARK    6  A    between atoms: C6_8  and  C7_9 
REMARK    7  A    between atoms: C10_12  and  C11_13 
REMARK    8  A    between atoms: C11_13  and  O3_14 
REMARK    9  A    between atoms: C12_16  and  O4_17 
REMARK   10  A    between atoms: C13_19  and  O5_20 
ROOT
HETATM    1  C7  UNL     1      -1.177  -1.689   0.187  1.00  0.00     0.106 C 
HETATM    2  C8  UNL     1      -1.057  -0.941  -1.058  1.00  0.00     0.037 C 
HETATM    3  C9  UNL     1       0.032  -0.619  -2.044  1.00  0.00     0.016 C 
HETATM    4  C10 UNL     1       1.297  -1.372  -2.365  1.00  0.00    -0.004 C 
HETATM    5  C12 UNL     1       2.098  -2.250  -1.370  1.00  0.00     0.188 C 
HETATM    6  C13 UNL     1       2.002  -2.289   0.113  1.00  0.00     0.123 C 
HETATM    7  C14 UNL     1       1.106  -2.918   1.134  1.00  0.00     0.079 C 
HETATM    8  C15 UNL     1      -0.246  -2.146   1.306  1.00  0.00     0.164 C 
HETATM    9  O6  UNL     1       0.302  -1.086   1.303  1.00  0.00    -0.366 OA
HETATM   10  C16 UNL     1       0.812  -1.548   0.004  1.00  0.00     0.117 C 
HETATM   11  C17 UNL     1       1.370  -0.276  -0.097  1.00  0.00     0.058 C 
HETATM   12  C18 UNL     1       0.628   0.958  -0.484  1.00  0.00     0.098 C 
HETATM   13  N1  UNL     1       0.322   0.839  -1.865  1.00  0.00    -0.287 NA
HETATM   14  C19 UNL     1      -0.838   1.610  -2.234  1.00  0.00     0.116 C 
HETATM   15  C20 UNL     1       0.089  -2.708  -0.586  1.00  0.00     0.210 C 
HETATM   16  O7  UNL     1      -1.193  -3.062  -0.075  1.00  0.00    -0.370 OA
ENDROOT
BRANCH   1  17
HETATM   17  C6  UNL     1      -2.480  -1.417   0.812  1.00  0.00     0.045 C 
BRANCH  17  18
HETATM   18  C5  UNL     1      -2.835  -0.040   1.202  1.00  0.00     0.006 C 
BRANCH  18  19
HETATM   19  C4  UNL     1      -4.241  -0.114   1.823  1.00  0.00     0.027 C 
BRANCH  19  20
HETATM   20  C3  UNL     1      -4.717   1.226   2.262  1.00  0.00     0.178 C 
BRANCH  20  21
HETATM   21  O2  UNL     1      -4.782   2.129   1.205  1.00  0.00    -0.322 OA
BRANCH  21  22
HETATM   22  C2  UNL     1      -5.566   1.968   0.092  1.00  0.00     0.254 C 
HETATM   23  C1  UNL     1      -5.506   3.049  -0.953  1.00  0.00     0.126 C 
HETATM   24  O1  UNL     1      -6.298   0.957  -0.037  1.00  0.00    -0.266 OA
ENDBRANCH  21  22
ENDBRANCH  20  21
ENDBRANCH  19  20
ENDBRANCH  18  19
ENDBRANCH  17  18
ENDBRANCH   1  17
BRANCH   4  25
HETATM   25  C11 UNL     1       1.427  -1.966  -3.752  1.00  0.00     0.203 C 
BRANCH  25  26
HETATM   26  O3  UNL     1       0.496  -2.875  -4.139  1.00  0.00    -0.397 OA
ATOM     27  H3  UNL     1       0.578  -3.248  -5.009  1.00  0.00     0.209 HD
ENDBRANCH  25  26
ENDBRANCH   4  25
BRANCH   6  28
HETATM   28  O5  UNL     1       3.155  -1.749   0.709  1.00  0.00    -0.384 OA
ATOM     29  H5  UNL     1       3.094  -1.774   1.657  1.00  0.00     0.210 HD
ENDBRANCH   6  28
BRANCH   5  30
HETATM   30  O4  UNL     1       3.473  -2.011  -1.641  1.00  0.00    -0.388 OA
ATOM     31  H4  UNL     1       3.964  -2.549  -1.031  1.00  0.00     0.210 HD
ENDBRANCH   5  30
TORSDOF 10
