REMARK  6 active torsions:
REMARK  status: ('A' for Active; 'I' for Inactive)
REMARK    1  A    between atoms: C9_9  and  C10_10 
REMARK    2  A    between atoms: C10_10  and  C11_11 
REMARK    3  A    between atoms: C11_11  and  C12_12 
REMARK    4  A    between atoms: C12_12  and  O2_14 
REMARK    5  A    between atoms: O2_14  and  C13_15 
REMARK    6  A    between atoms: C17_20  and  O3_21 
ROOT
HETATM    1  C13 UNL     1      -4.921   1.092  -0.230  1.00  0.00     0.302 C 
HETATM    2  C14 UNL     1      -5.168   0.112  -1.284  1.00  0.00     0.085 C 
HETATM    3  N1  UNL     1      -5.380  -0.650  -2.109  1.00  0.00    -0.195 NA
ENDROOT
BRANCH   1   4
HETATM    4  O2  UNL     1      -3.608   1.543  -0.221  1.00  0.00    -0.307 OA
BRANCH   4   5
HETATM    5  C12 UNL     1      -2.949   2.185  -1.232  1.00  0.00     0.259 C 
HETATM    6  O1  UNL     1      -3.671   2.365  -2.282  1.00  0.00    -0.265 OA
BRANCH   5   7
HETATM    7  C11 UNL     1      -1.582   2.651  -1.208  1.00  0.00     0.111 C 
BRANCH   7   8
HETATM    8  C10 UNL     1      -0.703   2.224  -0.061  1.00  0.00     0.015 C 
BRANCH   8   9
HETATM    9  C9  UNL     1      -0.475   0.792   0.070  1.00  0.00     0.005 C 
HETATM   10  C8  UNL     1       0.206   0.123  -1.136  1.00  0.00     0.001 C 
HETATM   11  C7  UNL     1       1.491   0.867  -1.310  1.00  0.00     0.009 C 
HETATM   12  C20 UNL     1       0.119  -1.311  -1.168  1.00  0.00    -0.013 C 
HETATM   13  C6  UNL     1       2.283   1.101  -0.042  1.00  0.00     0.039 C 
HETATM   14  C5  UNL     1       1.776  -0.037   0.877  1.00  0.00     0.075 C 
HETATM   15  C4  UNL     1       2.651  -0.236   2.063  1.00  0.00     0.044 C 
HETATM   16  C15 UNL     1       0.355   0.200   1.150  1.00  0.00     0.018 C 
HETATM   17  O5  UNL     1       2.221  -1.047   0.059  1.00  0.00    -0.344 OA
HETATM   18  C3  UNL     1       3.034  -1.719   1.990  1.00  0.00     0.071 C 
HETATM   19  C2  UNL     1       2.429  -2.191   0.737  1.00  0.00     0.162 C 
HETATM   20  C1  UNL     1       3.301  -3.126  -0.067  1.00  0.00     0.079 C 
HETATM   21  O4  UNL     1       1.156  -2.688   0.745  1.00  0.00    -0.349 OA
HETATM   22  C22 UNL     1       0.344  -2.353  -0.252  1.00  0.00     0.140 C 
HETATM   23  C18 UNL     1      -0.932  -1.889   0.513  1.00  0.00     0.046 C 
HETATM   24  C17 UNL     1      -0.477  -1.002   1.551  1.00  0.00     0.136 C 
HETATM   25  C19 UNL     1      -1.366  -1.616  -0.814  1.00  0.00     0.021 C 
HETATM   26  C16 UNL     1       0.317   1.101   2.401  1.00  0.00     0.021 C 
HETATM   27  C21 UNL     1       0.382  -1.758  -2.630  1.00  0.00     0.018 C 
BRANCH  24  28
HETATM   28  O3  UNL     1       0.031  -1.702   2.634  1.00  0.00    -0.394 OA
ATOM     29  H3  UNL     1      -0.490  -2.455   2.885  1.00  0.00     0.210 HD
ENDBRANCH  24  28
ENDBRANCH   8   9
ENDBRANCH   7   8
ENDBRANCH   5   7
ENDBRANCH   4   5
ENDBRANCH   1   4
TORSDOF 6
