REMARK  9 active torsions:
REMARK  status: ('A' for Active; 'I' for Inactive)
REMARK    1  A    between atoms: C2_2  and  C3_3 
REMARK    2  A    between atoms: C3_3  and  C4_4 
REMARK    3  A    between atoms: C4_4  and  N1_5 
REMARK    4  A    between atoms: N1_5  and  C5_6 
REMARK    5  A    between atoms: N1_5  and  C7_8 
REMARK    6  A    between atoms: C7_8  and  C8_9 
REMARK    7  A    between atoms: C8_9  and  C9_10 
REMARK    8  A    between atoms: C9_10  and  C10_11 
REMARK    9  A    between atoms: C12_14  and  O2_15 
ROOT
HETATM    1  C10 UNL     1      -2.380  -2.420  -1.432  1.00  0.00     0.173 C 
HETATM    2  O1  UNL     1      -1.505  -2.902  -2.443  1.00  0.00    -0.377 OA
HETATM    3  C11 UNL     1      -1.313  -2.013  -3.463  1.00  0.00     0.207 C 
HETATM    4  C12 UNL     1      -0.302  -0.816  -3.011  1.00  0.00     0.194 C 
HETATM    5  C13 UNL     1      -0.955  -0.495  -1.879  1.00  0.00     0.075 C 
HETATM    6  C14 UNL     1      -1.899  -1.170  -1.110  1.00  0.00     0.064 C 
HETATM    7  N2  UNL     1      -2.154  -0.432   0.116  1.00  0.00    -0.341 N 
ATOM      8  H2  UNL     1      -1.976  -0.916   0.996  1.00  0.00     0.164 HD
HETATM    9  C15 UNL     1      -2.581   0.768   0.188  1.00  0.00     0.272 A 
HETATM   10  O3  UNL     1      -2.769   1.347   0.510  1.00  0.00    -0.278 OA
HETATM   11  C16 UNL     1      -1.291   1.204   0.120  1.00  0.00     0.213 A 
HETATM   12  S1  UNL     1      -0.116   1.564   1.252  1.00  0.00    -0.036 SA
HETATM   13  N3  UNL     1      -0.908   0.730  -1.320  1.00  0.00    -0.283 N 
HETATM   14  C17 UNL     1      -0.679   1.578  -2.216  1.00  0.00     0.062 A 
HETATM   15  C18 UNL     1       0.408   1.635  -2.872  1.00  0.00     0.071 A 
HETATM   16  C19 UNL     1       0.274   2.592  -3.945  1.00  0.00     0.107 A 
HETATM   17  C20 UNL     1      -0.884   3.322  -4.186  1.00  0.00     0.106 A 
HETATM   18  C21 UNL     1      -2.015   3.160  -3.375  1.00  0.00     0.060 A 
HETATM   19  C22 UNL     1      -1.885   2.264  -2.378  1.00  0.00     0.035 A 
HETATM   20  S2  UNL     1      -3.243   1.911  -1.255  1.00  0.00    -0.057 SA
HETATM   21  O4  UNL     1      -0.665   4.130  -5.276  1.00  0.00    -0.323 OA
HETATM   22  C23 UNL     1       0.706   4.041  -5.650  1.00  0.00     0.352 C 
HETATM   23  O5  UNL     1       1.165   2.958  -4.875  1.00  0.00    -0.323 OA
ENDROOT
BRANCH   1  24
HETATM   24  C9  UNL     1      -2.200  -3.233  -0.161  1.00  0.00     0.039 C 
BRANCH  24  25
HETATM   25  C8  UNL     1      -0.795  -3.180   0.379  1.00  0.00     0.018 C 
BRANCH  25  26
HETATM   26  C7  UNL     1      -0.637  -4.002   1.638  1.00  0.00     0.095 C 
BRANCH  26  27
HETATM   27  N1  UNL     1       0.673  -3.992   2.192  1.00  0.00    -0.293 NA
BRANCH  27  28
HETATM   28  C4  UNL     1       1.271  -2.890   2.750  1.00  0.00     0.055 C 
BRANCH  28  29
HETATM   29  C3  UNL     1       1.113  -2.335   4.094  1.00  0.00    -0.015 C 
BRANCH  29  30
HETATM   30  C2  UNL     1      -0.185  -1.880   4.644  1.00  0.00     0.023 C 
HETATM   31  C1  UNL     1      -1.256  -2.864   4.879  1.00  0.00     0.009 C 
ENDBRANCH  29  30
ENDBRANCH  28  29
ENDBRANCH  27  28
BRANCH  27  32
HETATM   32  C5  UNL     1       1.549  -4.403   1.004  1.00  0.00     0.090 C 
HETATM   33  C6  UNL     1       2.857  -4.919   1.495  1.00  0.00     0.021 C 
ENDBRANCH  27  32
ENDBRANCH  26  27
ENDBRANCH  25  26
ENDBRANCH  24  25
ENDBRANCH   1  24
BRANCH   4  34
HETATM   34  O2  UNL     1       0.888  -1.567  -2.970  1.00  0.00    -0.387 OA
ATOM     35  H2  UNL     1       1.477  -0.870  -2.707  1.00  0.00     0.210 HD
ENDBRANCH   4  34
TORSDOF 9
