REMARK  5 active torsions:
REMARK  status: ('A' for Active; 'I' for Inactive)
REMARK    1  A    between atoms: O1_2  and  C2_3 
REMARK    2  A    between atoms: C2_3  and  C3_4 
REMARK    3  A    between atoms: C3_4  and  N1_5 
REMARK    4  A    between atoms: N1_5  and  C4_6 
REMARK    5  A    between atoms: C5_7  and  O2_8 
ROOT
HETATM    1  N1  UNL     1      -0.113  -1.692   0.568  1.00  0.00    -0.355 N 
HETATM    2  C6  UNL     1      -0.943  -0.721   0.556  1.00  0.00     0.030 C 
HETATM    3  C7  UNL     1      -2.365  -1.014   0.456  1.00  0.00     0.040 C 
HETATM    4  C8  UNL     1      -3.300  -0.449   1.285  1.00  0.00    -0.008 A 
HETATM    5  C9  UNL     1      -4.563  -0.911   1.052  1.00  0.00     0.014 A 
HETATM    6  C10 UNL     1      -5.605  -0.417   1.813  1.00  0.00     0.001 A 
HETATM    7  C11 UNL     1      -5.377   0.542   2.806  1.00  0.00     0.002 A 
HETATM    8  C12 UNL     1      -4.074   1.010   3.036  1.00  0.00     0.030 A 
HETATM    9  C13 UNL     1      -3.091   0.505   2.277  1.00  0.00     0.042 A 
HETATM   10  N2  UNL     1      -1.890   1.048   2.620  1.00  0.00    -0.360 N 
ATOM     11  H2  UNL     1      -1.773   1.345   3.589  1.00  0.00     0.165 HD
HETATM   12  C14 UNL     1      -0.873   1.222   1.816  1.00  0.00     0.020 A 
HETATM   13  C15 UNL     1       0.014   1.600   1.244  1.00  0.00     0.066 A 
HETATM   14  C16 UNL     1       0.641   2.736   1.715  1.00  0.00     0.125 A 
HETATM   15  C17 UNL     1       1.314   2.640   0.868  1.00  0.00     0.120 A 
HETATM   16  C18 UNL     1       0.695   1.483   0.382  1.00  0.00     0.035 A 
HETATM   17  C19 UNL     1      -0.367   0.569   0.690  1.00  0.00     0.079 A 
HETATM   18  C20 UNL     1       1.189   2.040  -1.256  1.00  0.00     0.025 C 
HETATM   19  C21 UNL     1       2.487   1.884  -1.461  1.00  0.00     0.060 C 
HETATM   20  C22 UNL     1       3.119   1.266  -0.267  1.00  0.00     0.239 C 
HETATM   21  O3  UNL     1       4.209   1.456   0.245  1.00  0.00    -0.269 OA
HETATM   22  N3  UNL     1       2.104   0.439   0.045  1.00  0.00    -0.344 N 
ATOM     23  H3  UNL     1       2.257  -0.459   0.504  1.00  0.00     0.163 HD
HETATM   24  C23 UNL     1       0.703   0.933  -0.333  1.00  0.00     0.074 A 
HETATM   25  C24 UNL     1       0.126   0.731  -1.517  1.00  0.00     0.055 C 
HETATM   26  C25 UNL     1       0.357   0.322  -2.856  1.00  0.00     0.148 C 
HETATM   27  O4  UNL     1       0.621  -0.592  -3.383  1.00  0.00    -0.294 OA
HETATM   28  C26 UNL     1       0.087   1.742  -3.512  1.00  0.00     0.084 C 
HETATM   29  C27 UNL     1       0.554   2.554  -2.498  1.00  0.00     0.025 C 
HETATM   30  N4  UNL     1       1.665   3.679   1.618  1.00  0.00    -0.384 N 
HETATM   31  C28 UNL     1       2.547   4.707   1.795  1.00  0.00     0.116 C 
ENDROOT
BRANCH   1  32
HETATM   32  C3  UNL     1       0.248  -2.648  -0.481  1.00  0.00     0.154 C 
BRANCH  32  33
HETATM   33  C2  UNL     1      -0.701  -3.064  -1.463  1.00  0.00     0.187 C 
BRANCH  33  34
HETATM   34  O1  UNL     1      -0.064  -3.947  -2.322  1.00  0.00    -0.394 OA
HETATM   35  C1  UNL     1      -0.913  -4.396  -3.324  1.00  0.00     0.201 C 
ENDBRANCH  33  34
ENDBRANCH  32  33
ENDBRANCH   1  32
BRANCH   1  36
HETATM   36  C4  UNL     1       0.557  -2.107   1.761  1.00  0.00     0.115 C 
HETATM   37  C5  UNL     1       0.483  -1.693   3.106  1.00  0.00     0.148 C 
BRANCH  37  38
HETATM   38  O2  UNL     1      -0.744  -1.838   3.785  1.00  0.00    -0.371 OA
ATOM     39  H2  UNL     1      -0.794  -1.559   4.692  1.00  0.00     0.216 HD
ENDBRANCH  37  38
ENDBRANCH   1  36
TORSDOF 5
