REMARK  4 active torsions:
REMARK  status: ('A' for Active; 'I' for Inactive)
REMARK    1  A    between atoms: C6_6  and  C19_23 
REMARK    2  A    between atoms: C8_8  and  O1_9 
REMARK    3  A    between atoms: C13_16  and  C14_17 
REMARK    4  A    between atoms: C14_17  and  N1_18 
ROOT
HETATM    1  C1  UNL     1      -2.579   0.810  -1.279  1.00  0.00     0.015 C 
HETATM    2  C2  UNL     1      -1.594   0.407  -0.484  1.00  0.00    -0.077 C 
HETATM    3  C3  UNL     1      -1.126  -0.992  -0.394  1.00  0.00     0.020 C 
HETATM    4  C4  UNL     1      -1.983  -1.713   0.588  1.00  0.00     0.020 C 
HETATM    5  C5  UNL     1      -1.149  -1.970   1.746  1.00  0.00     0.053 C 
HETATM    6  C6  UNL     1       0.321  -1.834   1.352  1.00  0.00     0.005 C 
HETATM    7  C7  UNL     1       0.545  -1.332   2.713  1.00  0.00     0.074 C 
HETATM    8  C8  UNL     1      -0.943  -0.948   2.765  1.00  0.00     0.167 C 
HETATM    9  O2  UNL     1      -1.149   0.292   2.689  1.00  0.00    -0.344 OA
HETATM   10  C9  UNL     1      -1.269   1.251   1.854  1.00  0.00     0.065 C 
HETATM   11  C10 UNL     1      -0.536   2.493   2.418  1.00  0.00     0.046 C 
HETATM   12  C11 UNL     1      -2.719   1.729   1.769  1.00  0.00     0.046 C 
HETATM   13  C12 UNL     1      -0.754   1.143   0.452  1.00  0.00     0.057 C 
HETATM   14  C13 UNL     1       0.631   0.492   0.438  1.00  0.00     0.040 C 
HETATM   15  C19 UNL     1       0.289  -0.908   0.204  1.00  0.00     0.008 C 
ENDROOT
BRANCH  14  16
HETATM   16  C14 UNL     1       1.481   1.166  -0.598  1.00  0.00     0.069 C 
BRANCH  16  17
HETATM   17  N1  UNL     1       2.811   0.747  -0.671  1.00  0.00    -0.373 N 
HETATM   18  C15 UNL     1       3.251  -0.483  -1.111  1.00  0.00     0.063 C 
HETATM   19  C16 UNL     1       4.750  -0.364  -1.381  1.00  0.00     0.046 C 
HETATM   20  C17 UNL     1       4.902   1.092  -1.707  1.00  0.00     0.025 C 
HETATM   21  C18 UNL     1       3.730   1.789  -1.106  1.00  0.00     0.127 C 
ENDBRANCH  16  17
ENDBRANCH  14  16
BRANCH   8  22
HETATM   22  O1  UNL     1      -1.441  -1.437   4.012  1.00  0.00    -0.365 OA
ATOM     23  H1  UNL     1      -1.307  -0.771   4.676  1.00  0.00     0.213 HD
ENDBRANCH   8  22
TORSDOF 4
