REMARK  10 active torsions:
REMARK  status: ('A' for Active; 'I' for Inactive)
REMARK    1  A    between atoms: C2_2  and  O1_3 
REMARK    2  A    between atoms: C2_2  and  O2_5 
REMARK    3  A    between atoms: C2_2  and  C3_7 
REMARK    4  A    between atoms: C3_7  and  O3_8 
REMARK    5  A    between atoms: C3_7  and  C4_10 
REMARK    6  A    between atoms: C8_16  and  C9_17 
REMARK    7  A    between atoms: C10_20  and  C11_21 
REMARK    8  A    between atoms: C11_21  and  O8_22 
REMARK    9  A    between atoms: O8_22  and  C12_23 
REMARK   10  A    between atoms: C15_27  and  O9_28 
ROOT
HETATM    1  C12 UNL     1       1.698  -0.318   4.328  1.00  0.00     0.291 C 
HETATM    2  C13 UNL     1       2.069  -1.053   5.572  1.00  0.00     0.085 C 
HETATM    3  N1  UNL     1       2.372  -1.629   6.525  1.00  0.00    -0.195 NA
ENDROOT
BRANCH   1   4
HETATM    4  O8  UNL     1       2.654  -0.434   3.378  1.00  0.00    -0.377 OA
BRANCH   4   5
HETATM    5  C11 UNL     1       2.497   0.182   2.176  1.00  0.00     0.182 C 
BRANCH   5   6
HETATM    6  C10 UNL     1       1.331  -0.357   1.414  1.00  0.00     0.031 C 
HETATM    7  C8  UNL     1       1.457  -1.820   1.122  1.00  0.00     0.170 C 
HETATM    8  C6  UNL     1       1.048  -1.572  -0.234  1.00  0.00     0.050 C 
HETATM    9  O5  UNL     1       2.776  -2.064   0.667  1.00  0.00    -0.366 OA
HETATM   10  C5  UNL     1      -0.139  -1.952  -0.909  1.00  0.00     0.184 C 
HETATM   11  C7  UNL     1       2.199  -2.559  -0.498  1.00  0.00     0.185 C 
HETATM   12  C17 UNL     1       1.512  -0.186  -0.121  1.00  0.00     0.019 C 
HETATM   13  O4  UNL     1      -1.307  -1.320  -0.882  1.00  0.00    -0.379 OA
HETATM   14  C4  UNL     1      -1.644  -0.370  -0.008  1.00  0.00     0.189 C 
HETATM   15  C15 UNL     1      -0.640   0.647   0.375  1.00  0.00     0.088 C 
HETATM   16  C14 UNL     1       0.006   0.217   1.704  1.00  0.00     0.056 C 
HETATM   17  C16 UNL     1       0.502   0.781  -0.587  1.00  0.00     0.047 C 
BRANCH   7  18
HETATM   18  C9  UNL     1       0.971  -2.834   1.971  1.00  0.00     0.211 C 
HETATM   19  O6  UNL     1       1.709  -3.843   2.257  1.00  0.00    -0.646 OA
HETATM   20  O7  UNL     1      -0.288  -2.907   2.591  1.00  0.00    -0.646 OA
ENDBRANCH   7  18
BRANCH  14  21
HETATM   21  C3  UNL     1      -2.972   0.237  -0.410  1.00  0.00     0.211 C 
BRANCH  21  22
HETATM   22  C2  UNL     1      -3.011   0.746  -1.832  1.00  0.00     0.184 C 
HETATM   23  C1  UNL     1      -2.825  -0.311  -2.865  1.00  0.00     0.081 C 
BRANCH  22  24
HETATM   24  O1  UNL     1      -4.345   1.221  -1.981  1.00  0.00    -0.364 OA
ATOM     25  H1  UNL     1      -4.464   1.895  -1.322  1.00  0.00     0.213 HD
ENDBRANCH  22  24
BRANCH  22  26
HETATM   26  O2  UNL     1      -2.235   1.876  -2.053  1.00  0.00    -0.364 OA
ATOM     27  H2  UNL     1      -2.354   2.550  -1.394  1.00  0.00     0.213 HD
ENDBRANCH  22  26
ENDBRANCH  21  22
BRANCH  21  28
HETATM   28  O3  UNL     1      -3.986  -0.760  -0.385  1.00  0.00    -0.387 OA
ATOM     29  H3  UNL     1      -3.961  -1.080   0.509  1.00  0.00     0.210 HD
ENDBRANCH  21  28
ENDBRANCH  14  21
BRANCH  15  30
HETATM   30  O9  UNL     1      -1.165   1.930   0.574  1.00  0.00    -0.387 OA
ATOM     31  H9  UNL     1      -0.520   2.583   0.820  1.00  0.00     0.210 HD
ENDBRANCH  15  30
ENDBRANCH   5   6
ENDBRANCH   4   5
ENDBRANCH   1   4
TORSDOF 10
