REMARK  0 active torsions:
REMARK  status: ('A' for Active; 'I' for Inactive)
ROOT
HETATM    1  C1  UNL     1       1.568  -1.789  -0.591  1.00  0.00     0.015 C 
HETATM    2  C2  UNL     1       0.216  -1.049  -0.517  1.00  0.00    -0.041 C 
HETATM    3  C3  UNL     1      -0.828  -2.132  -0.094  1.00  0.00     0.010 C 
HETATM    4  C4  UNL     1      -2.120  -1.679  -0.743  1.00  0.00     0.016 C 
HETATM    5  C5  UNL     1      -1.740  -0.447  -1.575  1.00  0.00     0.049 C 
HETATM    6  C6  UNL     1      -0.302  -0.796  -1.853  1.00  0.00     0.024 C 
HETATM    7  S1  UNL     1      -1.980   1.034  -0.650  1.00  0.00    -0.148 SA
HETATM    8  C7  UNL     1      -0.297   1.261   0.101  1.00  0.00     0.082 A 
HETATM    9  C8  UNL     1       0.350  -0.082   0.507  1.00  0.00     0.036 C 
HETATM   10  C9  UNL     1       0.125   1.598  -0.114  1.00  0.00     0.136 A 
HETATM   11  N1  UNL     1       0.969   2.096  -0.952  1.00  0.00    -0.317 N 
ATOM     12  H1  UNL     1       0.978   1.696  -1.890  1.00  0.00     0.181 HD
HETATM   13  N2  UNL     1       1.904   3.168  -0.688  1.00  0.00    -0.287 N 
ATOM     14  H2  UNL     1       2.720   3.341  -1.275  1.00  0.00     0.188 HD
HETATM   15  C10 UNL     1       1.598   3.969   0.460  1.00  0.00     0.150 A 
HETATM   16  N3  UNL     1       2.193   5.034   0.966  1.00  0.00    -0.336 N 
ATOM     17  H3  UNL     1       3.020   5.502   0.596  1.00  0.00     0.168 HD
HETATM   18  C11 UNL     1       1.494   5.385   2.069  1.00  0.00     0.182 A 
HETATM   19  N4  UNL     1       0.432   4.537   2.281  1.00  0.00    -0.347 N 
ATOM     20  H4  UNL     1      -0.250   4.578   3.038  1.00  0.00     0.167 HD
HETATM   21  C12 UNL     1       0.483   3.646   1.283  1.00  0.00     0.110 A 
HETATM   22  N5  UNL     1      -0.333   2.539   0.958  1.00  0.00     0.000 N 
HETATM   23  O1  UNL     1      -1.458   2.390   1.430  1.00  0.00    -0.220 OA
HETATM   24  C13 UNL     1      -0.575   1.376   1.291  1.00  0.00     0.184 A 
ENDROOT
TORSDOF 0
