REMARK  7 active torsions:
REMARK  status: ('A' for Active; 'I' for Inactive)
REMARK    1  A    between atoms: C2_2  and  C3_3 
REMARK    2  A    between atoms: C3_3  and  C4_4 
REMARK    3  A    between atoms: O1_6  and  C6_7 
REMARK    4  A    between atoms: C6_7  and  C16_22 
REMARK    5  A    between atoms: C8_11  and  C16_22 
REMARK    6  A    between atoms: C12_16  and  O3_17 
REMARK    7  A    between atoms: C16_22  and  O4_23 
ROOT
HETATM    1  C4  UNL     1       1.156  -1.710  -0.177  1.00  0.00     0.001 A 
HETATM    2  C5  UNL     1       0.963  -2.122   1.262  1.00  0.00     0.019 C 
HETATM    3  O1  UNL     1       0.619  -0.530  -0.836  1.00  0.00     0.000 OA
HETATM    4  C16 UNL     1       0.621  -0.531   0.076  1.00  0.00     0.097 A 
HETATM    5  C17 UNL     1       0.346  -1.845  -0.696  1.00  0.00    -0.002 A 
HETATM    6  C18 UNL     1       0.372  -1.858  -2.221  1.00  0.00     0.019 C 
HETATM    7  C19 UNL     1      -0.864  -2.594  -0.264  1.00  0.00     0.019 C 
ENDROOT
BRANCH   1   8
HETATM    8  C3  UNL     1       2.399  -2.311  -0.782  1.00  0.00     0.013 C 
BRANCH   8   9
HETATM    9  C2  UNL     1       3.755  -2.022  -0.195  1.00  0.00    -0.004 C 
HETATM   10  C1  UNL     1       4.797  -2.788  -0.950  1.00  0.00     0.005 C 
ENDBRANCH   8   9
ENDBRANCH   1   8
BRANCH   3  11
HETATM   11  C6  UNL     1      -0.067   0.629  -0.850  1.00  0.00     0.129 A 
HETATM   12  N1  UNL     1      -0.532   1.484  -1.642  1.00  0.00    -0.389 N 
HETATM   13  C7  UNL     1      -0.877   1.942  -0.543  1.00  0.00     0.102 A 
ATOM     14  H1  UNL     1      -0.593   1.689  -2.639  1.00  0.00     0.155 HD
HETATM   15  C8  UNL     1      -0.146   0.644   0.375  1.00  0.00     0.005 A 
HETATM   16  C13 UNL     1      -1.550   3.112  -0.177  1.00  0.00     0.013 C 
HETATM   17  C9  UNL     1      -0.504   1.179   0.786  1.00  0.00     0.147 A 
HETATM   18  C12 UNL     1      -2.883   2.876   0.531  1.00  0.00     0.157 C 
HETATM   19  C14 UNL     1      -0.601   4.041   0.495  1.00  0.00     0.020 C 
HETATM   20  C15 UNL     1      -1.891   3.745  -1.561  1.00  0.00     0.020 C 
HETATM   21  C10 UNL     1      -2.565   2.152   1.836  1.00  0.00     0.148 C 
HETATM   22  O2  UNL     1      -1.070   1.989   1.705  1.00  0.00    -0.362 OA
HETATM   23  C11 UNL     1      -3.190   0.870   1.923  1.00  0.00     0.042 C 
BRANCH  18  24
HETATM   24  O3  UNL     1      -3.695   2.192  -0.299  1.00  0.00    -0.392 OA
ATOM     25  H3  UNL     1      -3.893   2.643  -1.111  1.00  0.00     0.210 HD
ENDBRANCH  18  24
ENDBRANCH   3  11
BRANCH   4  26
HETATM   26  O4  UNL     1       1.700  -0.082   0.714  1.00  0.00    -0.384 OA
ATOM     27  H4  UNL     1       2.208  -0.860   0.516  1.00  0.00     0.211 HD
ENDBRANCH   4  26
TORSDOF 7
