REMARK  9 active torsions:
REMARK  status: ('A' for Active; 'I' for Inactive)
REMARK    1  A    between atoms: C19_22  and  O4_24 
REMARK    2  A    between atoms: C21_26  and  O5_27 
REMARK    3  A    between atoms: C22_29  and  O6_30 
REMARK    4  A    between atoms: O6_30  and  C23_31 
REMARK    5  A    between atoms: C24_33  and  C25_34 
REMARK    6  A    between atoms: C25_34  and  O8_35 
REMARK    7  A    between atoms: C26_37  and  O9_38 
REMARK    8  A    between atoms: C27_40  and  O10_41 
REMARK    9  A    between atoms: C28_43  and  O11_44 
ROOT
HETATM    1  C1  UNL     1       1.232  -3.441  -0.299  1.00  0.00     0.011 C 
HETATM    2  C2  UNL     1       2.040  -2.126  -0.072  1.00  0.00    -0.007 C 
HETATM    3  C3  UNL     1       3.090  -2.245  -1.102  1.00  0.00     0.010 C 
HETATM    4  C4  UNL     1       3.869  -1.064  -1.603  1.00  0.00     0.075 C 
HETATM    5  C5  UNL     1       3.454   0.144  -0.858  1.00  0.00     0.232 C 
HETATM    6  O1  UNL     1       3.635   1.442  -1.418  1.00  0.00    -0.197 OA
HETATM    7  O2  UNL     1       2.797   2.270  -0.956  1.00  0.00    -0.229 OA
HETATM    8  C6  UNL     1       1.931   2.343  -0.020  1.00  0.00     0.202 C 
HETATM    9  C7  UNL     1       1.269   3.722  -0.308  1.00  0.00     0.038 C 
HETATM   10  C8  UNL     1       1.275   4.048  -1.760  1.00  0.00     0.003 C 
HETATM   11  C9  UNL     1       0.738   3.094  -2.729  1.00  0.00     0.004 C 
HETATM   12  C10 UNL     1      -0.596   2.539  -2.469  1.00  0.00     0.037 C 
HETATM   13  C11 UNL     1      -0.642   1.261  -1.627  1.00  0.00    -0.049 C 
HETATM   14  C12 UNL     1       0.050   0.106  -2.166  1.00  0.00     0.011 C 
HETATM   15  C13 UNL     1       1.234  -0.479  -1.530  1.00  0.00     0.157 C 
HETATM   16  O3  UNL     1       2.232   0.188  -1.214  1.00  0.00    -0.340 OA
HETATM   17  C14 UNL     1       1.027  -1.037  -0.101  1.00  0.00     0.055 C 
HETATM   18  C15 UNL     1       1.148   0.062   0.915  1.00  0.00    -0.027 C 
HETATM   19  C16 UNL     1       2.195   0.038   1.960  1.00  0.00    -0.057 C 
HETATM   20  C17 UNL     1       1.868  -0.929   3.124  1.00  0.00     0.048 C 
HETATM   21  C18 UNL     1       3.609  -0.073   1.685  1.00  0.00     0.023 C 
HETATM   22  C19 UNL     1       4.207   0.248   0.374  1.00  0.00     0.131 C 
HETATM   23  C20 UNL     1       5.502  -0.635   0.351  1.00  0.00     0.056 C 
HETATM   24  C21 UNL     1       0.835   1.484   0.444  1.00  0.00     0.141 C 
HETATM   25  C22 UNL     1      -0.513   1.520  -0.166  1.00  0.00     0.195 C 
ENDROOT
BRANCH  25  26
HETATM   26  O6  UNL     1      -1.274   0.558   0.484  1.00  0.00    -0.345 OA
BRANCH  26  27
HETATM   27  C23 UNL     1      -2.435   0.978   1.071  1.00  0.00     0.292 C 
HETATM   28  O7  UNL     1      -3.413   0.462   0.232  1.00  0.00    -0.348 OA
HETATM   29  C24 UNL     1      -4.462  -0.177   0.784  1.00  0.00     0.179 C 
HETATM   30  C26 UNL     1      -3.881  -1.248   1.726  1.00  0.00     0.180 C 
HETATM   31  C27 UNL     1      -3.440  -0.434   2.921  1.00  0.00     0.183 C 
HETATM   32  C28 UNL     1      -2.610   0.760   2.517  1.00  0.00     0.204 C 
BRANCH  29  33
HETATM   33  C25 UNL     1      -5.138  -0.988  -0.333  1.00  0.00     0.198 C 
BRANCH  33  34
HETATM   34  O8  UNL     1      -4.241  -1.909  -0.871  1.00  0.00    -0.398 OA
ATOM     35  H8  UNL     1      -4.659  -2.410  -1.561  1.00  0.00     0.209 HD
ENDBRANCH  33  34
ENDBRANCH  29  33
BRANCH  30  36
HETATM   36  O9  UNL     1      -4.915  -2.068   2.101  1.00  0.00    -0.390 OA
ATOM     37  H9  UNL     1      -4.557  -2.729   2.682  1.00  0.00     0.210 HD
ENDBRANCH  30  36
BRANCH  31  38
HETATM   38  O10 UNL     1      -2.759  -1.240   3.838  1.00  0.00    -0.390 OA
ATOM     39  H10 UNL     1      -2.482  -0.728   4.589  1.00  0.00     0.210 HD
ENDBRANCH  31  38
BRANCH  32  40
HETATM   40  O11 UNL     1      -3.296   1.854   3.108  1.00  0.00    -0.388 OA
ATOM     41  H11 UNL     1      -3.409   1.713   4.041  1.00  0.00     0.210 HD
ENDBRANCH  32  40
ENDBRANCH  26  27
ENDBRANCH  25  26
BRANCH  24  42
HETATM   42  O5  UNL     1       0.456   2.089   1.710  1.00  0.00    -0.379 OA
ATOM     43  H5  UNL     1      -0.253   1.533   2.010  1.00  0.00     0.211 HD
ENDBRANCH  24  42
BRANCH  22  44
HETATM   44  O4  UNL     1       4.992   1.459   0.493  1.00  0.00    -0.380 OA
ATOM     45  H4  UNL     1       5.486   1.527   1.301  1.00  0.00     0.211 HD
ENDBRANCH  22  44
TORSDOF 9
