REMARK  10 active torsions:
REMARK  status: ('A' for Active; 'I' for Inactive)
REMARK    1  A    between atoms: C3_3  and  O1_5 
REMARK    2  A    between atoms: O1_5  and  C5_6 
REMARK    3  A    between atoms: C10_12  and  C11_13 
REMARK    4  A    between atoms: C11_13  and  O3_14 
REMARK    5  A    between atoms: C14_18  and  O4_19 
REMARK    6  A    between atoms: C16_21  and  O5_22 
REMARK    7  A    between atoms: C18_24  and  C19_25 
REMARK    8  A    between atoms: C19_25  and  O6_26 
REMARK    9  A    between atoms: C24_31  and  O7_32 
REMARK   10  A    between atoms: C26_35  and  C27_36 
ROOT
HETATM    1  C5  UNL     1      -0.954  -1.319   1.321  1.00  0.00     0.147 C 
HETATM    2  C6  UNL     1       0.442  -0.739   1.703  1.00  0.00     0.046 C 
HETATM    3  C7  UNL     1       1.331  -0.874   0.612  1.00  0.00     0.001 A 
HETATM    4  C8  UNL     1       1.762  -0.381  -0.485  1.00  0.00     0.011 A 
HETATM    5  O2  UNL     1       3.085  -0.009  -0.971  1.00  0.00     0.000 OA
HETATM    6  C9  UNL     1       3.562   0.708  -1.873  1.00  0.00     0.007 C 
HETATM    7  C10 UNL     1       2.689   1.564  -2.705  1.00  0.00     0.017 C 
HETATM    8  C12 UNL     1       1.427   1.164  -2.098  1.00  0.00     0.039 C 
HETATM    9  C13 UNL     1       1.480   1.386  -0.547  1.00  0.00     0.073 C 
HETATM   10  C14 UNL     1       0.074   1.646  -0.014  1.00  0.00     0.082 C 
HETATM   11  C16 UNL     1      -0.925   0.724   0.133  1.00  0.00     0.089 C 
HETATM   12  C18 UNL     1      -1.133  -0.732  -0.098  1.00  0.00     0.064 C 
HETATM   13  C21 UNL     1      -0.277  -1.588  -0.973  1.00  0.00     0.023 C 
HETATM   14  C22 UNL     1       0.045  -0.987  -2.342  1.00  0.00     0.023 C 
HETATM   15  C23 UNL     1       0.005  -2.152  -3.332  1.00  0.00     0.013 C 
HETATM   16  C24 UNL     1       1.443  -0.388  -2.312  1.00  0.00     0.077 C 
HETATM   17  C25 UNL     1       2.099  -1.045  -1.090  1.00  0.00     0.030 A 
HETATM   18  C26 UNL     1       2.043   0.101   0.109  1.00  0.00     0.071 A 
HETATM   19  C28 UNL     1       1.197  -1.667  -0.465  1.00  0.00    -0.002 A 
ENDROOT
BRANCH   1  20
HETATM   20  O1  UNL     1      -1.916  -0.869   2.209  1.00  0.00    -0.350 OA
BRANCH  20  21
HETATM   21  C3  UNL     1      -2.870  -1.729   2.736  1.00  0.00     0.039 C 
HETATM   22  C2  UNL     1      -3.757  -1.218   3.574  1.00  0.00     0.001 C 
HETATM   23  C1  UNL     1      -4.781  -2.114   4.149  1.00  0.00     0.038 C 
HETATM   24  C4  UNL     1      -2.956  -3.173   2.422  1.00  0.00     0.076 C 
ENDBRANCH  20  21
ENDBRANCH   1  20
BRANCH  12  25
HETATM   25  C19 UNL     1      -2.530  -0.953  -0.632  1.00  0.00     0.186 C 
BRANCH  25  26
HETATM   26  O6  UNL     1      -3.556  -0.421   0.060  1.00  0.00    -0.395 OA
HETATM   27  C20 UNL     1      -4.760  -0.717  -0.568  1.00  0.00     0.201 C 
ENDBRANCH  25  26
ENDBRANCH  12  25
BRANCH  11  28
HETATM   28  O5  UNL     1      -2.082   1.276   0.642  1.00  0.00    -0.357 OA
HETATM   29  C17 UNL     1      -2.663   2.511   0.413  1.00  0.00     0.209 C 
ENDBRANCH  11  28
BRANCH  18  30
HETATM   30  C27 UNL     1       2.951   0.206   1.218  1.00  0.00     0.184 C 
HETATM   31  O8  UNL     1       3.310  -0.656   2.026  1.00  0.00    -0.647 OA
HETATM   32  O9  UNL     1       3.502   1.435   1.428  1.00  0.00    -0.647 OA
ENDBRANCH  18  30
BRANCH  10  33
HETATM   33  O4  UNL     1      -0.150   2.909   0.325  1.00  0.00    -0.357 OA
HETATM   34  C15 UNL     1       0.745   3.762   0.970  1.00  0.00     0.209 C 
ENDBRANCH  10  33
BRANCH  16  35
HETATM   35  O7  UNL     1       2.048  -0.750  -3.458  1.00  0.00    -0.388 OA
ATOM     36  H7  UNL     1       2.058  -1.691  -3.588  1.00  0.00     0.210 HD
ENDBRANCH  16  35
BRANCH   7  37
HETATM   37  C11 UNL     1       2.874   3.018  -2.641  1.00  0.00     0.169 C 
BRANCH  37  38
HETATM   38  O3  UNL     1       1.931   3.604  -3.518  1.00  0.00    -0.400 OA
ATOM     39  H3  UNL     1       2.051   4.546  -3.477  1.00  0.00     0.209 HD
ENDBRANCH  37  38
ENDBRANCH   7  37
TORSDOF 10
