REMARK  9 active torsions:
REMARK  status: ('A' for Active; 'I' for Inactive)
REMARK    1  A    between atoms: C2_2  and  C3_4 
REMARK    2  A    between atoms: C4_5  and  O2_6 
REMARK    3  A    between atoms: N1_9  and  O3_11 
REMARK    4  A    between atoms: O3_11  and  C6_12 
REMARK    5  A    between atoms: C6_12  and  C7_13 
REMARK    6  A    between atoms: C7_13  and  N2_14 
REMARK    7  A    between atoms: C18_25  and  O4_26 
REMARK    8  A    between atoms: C26_36  and  C28_38 
REMARK    9  A    between atoms: C28_38  and  C29_39 
ROOT
HETATM    1  C3  UNL     1       2.069  -0.755  -0.560  1.00  0.00     0.037 C 
HETATM    2  C4  UNL     1       2.151   0.733  -0.633  1.00  0.00     0.102 C 
HETATM    3  C5  UNL     1       0.988   1.604  -0.789  1.00  0.00     0.077 C 
HETATM    4  N1  UNL     1       0.895   2.591  -1.424  1.00  0.00    -0.267 N 
ATOM      5  H1  UNL     1       1.772   2.807  -1.899  1.00  0.00     0.194 HD
HETATM    6  C12 UNL     1      -0.164   0.989   0.082  1.00  0.00     0.021 C 
HETATM    7  C13 UNL     1      -1.248   1.164  -0.845  1.00  0.00     0.026 C 
HETATM    8  C14 UNL     1      -0.383   1.998   1.195  1.00  0.00     0.026 C 
HETATM    9  C15 UNL     1       0.541  -0.214   0.443  1.00  0.00    -0.062 C 
HETATM   10  C16 UNL     1       1.176  -1.040   1.156  1.00  0.00     0.008 C 
HETATM   11  C17 UNL     1       1.689  -1.241   2.488  1.00  0.00     0.062 C 
HETATM   12  C18 UNL     1       1.104  -2.571   2.514  1.00  0.00     0.128 C 
HETATM   13  C19 UNL     1       0.343  -2.998   3.578  1.00  0.00     0.162 C 
HETATM   14  O5  UNL     1       0.732  -3.968   4.267  1.00  0.00    -0.295 OA
HETATM   15  C20 UNL     1      -0.929  -2.428   4.022  1.00  0.00     0.081 C 
HETATM   16  C21 UNL     1      -1.768  -2.326   2.760  1.00  0.00     0.008 C 
HETATM   17  C22 UNL     1      -1.004  -1.561   1.785  1.00  0.00     0.014 C 
HETATM   18  C23 UNL     1       0.242  -2.214   1.240  1.00  0.00     0.012 C 
HETATM   19  C24 UNL     1      -0.163  -3.630   0.975  1.00  0.00     0.020 C 
HETATM   20  C25 UNL     1       0.842  -1.433   0.069  1.00  0.00     0.034 A 
HETATM   21  C26 UNL     1       0.663  -2.382  -0.812  1.00  0.00    -0.010 A 
HETATM   22  C27 UNL     1      -0.468  -1.934  -1.617  1.00  0.00     0.018 C 
HETATM   23  O6  UNL     1       1.471  -2.221   0.130  1.00  0.00     0.000 OA
ENDROOT
BRANCH   2  24
HETATM   24  O2  UNL     1       3.089   1.260   0.313  1.00  0.00    -0.358 OA
ATOM     25  H2  UNL     1       3.141   2.207   0.267  1.00  0.00     0.217 HD
ENDBRANCH   2  24
BRANCH   4  26
HETATM   26  O3  UNL     1      -0.015   3.485  -1.690  1.00  0.00    -0.278 OA
BRANCH  26  27
HETATM   27  C6  UNL     1       0.045   4.446  -2.720  1.00  0.00     0.231 C 
BRANCH  27  28
HETATM   28  C7  UNL     1      -1.020   5.467  -2.508  1.00  0.00     0.301 C 
BRANCH  28  29
HETATM   29  N2  UNL     1      -2.367   4.959  -2.502  1.00  0.00     0.090 N 
HETATM   30  C8  UNL     1      -3.223   6.123  -2.212  1.00  0.00     0.272 C 
HETATM   31  C9  UNL     1      -4.580   5.777  -2.744  1.00  0.00     0.032 C 
HETATM   32  C10 UNL     1      -4.343   4.691  -3.747  1.00  0.00     0.032 C 
HETATM   33  C11 UNL     1      -2.839   4.623  -3.835  1.00  0.00     0.272 C 
ENDBRANCH  28  29
ENDBRANCH  27  28
ENDBRANCH  26  27
ENDBRANCH   4  26
BRANCH   1  34
HETATM   34  C2  UNL     1       3.424  -1.124  -0.634  1.00  0.00     0.155 C 
HETATM   35  C1  UNL     1       4.133  -0.800  -1.892  1.00  0.00     0.096 C 
HETATM   36  O1  UNL     1       4.238  -1.675   0.097  1.00  0.00    -0.293 OA
ENDBRANCH   1  34
BRANCH  21  37
HETATM   37  C28 UNL     1       1.380  -3.317  -1.653  1.00  0.00     0.128 C 
BRANCH  37  38
HETATM   38  C29 UNL     1       2.260  -4.393  -1.713  1.00  0.00     0.388 C 
HETATM   39  F1  UNL     1       3.512  -4.594  -1.308  1.00  0.00    -0.171 F 
HETATM   40  F2  UNL     1       2.396  -4.697  -3.132  1.00  0.00    -0.171 F 
HETATM   41  F3  UNL     1       1.717  -5.678  -1.340  1.00  0.00    -0.171 F 
ENDBRANCH  37  38
ENDBRANCH  21  37
BRANCH  12  42
HETATM   42  O4  UNL     1       2.070  -3.510   2.168  1.00  0.00    -0.381 OA
ATOM     43  H4  UNL     1       1.688  -4.379   2.185  1.00  0.00     0.211 HD
ENDBRANCH  12  42
TORSDOF 9
