REMARK  16 active torsions:
REMARK  status: ('A' for Active; 'I' for Inactive)
REMARK    1  A    between atoms: C2_2  and  C3_3 
REMARK    2  A    between atoms: C3_3  and  C4_4 
REMARK    3  A    between atoms: C3_3  and  N1_6 
REMARK    4  A    between atoms: N1_6  and  C5_8 
REMARK    5  A    between atoms: C5_8  and  O2_9 
REMARK    6  A    between atoms: C5_8  and  C6_11 
REMARK    7  A    between atoms: C6_11  and  C8_13 
REMARK    8  A    between atoms: C8_13  and  C9_14 
REMARK    9  A    between atoms: C9_14  and  C10_15 
REMARK   10  A    between atoms: C10_15  and  C11_16 
REMARK   11  A    between atoms: C12_17  and  C13_18 
REMARK   12  A    between atoms: C13_18  and  C14_19 
REMARK   13  A    between atoms: C18_27  and  C19_28 
REMARK   14  A    between atoms: C19_28  and  C20_29 
REMARK   15  A    between atoms: C20_29  and  C21_30 
REMARK   16  A    between atoms: C21_30  and  N3_31 
ROOT
HETATM    1  C14 UNL     1       0.478  -0.586   1.327  1.00  0.00     0.083 C 
HETATM    2  S1  UNL     1       0.140   0.361   2.882  1.00  0.00    -0.160 SA
HETATM    3  C15 UNL     1       1.505   1.570   2.746  1.00  0.00     0.101 C 
HETATM    4  C16 UNL     1       1.820   1.437   1.253  1.00  0.00     0.125 C 
HETATM    5  N2  UNL     1       3.079   2.004   0.915  1.00  0.00    -0.352 N 
ATOM      6  H2  UNL     1       3.417   2.827   1.414  1.00  0.00     0.163 HD
HETATM    7  C17 UNL     1       3.865   1.429  -0.114  1.00  0.00     0.248 C 
HETATM    8  O3  UNL     1       4.567   2.153  -0.897  1.00  0.00    -0.271 OA
HETATM    9  C18 UNL     1       3.828  -0.065  -0.235  1.00  0.00     0.277 C 
HETATM   10  N6  UNL     1       2.477  -0.499  -0.135  1.00  0.00    -0.055 N 
ATOM     11  H61 UNL     1       2.407  -1.512  -0.235  1.00  0.00     0.278 HD
ATOM     12  H62 UNL     1       1.938  -0.217  -0.954  1.00  0.00     0.278 HD
HETATM   13  C23 UNL     1       1.859  -0.060   1.059  1.00  0.00     0.224 C 
ENDROOT
BRANCH   1  14
HETATM   14  C13 UNL     1      -0.579  -0.198   0.350  1.00  0.00     0.044 C 
BRANCH  14  15
HETATM   15  C12 UNL     1      -0.500  -0.851  -0.963  1.00  0.00    -0.029 C 
HETATM   16  C11 UNL     1      -1.432  -1.606  -1.449  1.00  0.00    -0.030 C 
BRANCH  16  17
HETATM   17  C10 UNL     1      -2.685  -1.931  -0.800  1.00  0.00     0.030 C 
BRANCH  17  18
HETATM   18  C9  UNL     1      -3.903  -1.461  -1.615  1.00  0.00     0.031 C 
BRANCH  18  19
HETATM   19  C8  UNL     1      -3.899  -0.029  -1.818  1.00  0.00    -0.015 C 
BRANCH  19  20
HETATM   20  C6  UNL     1      -4.702   0.940  -1.509  1.00  0.00    -0.015 C 
HETATM   21  C7  UNL     1      -4.226   2.347  -1.970  1.00  0.00     0.052 C 
BRANCH  20  22
HETATM   22  C5  UNL     1      -5.946   0.912  -0.816  1.00  0.00     0.142 C 
BRANCH  22  23
HETATM   23  N1  UNL     1      -6.702  -0.104  -0.255  1.00  0.00    -0.357 N 
ATOM     24  H1  UNL     1      -6.381  -1.071  -0.298  1.00  0.00     0.162 HD
BRANCH  23  25
HETATM   25  C3  UNL     1      -7.992   0.235   0.412  1.00  0.00     0.167 C 
BRANCH  25  26
HETATM   26  C2  UNL     1      -9.109  -0.426  -0.266  1.00  0.00    -0.005 C 
HETATM   27  C1  UNL     1     -10.354   0.012  -0.152  1.00  0.00     0.009 C 
ENDBRANCH  25  26
BRANCH  25  28
HETATM   28  C4  UNL     1      -7.833  -0.153   1.829  1.00  0.00     0.260 C 
HETATM   29  O1  UNL     1      -6.821  -0.645   2.289  1.00  0.00    -0.304 OA
ENDBRANCH  25  28
ENDBRANCH  23  25
ENDBRANCH  22  23
BRANCH  22  30
HETATM   30  O2  UNL     1      -6.500   2.099  -0.675  1.00  0.00    -0.346 OA
ATOM     31  H2  UNL     1      -5.981   2.796  -1.060  1.00  0.00     0.219 HD
ENDBRANCH  22  30
ENDBRANCH  20  22
ENDBRANCH  19  20
ENDBRANCH  18  19
ENDBRANCH  17  18
ENDBRANCH  16  17
ENDBRANCH  14  15
ENDBRANCH   1  14
BRANCH   9  32
HETATM   32  C19 UNL     1       4.757  -0.604   0.821  1.00  0.00     0.044 C 
BRANCH  32  33
HETATM   33  C20 UNL     1       6.154  -0.082   0.566  1.00  0.00     0.022 C 
BRANCH  33  34
HETATM   34  C21 UNL     1       6.729  -0.481  -0.751  1.00  0.00     0.122 C 
BRANCH  34  35
HETATM   35  N3  UNL     1       8.072   0.112  -0.811  1.00  0.00    -0.367 N 
HETATM   36  C22 UNL     1       9.054  -0.528  -0.274  1.00  0.00     0.196 C 
HETATM   37  N4  UNL     1      10.349   0.037  -0.328  1.00  0.00    -0.067 NA
HETATM   38  N5  UNL     1       8.867  -1.798   0.376  1.00  0.00    -0.067 NA
ATOM     39  H3  UNL     1       8.224   1.011  -1.268  1.00  0.00     0.161 HD
ENDBRANCH  34  35
ENDBRANCH  33  34
ENDBRANCH  32  33
ENDBRANCH   9  32
TORSDOF 16
