REMARK  2 active torsions:
REMARK  status: ('A' for Active; 'I' for Inactive)
REMARK    1  A    between atoms: C2_2  and  C3_3 
REMARK    2  A    between atoms: C7_7  and  C8_8 
ROOT
HETATM    1  C3  UNL     1      -1.121   0.073  -0.068  1.00  0.00     0.012 C 
HETATM    2  C4  UNL     1      -1.586   1.438   0.456  1.00  0.00     0.009 C 
HETATM    3  C5  UNL     1      -0.447   1.915   1.330  1.00  0.00     0.001 C 
HETATM    4  C6  UNL     1       0.645   0.861   1.216  1.00  0.00     0.005 C 
HETATM    5  C7  UNL     1       0.353   0.308  -0.176  1.00  0.00    -0.003 C 
ENDROOT
BRANCH   5   6
HETATM    6  C8  UNL     1       1.150  -0.902  -0.503  1.00  0.00    -0.010 A 
HETATM    7  C9  UNL     1       2.634  -0.692  -0.617  1.00  0.00     0.005 A 
HETATM    8  C10 UNL     1       2.058  -1.566   0.440  1.00  0.00     0.005 A 
ENDBRANCH   5   6
BRANCH   1   9
HETATM    9  C2  UNL     1      -1.776  -0.291  -1.321  1.00  0.00    -0.032 C 
HETATM   10  C1  UNL     1      -2.405  -1.452  -1.413  1.00  0.00     0.007 C 
ENDBRANCH   1   9
TORSDOF 2
