REMARK  3 active torsions:
REMARK  status: ('A' for Active; 'I' for Inactive)
REMARK    1  A    between atoms: C2_2  and  C3_3 
REMARK    2  A    between atoms: C3_3  and  C4_4 
REMARK    3  A    between atoms: C5_5  and  C6_6 
ROOT
HETATM    1  C6  UNL     1      -1.012  -0.282   0.220  1.00  0.00     0.008 C 
HETATM    2  C7  UNL     1      -2.191   0.273  -0.576  1.00  0.00     0.008 C 
HETATM    3  C8  UNL     1      -3.340  -0.499   0.074  1.00  0.00     0.001 C 
HETATM    4  C9  UNL     1      -3.041  -0.238   1.550  1.00  0.00     0.001 C 
HETATM    5  C10 UNL     1      -1.529  -0.209   1.628  1.00  0.00     0.008 C 
ENDROOT
BRANCH   1   6
HETATM    6  C5  UNL     1       0.213   0.516   0.014  1.00  0.00    -0.026 C 
HETATM    7  C4  UNL     1       1.324  -0.085  -0.385  1.00  0.00    -0.026 C 
BRANCH   7   8
HETATM    8  C3  UNL     1       2.552   0.733  -0.589  1.00  0.00     0.053 C 
BRANCH   8   9
HETATM    9  C2  UNL     1       3.599   0.207   0.333  1.00  0.00    -0.033 C 
HETATM   10  C1  UNL     1       4.738  -0.265  -0.161  1.00  0.00     0.007 C 
ENDBRANCH   8   9
ENDBRANCH   7   8
ENDBRANCH   1   6
TORSDOF 3
