REMARK  5 active torsions:
REMARK  status: ('A' for Active; 'I' for Inactive)
REMARK    1  A    between atoms: O1_2  and  C2_3 
REMARK    2  A    between atoms: C3_6  and  N2_7 
REMARK    3  A    between atoms: N2_7  and  C4_9 
REMARK    4  A    between atoms: C4_9  and  O2_10 
REMARK    5  A    between atoms: C9_18  and  N4_19 
REMARK       I    between atoms: N4_19  and  C10_21 
REMARK       I    between atoms: C10_21  and  N5_22 
REMARK       I    between atoms: C10_21  and  N6_26 
ROOT
HETATM    1  C2  UNL     1       2.024   1.572  -0.521  1.00  0.00     0.252 A 
HETATM    2  N1  UNL     1       0.685   1.771  -0.559  1.00  0.00    -0.154 N 
ATOM      3  H1  UNL     1       0.319   2.662  -0.894  1.00  0.00     0.188 HD
HETATM    4  C3  UNL     1      -0.174   0.807  -0.160  1.00  0.00     0.698 A 
HETATM    5  N3  UNL     1       0.359  -0.342   0.269  1.00  0.00    -0.022 N 
ATOM      6  H3  UNL     1      -0.273  -1.083   0.574  1.00  0.00     0.203 HD
HETATM    7  C9  UNL     1       1.692  -0.576   0.321  1.00  0.00     0.698 A 
HETATM    8  N7  UNL     1       2.517   0.386  -0.076  1.00  0.00    -0.154 N 
ATOM      9  H7  UNL     1       3.525   0.234  -0.047  1.00  0.00     0.188 HD
ENDROOT
BRANCH   7  10
HETATM   10  N4  UNL     1       2.162  -1.697   0.741  1.00  0.00    -0.173 N 
HETATM   11  C10 UNL     1       3.579  -1.965   0.803  1.00  0.00     0.494 C 
HETATM   12  N5  UNL     1       3.703  -3.410   1.030  1.00  0.00    -0.032 N 
HETATM   13  N6  UNL     1       4.232  -1.277   1.902  1.00  0.00    -0.032 N 
ATOM     14  H53 UNL     1       3.189  -3.740   1.847  1.00  0.00     0.278 HD
ATOM     15  H52 UNL     1       3.211  -3.976   0.339  1.00  0.00     0.278 HD
ATOM     16  H51 UNL     1       4.704  -3.599   1.074  1.00  0.00     0.278 HD
ATOM     17  H63 UNL     1       4.051  -0.274   1.865  1.00  0.00     0.278 HD
ATOM     18  H62 UNL     1       3.779  -1.494   2.790  1.00  0.00     0.278 HD
ATOM     19  H61 UNL     1       5.233  -1.466   1.946  1.00  0.00     0.278 HD
ATOM     20  H4  UNL     1       1.510  -2.422   1.041  1.00  0.00     0.181 HD
ENDBRANCH   7  10
BRANCH   4  21
HETATM   21  N2  UNL     1      -1.418   1.084  -0.231  1.00  0.00    -0.193 N 
ATOM     22  H2  UNL     1      -1.649   2.013  -0.584  1.00  0.00     0.181 HD
BRANCH  21  23
HETATM   23  C4  UNL     1      -2.526   0.258   0.121  1.00  0.00     0.147 C 
HETATM   24  C5  UNL     1      -3.800   1.093   0.050  1.00  0.00     0.061 C 
HETATM   25  C6  UNL     1      -4.766   0.365  -0.821  1.00  0.00     0.005 C 
HETATM   26  C7  UNL     1      -4.278  -1.052  -0.752  1.00  0.00     0.005 C 
HETATM   27  C8  UNL     1      -2.768  -0.863  -0.865  1.00  0.00     0.061 C 
BRANCH  23  28
HETATM   28  O2  UNL     1      -2.446  -0.303   1.393  1.00  0.00    -0.370 OA
ATOM     29  H2  UNL     1      -3.184  -0.853   1.627  1.00  0.00     0.212 HD
ENDBRANCH  23  28
ENDBRANCH  21  23
ENDBRANCH   4  21
BRANCH   1  30
HETATM   30  O1  UNL     1       2.932   2.527  -0.917  1.00  0.00    -0.326 OA
HETATM   31  C1  UNL     1       2.556   3.796  -1.397  1.00  0.00     0.213 C 
ENDBRANCH   1  30
TORSDOF 5
