REMARK  3 active torsions:
REMARK  status: ('A' for Active; 'I' for Inactive)
REMARK    1  A    between atoms: C5_7  and  N2_8 
REMARK    2  A    between atoms: C7_19  and  C8_20 
REMARK    3  A    between atoms: C9_25  and  N9_26 
ROOT
HETATM    1  C1  UNL     1       1.826  -2.292  -0.929  1.00  0.00     0.070 C 
HETATM    2  C2  UNL     1       0.653  -1.428  -0.622  1.00  0.00     0.036 A 
HETATM    3  N1  UNL     1      -0.603  -1.977  -0.837  1.00  0.00    -0.358 N 
ATOM      4  H1  UNL     1      -0.677  -2.932  -1.189  1.00  0.00     0.165 HD
HETATM    5  C3  UNL     1      -1.714  -1.284  -0.594  1.00  0.00     0.052 A 
HETATM    6  C4  UNL     1      -3.081  -1.820  -0.806  1.00  0.00     0.072 C 
HETATM    7  C5  UNL     1      -1.554   0.001  -0.120  1.00  0.00     0.156 A 
HETATM    8  N6  UNL     1      -0.353   0.546   0.093  1.00  0.00    -0.335 N 
ATOM      9  H6  UNL     1      -0.288   1.501   0.445  1.00  0.00     0.168 HD
HETATM   10  C7  UNL     1       0.802  -0.170  -0.158  1.00  0.00     0.102 A 
ENDROOT
BRANCH  10  11
HETATM   11  C8  UNL     1       2.081   0.474   0.092  1.00  0.00     0.165 A 
HETATM   12  N7  UNL     1       2.088   1.774   0.568  1.00  0.00    -0.269 N 
HETATM   13  N8  UNL     1       3.310   2.154   0.720  1.00  0.00    -0.131 N 
ATOM     14  H7  UNL     1       1.262   2.338   0.766  1.00  0.00     0.189 HD
HETATM   15  C9  UNL     1       4.113   1.166   0.367  1.00  0.00     0.692 A 
ATOM     16  H8  UNL     1       3.609   3.069   1.058  1.00  0.00     0.205 HD
HETATM   17  N10 UNL     1       3.345   0.131  -0.019  1.00  0.00    -0.172 N 
ATOM     18  H10 UNL     1       3.688  -0.773  -0.345  1.00  0.00     0.186 HD
BRANCH  15  19
HETATM   19  N9  UNL     1       5.403   1.205   0.396  1.00  0.00    -0.233 N 
ATOM     20  H92 UNL     1       5.985   1.990   0.689  1.00  0.00     0.174 HD
ATOM     21  H91 UNL     1       6.023   0.442   0.123  1.00  0.00     0.174 HD
ENDBRANCH  15  19
ENDBRANCH  10  11
BRANCH   7  22
HETATM   22  N2  UNL     1      -2.748   0.752   0.143  1.00  0.00    -0.170 N 
HETATM   23  N3  UNL     1      -3.759   0.961  -0.688  1.00  0.00    -0.215 N 
HETATM   24  N4  UNL     1      -4.655   1.697  -0.064  1.00  0.00    -0.224 N 
ATOM     25  H3  UNL     1      -3.831   0.613  -1.644  1.00  0.00     0.210 HD
HETATM   26  N5  UNL     1      -4.251   1.978   1.173  1.00  0.00    -0.234 N 
ATOM     27  H4  UNL     1      -5.536   2.009  -0.472  1.00  0.00     0.210 HD
HETATM   28  C6  UNL     1      -3.047   1.384   1.309  1.00  0.00     0.364 A 
ATOM     29  H5  UNL     1      -4.749   2.528   1.873  1.00  0.00     0.193 HD
HETATM   30  O1  UNL     1      -2.339   1.422   2.347  1.00  0.00    -0.243 OA
ENDBRANCH   7  22
TORSDOF 3
