REMARK  14 active torsions:
REMARK  status: ('A' for Active; 'I' for Inactive)
REMARK    1  A    between atoms: C1_1  and  C2_2 
REMARK    2  A    between atoms: C1_1  and  C13_13 
REMARK    3  A    between atoms: C2_2  and  C3_3 
REMARK    4  A    between atoms: C3_3  and  C4_4 
REMARK    5  A    between atoms: C4_4  and  C5_5 
REMARK    6  A    between atoms: C5_5  and  C6_6 
REMARK    7  A    between atoms: C6_6  and  C7_7 
REMARK    8  A    between atoms: C13_13  and  C14_14 
REMARK    9  A    between atoms: C14_14  and  C15_15 
REMARK   10  A    between atoms: C15_15  and  C16_16 
REMARK   11  A    between atoms: C16_16  and  N1_17 
REMARK   12  A    between atoms: N1_17  and  C17_20 
REMARK   13  A    between atoms: C17_20  and  C18_21 
REMARK   14  A    between atoms: C18_21  and  C19_22 
ROOT
HETATM    1  C1  UNL     1       0.101  -0.156   1.214  1.00  0.00     0.000 C 
ENDROOT
BRANCH   1   2
HETATM    2  C2  UNL     1      -1.114  -1.061   1.268  1.00  0.00     0.000 C 
BRANCH   2   3
HETATM    3  C3  UNL     1      -1.582  -1.426  -0.129  1.00  0.00     0.000 C 
BRANCH   3   4
HETATM    4  C4  UNL     1      -2.002  -0.298  -0.979  1.00  0.00     0.000 C 
BRANCH   4   5
HETATM    5  C5  UNL     1      -3.243   0.448  -0.545  1.00  0.00     0.000 C 
BRANCH   5   6
HETATM    6  C6  UNL     1      -4.449  -0.443  -0.568  1.00  0.00     0.004 C 
BRANCH   6   7
HETATM    7  C7  UNL     1      -5.745   0.154  -0.196  1.00  0.00    -0.014 C 
HETATM    8  C8  UNL     1      -5.890   0.718   1.171  1.00  0.00     0.004 C 
HETATM    9  C9  UNL     1      -7.237   1.401   1.285  1.00  0.00     0.000 C 
HETATM   10  C10 UNL     1      -8.240   0.986   0.275  1.00  0.00     0.000 C 
HETATM   11  C11 UNL     1      -8.181  -0.485  -0.081  1.00  0.00     0.000 C 
HETATM   12  C12 UNL     1      -6.796  -0.966  -0.343  1.00  0.00     0.004 C 
ENDBRANCH   6   7
ENDBRANCH   5   6
ENDBRANCH   4   5
ENDBRANCH   3   4
ENDBRANCH   2   3
ENDBRANCH   1   2
BRANCH   1  13
HETATM   13  C13 UNL     1       1.285  -0.815   0.514  1.00  0.00     0.000 C 
BRANCH  13  14
HETATM   14  C14 UNL     1       2.455   0.139   0.431  1.00  0.00     0.002 C 
BRANCH  14  15
HETATM   15  C15 UNL     1       3.595  -0.576  -0.303  1.00  0.00     0.027 C 
BRANCH  15  16
HETATM   16  C16 UNL     1       4.749   0.420  -0.476  1.00  0.00     0.232 C 
BRANCH  16  17
HETATM   17  N1  UNL     1       5.892  -0.171  -1.149  1.00  0.00    -0.075 N 
ATOM     18  H12 UNL     1       5.606  -0.644  -2.006  1.00  0.00     0.277 HD
ATOM     19  H11 UNL     1       6.492   0.550  -1.549  1.00  0.00     0.277 HD
BRANCH  17  20
HETATM   20  C17 UNL     1       6.638  -1.046  -0.311  1.00  0.00     0.232 C 
BRANCH  20  21
HETATM   21  C18 UNL     1       7.968  -0.576   0.158  1.00  0.00     0.032 C 
BRANCH  21  22
HETATM   22  C19 UNL     1       7.995   0.755   0.800  1.00  0.00    -0.013 A 
HETATM   23  C20 UNL     1       7.638   1.967  -0.011  1.00  0.00     0.005 A 
HETATM   24  C21 UNL     1       9.039   1.805   0.504  1.00  0.00     0.005 A 
ENDBRANCH  21  22
ENDBRANCH  20  21
ENDBRANCH  17  20
ENDBRANCH  16  17
ENDBRANCH  15  16
ENDBRANCH  14  15
ENDBRANCH  13  14
ENDBRANCH   1  13
TORSDOF 14
