REMARK  11 active torsions:
REMARK  status: ('A' for Active; 'I' for Inactive)
REMARK       I    between atoms: C1_2  and  N1_3 
REMARK    1  A    between atoms: C1_2  and  C18_33 
REMARK    2  A    between atoms: N1_3  and  C2_5 
REMARK    3  A    between atoms: C4_8  and  O3_9 
REMARK    4  A    between atoms: O3_9  and  C5_10 
REMARK    5  A    between atoms: C6_12  and  C7_13 
REMARK    6  A    between atoms: C7_13  and  O5_14 
REMARK    7  A    between atoms: C8_16  and  O6_17 
REMARK    8  A    between atoms: C9_19  and  O7_20 
REMARK    9  A    between atoms: C10_22  and  O8_23 
REMARK   10  A    between atoms: C11_25  and  O9_26 
REMARK   11  A    between atoms: O9_26  and  C12_27 
ROOT
HETATM    1  C2  UNL     1      -2.279   0.536   0.237  1.00  0.00     0.142 C 
HETATM    2  C3  UNL     1      -2.435   0.336   1.756  1.00  0.00     0.199 C 
HETATM    3  O2  UNL     1      -1.445   1.075   2.346  1.00  0.00    -0.356 OA
HETATM    4  C4  UNL     1      -0.338   0.865   1.483  1.00  0.00     0.293 C 
HETATM    5  C11 UNL     1      -0.967   1.236   0.167  1.00  0.00     0.202 C 
ENDROOT
BRANCH   4   6
HETATM    6  O3  UNL     1      -0.023  -0.460   1.589  1.00  0.00    -0.326 OA
BRANCH   6   7
HETATM    7  C5  UNL     1       1.266  -0.539   2.156  1.00  0.00     0.294 C 
HETATM    8  O4  UNL     1       1.253  -1.282   3.327  1.00  0.00    -0.348 OA
HETATM    9  C6  UNL     1       2.489  -1.113   3.936  1.00  0.00     0.179 C 
HETATM   10  C8  UNL     1       3.632  -1.723   3.159  1.00  0.00     0.180 C 
HETATM   11  C9  UNL     1       3.089  -2.211   1.833  1.00  0.00     0.183 C 
HETATM   12  C10 UNL     1       2.239  -1.153   1.170  1.00  0.00     0.204 C 
BRANCH   9  13
HETATM   13  C7  UNL     1       2.476  -1.622   5.369  1.00  0.00     0.198 C 
BRANCH  13  14
HETATM   14  O5  UNL     1       1.531  -0.939   6.133  1.00  0.00    -0.398 OA
ATOM     15  H5  UNL     1       1.523  -1.257   7.028  1.00  0.00     0.209 HD
ENDBRANCH  13  14
ENDBRANCH   9  13
BRANCH  10  16
HETATM   16  O6  UNL     1       4.644  -0.793   2.921  1.00  0.00    -0.390 OA
ATOM     17  H6  UNL     1       5.363  -1.177   2.432  1.00  0.00     0.210 HD
ENDBRANCH  10  16
BRANCH  11  18
HETATM   18  O7  UNL     1       4.175  -2.491   0.998  1.00  0.00    -0.390 OA
ATOM     19  H7  UNL     1       3.834  -2.797   0.166  1.00  0.00     0.210 HD
ENDBRANCH  11  18
BRANCH  12  20
HETATM   20  O8  UNL     1       3.153  -0.187   0.681  1.00  0.00    -0.388 OA
ATOM     21  H8  UNL     1       3.763  -0.572   0.063  1.00  0.00     0.210 HD
ENDBRANCH  12  20
ENDBRANCH   6   7
ENDBRANCH   4   6
BRANCH   5  22
HETATM   22  O9  UNL     1      -0.995   2.567  -0.129  1.00  0.00    -0.373 OA
BRANCH  22  23
HETATM   23  C12 UNL     1      -0.241   2.920  -1.232  1.00  0.00     0.122 C 
HETATM   24  C13 UNL     1       0.863   3.921  -0.903  1.00  0.00     0.032 C 
HETATM   25  C14 UNL     1       1.831   3.915  -2.065  1.00  0.00     0.002 C 
HETATM   26  C15 UNL     1       1.067   3.972  -3.344  1.00  0.00     0.000 C 
HETATM   27  C16 UNL     1      -0.343   4.483  -3.181  1.00  0.00     0.002 C 
HETATM   28  C17 UNL     1      -1.138   3.635  -2.234  1.00  0.00     0.032 C 
ENDBRANCH  22  23
ENDBRANCH   5  22
BRANCH   1  29
HETATM   29  N1  UNL     1      -2.294  -0.781  -0.362  1.00  0.00    -0.350 N 
HETATM   30  C1  UNL     1      -3.349  -1.304  -1.112  1.00  0.00     0.249 C 
HETATM   31  O1  UNL     1      -4.375  -0.615  -1.301  1.00  0.00    -0.271 OA
ATOM     32  H1  UNL     1      -1.473  -1.371  -0.226  1.00  0.00     0.163 HD
BRANCH  30  33
HETATM   33  C18 UNL     1      -3.266  -2.665  -1.684  1.00  0.00     0.277 C 
HETATM   34  C19 UNL     1      -2.097  -2.856  -2.589  1.00  0.00     0.044 C 
HETATM   35  C20 UNL     1      -2.688  -3.184  -3.922  1.00  0.00     0.030 C 
HETATM   36  C21 UNL     1      -4.042  -3.759  -3.572  1.00  0.00     0.233 C 
HETATM   37  N2  UNL     1      -4.471  -3.031  -2.393  1.00  0.00    -0.062 N 
ATOM     38  H22 UNL     1      -5.139  -3.546  -1.819  1.00  0.00     0.278 HD
ATOM     39  H21 UNL     1      -5.074  -2.236  -2.604  1.00  0.00     0.278 HD
ENDBRANCH  30  33
ENDBRANCH   1  29
TORSDOF 11
