REMARK  4 active torsions:
REMARK  status: ('A' for Active; 'I' for Inactive)
REMARK    1  A    between atoms: C2_2  and  C5_6 
REMARK    2  A    between atoms: C5_6  and  N2_7 
REMARK    3  A    between atoms: N2_7  and  C6_10 
REMARK    4  A    between atoms: C6_10  and  C7_11 
ROOT
HETATM    1  C1  UNL     1      -3.435  -0.969   0.561  1.00  0.00     0.033 C 
HETATM    2  C2  UNL     1      -2.535   0.143   0.023  1.00  0.00     0.065 C 
HETATM    3  C3  UNL     1      -2.533   1.266   0.998  1.00  0.00     0.033 C 
HETATM    4  C4  UNL     1      -3.158   0.584  -1.260  1.00  0.00     0.070 C 
HETATM    5  N1  UNL     1      -3.639   0.910  -2.274  1.00  0.00    -0.196 NA
ENDROOT
BRANCH   2   6
HETATM    6  C5  UNL     1      -1.190  -0.441  -0.318  1.00  0.00     0.255 C 
BRANCH   6   7
HETATM    7  N2  UNL     1      -0.253   0.487  -0.824  1.00  0.00    -0.073 N 
ATOM      8  H22 UNL     1      -0.697   1.104  -1.504  1.00  0.00     0.277 HD
ATOM      9  H21 UNL     1      -0.004   1.167  -0.105  1.00  0.00     0.277 HD
BRANCH   7  10
HETATM   10  C6  UNL     1       0.920  -0.097  -1.379  1.00  0.00     0.239 C 
BRANCH  10  11
HETATM   11  C7  UNL     1       1.863  -0.784  -0.461  1.00  0.00     0.037 C 
HETATM   12  C8  UNL     1       2.436   0.079   0.637  1.00  0.00     0.034 C 
HETATM   13  C9  UNL     1       3.325   0.995  -0.178  1.00  0.00     0.168 C 
HETATM   14  O1  UNL     1       3.551   0.368  -1.383  1.00  0.00    -0.391 OA
HETATM   15  C10 UNL     1       3.170  -0.962  -1.278  1.00  0.00     0.173 C 
ENDBRANCH  10  11
ENDBRANCH   7  10
ENDBRANCH   6   7
ENDBRANCH   2   6
TORSDOF 4
