REMARK  0 active torsions:
REMARK  status: ('A' for Active; 'I' for Inactive)
ROOT
HETATM    1  C1  UNL     1       0.428  -0.706  -0.227  1.00  0.00     0.028 C 
HETATM    2  C2  UNL     1      -0.984  -0.379  -0.231  1.00  0.00     0.123 C 
HETATM    3  N1  UNL     1      -1.255   1.001  -0.278  1.00  0.00    -0.179 NA
HETATM    4  S1  UNL     1       0.317   1.838  -0.284  1.00  0.00    -0.066 SA
HETATM    5  C3  UNL     1       1.260   0.388   0.331  1.00  0.00     0.094 C 
ENDROOT
TORSDOF 0
