REMARK  8 active torsions:
REMARK  status: ('A' for Active; 'I' for Inactive)
REMARK    1  A    between atoms: C2_2  and  N1_3 
REMARK    2  A    between atoms: N1_3  and  C3_6 
REMARK    3  A    between atoms: C3_6  and  C4_7 
REMARK    4  A    between atoms: C4_7  and  O1_8 
REMARK    5  A    between atoms: C4_7  and  C6_10 
REMARK    6  A    between atoms: C7_11  and  N2_12 
REMARK    7  A    between atoms: N2_12  and  C8_14 
REMARK    8  A    between atoms: N5_20  and  C11_21 
ROOT
HETATM    1  C8  UNL     1       1.889   4.177  -0.418  1.00  0.00     0.244 C 
HETATM    2  C9  UNL     1       1.064   5.035   0.406  1.00  0.00     0.078 C 
HETATM    3  N3  UNL     1       0.405   5.727   1.048  1.00  0.00    -0.196 NA
ENDROOT
BRANCH   1   4
HETATM    4  N2  UNL     1       1.725   2.781  -0.079  1.00  0.00    -0.375 N 
ATOM      5  H2  UNL     1       2.527   2.258   0.273  1.00  0.00     0.160 HD
BRANCH   4   6
HETATM    6  C7  UNL     1       0.495   2.128  -0.221  1.00  0.00     0.073 A 
HETATM    7  C6  UNL     1       0.275   0.760  -0.008  1.00  0.00     0.087 A 
HETATM    8  N5  UNL     1      -0.993   0.555  -0.249  1.00  0.00    -0.287 N 
HETATM    9  N4  UNL     1      -1.600   1.700  -0.609  1.00  0.00    -0.307 N 
HETATM   10  C10 UNL     1      -0.696   2.691  -0.598  1.00  0.00     0.138 A 
ATOM     11  H4  UNL     1      -2.586   1.799  -0.851  1.00  0.00     0.186 HD
BRANCH   7  12
HETATM   12  C4  UNL     1       1.309  -0.153   0.521  1.00  0.00     0.200 C 
BRANCH  12  13
HETATM   13  C3  UNL     1       1.402  -1.480  -0.160  1.00  0.00     0.270 C 
BRANCH  13  14
HETATM   14  N1  UNL     1       2.080  -1.300  -1.475  1.00  0.00    -0.073 N 
ATOM     15  H12 UNL     1       1.664  -0.565  -2.047  1.00  0.00     0.277 HD
ATOM     16  H11 UNL     1       1.918  -2.071  -2.123  1.00  0.00     0.277 HD
BRANCH  14  17
HETATM   17  C2  UNL     1       3.513  -1.074  -1.179  1.00  0.00     0.228 C 
HETATM   18  C1  UNL     1       4.109  -2.375  -0.625  1.00  0.00     0.034 C 
ENDBRANCH  14  17
ENDBRANCH  13  14
ENDBRANCH  12  13
BRANCH  12  19
HETATM   19  O1  UNL     1       0.766  -0.536   1.840  1.00  0.00    -0.383 OA
HETATM   20  C5  UNL     1       1.686  -0.247   2.813  1.00  0.00     0.202 C 
ENDBRANCH  12  19
ENDBRANCH   7  12
BRANCH   8  21
HETATM   21  C11 UNL     1      -1.800  -0.636  -0.076  1.00  0.00     0.108 C 
HETATM   22  C12 UNL     1      -2.448  -0.941  -1.403  1.00  0.00     0.027 C 
HETATM   23  C13 UNL     1      -3.535  -1.990  -1.250  1.00  0.00     0.002 C 
HETATM   24  C14 UNL     1      -4.625  -1.405  -0.367  1.00  0.00     0.000 C 
HETATM   25  C15 UNL     1      -3.994  -1.190   0.988  1.00  0.00     0.002 C 
HETATM   26  C16 UNL     1      -2.898  -0.164   0.941  1.00  0.00     0.027 C 
ENDBRANCH   8  21
ENDBRANCH   4   6
ENDBRANCH   1   4
TORSDOF 8
