REMARK  11 active torsions:
REMARK  status: ('A' for Active; 'I' for Inactive)
REMARK    1  A    between atoms: C2_2  and  C3_4 
REMARK    2  A    between atoms: C3_4  and  O2_5 
REMARK    3  A    between atoms: C7_10  and  C8_11 
REMARK    4  A    between atoms: C8_11  and  C9_12 
REMARK    5  A    between atoms: C15_19  and  C16_20 
REMARK    6  A    between atoms: C16_20  and  C17_21 
REMARK    7  A    between atoms: C16_20  and  C25_34 
REMARK       I    between atoms: C17_21  and  N1_23 
REMARK    8  A    between atoms: C18_25  and  C19_26 
REMARK    9  A    between atoms: C19_26  and  C20_27 
REMARK   10  A    between atoms: C20_27  and  N2_28 
REMARK       I    between atoms: C25_34  and  N3_36 
REMARK   11  A    between atoms: N3_36  and  C26_38 
ROOT
HETATM    1  C3  UNL     1      -4.768  -0.335  -0.656  1.00  0.00     0.126 C 
HETATM    2  C4  UNL     1      -5.277  -1.418   0.210  1.00  0.00     0.047 C 
HETATM    3  C5  UNL     1      -4.359  -2.528   0.526  1.00  0.00     0.004 C 
HETATM    4  C6  UNL     1      -2.902  -2.306   0.406  1.00  0.00     0.018 C 
HETATM    5  C7  UNL     1      -2.454  -0.873   0.249  1.00  0.00     0.032 C 
HETATM    6  C14 UNL     1      -1.084  -0.887  -0.303  1.00  0.00     0.141 C 
HETATM    7  O3  UNL     1      -0.447  -1.927  -0.267  1.00  0.00    -0.297 OA
HETATM    8  C15 UNL     1      -0.450   0.289  -0.897  1.00  0.00     0.078 C 
HETATM    9  C29 UNL     1      -1.424   1.298  -1.440  1.00  0.00     0.014 C 
HETATM   10  C30 UNL     1      -2.856   0.991  -1.366  1.00  0.00     0.014 C 
HETATM   11  C31 UNL     1      -3.292  -0.361  -0.949  1.00  0.00     0.009 C 
HETATM   12  C32 UNL     1      -3.055  -1.343  -2.064  1.00  0.00     0.020 C 
ENDROOT
BRANCH   8  13
HETATM   13  C16 UNL     1       0.584  -0.056  -1.982  1.00  0.00     0.181 C 
BRANCH  13  14
HETATM   14  C17 UNL     1       1.688  -0.898  -1.487  1.00  0.00     0.235 C 
HETATM   15  O4  UNL     1       1.848  -2.075  -1.869  1.00  0.00    -0.272 OA
HETATM   16  N1  UNL     1       2.621  -0.368  -0.538  1.00  0.00    -0.340 N 
HETATM   17  C18 UNL     1       3.802   0.001  -0.934  1.00  0.00     0.065 C 
ATOM     18  H1  UNL     1       2.359  -0.281   0.444  1.00  0.00     0.167 HD
BRANCH  17  19
HETATM   19  C19 UNL     1       4.863   0.560  -0.089  1.00  0.00     0.074 C 
BRANCH  19  20
HETATM   20  C20 UNL     1       4.499   0.771   1.337  1.00  0.00     0.277 C 
BRANCH  20  21
HETATM   21  N2  UNL     1       4.114  -0.414   2.029  1.00  0.00     0.092 N 
HETATM   22  C21 UNL     1       3.758  -0.080   3.408  1.00  0.00     0.298 C 
HETATM   23  C22 UNL     1       4.974   0.435   4.161  1.00  0.00     0.198 C 
HETATM   24  O5  UNL     1       6.140  -0.185   3.728  1.00  0.00    -0.388 OA
HETATM   25  C23 UNL     1       5.842  -1.501   3.379  1.00  0.00     0.198 C 
HETATM   26  C24 UNL     1       5.074  -1.471   2.057  1.00  0.00     0.298 C 
ENDBRANCH  20  21
ENDBRANCH  19  20
ENDBRANCH  17  19
ENDBRANCH  13  14
BRANCH  13  27
HETATM   27  C25 UNL     1       1.164   1.209  -2.565  1.00  0.00     0.232 C 
HETATM   28  O6  UNL     1       0.977   2.290  -1.980  1.00  0.00    -0.273 OA
HETATM   29  N3  UNL     1       1.913   1.194  -3.751  1.00  0.00    -0.356 N 
ATOM     30  H3  UNL     1       2.059   0.302  -4.223  1.00  0.00     0.162 HD
BRANCH  29  31
HETATM   31  C26 UNL     1       2.487   2.384  -4.334  1.00  0.00     0.076 C 
HETATM   32  C27 UNL     1       1.819   2.596  -5.676  1.00  0.00     0.032 C 
HETATM   33  C28 UNL     1       3.988   2.252  -4.496  1.00  0.00     0.032 C 
ENDBRANCH  29  31
ENDBRANCH  13  27
ENDBRANCH   8  13
BRANCH   5  34
HETATM   34  C8  UNL     1      -2.581  -0.040   1.430  1.00  0.00     0.022 C 
BRANCH  34  35
HETATM   35  C9  UNL     1      -1.927  -0.337   2.705  1.00  0.00    -0.013 C 
HETATM   36  C10 UNL     1      -0.438  -0.404   2.759  1.00  0.00     0.005 C 
HETATM   37  C11 UNL     1      -0.065  -0.129   4.221  1.00  0.00     0.000 C 
HETATM   38  C12 UNL     1      -1.246   0.563   4.836  1.00  0.00     0.000 C 
HETATM   39  C13 UNL     1      -2.174   0.832   3.692  1.00  0.00     0.005 C 
ENDBRANCH  34  35
ENDBRANCH   5  34
BRANCH   1  40
HETATM   40  C2  UNL     1      -5.544  -0.222  -1.915  1.00  0.00     0.158 C 
HETATM   41  C1  UNL     1      -5.993  -1.305  -2.793  1.00  0.00     0.094 C 
HETATM   42  O1  UNL     1      -5.861   0.931  -2.274  1.00  0.00    -0.295 OA
ENDBRANCH   1  40
BRANCH   1  43
HETATM   43  O2  UNL     1      -5.066   0.910   0.009  1.00  0.00    -0.381 OA
ATOM     44  H2  UNL     1      -4.569   0.838   0.815  1.00  0.00     0.211 HD
ENDBRANCH   1  43
TORSDOF 11
