REMARK  4 active torsions:
REMARK  status: ('A' for Active; 'I' for Inactive)
REMARK    1  A    between atoms: C2_2  and  N1_3 
REMARK    2  A    between atoms: C2_2  and  N2_7 
REMARK    3  A    between atoms: N2_7  and  N3_9 
REMARK    4  A    between atoms: C3_11  and  C4_12 
ROOT
HETATM    1  N3  UNL     1       0.167   0.134   0.512  1.00  0.00    -0.311 N 
ATOM      2  H3  UNL     1       0.259  -0.845   0.782  1.00  0.00     0.185 HD
HETATM    3  C3  UNL     1       1.182   0.679  -0.014  1.00  0.00     0.156 C 
ENDROOT
BRANCH   1   4
HETATM    4  N2  UNL     1      -1.050   0.734   0.755  1.00  0.00    -0.307 N 
ATOM      5  H2  UNL     1      -1.077   1.469   1.462  1.00  0.00     0.182 HD
BRANCH   4   6
HETATM    6  C2  UNL     1      -2.279   0.410   0.097  1.00  0.00     0.292 C 
HETATM    7  C1  UNL     1      -3.418   1.258   0.604  1.00  0.00     0.064 C 
BRANCH   6   8
HETATM    8  N1  UNL     1      -2.598  -1.006   0.136  1.00  0.00    -0.058 N 
ATOM      9  H13 UNL     1      -2.888  -1.295   1.070  1.00  0.00     0.276 HD
ATOM     10  H12 UNL     1      -3.462  -1.205  -0.369  1.00  0.00     0.276 HD
ATOM     11  H11 UNL     1      -1.827  -1.580  -0.207  1.00  0.00     0.276 HD
ENDBRANCH   6   8
ENDBRANCH   4   6
ENDBRANCH   1   4
BRANCH   3  12
HETATM   12  C4  UNL     1       2.393  -0.153  -0.183  1.00  0.00     0.138 A 
HETATM   13  N4  UNL     1       3.568   0.231  -0.716  1.00  0.00    -0.335 N 
HETATM   14  C5  UNL     1       4.412  -0.811  -0.689  1.00  0.00     0.199 A 
ATOM     15  H4  UNL     1       3.781   1.160  -1.080  1.00  0.00     0.168 HD
HETATM   16  N5  UNL     1       3.763  -1.850  -0.138  1.00  0.00    -0.295 N 
HETATM   17  N6  UNL     1       2.548  -1.440   0.162  1.00  0.00    -0.283 N 
ATOM     18  H5  UNL     1       4.141  -2.784   0.019  1.00  0.00     0.187 HD
ATOM     19  H6  UNL     1       1.828  -2.018   0.595  1.00  0.00     0.188 HD
ENDBRANCH   3  12
TORSDOF 4
