REMARK  10 active torsions:
REMARK  status: ('A' for Active; 'I' for Inactive)
REMARK    1  A    between atoms: N1_2  and  C2_4 
REMARK    2  A    between atoms: C3_7  and  C4_8 
REMARK    3  A    between atoms: C4_8  and  C5_10 
REMARK    4  A    between atoms: C5_10  and  N3_11 
REMARK    5  A    between atoms: C6_12  and  N4_13 
REMARK    6  A    between atoms: C8_23  and  O2_24 
REMARK    7  A    between atoms: O2_24  and  N8_25 
REMARK    8  A    between atoms: N8_25  and  C9_27 
REMARK    9  A    between atoms: C10_30  and  O3_31 
REMARK   10  A    between atoms: C14_43  and  O4_44 
ROOT
HETATM    1  N3  UNL     1      -0.739  -1.830  -0.686  1.00  0.00    -0.157 N 
HETATM    2  C6  UNL     1      -1.227  -2.669   0.260  1.00  0.00     0.681 A 
HETATM    3  N5  UNL     1      -0.821  -2.193   1.442  1.00  0.00    -0.172 N 
ATOM      4  H5  UNL     1      -1.037  -2.618   2.344  1.00  0.00     0.186 HD
HETATM    5  C7  UNL     1      -0.094  -1.085   1.280  1.00  0.00     0.181 A 
HETATM    6  N6  UNL     1       0.537  -0.235   2.145  1.00  0.00    -0.279 N 
ATOM      7  H6  UNL     1       0.510  -0.388   3.153  1.00  0.00     0.189 HD
HETATM    8  N7  UNL     1       1.183   0.793   1.624  1.00  0.00    -0.262 N 
ATOM      9  H7  UNL     1       1.659   1.436   2.257  1.00  0.00     0.190 HD
HETATM   10  C8  UNL     1       1.245   1.036   0.302  1.00  0.00     0.264 A 
HETATM   11  N12 UNL     1       0.640   0.227  -0.584  1.00  0.00    -0.302 N 
ATOM     12  H12 UNL     1       0.683   0.402  -1.588  1.00  0.00     0.171 HD
HETATM   13  C12 UNL     1      -0.036  -0.844  -0.067  1.00  0.00     0.173 A 
ENDROOT
BRANCH   1  14
HETATM   14  C5  UNL     1      -0.882  -1.946  -2.113  1.00  0.00     0.235 C 
BRANCH  14  15
HETATM   15  C4  UNL     1      -2.048  -1.298  -2.726  1.00  0.00     0.195 C 
HETATM   16  O1  UNL     1      -2.204  -1.392  -4.010  1.00  0.00    -0.289 OA
BRANCH  15  17
HETATM   17  C3  UNL     1      -3.086  -0.537  -2.047  1.00  0.00     0.100 A 
HETATM   18  N2  UNL     1      -3.129  -0.312  -0.740  1.00  0.00    -0.188 N 
HETATM   19  C2  UNL     1      -4.045   0.373  -0.057  1.00  0.00     0.680 A 
ATOM     20  H2  UNL     1      -2.368  -0.712  -0.191  1.00  0.00     0.184 HD
HETATM   21  N13 UNL     1      -5.060   0.911  -0.767  1.00  0.00    -0.171 N 
HETATM   22  C14 UNL     1      -5.091   0.728  -2.107  1.00  0.00     0.157 A 
ATOM     23  H13 UNL     1      -5.792   1.447  -0.300  1.00  0.00     0.186 HD
HETATM   24  C13 UNL     1      -4.137   0.020  -2.789  1.00  0.00     0.090 A 
BRANCH  19  25
HETATM   25  N1  UNL     1      -3.970   0.518   1.221  1.00  0.00    -0.230 N 
HETATM   26  C1  UNL     1      -4.920   1.239   2.004  1.00  0.00     0.165 C 
ATOM     27  H1  UNL     1      -3.180   0.090   1.704  1.00  0.00     0.177 HD
ENDBRANCH  19  25
BRANCH  22  28
HETATM   28  O4  UNL     1      -6.125   1.269  -2.882  1.00  0.00    -0.346 OA
ATOM     29  H4  UNL     1      -6.787   1.760  -2.409  1.00  0.00     0.219 HD
ENDBRANCH  22  28
ENDBRANCH  15  17
ENDBRANCH  14  15
ENDBRANCH   1  14
BRANCH   2  30
HETATM   30  N4  UNL     1      -1.944  -3.721   0.030  1.00  0.00    -0.234 N 
ATOM     31  H42 UNL     1      -2.254  -4.084  -0.872  1.00  0.00     0.174 HD
ATOM     32  H41 UNL     1      -2.311  -4.352   0.742  1.00  0.00     0.174 HD
ENDBRANCH   2  30
BRANCH  10  33
HETATM   33  O2  UNL     1       1.967   2.164  -0.098  1.00  0.00    -0.184 OA
BRANCH  33  34
HETATM   34  N8  UNL     1       3.273   2.124  -0.488  1.00  0.00    -0.088 N 
ATOM     35  H8  UNL     1       3.531   2.615  -1.344  1.00  0.00     0.214 HD
BRANCH  34  36
HETATM   36  C9  UNL     1       4.297   1.442   0.223  1.00  0.00     0.699 C 
HETATM   37  N9  UNL     1       4.474   1.630   1.490  1.00  0.00    -0.173 N 
HETATM   38  C10 UNL     1       5.498   0.965   2.267  1.00  0.00     0.442 C 
ATOM     39  H9  UNL     1       3.856   2.285   1.970  1.00  0.00     0.182 HD
HETATM   40  N10 UNL     1       6.611   0.550   1.426  1.00  0.00    -0.014 N 
HETATM   41  C11 UNL     1       6.080  -0.279   0.367  1.00  0.00     0.376 C 
ATOM     42 2H10 UNL     1       7.158   1.337   1.076  1.00  0.00     0.284 HD
ATOM     43 1H10 UNL     1       7.355   0.092   1.952  1.00  0.00     0.284 HD
HETATM   44  N11 UNL     1       5.180   0.519  -0.421  1.00  0.00    -0.200 N 
ATOM     45  H11 UNL     1       5.171   0.427  -1.437  1.00  0.00     0.179 HD
BRANCH  38  46
HETATM   46  O3  UNL     1       6.012   1.916   3.159  1.00  0.00    -0.354 OA
ATOM     47  H3  UNL     1       6.684   1.479   3.669  1.00  0.00     0.214 HD
ENDBRANCH  38  46
ENDBRANCH  34  36
ENDBRANCH  33  34
ENDBRANCH  10  33
TORSDOF 10
