REMARK  2 active torsions:
REMARK  status: ('A' for Active; 'I' for Inactive)
REMARK    1  A    between atoms: C3_3  and  N1_4 
REMARK    2  A    between atoms: C3_3  and  N2_8 
ROOT
HETATM    1  C1  UNL     1       3.037  -1.178   0.473  1.00  0.00     0.016 C 
HETATM    2  C2  UNL     1       2.120  -0.487   0.090  1.00  0.00    -0.053 C 
HETATM    3  C3  UNL     1       0.974   0.346  -0.369  1.00  0.00     0.495 C 
ENDROOT
BRANCH   3   4
HETATM    4  N1  UNL     1       1.239   1.678   0.140  1.00  0.00    -0.037 N 
ATOM      5  H13 UNL     1       1.392   1.710   1.148  1.00  0.00     0.278 HD
ATOM      6  H12 UNL     1       2.150   2.048  -0.131  1.00  0.00     0.278 HD
ATOM      7  H11 UNL     1       0.454   2.249  -0.174  1.00  0.00     0.278 HD
ENDBRANCH   3   4
BRANCH   3   8
HETATM    8  N2  UNL     1      -0.195  -0.209   0.214  1.00  0.00     0.131 N 
HETATM    9  C4  UNL     1      -1.315   0.662   0.463  1.00  0.00     0.278 C 
HETATM   10  C5  UNL     1      -2.184  -0.609   0.365  1.00  0.00     0.061 C 
HETATM   11  C6  UNL     1      -1.055  -1.030  -0.588  1.00  0.00     0.278 C 
ENDBRANCH   3   8
TORSDOF 2
