REMARK  4 active torsions:
REMARK  status: ('A' for Active; 'I' for Inactive)
REMARK       I    between atoms: N1_2  and  C2_4 
REMARK    1  A    between atoms: C2_4  and  C3_6 
REMARK    2  A    between atoms: C3_6  and  N2_7 
REMARK    3  A    between atoms: C3_6  and  C4_11 
REMARK    4  A    between atoms: C4_11  and  N3_14 
ROOT
HETATM    1  N3  UNL     1      -0.224   0.090  -0.250  1.00  0.00    -0.284 N 
HETATM    2  C7  UNL     1      -0.398  -0.019   1.119  1.00  0.00     0.087 C 
HETATM    3  C8  UNL     1       0.816  -0.544   1.878  1.00  0.00     0.074 C 
HETATM    4  C9  UNL     1       1.697  -1.427   1.027  1.00  0.00     0.237 C 
HETATM    5  N4  UNL     1       3.111  -1.089   1.205  1.00  0.00    -0.073 N 
ATOM      6  H41 UNL     1       3.586  -1.775   1.791  1.00  0.00     0.277 HD
ATOM      7  H42 UNL     1       3.225  -0.267   1.798  1.00  0.00     0.277 HD
HETATM    8  C10 UNL     1       3.787  -0.921  -0.066  1.00  0.00     0.259 C 
HETATM    9  C11 UNL     1       4.499   0.411  -0.147  1.00  0.00     0.261 C 
HETATM   10  N5  UNL     1       3.780   1.462   0.511  1.00  0.00    -0.059 N 
ATOM     11  H51 UNL     1       4.422   2.186   0.834  1.00  0.00     0.278 HD
ATOM     12  H52 UNL     1       3.417   1.139   1.408  1.00  0.00     0.278 HD
HETATM   13  C12 UNL     1       2.732   2.037  -0.275  1.00  0.00     0.368 C 
HETATM   14  N6  UNL     1       1.409   1.689   0.265  1.00  0.00    -0.098 NA
HETATM   15  N7  UNL     1       0.694   1.002  -0.713  1.00  0.00    -0.243 N 
ATOM     16  H7  UNL     1       0.842   1.165  -1.709  1.00  0.00     0.204 HD
ENDROOT
BRANCH   1  17
HETATM   17  C4  UNL     1      -1.262  -0.253  -1.122  1.00  0.00     0.083 C 
HETATM   18  C5  UNL     1      -0.781  -0.060  -2.597  1.00  0.00     0.043 C 
HETATM   19  C6  UNL     1      -1.683  -1.706  -1.080  1.00  0.00     0.043 C 
BRANCH  17  20
HETATM   20  C3  UNL     1      -2.473   0.625  -1.033  1.00  0.00     0.303 C 
BRANCH  20  21
HETATM   21  C2  UNL     1      -3.227   0.653   0.212  1.00  0.00     0.250 C 
HETATM   22  N1  UNL     1      -4.019  -0.421   0.733  1.00  0.00    -0.364 N 
HETATM   23  C1  UNL     1      -4.746  -0.335   1.965  1.00  0.00     0.149 C 
ATOM     24  H1  UNL     1      -4.068  -1.290   0.201  1.00  0.00     0.161 HD
HETATM   25  O1  UNL     1      -3.208   1.714   0.921  1.00  0.00    -0.271 OA
ENDBRANCH  20  21
BRANCH  20  26
HETATM   26  N2  UNL     1      -2.084   2.009  -1.395  1.00  0.00    -0.064 N 
ATOM     27  H23 UNL     1      -2.886   2.638  -1.441  1.00  0.00     0.275 HD
ATOM     28  H22 UNL     1      -1.577   2.478  -0.645  1.00  0.00     0.275 HD
ATOM     29  H21 UNL     1      -1.556   1.989  -2.267  1.00  0.00     0.275 HD
ENDBRANCH  20  26
ENDBRANCH  17  20
ENDBRANCH   1  17
TORSDOF 4
