REMARK  1 active torsions:
REMARK  status: ('A' for Active; 'I' for Inactive)
REMARK    1  A    between atoms: C8_9  and  O1_10 
ROOT
HETATM    1  C1  UNL     1       2.913  -0.335   0.261  1.00  0.00     0.021 C 
HETATM    2  C2  UNL     1       1.444  -0.139   0.110  1.00  0.00    -0.005 C 
HETATM    3  C3  UNL     1       0.609  -0.969   1.026  1.00  0.00     0.021 C 
HETATM    4  C4  UNL     1      -0.548  -1.455   0.220  1.00  0.00     0.011 C 
HETATM    5  C5  UNL     1      -1.882  -0.992   0.694  1.00  0.00     0.100 C 
HETATM    6  C6  UNL     1      -2.015  -1.104   2.123  1.00  0.00     0.064 C 
HETATM    7  N1  UNL     1      -2.139  -1.198   3.267  1.00  0.00    -0.197 NA
HETATM    8  C7  UNL     1      -2.089   0.413   0.173  1.00  0.00     0.058 C 
HETATM    9  C8  UNL     1      -1.079   0.562  -0.958  1.00  0.00     0.068 C 
HETATM   10  C9  UNL     1      -0.162   1.679  -0.623  1.00  0.00     0.091 C 
HETATM   11  C10 UNL     1       1.010   1.264   0.206  1.00  0.00    -0.009 C 
HETATM   12  N2  UNL     1       1.580   2.111   0.945  1.00  0.00    -0.405 N 
ATOM     13  H21 UNL     1       1.279   3.083   1.012  1.00  0.00     0.155 HD
ATOM     14  H22 UNL     1       2.380   1.828   1.511  1.00  0.00     0.155 HD
HETATM   15  C11 UNL     1      -0.432  -0.766  -1.136  1.00  0.00     0.027 C 
HETATM   16  C12 UNL     1       1.062  -0.613  -1.298  1.00  0.00     0.023 C 
ENDROOT
BRANCH   9  17
HETATM   17  O1  UNL     1      -1.768   0.862  -2.147  1.00  0.00    -0.389 OA
ATOM     18  H1  UNL     1      -1.138   0.955  -2.852  1.00  0.00     0.210 HD
ENDBRANCH   9  17
TORSDOF 1
