REMARK  0 active torsions:
REMARK  status: ('A' for Active; 'I' for Inactive)
ROOT
HETATM    1  N1  UNL     1      -0.779   3.718   0.560  1.00  0.00    -0.197 NA
HETATM    2  C1  UNL     1      -0.492   2.641   0.220  1.00  0.00     0.064 C 
HETATM    3  C2  UNL     1      -0.100   1.276  -0.217  1.00  0.00     0.101 C 
HETATM    4  C3  UNL     1       1.370   1.184   0.006  1.00  0.00     0.043 C 
HETATM    5  C4  UNL     1       1.974  -0.159   0.018  1.00  0.00     0.054 C 
HETATM    6  C5  UNL     1       1.125  -1.209   0.668  1.00  0.00     0.045 C 
HETATM    7  C6  UNL     1      -0.302  -1.128   0.328  1.00  0.00     0.084 C 
HETATM    8  C7  UNL     1      -0.906   0.272   0.524  1.00  0.00     0.033 C 
HETATM    9  C8  UNL     1      -2.247  -0.027  -0.078  1.00  0.00    -0.004 C 
HETATM   10  C9  UNL     1      -3.194   1.033  -0.405  1.00  0.00     0.012 C 
HETATM   11  C10 UNL     1      -4.319   0.111   0.104  1.00  0.00     0.002 C 
HETATM   12  C11 UNL     1      -3.235  -0.517   0.992  1.00  0.00     0.012 C 
HETATM   13  C12 UNL     1      -2.047  -1.097  -1.088  1.00  0.00     0.191 C 
HETATM   14  C13 UNL     1      -2.496  -0.714  -2.421  1.00  0.00     0.081 C 
HETATM   15  N2  UNL     1      -2.859  -0.419  -3.478  1.00  0.00    -0.196 NA
HETATM   16  N3  UNL     1      -0.623  -1.352  -1.052  1.00  0.00    -0.204 NA
HETATM   17 CL1  UNL     1      -0.223  -2.941  -1.600  1.00  0.00    -0.020 Cl
HETATM   18  S1  UNL     1       2.510  -0.676  -1.664  1.00  0.00    -0.042 SA
HETATM   19  N4  UNL     1       4.181  -0.036  -1.566  1.00  0.00    -0.318 N 
ATOM     20  H4  UNL     1       4.924  -0.116  -2.260  1.00  0.00     0.175 HD
HETATM   21  C14 UNL     1       4.235   0.613  -0.291  1.00  0.00     0.100 C 
HETATM   22  N5  UNL     1       4.974   1.667  -0.031  1.00  0.00    -0.387 N 
ATOM     23  H51 UNL     1       5.012   2.129   0.877  1.00  0.00     0.157 HD
ATOM     24  H52 UNL     1       5.586   2.143  -0.693  1.00  0.00     0.157 HD
HETATM   25  C15 UNL     1       3.342  -0.081   0.675  1.00  0.00     0.180 C 
HETATM   26  C16 UNL     1       3.833  -1.457   0.905  1.00  0.00     0.073 C 
HETATM   27  N6  UNL     1       4.218  -2.539   1.069  1.00  0.00    -0.196 NA
ENDROOT
TORSDOF 0
