REMARK  11 active torsions:
REMARK  status: ('A' for Active; 'I' for Inactive)
REMARK    1  A    between atoms: C2_2  and  C3_3 
REMARK    2  A    between atoms: C3_3  and  N1_4 
REMARK       I    between atoms: N1_4  and  C4_6 
REMARK    3  A    between atoms: C4_6  and  O2_8 
REMARK    4  A    between atoms: O2_8  and  C5_9 
REMARK    5  A    between atoms: C7_11  and  N2_12 
REMARK    6  A    between atoms: C8_16  and  O3_17 
REMARK    7  A    between atoms: O3_17  and  C9_18 
REMARK    8  A    between atoms: C10_19  and  O4_20 
REMARK    9  A    between atoms: C12_23  and  O5_24 
REMARK   10  A    between atoms: C14_26  and  O6_27 
REMARK   11  A    between atoms: C15_29  and  N3_30 
REMARK       I    between atoms: N3_30  and  C16_32 
REMARK       I    between atoms: C16_32  and  N4_34 
ROOT
HETATM    1  N3  UNL     1      -3.242   0.972  -1.375  1.00  0.00    -0.333 N 
ATOM      2  H3  UNL     1      -2.752   1.518  -0.666  1.00  0.00     0.164 HD
HETATM    3  C16 UNL     1      -3.438   1.525  -2.645  1.00  0.00     0.329 C 
HETATM    4  O7  UNL     1      -4.043   0.895  -3.578  1.00  0.00    -0.246 OA
HETATM    5  N4  UNL     1      -2.962   2.825  -2.944  1.00  0.00    -0.245 N 
ATOM      6  H4  UNL     1      -2.473   3.357  -2.224  1.00  0.00     0.183 HD
HETATM    7  C17 UNL     1      -3.151   3.394  -4.212  1.00  0.00     0.185 C 
HETATM    8  N5  UNL     1      -3.312   3.842  -5.257  1.00  0.00    -0.172 NA
ENDROOT
BRANCH   1   9
HETATM    9  C15 UNL     1      -3.714  -0.349  -1.042  1.00  0.00     0.149 C 
HETATM   10  C9  UNL     1      -2.586  -1.323  -0.737  1.00  0.00     0.178 C 
HETATM   11  C10 UNL     1      -3.266  -2.686  -0.720  1.00  0.00     0.151 C 
HETATM   12  C11 UNL     1      -4.125  -2.761   0.489  1.00  0.00     0.069 C 
HETATM   13  C12 UNL     1      -4.717  -1.491   0.972  1.00  0.00     0.154 C 
HETATM   14  C14 UNL     1      -4.783  -0.362   0.012  1.00  0.00     0.172 C 
BRANCH  10  15
HETATM   15  O3  UNL     1      -1.879  -1.034   0.388  1.00  0.00    -0.349 OA
BRANCH  15  16
HETATM   16  C8  UNL     1      -0.534  -0.732   0.193  1.00  0.00     0.291 C 
HETATM   17  C7  UNL     1       0.365  -1.736   0.820  1.00  0.00     0.240 C 
HETATM   18  C6  UNL     1       1.736  -1.167   1.073  1.00  0.00     0.073 C 
HETATM   19  C5  UNL     1       2.063  -0.010   0.161  1.00  0.00     0.164 C 
HETATM   20  C18 UNL     1       0.984   1.030   0.131  1.00  0.00     0.150 C 
HETATM   21  O8  UNL     1      -0.256   0.576   0.491  1.00  0.00    -0.352 OA
HETATM   22  C19 UNL     1       1.417   2.249   0.929  1.00  0.00     0.042 C 
BRANCH  17  23
HETATM   23  N2  UNL     1       0.552  -2.849  -0.103  1.00  0.00    -0.070 N 
ATOM     24  H23 UNL     1       1.048  -2.590  -0.956  1.00  0.00     0.274 HD
ATOM     25  H22 UNL     1       1.224  -3.541   0.227  1.00  0.00     0.274 HD
ATOM     26  H21 UNL     1      -0.377  -3.234  -0.274  1.00  0.00     0.274 HD
ENDBRANCH  17  23
BRANCH  19  27
HETATM   27  O2  UNL     1       3.240   0.599   0.647  1.00  0.00    -0.296 OA
BRANCH  27  28
HETATM   28  C4  UNL     1       4.431   0.693  -0.012  1.00  0.00     0.360 C 
HETATM   29  N1  UNL     1       5.553   1.325   0.561  1.00  0.00    -0.337 N 
ATOM     30  H1  UNL     1       5.492   1.729   1.495  1.00  0.00     0.164 HD
HETATM   31  O1  UNL     1       4.501   0.193  -1.165  1.00  0.00    -0.239 OA
BRANCH  29  32
HETATM   32  C3  UNL     1       6.782   1.397  -0.177  1.00  0.00     0.124 C 
BRANCH  32  33
HETATM   33  C2  UNL     1       7.876   2.113   0.598  1.00  0.00     0.015 C 
HETATM   34  C1  UNL     1       9.107   2.121  -0.283  1.00  0.00     0.006 C 
ENDBRANCH  32  33
ENDBRANCH  29  32
ENDBRANCH  27  28
ENDBRANCH  19  27
ENDBRANCH  15  16
ENDBRANCH  10  15
BRANCH  11  35
HETATM   35  O4  UNL     1      -3.986  -2.810  -1.909  1.00  0.00    -0.393 OA
ATOM     36  H4  UNL     1      -4.410  -3.660  -1.898  1.00  0.00     0.210 HD
ENDBRANCH  11  35
BRANCH  13  37
HETATM   37  O5  UNL     1      -4.131  -1.089   2.189  1.00  0.00    -0.388 OA
HETATM   38  C13 UNL     1      -5.019  -1.133   3.231  1.00  0.00     0.202 C 
ENDBRANCH  13  37
BRANCH  14  39
HETATM   39  O6  UNL     1      -6.062  -0.249  -0.561  1.00  0.00    -0.391 OA
ATOM     40  H6  UNL     1      -6.104   0.474  -1.176  1.00  0.00     0.210 HD
ENDBRANCH  14  39
ENDBRANCH   1   9
TORSDOF 11
