REMARK  5 active torsions:
REMARK  status: ('A' for Active; 'I' for Inactive)
REMARK    1  A    between atoms: S1_3  and  C2_4 
REMARK    2  A    between atoms: C2_4  and  C3_5 
REMARK    3  A    between atoms: C3_5  and  N2_6 
REMARK    4  A    between atoms: C3_5  and  C10_17 
REMARK       I    between atoms: N2_6  and  C4_8 
REMARK       I    between atoms: C4_8  and  N3_10 
REMARK       I    between atoms: C10_17  and  N4_19 
REMARK    5  A    between atoms: N4_19  and  C11_21 
ROOT
HETATM    1  N1  UNL     1       1.438   4.875  -0.406  1.00  0.00    -0.184 NA
HETATM    2  C1  UNL     1       1.459   3.987  -1.144  1.00  0.00     0.133 C 
HETATM    3  S1  UNL     1       1.509   2.598  -2.263  1.00  0.00    -0.048 SA
ENDROOT
BRANCH   3   4
HETATM    4  C2  UNL     1      -0.002   1.671  -2.077  1.00  0.00     0.125 C 
BRANCH   4   5
HETATM    5  C3  UNL     1      -0.066   1.012  -0.713  1.00  0.00     0.188 C 
BRANCH   5   6
HETATM    6  N2  UNL     1      -1.373   0.298  -0.662  1.00  0.00    -0.329 N 
HETATM    7  C4  UNL     1      -2.285   0.692   0.337  1.00  0.00     0.319 C 
HETATM    8  O1  UNL     1      -1.975   1.617   1.141  1.00  0.00    -0.247 OA
HETATM    9  N3  UNL     1      -3.562   0.046   0.443  1.00  0.00    -0.332 N 
HETATM   10  C5  UNL     1      -4.387   0.553   1.516  1.00  0.00     0.129 C 
HETATM   11  C9  UNL     1      -3.767  -0.978  -0.541  1.00  0.00     0.153 C 
HETATM   12  C6  UNL     1      -5.837   0.732   1.117  1.00  0.00     0.046 C 
HETATM   13  C7  UNL     1      -6.498  -0.601   0.833  1.00  0.00     0.169 C 
HETATM   14  O2  UNL     1      -5.553  -1.638   0.852  1.00  0.00    -0.389 OA
HETATM   15  C8  UNL     1      -5.051  -1.721  -0.442  1.00  0.00     0.187 C 
ATOM     16  H2  UNL     1      -1.598  -0.445  -1.323  1.00  0.00     0.165 HD
ENDBRANCH   5   6
BRANCH   5  17
HETATM   17  C10 UNL     1       0.973   0.002  -0.488  1.00  0.00     0.241 C 
HETATM   18  O3  UNL     1       0.619  -1.223  -0.414  1.00  0.00    -0.271 OA
HETATM   19  N4  UNL     1       2.321   0.302  -0.349  1.00  0.00    -0.355 N 
ATOM     20  H4  UNL     1       2.625   1.274  -0.401  1.00  0.00     0.162 HD
BRANCH  19  21
HETATM   21  C11 UNL     1       3.327  -0.762  -0.126  1.00  0.00     0.084 C 
HETATM   22  C12 UNL     1       4.320  -0.726  -1.218  1.00  0.00     0.025 C 
HETATM   23  C13 UNL     1       5.692  -0.237  -0.862  1.00  0.00     0.002 C 
HETATM   24  C14 UNL     1       6.288  -0.970   0.316  1.00  0.00     0.000 C 
HETATM   25  C15 UNL     1       5.209  -1.459   1.261  1.00  0.00     0.002 C 
HETATM   26  C16 UNL     1       3.990  -0.568   1.206  1.00  0.00     0.025 C 
ENDBRANCH  19  21
ENDBRANCH   5  17
ENDBRANCH   4   5
ENDBRANCH   3   4
TORSDOF 5
