REMARK  7 active torsions:
REMARK  status: ('A' for Active; 'I' for Inactive)
REMARK    1  A    between atoms: C2_2  and  N1_5 
REMARK    2  A    between atoms: C5_7  and  O1_8 
REMARK    3  A    between atoms: C5_7  and  C17_25 
REMARK    4  A    between atoms: O1_8  and  C6_9 
REMARK    5  A    between atoms: C6_9  and  C7_10 
REMARK       I    between atoms: C7_10  and  N2_12 
REMARK       I    between atoms: N3_15  and  C10_16 
REMARK    6  A    between atoms: C10_16  and  O4_18 
REMARK    7  A    between atoms: O4_18  and  C11_19 
ROOT
HETATM    1  C7  UNL     1      -0.752   0.103  -1.888  1.00  0.00     0.244 C 
HETATM    2  O2  UNL     1      -1.027  -0.093  -3.100  1.00  0.00    -0.271 OA
HETATM    3  N2  UNL     1       0.596   0.320  -1.454  1.00  0.00    -0.347 N 
HETATM    4  C8  UNL     1       1.645   0.309  -2.447  1.00  0.00     0.146 C 
HETATM    5  C9  UNL     1       2.601  -0.817  -2.052  1.00  0.00     0.148 C 
HETATM    6  N3  UNL     1       3.079  -0.522  -0.725  1.00  0.00    -0.325 N 
HETATM    7  C10 UNL     1       4.468  -0.401  -0.510  1.00  0.00     0.363 C 
HETATM    8  O3  UNL     1       5.285  -0.546  -1.454  1.00  0.00    -0.238 OA
HETATM    9  C15 UNL     1       2.093  -0.365   0.322  1.00  0.00     0.148 C 
HETATM   10  C16 UNL     1       0.961   0.550  -0.078  1.00  0.00     0.146 C 
ENDROOT
BRANCH   1  11
HETATM   11  C6  UNL     1      -1.835   0.112  -0.887  1.00  0.00     0.280 C 
BRANCH  11  12
HETATM   12  O1  UNL     1      -3.061  -0.121  -1.547  1.00  0.00    -0.328 OA
BRANCH  12  13
HETATM   13  C5  UNL     1      -4.240  -0.155  -0.777  1.00  0.00     0.147 C 
HETATM   14  N1  UNL     1      -4.196   0.506   0.310  1.00  0.00    -0.364 N 
ATOM     15  H1  UNL     1      -3.318   0.987   0.506  1.00  0.00     0.162 HD
BRANCH  14  16
HETATM   16  C2  UNL     1      -5.227   0.657   1.290  1.00  0.00     0.021 C 
HETATM   17  C1  UNL     1      -6.348   1.510   0.723  1.00  0.00     0.037 C 
HETATM   18  C3  UNL     1      -5.724  -0.683   1.762  1.00  0.00     0.037 C 
HETATM   19  C4  UNL     1      -4.645   1.352   2.534  1.00  0.00     0.037 C 
ENDBRANCH  14  16
BRANCH  13  20
HETATM   20  C17 UNL     1      -5.420  -0.923  -1.248  1.00  0.00     0.285 A 
HETATM   21  C18 UNL     1      -5.376  -2.379  -1.443  1.00  0.00     0.274 A 
HETATM   22  N4  UNL     1      -5.261  -1.527  -2.584  1.00  0.00    -0.059 N 
ATOM     23  H42 UNL     1      -5.760  -1.446  -3.470  1.00  0.00     0.278 HD
ATOM     24  H41 UNL     1      -4.581  -1.428  -3.337  1.00  0.00     0.278 HD
ENDBRANCH  13  20
ENDBRANCH  12  13
ENDBRANCH  11  12
ENDBRANCH   1  11
BRANCH   7  25
HETATM   25  O4  UNL     1       5.024  -0.118   0.733  1.00  0.00    -0.294 OA
BRANCH  25  26
HETATM   26  C11 UNL     1       6.415   0.001   0.935  1.00  0.00     0.061 C 
HETATM   27  C12 UNL     1       7.032   1.090   0.114  1.00  0.00     0.046 C 
HETATM   28  C13 UNL     1       7.151  -1.291   0.704  1.00  0.00     0.046 C 
HETATM   29  C14 UNL     1       6.611   0.365   2.403  1.00  0.00     0.046 C 
ENDBRANCH  25  26
ENDBRANCH   7  25
TORSDOF 7
