REMARK  5 active torsions:
REMARK  status: ('A' for Active; 'I' for Inactive)
REMARK    1  A    between atoms: C2_2  and  N1_3 
REMARK    2  A    between atoms: N1_3  and  C3_4 
REMARK    3  A    between atoms: N1_3  and  C5_6 
REMARK    4  A    between atoms: C5_6  and  N2_8 
REMARK       I    between atoms: N2_8  and  C6_10 
REMARK       I    between atoms: C6_10  and  N4_16 
REMARK       I    between atoms: N3_11  and  C7_13 
REMARK    5  A    between atoms: N4_16  and  N5_18 
ROOT
HETATM    1  N2  UNL     1       2.111   0.754  -0.181  1.00  0.00    -0.165 N 
ATOM      2  H2  UNL     1       2.297   0.793  -1.183  1.00  0.00     0.186 HD
HETATM    3  C6  UNL     1       1.024   1.487   0.390  1.00  0.00     0.697 C 
HETATM    4  N3  UNL     1       1.007   2.738   0.385  1.00  0.00    -0.159 N 
ATOM      5  H3  UNL     1       0.177   3.139   0.822  1.00  0.00     0.187 HD
HETATM    6  C7  UNL     1       1.893   3.683  -0.097  1.00  0.00     0.232 C 
HETATM    7  C8  UNL     1       1.904   5.066   0.498  1.00  0.00     0.118 C 
HETATM    8  O1  UNL     1       2.694   3.416  -1.024  1.00  0.00    -0.273 OA
HETATM    9  N4  UNL     1      -0.015   0.678   0.962  1.00  0.00    -0.151 N 
ATOM     10  H4  UNL     1      -0.160   0.644   1.971  1.00  0.00     0.199 HD
ENDROOT
BRANCH   1  11
HETATM   11  C5  UNL     1       2.919  -0.023   0.670  1.00  0.00     0.188 C 
HETATM   12  S1  UNL     1       2.560  -0.029   2.298  1.00  0.00    -0.040 SA
BRANCH  11  13
HETATM   13  N1  UNL     1       4.019  -0.805   0.244  1.00  0.00    -0.358 N 
BRANCH  13  14
HETATM   14  C2  UNL     1       4.785  -1.566   1.251  1.00  0.00     0.120 C 
HETATM   15  C1  UNL     1       4.585  -3.045   1.075  1.00  0.00     0.026 C 
ENDBRANCH  13  14
BRANCH  13  16
HETATM   16  C3  UNL     1       4.411  -0.881  -1.138  1.00  0.00     0.120 C 
HETATM   17  C4  UNL     1       5.735  -0.187  -1.389  1.00  0.00     0.026 C 
ENDBRANCH  13  16
ENDBRANCH  11  13
ENDBRANCH   1  11
BRANCH   9  18
HETATM   18  N5  UNL     1      -0.814  -0.055   0.101  1.00  0.00    -0.213 NA
HETATM   19  C9  UNL     1      -1.359  -1.176   0.773  1.00  0.00     0.140 C 
HETATM   20  C10 UNL     1      -1.986  -2.224  -0.088  1.00  0.00     0.183 C 
HETATM   21  O2  UNL     1      -2.801  -1.774  -1.087  1.00  0.00    -0.388 OA
HETATM   22  C11 UNL     1      -4.068  -2.329  -1.072  1.00  0.00     0.193 C 
HETATM   23  C12 UNL     1      -4.902  -1.915   0.104  1.00  0.00     0.193 C 
HETATM   24  O3  UNL     1      -5.722  -0.822  -0.218  1.00  0.00    -0.387 OA
HETATM   25  C13 UNL     1      -5.643   0.201   0.691  1.00  0.00     0.193 C 
HETATM   26  C14 UNL     1      -5.184   1.488   0.061  1.00  0.00     0.193 C 
HETATM   27  O4  UNL     1      -4.012   1.390  -0.648  1.00  0.00    -0.388 OA
HETATM   28  C15 UNL     1      -2.896   1.264   0.195  1.00  0.00     0.183 C 
HETATM   29  C16 UNL     1      -1.711   0.819  -0.575  1.00  0.00     0.140 C 
ENDBRANCH   9  18
TORSDOF 5
