REMARK  6 active torsions:
REMARK  status: ('A' for Active; 'I' for Inactive)
REMARK    1  A    between atoms: O1_2  and  C2_3 
REMARK    2  A    between atoms: N1_6  and  N2_7 
REMARK    3  A    between atoms: N1_6  and  O2_10 
REMARK    4  A    between atoms: C6_15  and  O5_17 
REMARK    5  A    between atoms: O5_17  and  C8_18 
REMARK       I    between atoms: C8_18  and  N3_20 
REMARK    6  A    between atoms: N3_20  and  C9_22 
ROOT
HETATM    1  C2  UNL     1       3.626   0.818  -0.537  1.00  0.00     0.189 C 
HETATM    2  C3  UNL     1       3.323  -0.635  -0.283  1.00  0.00     0.105 C 
HETATM    3  C4  UNL     1       3.490  -0.884   1.178  1.00  0.00     0.136 C 
HETATM    4  N1  UNL     1       3.518  -2.113   1.564  1.00  0.00    -0.168 N 
HETATM    5  C5  UNL     1       3.619   0.178   2.159  1.00  0.00     0.312 C 
HETATM    6  O3  UNL     1       3.829  -0.069   3.392  1.00  0.00    -0.258 OA
HETATM    7  O4  UNL     1       3.506   1.486   1.705  1.00  0.00    -0.275 OA
HETATM    8  C6  UNL     1       2.816   1.633   0.446  1.00  0.00     0.206 C 
HETATM    9  C7  UNL     1       2.891   3.103   0.098  1.00  0.00     0.083 C 
ENDROOT
BRANCH   8  10
HETATM   10  O5  UNL     1       1.526   1.178   0.673  1.00  0.00    -0.263 OA
BRANCH  10  11
HETATM   11  C8  UNL     1       0.488   1.037  -0.196  1.00  0.00     0.363 C 
HETATM   12  O6  UNL     1       0.702   1.366  -1.390  1.00  0.00    -0.238 OA
HETATM   13  N3  UNL     1      -0.805   0.538   0.197  1.00  0.00    -0.329 N 
ATOM     14  H3  UNL     1      -0.941   0.280   1.174  1.00  0.00     0.165 HD
BRANCH  13  15
HETATM   15  C9  UNL     1      -1.901   0.383  -0.691  1.00  0.00     0.119 C 
HETATM   16  C10 UNL     1      -3.152   1.123  -0.269  1.00  0.00     0.146 C 
HETATM   17  C11 UNL     1      -4.141   0.381  -1.194  1.00  0.00     0.042 C 
HETATM   18  O7  UNL     1      -3.509   0.716   0.988  1.00  0.00    -0.373 OA
HETATM   19  C12 UNL     1      -3.888  -0.969  -0.493  1.00  0.00     0.028 C 
HETATM   20  C13 UNL     1      -2.402  -1.057  -0.608  1.00  0.00     0.014 C 
HETATM   21  C15 UNL     1      -4.205  -0.481   0.909  1.00  0.00     0.058 C 
HETATM   22  C14 UNL     1      -1.924  -1.877  -1.771  1.00  0.00     0.012 C 
HETATM   23  C16 UNL     1      -3.829  -1.462   1.970  1.00  0.00     0.046 C 
HETATM   24  C17 UNL     1      -5.691  -0.140   1.008  1.00  0.00     0.046 C 
ENDBRANCH  13  15
ENDBRANCH  10  11
ENDBRANCH   8  10
BRANCH   1  25
HETATM   25  O1  UNL     1       3.511   1.212  -1.842  1.00  0.00    -0.385 OA
HETATM   26  C1  UNL     1       4.733   1.607  -2.381  1.00  0.00     0.202 C 
ENDBRANCH   1  25
BRANCH   4  27
HETATM   27  N2  UNL     1       3.672  -2.417   2.913  1.00  0.00    -0.319 N 
ATOM     28  H22 UNL     1       3.758  -1.632   3.559  1.00  0.00     0.179 HD
ATOM     29  H21 UNL     1       3.694  -3.390   3.219  1.00  0.00     0.179 HD
ENDBRANCH   4  27
BRANCH   4  30
HETATM   30  O2  UNL     1       3.403  -3.168   0.696  1.00  0.00    -0.268 OA
ATOM     31  H2  UNL     1       3.424  -4.074   0.981  1.00  0.00     0.247 HD
ENDBRANCH   4  30
TORSDOF 6
