REMARK  5 active torsions:
REMARK  status: ('A' for Active; 'I' for Inactive)
REMARK    1  A    between atoms: C2_2  and  N1_3 
REMARK    2  A    between atoms: C2_2  and  C12_22 
REMARK    3  A    between atoms: C3_5  and  C4_6 
REMARK    4  A    between atoms: C5_7  and  O1_8 
REMARK    5  A    between atoms: C8_14  and  C9_15 
REMARK       I    between atoms: C9_15  and  N4_17 
ROOT
HETATM    1  C9  UNL     1      -2.998  -0.953   0.528  1.00  0.00     0.344 C 
HETATM    2  O2  UNL     1      -4.198  -0.588   0.266  1.00  0.00    -0.250 OA
HETATM    3  N4  UNL     1      -2.606  -2.036   1.246  1.00  0.00    -0.287 NA
HETATM    4  C10 UNL     1      -2.229  -3.077   1.936  1.00  0.00     0.272 C 
HETATM    5  N5  UNL     1      -1.860  -3.968   2.532  1.00  0.00    -0.156 NA
ENDROOT
BRANCH   1   6
HETATM    6  C8  UNL     1      -1.950  -0.070  -0.032  1.00  0.00     0.139 A 
HETATM    7  C7  UNL     1      -2.317   1.063  -0.765  1.00  0.00     0.141 A 
HETATM    8  N2  UNL     1      -1.422   1.904  -1.296  1.00  0.00    -0.319 N 
HETATM    9  N3  UNL     1      -3.712   1.313  -0.944  1.00  0.00    -0.081 NA
HETATM   10  C5  UNL     1      -0.099   1.681  -1.140  1.00  0.00     0.159 A 
HETATM   11  C6  UNL     1      -1.915   3.047  -2.030  1.00  0.00     0.159 C 
HETATM   12  C4  UNL     1       0.323   0.588  -0.434  1.00  0.00     0.081 A 
HETATM   13  C11 UNL     1      -0.620  -0.294   0.125  1.00  0.00     0.208 A 
HETATM   14  O3  UNL     1      -0.169  -1.274   0.760  1.00  0.00    -0.286 OA
BRANCH  10  15
HETATM   15  O1  UNL     1       0.806   2.589  -1.715  1.00  0.00    -0.345 OA
ATOM     16  H1  UNL     1       0.513   3.348  -2.205  1.00  0.00     0.219 HD
ENDBRANCH  10  15
BRANCH  12  17
HETATM   17  C3  UNL     1       1.739   0.321  -0.258  1.00  0.00     0.103 C 
HETATM   18  N1  UNL     1       2.115  -0.715   0.409  1.00  0.00    -0.384 N 
ATOM     19  H1  UNL     1       1.402  -1.328   0.803  1.00  0.00     0.159 HD
BRANCH  18  20
HETATM   20  C2  UNL     1       3.490  -1.040   0.619  1.00  0.00     0.178 C 
HETATM   21  C1  UNL     1       3.645  -2.509   0.299  1.00  0.00     0.043 C 
BRANCH  20  22
HETATM   22  C12 UNL     1       3.879  -0.724   1.991  1.00  0.00     0.196 C 
HETATM   23  O4  UNL     1       5.063  -1.034   2.356  1.00  0.00    -0.646 OA
HETATM   24  O5  UNL     1       3.073  -0.116   2.920  1.00  0.00    -0.646 OA
ENDBRANCH  20  22
ENDBRANCH  18  20
ENDBRANCH  12  17
ENDBRANCH   1   6
TORSDOF 5
