REMARK  1 active torsions:
REMARK  status: ('A' for Active; 'I' for Inactive)
REMARK    1  A    between atoms: C2_2  and  N1_3 
ROOT
HETATM    1  N1  UNL     1       0.024  -0.042  -0.431  1.00  0.00     0.016 N 
HETATM    2  C3  UNL     1      -0.750  -1.236  -0.669  1.00  0.00     0.263 C 
HETATM    3  C4  UNL     1      -1.760  -0.781   0.334  1.00  0.00     0.066 C 
HETATM    4  C5  UNL     1      -0.668   0.203   0.735  1.00  0.00     0.229 C 
HETATM    5  C6  UNL     1      -1.029   1.578   0.286  1.00  0.00     0.178 C 
HETATM    6  N2  UNL     1      -0.478   1.126  -1.000  1.00  0.00    -0.044 NA
ENDROOT
BRANCH   1   7
HETATM    7  C2  UNL     1       1.400  -0.242  -0.535  1.00  0.00     0.256 C 
HETATM    8  C1  UNL     1       2.248   0.038   0.646  1.00  0.00     0.036 C 
ENDBRANCH   1   7
TORSDOF 1
