REMARK  1 active torsions:
REMARK  status: ('A' for Active; 'I' for Inactive)
REMARK    1  A    between atoms: N2_4  and  C1_6 
ROOT
HETATM    1  C1  UNL     1       0.966  -0.072  -0.547  1.00  0.00     0.137 C 
HETATM    2  C2  UNL     1       0.100  -1.205  -0.071  1.00  0.00     0.037 C 
HETATM    3  C3  UNL     1      -1.356  -0.871  -0.303  1.00  0.00     0.047 C 
HETATM    4  C4  UNL     1      -1.663   0.335   0.510  1.00  0.00     0.060 C 
HETATM    5  N3  UNL     1      -0.768   1.399   0.435  1.00  0.00    -0.380 N 
ATOM      6  H3  UNL     1      -1.000   2.282   0.890  1.00  0.00     0.164 HD
HETATM    7  C5  UNL     1       0.441   1.278  -0.252  1.00  0.00     0.086 C 
ENDROOT
BRANCH   1   8
HETATM    8  N2  UNL     1       2.280  -0.277  -0.003  1.00  0.00    -0.333 N 
HETATM    9  N1  UNL     1       2.509  -0.960   1.006  1.00  0.00    -0.349 N 
ATOM     10  H12 UNL     1       1.708  -1.394   1.464  1.00  0.00     0.176 HD
ATOM     11  H11 UNL     1       3.442  -1.106   1.392  1.00  0.00     0.176 HD
ATOM     12  H2  UNL     1       3.070   0.165  -0.474  1.00  0.00     0.180 HD
ENDBRANCH   1   8
TORSDOF 1
