REMARK  1 active torsions:
REMARK  status: ('A' for Active; 'I' for Inactive)
REMARK    1  A    between atoms: C2_2  and  N1_3 
ROOT
HETATM    1  N1  UNL     1      -0.165  -0.268   0.397  1.00  0.00    -0.031 N 
HETATM    2  C3  UNL     1       0.313  -1.409   1.182  1.00  0.00     0.276 C 
HETATM    3  C4  UNL     1       0.781   0.810   0.263  1.00  0.00     0.276 A 
HETATM    4  C5  UNL     1       2.206   0.426   0.014  1.00  0.00     0.272 A 
HETATM    5  N2  UNL     1       1.796  -0.451  -1.045  1.00  0.00    -0.041 N 
ATOM      6  H21 UNL     1       2.016  -1.446  -1.005  1.00  0.00     0.279 HD
ATOM      7  H22 UNL     1       2.241  -0.398  -1.961  1.00  0.00     0.279 HD
HETATM    8  C6  UNL     1       0.445   0.003  -0.866  1.00  0.00     0.419 A 
ENDROOT
BRANCH   1   9
HETATM    9  C2  UNL     1      -1.550   0.036   0.626  1.00  0.00     0.236 C 
HETATM   10  C1  UNL     1      -2.157   0.953  -0.377  1.00  0.00     0.035 C 
ENDBRANCH   1   9
TORSDOF 1
