REMARK  3 active torsions:
REMARK  status: ('A' for Active; 'I' for Inactive)
REMARK    1  A    between atoms: C3_3  and  C4_4 
REMARK       I    between atoms: C4_4  and  N1_6 
REMARK    2  A    between atoms: C10_13  and  C11_14 
REMARK    3  A    between atoms: C11_14  and  N3_18 
ROOT
HETATM    1  C1  UNL     1       4.380  -2.280  -1.225  1.00  0.00     0.112 C 
HETATM    2  C2  UNL     1       3.394  -1.559  -0.407  1.00  0.00    -0.101 C 
HETATM    3  C3  UNL     1       2.579  -0.982   0.277  1.00  0.00    -0.006 C 
ENDROOT
BRANCH   3   4
HETATM    4  C4  UNL     1       1.606  -0.318   1.103  1.00  0.00     0.299 C 
HETATM    5  O1  UNL     1       1.826  -0.315   2.342  1.00  0.00    -0.258 OA
HETATM    6  N1  UNL     1       0.463   0.296   0.524  1.00  0.00    -0.330 N 
HETATM    7  C5  UNL     1      -0.660   1.020   1.086  1.00  0.00     0.103 C 
HETATM    8  C9  UNL     1      -0.134   0.512  -0.776  1.00  0.00     0.103 C 
HETATM    9  C6  UNL     1      -0.235   2.475   1.111  1.00  0.00     0.042 C 
HETATM   10  C10 UNL     1      -1.484   0.709  -0.142  1.00  0.00     0.098 C 
HETATM   11  C7  UNL     1       0.536   2.816  -0.133  1.00  0.00     0.061 C 
HETATM   12 BR1  UNL     1      -0.019   4.610  -0.670  1.00  0.00    -0.091 Br
HETATM   13  C8  UNL     1       0.286   1.898  -1.294  1.00  0.00     0.042 C 
BRANCH  10  14
HETATM   14  C11 UNL     1      -2.381  -0.429  -0.059  1.00  0.00     0.078 C 
HETATM   15  N2  UNL     1      -3.640  -0.247  -0.205  1.00  0.00    -0.389 N 
ATOM     16  H22 UNL     1      -3.959   0.707  -0.376  1.00  0.00     0.157 HD
ATOM     17  H21 UNL     1      -4.270  -1.047  -0.147  1.00  0.00     0.157 HD
BRANCH  14  18
HETATM   18  N3  UNL     1      -1.938  -1.755   0.179  1.00  0.00    -0.384 N 
HETATM   19  C12 UNL     1      -2.854  -2.895   0.137  1.00  0.00     0.147 C 
ATOM     20  H3  UNL     1      -0.953  -1.919   0.385  1.00  0.00     0.160 HD
ENDBRANCH  14  18
ENDBRANCH  10  14
ENDBRANCH   3   4
TORSDOF 3
