REMARK  2 active torsions:
REMARK  status: ('A' for Active; 'I' for Inactive)
REMARK    1  A    between atoms: C6_9  and  N3_10 
REMARK    2  A    between atoms: N3_10  and  N4_12 
ROOT
HETATM    1  C1  UNL     1      -1.019  -1.425  -0.898  1.00  0.00     0.272 C 
HETATM    2  N1  UNL     1      -1.083  -0.399   0.081  1.00  0.00    -0.071 N 
HETATM    3  C2  UNL     1      -2.408  -0.550   0.724  1.00  0.00     0.272 C 
HETATM    4  C3  UNL     1      -1.064   0.939  -0.426  1.00  0.00     0.256 C 
HETATM    5  C4  UNL     1       0.158   1.336  -1.171  1.00  0.00     0.146 C 
HETATM    6  N2  UNL     1       1.225   1.833  -0.392  1.00  0.00    -0.398 N 
ATOM      7  H2  UNL     1       1.593   2.768  -0.569  1.00  0.00     0.158 HD
HETATM    8  C5  UNL     1       1.773   1.050   0.615  1.00  0.00     0.084 C 
HETATM    9  C6  UNL     1       1.286  -0.338   0.795  1.00  0.00     0.164 C 
HETATM   10  C7  UNL     1      -0.134  -0.497   1.143  1.00  0.00     0.268 C 
ENDROOT
BRANCH   9  11
HETATM   11  N3  UNL     1       1.679  -1.199  -0.327  1.00  0.00    -0.311 N 
ATOM     12  H3  UNL     1       0.981  -1.764  -0.810  1.00  0.00     0.182 HD
BRANCH  11  13
HETATM   13  N4  UNL     1       2.854  -1.233  -0.679  1.00  0.00    -0.253 N 
HETATM   14  N5  UNL     1       3.800  -1.064  -1.478  1.00  0.00    -0.331 N 
ATOM     15  H52 UNL     1       3.293  -0.687  -2.278  1.00  0.00     0.178 HD
ATOM     16  H51 UNL     1       4.777  -1.092  -1.771  1.00  0.00     0.178 HD
ATOM     17  H4  UNL     1       3.322  -1.613   0.144  1.00  0.00     0.207 HD
ENDBRANCH  11  13
ENDBRANCH   9  11
TORSDOF 2
