REMARK  5 active torsions:
REMARK  status: ('A' for Active; 'I' for Inactive)
REMARK    1  A    between atoms: N1_1  and  C1_5 
REMARK    2  A    between atoms: C4_10  and  N3_11 
REMARK    3  A    between atoms: N3_11  and  C5_13 
REMARK    4  A    between atoms: C5_13  and  N4_15 
REMARK    5  A    between atoms: N4_15  and  C6_17 
ROOT
HETATM    1  N3  UNL     1       2.199  -0.646  -0.645  1.00  0.00    -0.356 N 
ATOM      2  H3  UNL     1       2.114  -0.987  -1.602  1.00  0.00     0.162 HD
ENDROOT
BRANCH   1   3
HETATM    3  C4  UNL     1       3.471  -0.768   0.003  1.00  0.00     0.154 C 
HETATM    4  C1  UNL     1       4.041   0.581   0.360  1.00  0.00     0.228 C 
HETATM    5  C2  UNL     1       5.224   0.679  -0.589  1.00  0.00     0.154 C 
HETATM    6  N2  UNL     1       5.390  -0.587  -1.201  1.00  0.00    -0.398 N 
HETATM    7  C3  UNL     1       4.468  -1.394  -0.908  1.00  0.00     0.082 C 
ATOM      8  H2  UNL     1       6.172  -0.820  -1.813  1.00  0.00     0.158 HD
BRANCH   4   9
HETATM    9  N1  UNL     1       4.502   0.553   1.714  1.00  0.00    -0.071 N 
ATOM     10  H13 UNL     1       5.181  -0.191   1.871  1.00  0.00     0.274 HD
ATOM     11  H12 UNL     1       5.101   1.350   1.931  1.00  0.00     0.274 HD
ATOM     12  H11 UNL     1       3.708   0.487   2.351  1.00  0.00     0.274 HD
ENDBRANCH   4   9
ENDBRANCH   1   3
BRANCH   1  13
HETATM   13  C5  UNL     1       1.050  -0.079  -0.035  1.00  0.00     0.168 C 
HETATM   14  S1  UNL     1       1.248   0.460   1.492  1.00  0.00    -0.041 SA
BRANCH  13  15
HETATM   15  N4  UNL     1      -0.173   0.007  -0.751  1.00  0.00    -0.359 N 
ATOM     16  H4  UNL     1      -0.159  -0.351  -1.706  1.00  0.00     0.162 HD
BRANCH  15  17
HETATM   17  C6  UNL     1      -1.408   0.528  -0.302  1.00  0.00     0.116 C 
HETATM   18  C7  UNL     1      -2.032  -0.353   0.755  1.00  0.00    -0.005 C 
HETATM   19  C8  UNL     1      -3.272  -0.046   1.415  1.00  0.00    -0.028 C 
HETATM   20  C9  UNL     1      -4.634  -0.480   0.894  1.00  0.00     0.038 C 
HETATM   21  C10 UNL     1      -4.904   0.065  -0.552  1.00  0.00     0.083 C 
HETATM   22  C11 UNL     1      -3.655   0.441  -1.063  1.00  0.00    -0.180 C 
HETATM   23  C12 UNL     1      -2.371   0.788  -1.510  1.00  0.00     0.109 C 
ENDBRANCH  15  17
ENDBRANCH  13  15
ENDBRANCH   1  13
TORSDOF 5
