REMARK  4 active torsions:
REMARK  status: ('A' for Active; 'I' for Inactive)
REMARK    1  A    between atoms: N1_2  and  C2_4 
REMARK    2  A    between atoms: C3_7  and  N3_8 
REMARK    3  A    between atoms: N3_8  and  C4_10 
REMARK    4  A    between atoms: C7_15  and  C8_16 
ROOT
HETATM    1  C4  UNL     1      -0.024   2.114  -0.874  1.00  0.00     0.137 A 
HETATM    2  C5  UNL     1      -0.848   2.969  -1.568  1.00  0.00     0.137 A 
HETATM    3  N4  UNL     1      -2.131   2.685  -1.715  1.00  0.00    -0.370 N 
ATOM      4  H4  UNL     1      -2.750   3.313  -2.228  1.00  0.00     0.164 HD
HETATM    5  C6  UNL     1      -2.601   1.541  -1.168  1.00  0.00     0.118 A 
HETATM    6  C7  UNL     1      -1.822   0.651  -0.466  1.00  0.00     0.060 A 
HETATM    7  N6  UNL     1      -0.523   0.985  -0.344  1.00  0.00    -0.339 N 
ATOM      8  H6  UNL     1       0.102   0.361   0.167  1.00  0.00     0.167 HD
ENDROOT
BRANCH   1   9
HETATM    9  N3  UNL     1       1.207   2.451  -0.771  1.00  0.00    -0.173 N 
ATOM     10  H3  UNL     1       1.489   3.328  -1.210  1.00  0.00     0.186 HD
BRANCH   9  11
HETATM   11  C3  UNL     1       2.200   1.719  -0.107  1.00  0.00     0.713 A 
HETATM   12  N2  UNL     1       2.637   0.495  -0.464  1.00  0.00    -0.020 N 
HETATM   13  C2  UNL     1       3.588   0.073   0.371  1.00  0.00     0.707 A 
ATOM     14  H2  UNL     1       2.289  -0.036  -1.263  1.00  0.00     0.203 HD
HETATM   15  N8  UNL     1       3.764   1.045   1.280  1.00  0.00    -0.117 N 
HETATM   16  N7  UNL     1       2.922   2.039   0.985  1.00  0.00    -0.117 N 
ATOM     17  H8  UNL     1       4.424   1.028   2.058  1.00  0.00     0.206 HD
ATOM     18  H7  UNL     1       2.838   2.910   1.508  1.00  0.00     0.206 HD
BRANCH  13  19
HETATM   19  N1  UNL     1       4.201  -1.055   0.296  1.00  0.00    -0.229 N 
HETATM   20  C1  UNL     1       3.899  -2.000  -0.744  1.00  0.00     0.165 C 
ATOM     21  H1  UNL     1       4.915  -1.283   0.988  1.00  0.00     0.177 HD
ENDBRANCH  13  19
ENDBRANCH   9  11
ENDBRANCH   1   9
BRANCH   6  22
HETATM   22  C8  UNL     1      -2.364  -0.573   0.109  1.00  0.00     0.007 A 
HETATM   23  C9  UNL     1      -3.684  -0.936  -0.001  1.00  0.00     0.016 A 
HETATM   24  C10 UNL     1      -4.209  -2.107   0.547  1.00  0.00     0.018 A 
HETATM   25  C11 UNL     1      -3.373  -2.943   1.233  1.00  0.00     0.087 A 
HETATM   26  N5  UNL     1      -2.081  -2.600   1.348  1.00  0.00    -0.374 N 
HETATM   27  C12 UNL     1      -1.579  -1.465   0.814  1.00  0.00     0.101 A 
ATOM     28  H5  UNL     1      -1.453  -3.221   1.859  1.00  0.00     0.164 HD
ENDBRANCH   6  22
TORSDOF 4
