REMARK  3 active torsions:
REMARK  status: ('A' for Active; 'I' for Inactive)
REMARK    1  A    between atoms: C2_2  and  C3_3 
REMARK    2  A    between atoms: C3_3  and  N1_4 
REMARK    3  A    between atoms: N1_4  and  C4_6 
ROOT
HETATM    1  C4  UNL     1       0.228  -0.198  -0.371  1.00  0.00     0.123 A 
HETATM    2  N2  UNL     1       0.570   0.450  -1.503  1.00  0.00    -0.285 N 
ATOM      3  H2  UNL     1      -0.082   0.726  -2.237  1.00  0.00     0.188 HD
HETATM    4  N3  UNL     1       1.881   0.678  -1.525  1.00  0.00    -0.303 N 
ATOM      5  H3  UNL     1       2.380   1.154  -2.277  1.00  0.00     0.186 HD
HETATM    6  C5  UNL     1       2.451   0.188  -0.408  1.00  0.00     0.031 A 
HETATM    7  C6  UNL     1       3.872   0.206   0.008  1.00  0.00     0.070 C 
HETATM    8  C7  UNL     1       1.412  -0.362   0.316  1.00  0.00     0.007 A 
HETATM    9  C8  UNL     1       1.566  -1.025   1.632  1.00  0.00     0.054 C 
ENDROOT
BRANCH   1  10
HETATM   10  N1  UNL     1      -0.936  -0.595   0.020  1.00  0.00    -0.375 N 
ATOM     11  H1  UNL     1      -1.056  -1.080   0.909  1.00  0.00     0.161 HD
BRANCH  10  12
HETATM   12  C3  UNL     1      -2.057  -0.331  -0.839  1.00  0.00     0.121 C 
BRANCH  12  13
HETATM   13  C2  UNL     1      -3.366  -0.260  -0.094  1.00  0.00     0.015 C 
HETATM   14  C1  UNL     1      -3.380   0.825   0.948  1.00  0.00     0.006 C 
ENDBRANCH  12  13
ENDBRANCH  10  12
ENDBRANCH   1  10
TORSDOF 3
