REMARK  2 active torsions:
REMARK  status: ('A' for Active; 'I' for Inactive)
REMARK    1  A    between atoms: C1_2  and  N1_3 
REMARK    2  A    between atoms: N1_3  and  N2_5 
ROOT
HETATM    1  N2  UNL     1       1.237  -0.320  -1.121  1.00  0.00    -0.287 N 
ATOM      2  H2  UNL     1       1.474  -0.051  -2.076  1.00  0.00     0.188 HD
HETATM    3  C2  UNL     1       0.018  -0.268  -0.688  1.00  0.00     0.091 C 
HETATM    4  C3  UNL     1      -0.491  -0.628   0.681  1.00  0.00     0.079 C 
HETATM    5  C4  UNL     1      -1.664   0.299   0.856  1.00  0.00     0.027 C 
HETATM    6  C5  UNL     1      -2.037   0.801  -0.508  1.00  0.00     0.121 C 
HETATM    7  N3  UNL     1      -1.144   0.147  -1.420  1.00  0.00    -0.379 N 
ATOM      8  H3  UNL     1      -1.307   0.002  -2.416  1.00  0.00     0.160 HD
ENDROOT
BRANCH   1   9
HETATM    9  N1  UNL     1       2.214  -0.760  -0.224  1.00  0.00    -0.276 N 
ATOM     10  H1  UNL     1       2.211  -1.733   0.084  1.00  0.00     0.189 HD
BRANCH   9  11
HETATM   11  C1  UNL     1       3.206   0.119   0.264  1.00  0.00     0.368 C 
HETATM   12  O1  UNL     1       3.270   1.327  -0.071  1.00  0.00    -0.282 OA
ENDBRANCH   9  11
ENDBRANCH   1   9
TORSDOF 2
