REMARK  6 active torsions:
REMARK  status: ('A' for Active; 'I' for Inactive)
REMARK       I    between atoms: C2_2  and  N1_4 
REMARK    1  A    between atoms: N1_4  and  C3_6 
REMARK    2  A    between atoms: C4_7  and  C5_8 
REMARK    3  A    between atoms: C6_13  and  N4_14 
REMARK    4  A    between atoms: N4_14  and  N5_16 
REMARK    5  A    between atoms: N8_27  and  C11_28 
REMARK    6  A    between atoms: C12_30  and  O4_31 
ROOT
HETATM    1  C5  UNL     1      -0.467  -0.165  -0.118  1.00  0.00     0.148 A 
HETATM    2  N2  UNL     1      -0.329   0.959   0.570  1.00  0.00    -0.279 N 
ATOM      3  H2  UNL     1      -1.128   1.353   1.067  1.00  0.00     0.188 HD
HETATM    4  N3  UNL     1       0.852   1.575   0.613  1.00  0.00    -0.130 N 
ATOM      5  H3  UNL     1       0.933   2.439   1.149  1.00  0.00     0.205 HD
HETATM    6  C6  UNL     1       1.932   1.109  -0.016  1.00  0.00     0.714 A 
HETATM    7  N6  UNL     1       1.819  -0.030  -0.721  1.00  0.00    -0.151 N 
ATOM      8  H6  UNL     1       2.629  -0.410  -1.212  1.00  0.00     0.188 HD
HETATM    9  C10 UNL     1       0.632  -0.670  -0.778  1.00  0.00     0.290 A 
HETATM   10  O2  UNL     1       0.558  -1.750  -1.456  1.00  0.00    -0.265 OA
ENDROOT
BRANCH   1  11
HETATM   11  C4  UNL     1      -1.754  -0.886  -0.197  1.00  0.00     0.113 A 
HETATM   12  C3  UNL     1      -2.932  -0.519   0.397  1.00  0.00     0.119 A 
HETATM   13  C12 UNL     1      -3.849  -1.501   0.037  1.00  0.00     0.194 A 
HETATM   14  N8  UNL     1      -3.235  -2.422  -0.746  1.00  0.00    -0.206 N 
HETATM   15  N7  UNL     1      -1.983  -2.010  -0.857  1.00  0.00    -0.285 N 
ATOM     16  H7  UNL     1      -1.271  -2.505  -1.393  1.00  0.00     0.188 HD
BRANCH  12  17
HETATM   17  N1  UNL     1      -3.143   0.618   1.199  1.00  0.00    -0.322 N 
HETATM   18  C2  UNL     1      -3.555   1.879   0.664  1.00  0.00     0.218 C 
HETATM   19  C1  UNL     1      -3.768   3.058   1.542  1.00  0.00     0.117 C 
HETATM   20  O1  UNL     1      -3.749   2.032  -0.560  1.00  0.00    -0.274 OA
ATOM     21  H1  UNL     1      -2.996   0.540   2.205  1.00  0.00     0.169 HD
ENDBRANCH  12  17
BRANCH  13  22
HETATM   22  O4  UNL     1      -5.177  -1.537   0.414  1.00  0.00    -0.343 OA
ATOM     23  H4  UNL     1      -5.803  -2.208   0.168  1.00  0.00     0.219 HD
ENDBRANCH  13  22
BRANCH  14  24
HETATM   24  C11 UNL     1      -3.831  -3.571  -1.312  1.00  0.00     0.378 C 
HETATM   25  O3  UNL     1      -3.158  -4.346  -2.019  1.00  0.00    -0.281 OA
ENDBRANCH  14  24
ENDBRANCH   1  11
BRANCH   6  26
HETATM   26  N4  UNL     1       3.068   1.713   0.033  1.00  0.00    -0.131 N 
ATOM     27  H4  UNL     1       3.124   2.575   0.575  1.00  0.00     0.205 HD
BRANCH  26  28
HETATM   28  N5  UNL     1       4.212   1.276  -0.596  1.00  0.00    -0.295 N 
HETATM   29  C7  UNL     1       4.964   0.380  -0.072  1.00  0.00    -0.004 C 
HETATM   30  C8  UNL     1       4.652  -0.239   1.235  1.00  0.00     0.064 C 
HETATM   31  C9  UNL     1       6.180  -0.045  -0.800  1.00  0.00     0.064 C 
ATOM     32  H5  UNL     1       4.467   1.674  -1.500  1.00  0.00     0.186 HD
ENDBRANCH  26  28
ENDBRANCH   6  26
TORSDOF 6
