REMARK  2 active torsions:
REMARK  status: ('A' for Active; 'I' for Inactive)
REMARK    1  A    between atoms: C1_2  and  C2_4 
REMARK       I    between atoms: N3_8  and  C4_10 
REMARK    2  A    between atoms: C4_10  and  C5_12 
ROOT
HETATM    1  C2  UNL     1      -1.621  -0.098  -0.162  1.00  0.00     0.155 A 
HETATM    2  N2  UNL     1      -0.330  -0.024  -0.529  1.00  0.00    -0.183 N 
ATOM      3  H2  UNL     1       0.157   0.827  -0.810  1.00  0.00     0.184 HD
HETATM    4  C3  UNL     1       0.223  -1.267  -0.465  1.00  0.00     0.687 A 
HETATM    5  N3  UNL     1       1.438  -1.616  -0.739  1.00  0.00    -0.153 N 
ATOM      6  H3  UNL     1       1.724  -2.591  -0.648  1.00  0.00     0.187 HD
HETATM    7  C4  UNL     1       2.364  -0.643  -1.163  1.00  0.00     0.305 C 
HETATM    8  O2  UNL     1       2.681  -0.522  -2.372  1.00  0.00    -0.263 OA
HETATM    9  N8  UNL     1      -0.757  -2.097  -0.052  1.00  0.00    -0.176 N 
ATOM     10  H8  UNL     1      -0.652  -3.101   0.093  1.00  0.00     0.185 HD
HETATM   11  C6  UNL     1      -1.905  -1.395   0.142  1.00  0.00     0.164 A 
HETATM   12  N9  UNL     1      -3.132  -1.982   0.581  1.00  0.00    -0.080 NA
ENDROOT
BRANCH   1  13
HETATM   13  C1  UNL     1      -2.533   1.020  -0.106  1.00  0.00     0.285 C 
HETATM   14  N1  UNL     1      -2.148   2.340  -0.441  1.00  0.00    -0.056 NA
HETATM   15  O1  UNL     1      -3.750   0.875   0.254  1.00  0.00    -0.269 OA
ENDBRANCH   1  13
BRANCH   7  16
HETATM   16  C5  UNL     1       2.993   0.265  -0.211  1.00  0.00     0.201 A 
HETATM   17  N4  UNL     1       3.890   1.239  -0.466  1.00  0.00    -0.266 N 
HETATM   18  N5  UNL     1       4.216   1.837   0.669  1.00  0.00    -0.007 NA
ATOM     19  H4  UNL     1       4.259   1.477  -1.387  1.00  0.00     0.185 HD
HETATM   20  N6  UNL     1       3.543   1.270   1.670  1.00  0.00    -0.007 NA
HETATM   21  N7  UNL     1       2.803   0.317   1.133  1.00  0.00    -0.266 N 
ATOM     22  H7  UNL     1       2.176  -0.295   1.655  1.00  0.00     0.185 HD
ENDBRANCH   7  16
TORSDOF 2
