REMARK  12 active torsions:
REMARK  status: ('A' for Active; 'I' for Inactive)
REMARK    1  A    between atoms: N1_1  and  C1_5 
REMARK    2  A    between atoms: C1_5  and  N2_6 
REMARK    3  A    between atoms: C1_5  and  C2_10 
REMARK    4  A    between atoms: C2_10  and  C3_11 
REMARK    5  A    between atoms: C3_11  and  C4_12 
REMARK    6  A    between atoms: C4_12  and  N3_13 
REMARK    7  A    between atoms: C4_12  and  N4_17 
REMARK    8  A    between atoms: N4_17  and  C5_19 
REMARK    9  A    between atoms: C8_24  and  N6_25 
REMARK   10  A    between atoms: N6_25  and  C9_27 
REMARK   11  A    between atoms: C9_27  and  C10_28 
REMARK   12  A    between atoms: C10_28  and  O1_29 
ROOT
HETATM    1  C4  UNL     1      -1.774  -1.497  -0.072  1.00  0.00     0.283 C 
ENDROOT
BRANCH   1   2
HETATM    2  C3  UNL     1      -3.084  -0.897   0.372  1.00  0.00     0.058 C 
BRANCH   2   3
HETATM    3  C2  UNL     1      -3.118   0.605   0.073  1.00  0.00     0.066 C 
BRANCH   3   4
HETATM    4  C1  UNL     1      -4.439   1.197   0.524  1.00  0.00     0.378 C 
BRANCH   4   5
HETATM    5  N1  UNL     1      -4.473   2.617   0.241  1.00  0.00    -0.051 N 
ATOM      6  H13 UNL     1      -4.460   2.797  -0.763  1.00  0.00     0.276 HD
ATOM      7  H12 UNL     1      -5.384   3.020   0.463  1.00  0.00     0.276 HD
ATOM      8  H11 UNL     1      -3.720   3.113   0.718  1.00  0.00     0.276 HD
ENDBRANCH   4   5
BRANCH   4   9
HETATM    9  N2  UNL     1      -5.504   0.496  -0.151  1.00  0.00    -0.051 N 
ATOM     10  H23 UNL     1      -6.415   0.899   0.071  1.00  0.00     0.276 HD
ATOM     11  H22 UNL     1      -5.491   0.676  -1.155  1.00  0.00     0.276 HD
ATOM     12  H21 UNL     1      -5.480  -0.504   0.048  1.00  0.00     0.276 HD
ENDBRANCH   4   9
ENDBRANCH   3   4
ENDBRANCH   2   3
ENDBRANCH   1   2
BRANCH   1  13
HETATM   13  N3  UNL     1      -1.783  -2.899   0.226  1.00  0.00    -0.058 N 
ATOM     14  H33 UNL     1      -1.985  -3.087   1.208  1.00  0.00     0.276 HD
ATOM     15  H32 UNL     1      -2.588  -3.378  -0.178  1.00  0.00     0.276 HD
ATOM     16  H31 UNL     1      -0.897  -3.305  -0.074  1.00  0.00     0.276 HD
ENDBRANCH   1  13
BRANCH   1  17
HETATM   17  N4  UNL     1      -0.638  -0.786   0.405  1.00  0.00    -0.348 N 
ATOM     18  H4  UNL     1      -0.790  -0.155   1.192  1.00  0.00     0.163 HD
BRANCH  17  19
HETATM   19  C5  UNL     1       0.545  -0.857  -0.048  1.00  0.00     0.119 A 
HETATM   20  C6  UNL     1       0.818  -1.691  -1.110  1.00  0.00     0.066 A 
HETATM   21  C7  UNL     1       2.119  -1.730  -1.563  1.00  0.00     0.110 A 
HETATM   22  N5  UNL     1       3.054  -0.979  -0.976  1.00  0.00    -0.202 N 
HETATM   23  C8  UNL     1       2.799  -0.160   0.064  1.00  0.00     0.679 A 
ATOM     24  H5  UNL     1       4.009  -1.027  -1.332  1.00  0.00     0.183 HD
HETATM   25  N7  UNL     1       1.531  -0.118   0.510  1.00  0.00    -0.177 N 
ATOM     26  H7  UNL     1       1.305   0.492   1.296  1.00  0.00     0.185 HD
BRANCH  23  27
HETATM   27  N6  UNL     1       3.698   0.567   0.634  1.00  0.00    -0.224 N 
ATOM     28  H6  UNL     1       3.408   1.156   1.415  1.00  0.00     0.177 HD
BRANCH  27  29
HETATM   29  C9  UNL     1       5.072   0.604   0.247  1.00  0.00     0.164 C 
BRANCH  29  30
HETATM   30  C10 UNL     1       5.702   1.850   0.874  1.00  0.00     0.184 C 
BRANCH  30  31
HETATM   31  O1  UNL     1       5.086   3.002   0.454  1.00  0.00    -0.399 OA
ATOM     32  H1  UNL     1       5.477   3.775   0.843  1.00  0.00     0.209 HD
ENDBRANCH  30  31
ENDBRANCH  29  30
ENDBRANCH  27  29
ENDBRANCH  23  27
ENDBRANCH  17  19
ENDBRANCH   1  17
TORSDOF 12
