REMARK  9 active torsions:
REMARK  status: ('A' for Active; 'I' for Inactive)
REMARK    1  A    between atoms: C2_2  and  N1_3 
REMARK       I    between atoms: N1_3  and  C3_5 
REMARK       I    between atoms: C3_5  and  N2_7 
REMARK    2  A    between atoms: N2_7  and  C5_9 
REMARK    3  A    between atoms: C5_9  and  C6_10 
REMARK    4  A    between atoms: C6_10  and  C7_11 
REMARK    5  A    between atoms: C7_11  and  C8_12 
REMARK    6  A    between atoms: C8_12  and  C9_13 
REMARK    7  A    between atoms: C9_13  and  C10_14 
REMARK    8  A    between atoms: C10_14  and  C11_15 
REMARK       I    between atoms: N4_18  and  C12_20 
REMARK    9  A    between atoms: C12_20  and  C13_22 
ROOT
HETATM    1  C13 UNL     1      -0.583  -0.805   0.661  1.00  0.00     0.042 C 
HETATM    2  C14 UNL     1      -0.389  -1.033   2.171  1.00  0.00     0.026 C 
HETATM    3  C15 UNL     1      -0.421   0.678   0.431  1.00  0.00     0.020 C 
HETATM    4  C16 UNL     1      -1.750   1.197  -0.070  1.00  0.00     0.011 C 
HETATM    5  C17 UNL     1      -2.509   0.013  -0.575  1.00  0.00    -0.031 C 
HETATM    6  C18 UNL     1      -2.193  -0.153  -2.026  1.00  0.00     0.016 C 
HETATM    7  C19 UNL     1      -1.940  -1.101   0.287  1.00  0.00     0.012 C 
HETATM    8  C20 UNL     1      -2.304  -2.375  -0.378  1.00  0.00     0.007 C 
HETATM    9  C21 UNL     1      -3.830  -2.488  -0.238  1.00  0.00     0.006 C 
HETATM   10  C22 UNL     1      -4.574  -1.301  -0.713  1.00  0.00     0.000 C 
HETATM   11  C23 UNL     1      -6.008  -1.422  -0.248  1.00  0.00     0.063 C 
HETATM   12  C24 UNL     1      -6.679  -0.109  -0.401  1.00  0.00     0.017 A 
HETATM   13  N5  UNL     1      -7.958   0.237  -0.130  1.00  0.00    -0.358 N 
ATOM     14  H5  UNL     1      -8.663  -0.403   0.235  1.00  0.00     0.166 HD
HETATM   15  C25 UNL     1      -8.178   1.532  -0.404  1.00  0.00     0.043 A 
HETATM   16  C26 UNL     1      -9.295   2.362  -0.302  1.00  0.00     0.033 A 
HETATM   17  C27 UNL     1      -9.249   3.689  -0.660  1.00  0.00     0.044 A 
HETATM   18  C28 UNL     1      -8.059   4.211  -1.132  1.00  0.00     0.117 A 
HETATM   19  F1  UNL     1      -7.981   5.528  -1.496  1.00  0.00    -0.206 F 
HETATM   20  C29 UNL     1      -6.964   3.399  -1.231  1.00  0.00     0.056 A 
HETATM   21  C30 UNL     1      -6.998   2.053  -0.874  1.00  0.00     0.002 A 
HETATM   22  C31 UNL     1      -6.079   1.034  -0.868  1.00  0.00    -0.022 A 
HETATM   23  C32 UNL     1      -4.624   1.040  -1.273  1.00  0.00     0.052 C 
HETATM   24  C33 UNL     1      -3.969   0.030  -0.317  1.00  0.00    -0.028 C 
HETATM   25  C34 UNL     1      -4.347   0.436   1.071  1.00  0.00     0.016 C 
ENDROOT
BRANCH   1  26
HETATM   26  C12 UNL     1       0.525  -1.579   0.027  1.00  0.00     0.230 C 
HETATM   27  N4  UNL     1       1.794  -1.241   0.327  1.00  0.00    -0.334 N 
HETATM   28  C8  UNL     1       2.992  -1.421   0.398  1.00  0.00    -0.010 C 
ATOM     29  H4  UNL     1       1.688  -0.303   0.713  1.00  0.00     0.168 HD
HETATM   30  O3  UNL     1       0.217  -2.517  -0.760  1.00  0.00    -0.272 OA
BRANCH  28  31
HETATM   31  C7  UNL     1       3.816  -0.293   0.974  1.00  0.00     0.054 C 
BRANCH  31  32
HETATM   32  C6  UNL     1       4.324   0.681   0.016  1.00  0.00     0.026 C 
BRANCH  32  33
HETATM   33  C5  UNL     1       5.321   0.431  -1.017  1.00  0.00     0.127 C 
BRANCH  33  34
HETATM   34  N2  UNL     1       6.656   0.148  -0.578  1.00  0.00    -0.339 N 
HETATM   35  C3  UNL     1       7.575   1.233  -0.330  1.00  0.00     0.317 C 
HETATM   36  N1  UNL     1       7.205   2.572  -0.462  1.00  0.00    -0.343 N 
HETATM   37  O1  UNL     1       8.747   0.962   0.018  1.00  0.00    -0.247 OA
ATOM     38  H1  UNL     1       6.249   2.786  -0.748  1.00  0.00     0.164 HD
HETATM   39  C4  UNL     1       7.163  -1.187  -0.404  1.00  0.00     0.154 C 
BRANCH  36  40
HETATM   40  C2  UNL     1       8.120   3.680  -0.211  1.00  0.00     0.120 C 
HETATM   41  C1  UNL     1       9.315   3.644  -1.119  1.00  0.00     0.026 C 
ENDBRANCH  36  40
ENDBRANCH  33  34
ENDBRANCH  32  33
ENDBRANCH  31  32
ENDBRANCH  28  31
BRANCH  28  42
HETATM   42  C9  UNL     1       3.641  -2.645  -0.069  1.00  0.00     0.061 C 
BRANCH  42  43
HETATM   43  C10 UNL     1       4.364  -3.411   1.030  1.00  0.00     0.105 C 
BRANCH  43  44
HETATM   44  C11 UNL     1       3.524  -3.885   2.115  1.00  0.00     0.231 C 
HETATM   45  N3  UNL     1       4.115  -4.345   3.319  1.00  0.00    -0.062 NA
HETATM   46  O2  UNL     1       2.288  -3.911   2.039  1.00  0.00    -0.277 OA
ENDBRANCH  43  44
ENDBRANCH  42  43
ENDBRANCH  28  42
ENDBRANCH   1  26
TORSDOF 9
