REMARK  15 active torsions:
REMARK  status: ('A' for Active; 'I' for Inactive)
REMARK    1  A    between atoms: C2_2  and  O1_3 
REMARK    2  A    between atoms: O1_3  and  C3_4 
REMARK    3  A    between atoms: C3_4  and  C4_6 
REMARK    4  A    between atoms: C4_6  and  C5_7 
REMARK    5  A    between atoms: C5_7  and  C6_8 
REMARK    6  A    between atoms: C6_8  and  N1_9 
REMARK    7  A    between atoms: C6_8  and  C30_44 
REMARK       I    between atoms: N1_9  and  C7_11 
REMARK    8  A    between atoms: C7_11  and  C8_13 
REMARK    9  A    between atoms: C8_13  and  C9_14 
REMARK   10  A    between atoms: C9_14  and  C10_15 
REMARK   11  A    between atoms: C10_15  and  C11_16 
REMARK   12  A    between atoms: C11_16  and  C12_17 
REMARK   13  A    between atoms: C12_17  and  C13_18 
REMARK   14  A    between atoms: C15_23  and  C16_24 
REMARK   15  A    between atoms: C16_24  and  C17_25 
ROOT
HETATM    1  C13 UNL     1      -1.167   0.050  -0.904  1.00  0.00     0.176 C 
HETATM    2  N2  UNL     1      -1.995  -1.092  -1.219  1.00  0.00    -0.347 N 
ATOM      3  H2  UNL     1      -1.726  -1.542  -2.094  1.00  0.00     0.163 HD
HETATM    4  C14 UNL     1      -3.056  -1.708  -0.614  1.00  0.00     0.224 C 
HETATM    5  O4  UNL     1      -2.968  -2.929  -0.293  1.00  0.00    -0.273 OA
HETATM    6  C15 UNL     1      -4.422  -1.192  -0.221  1.00  0.00     0.100 C 
HETATM    7  C23 UNL     1      -4.652  -1.232   1.228  1.00  0.00     0.091 C 
HETATM    8  C24 UNL     1      -5.345   0.021   1.707  1.00  0.00     0.033 C 
HETATM    9  N3  UNL     1      -3.460  -1.535   2.005  1.00  0.00    -0.377 N 
ATOM     10  H3  UNL     1      -3.261  -2.532   2.087  1.00  0.00     0.160 HD
HETATM   11  C25 UNL     1      -2.552  -0.731   2.649  1.00  0.00     0.101 C 
HETATM   12  S1  UNL     1      -2.087  -1.216   4.185  1.00  0.00    -0.063 SA
HETATM   13  C26 UNL     1      -1.851   0.507   2.269  1.00  0.00     0.078 C 
HETATM   14  C27 UNL     1      -2.014   1.467   3.485  1.00  0.00     0.046 C 
HETATM   15  C28 UNL     1      -0.338   0.209   2.303  1.00  0.00     0.046 C 
HETATM   16  N4  UNL     1      -2.285   1.204   1.131  1.00  0.00    -0.344 N 
ATOM     17  H4  UNL     1      -2.935   1.963   1.336  1.00  0.00     0.163 HD
HETATM   18  C29 UNL     1      -1.997   1.059  -0.236  1.00  0.00     0.241 C 
HETATM   19  O5  UNL     1      -2.526   1.928  -1.032  1.00  0.00    -0.271 OA
ENDROOT
BRANCH   1  20
HETATM   20  C12 UNL     1      -0.657   0.676  -2.230  1.00  0.00     0.035 C 
BRANCH  20  21
HETATM   21  C11 UNL     1       0.215   1.849  -2.044  1.00  0.00     0.002 C 
BRANCH  21  22
HETATM   22  C10 UNL     1       1.484   1.544  -1.264  1.00  0.00     0.001 C 
BRANCH  22  23
HETATM   23  C9  UNL     1       2.324   0.517  -1.929  1.00  0.00     0.009 C 
BRANCH  23  24
HETATM   24  C8  UNL     1       3.565   0.160  -1.189  1.00  0.00     0.103 C 
BRANCH  24  25
HETATM   25  C7  UNL     1       4.508   1.272  -1.008  1.00  0.00     0.222 C 
HETATM   26  N1  UNL     1       5.739   1.078  -0.288  1.00  0.00    -0.325 N 
ATOM     27  H1  UNL     1       5.937   0.151   0.088  1.00  0.00     0.169 HD
HETATM   28  O3  UNL     1       4.320   2.420  -1.449  1.00  0.00    -0.273 OA
BRANCH  26  29
HETATM   29  C6  UNL     1       6.709   2.125  -0.069  1.00  0.00     0.089 C 
BRANCH  29  30
HETATM   30  C5  UNL     1       7.887   2.012  -0.965  1.00  0.00     0.074 C 
BRANCH  30  31
HETATM   31  C4  UNL     1       8.677   0.786  -0.996  1.00  0.00     0.117 C 
BRANCH  31  32
HETATM   32  C3  UNL     1       9.381   0.302   0.188  1.00  0.00     0.259 C 
HETATM   33  O2  UNL     1       9.503   0.833   1.303  1.00  0.00    -0.265 OA
BRANCH  32  34
HETATM   34  O1  UNL     1      10.045  -0.967   0.106  1.00  0.00    -0.322 OA
BRANCH  34  35
HETATM   35  C2  UNL     1      10.738  -1.493   1.205  1.00  0.00     0.174 C 
HETATM   36  C1  UNL     1      11.345  -2.842   0.841  1.00  0.00     0.034 C 
ENDBRANCH  34  35
ENDBRANCH  32  34
ENDBRANCH  31  32
ENDBRANCH  30  31
ENDBRANCH  29  30
BRANCH  29  37
HETATM   37  C30 UNL     1       6.934   2.444   1.322  1.00  0.00     0.222 C 
HETATM   38  O6  UNL     1       6.431   1.798   2.299  1.00  0.00    -0.643 OA
HETATM   39  O7  UNL     1       7.759   3.543   1.639  1.00  0.00    -0.643 OA
ENDBRANCH  29  37
ENDBRANCH  26  29
ENDBRANCH  24  25
ENDBRANCH  23  24
ENDBRANCH  22  23
ENDBRANCH  21  22
ENDBRANCH  20  21
ENDBRANCH   1  20
BRANCH   6  40
HETATM   40  C16 UNL     1      -5.373  -1.888  -1.086  1.00  0.00     0.020 C 
BRANCH  40  41
HETATM   41  C17 UNL     1      -6.807  -1.723  -1.152  1.00  0.00    -0.014 C 
HETATM   42  C18 UNL     1      -7.732  -2.012  -0.053  1.00  0.00     0.005 C 
HETATM   43  C19 UNL     1      -8.896  -1.017   0.028  1.00  0.00     0.000 C 
HETATM   44  C20 UNL     1      -9.606  -0.855  -1.273  1.00  0.00     0.000 C 
HETATM   45  C21 UNL     1      -8.581  -0.492  -2.323  1.00  0.00     0.000 C 
HETATM   46  C22 UNL     1      -7.203  -0.343  -1.737  1.00  0.00     0.005 C 
ENDBRANCH  40  41
ENDBRANCH   6  40
TORSDOF 15
