REMARK  15 active torsions:
REMARK  status: ('A' for Active; 'I' for Inactive)
REMARK    1  A    between atoms: S1_2  and  C2_4 
REMARK    2  A    between atoms: C2_4  and  C3_5 
REMARK    3  A    between atoms: C3_5  and  C4_6 
REMARK    4  A    between atoms: C4_6  and  N1_7 
REMARK    5  A    between atoms: C4_6  and  C31_46 
REMARK       I    between atoms: N1_7  and  C5_9 
REMARK    6  A    between atoms: C5_9  and  C6_11 
REMARK    7  A    between atoms: C6_11  and  C7_12 
REMARK    8  A    between atoms: C6_11  and  N3_23 
REMARK    9  A    between atoms: C7_12  and  C8_13 
REMARK   10  A    between atoms: C8_13  and  C9_14 
REMARK   11  A    between atoms: C9_14  and  C10_15 
REMARK       I    between atoms: N3_23  and  C15_25 
REMARK   12  A    between atoms: C15_25  and  C16_27 
REMARK   13  A    between atoms: C16_27  and  N4_28 
REMARK       I    between atoms: N4_28  and  C17_30 
REMARK   14  A    between atoms: C17_30  and  O5_32 
REMARK   15  A    between atoms: O5_32  and  C18_33 
ROOT
HETATM    1  C6  UNL     1      -0.992   0.641   0.038  1.00  0.00     0.080 C 
ENDROOT
BRANCH   1   2
HETATM    2  C5  UNL     1      -1.317   1.826  -0.738  1.00  0.00     0.264 C 
HETATM    3  N1  UNL     1      -2.461   2.604  -0.645  1.00  0.00    -0.341 N 
ATOM      4  H1  UNL     1      -3.186   2.363   0.031  1.00  0.00     0.163 HD
HETATM    5  O2  UNL     1      -0.428   2.191  -1.606  1.00  0.00    -0.266 OA
BRANCH   3   6
HETATM    6  C4  UNL     1      -2.635   3.781  -1.521  1.00  0.00     0.186 C 
BRANCH   6   7
HETATM    7  C3  UNL     1      -3.945   3.714  -2.219  1.00  0.00     0.049 C 
BRANCH   7   8
HETATM    8  C2  UNL     1      -5.153   3.663  -1.343  1.00  0.00     0.111 C 
BRANCH   8   9
HETATM    9  S1  UNL     1      -5.393   5.055  -0.297  1.00  0.00     0.010 S 
HETATM   10  C1  UNL     1      -6.879   4.793   0.684  1.00  0.00     0.127 C 
HETATM   11  O1  UNL     1      -5.712   6.436  -1.228  1.00  0.00    -0.258 OA
ENDBRANCH   8   9
ENDBRANCH   7   8
ENDBRANCH   6   7
BRANCH   6  12
HETATM   12  C31 UNL     1      -2.356   5.034  -0.793  1.00  0.00     0.196 C 
HETATM   13  O6  UNL     1      -2.079   5.031   0.421  1.00  0.00    -0.646 OA
HETATM   14  O7  UNL     1      -2.407   6.211  -1.493  1.00  0.00    -0.646 OA
ENDBRANCH   6  12
ENDBRANCH   3   6
ENDBRANCH   1   2
BRANCH   1  15
HETATM   15  C7  UNL     1      -2.026   0.095   0.961  1.00  0.00     0.063 C 
BRANCH  15  16
HETATM   16  C8  UNL     1      -3.281  -0.398   0.295  1.00  0.00     0.008 C 
BRANCH  16  17
HETATM   17  C9  UNL     1      -4.320  -0.896   1.258  1.00  0.00     0.033 C 
BRANCH  17  18
HETATM   18  C10 UNL     1      -3.820  -2.028   2.096  1.00  0.00     0.185 C 
HETATM   19  C11 UNL     1      -3.414  -3.197   1.245  1.00  0.00     0.033 C 
HETATM   20  C12 UNL     1      -4.539  -3.658   0.347  1.00  0.00     0.004 C 
HETATM   21  C13 UNL     1      -5.834  -3.808   1.109  1.00  0.00     0.027 C 
HETATM   22  C14 UNL     1      -6.029  -2.838   2.219  1.00  0.00     0.232 C 
HETATM   23  N2  UNL     1      -4.870  -2.525   2.992  1.00  0.00    -0.071 N 
ATOM     24  H22 UNL     1      -4.556  -3.313   3.559  1.00  0.00     0.277 HD
ATOM     25  H21 UNL     1      -5.073  -1.875   3.751  1.00  0.00     0.277 HD
ENDBRANCH  17  18
ENDBRANCH  16  17
ENDBRANCH  15  16
ENDBRANCH   1  15
BRANCH   1  26
HETATM   26  N3  UNL     1       0.366   0.634   0.562  1.00  0.00    -0.324 N 
HETATM   27  C15 UNL     1       1.405  -0.093  -0.038  1.00  0.00     0.251 C 
HETATM   28  O3  UNL     1       1.040  -0.738  -1.104  1.00  0.00    -0.270 OA
ATOM     29  H3  UNL     1       0.570   1.180   1.399  1.00  0.00     0.169 HD
BRANCH  27  30
HETATM   30  C16 UNL     1       2.813  -0.197   0.387  1.00  0.00     0.120 C 
HETATM   31  C22 UNL     1       3.002  -1.614   0.934  1.00  0.00     0.047 C 
HETATM   32  C23 UNL     1       3.723  -1.603   2.256  1.00  0.00    -0.004 C 
HETATM   33  C24 UNL     1       2.819  -0.898   3.265  1.00  0.00     0.006 C 
HETATM   34  C28 UNL     1       5.022  -0.869   2.120  1.00  0.00    -0.043 C 
HETATM   35  C25 UNL     1       2.692   0.545   2.835  1.00  0.00     0.008 C 
HETATM   36  C26 UNL     1       3.231   0.734   1.459  1.00  0.00     0.024 C 
HETATM   37  C27 UNL     1       4.774   0.527   1.629  1.00  0.00     0.016 C 
HETATM   38  C29 UNL     1       5.742  -0.819   3.477  1.00  0.00     0.015 C 
HETATM   39  C30 UNL     1       5.942  -1.672   1.224  1.00  0.00     0.015 C 
BRANCH  30  40
HETATM   40  N4  UNL     1       3.647  -0.024  -0.784  1.00  0.00    -0.318 N 
HETATM   41  C17 UNL     1       3.838  -0.808  -1.900  1.00  0.00     0.362 C 
HETATM   42  O4  UNL     1       3.264  -1.902  -2.080  1.00  0.00    -0.238 OA
ATOM     43  H4  UNL     1       4.194   0.837  -0.782  1.00  0.00     0.166 HD
BRANCH  41  44
HETATM   44  O5  UNL     1       4.704  -0.434  -2.935  1.00  0.00    -0.294 OA
BRANCH  44  45
HETATM   45  C18 UNL     1       4.899  -1.229  -4.079  1.00  0.00     0.061 C 
HETATM   46  C19 UNL     1       5.902  -0.505  -4.952  1.00  0.00     0.046 C 
HETATM   47  C20 UNL     1       3.616  -1.378  -4.879  1.00  0.00     0.046 C 
HETATM   48  C21 UNL     1       5.434  -2.603  -3.795  1.00  0.00     0.046 C 
ENDBRANCH  44  45
ENDBRANCH  41  44
ENDBRANCH  30  40
ENDBRANCH  27  30
ENDBRANCH   1  26
TORSDOF 15
