REMARK  7 active torsions:
REMARK  status: ('A' for Active; 'I' for Inactive)
REMARK    1  A    between atoms: C5_5  and  C6_6 
REMARK    2  A    between atoms: C6_6  and  C7_7 
REMARK    3  A    between atoms: C8_10  and  C9_11 
REMARK    4  A    between atoms: C9_11  and  C10_12 
REMARK    5  A    between atoms: C13_15  and  C14_16 
REMARK    6  A    between atoms: C14_16  and  C15_17 
REMARK    7  A    between atoms: C15_17  and  O1_18 
ROOT
HETATM    1  C7  UNL     1       2.420  -1.438  -0.697  1.00  0.00     0.041 A 
HETATM    2  N1  UNL     1       1.126  -1.697  -0.567  1.00  0.00    -0.355 N 
ATOM      3  H1  UNL     1       0.733  -2.294   0.161  1.00  0.00     0.166 HD
HETATM    4  C8  UNL     1       0.400  -1.082  -1.503  1.00  0.00     0.040 A 
HETATM    5  C21 UNL     1       1.344  -0.379  -2.281  1.00  0.00    -0.027 A 
HETATM    6  C22 UNL     1       0.967   0.445  -3.438  1.00  0.00     0.051 C 
HETATM    7  C23 UNL     1       2.607  -0.602  -1.777  1.00  0.00    -0.027 A 
HETATM    8  C24 UNL     1       3.868  -0.038  -2.318  1.00  0.00     0.051 C 
ENDROOT
BRANCH   4   9
HETATM    9  C9  UNL     1      -1.012  -1.152  -1.743  1.00  0.00     0.042 C 
BRANCH   9  10
HETATM   10  C10 UNL     1      -2.077  -0.636  -1.203  1.00  0.00    -0.018 A 
HETATM   11  C11 UNL     1      -2.097   0.220  -0.121  1.00  0.00    -0.044 A 
HETATM   12  C12 UNL     1      -0.851   0.653   0.513  1.00  0.00     0.049 C 
HETATM   13  C13 UNL     1      -3.264   0.741   0.441  1.00  0.00    -0.043 A 
HETATM   14  C16 UNL     1      -4.441   0.359  -0.142  1.00  0.00    -0.054 A 
HETATM   15  C17 UNL     1      -5.730   0.896   0.430  1.00  0.00     0.049 C 
HETATM   16  C18 UNL     1      -4.476  -0.482  -1.211  1.00  0.00     0.018 A 
HETATM   17  C19 UNL     1      -3.317  -1.006  -1.776  1.00  0.00    -0.034 A 
HETATM   18  C20 UNL     1      -3.438  -1.815  -2.814  1.00  0.00     0.024 C 
BRANCH  13  19
HETATM   19  C14 UNL     1      -3.234   1.628   1.586  1.00  0.00     0.065 C 
BRANCH  19  20
HETATM   20  C15 UNL     1      -2.972   0.850   2.857  1.00  0.00     0.168 C 
BRANCH  20  21
HETATM   21  O1  UNL     1      -2.928   1.649   3.984  1.00  0.00    -0.401 OA
ATOM     22  H1  UNL     1      -2.763   1.161   4.782  1.00  0.00     0.209 HD
ENDBRANCH  20  21
ENDBRANCH  19  20
ENDBRANCH  13  19
ENDBRANCH   9  10
ENDBRANCH   4   9
BRANCH   1  23
HETATM   23  C6  UNL     1       3.495  -1.951   0.159  1.00  0.00     0.059 C 
BRANCH  23  24
HETATM   24  C5  UNL     1       4.154  -1.177   0.995  1.00  0.00     0.034 A 
HETATM   25  C4  UNL     1       5.169  -1.591   1.824  1.00  0.00     0.032 A 
HETATM   26  C3  UNL     1       5.594  -0.491   2.535  1.00  0.00     0.031 A 
HETATM   27  C2  UNL     1       4.847   0.599   2.150  1.00  0.00     0.023 A 
HETATM   28  C1  UNL     1       4.952   1.837   2.601  1.00  0.00     0.043 C 
HETATM   29  N2  UNL     1       3.994   0.143   1.223  1.00  0.00    -0.357 N 
ATOM     30  H2  UNL     1       3.305   0.725   0.746  1.00  0.00     0.166 HD
ENDBRANCH  23  24
ENDBRANCH   1  23
TORSDOF 7
