REMARK  9 active torsions:
REMARK  status: ('A' for Active; 'I' for Inactive)
REMARK    1  A    between atoms: N1_3  and  C3_4 
REMARK    2  A    between atoms: N1_3  and  C5_6 
REMARK    3  A    between atoms: C5_6  and  C6_7 
REMARK    4  A    between atoms: C6_7  and  C7_8 
REMARK    5  A    between atoms: C7_8  and  N2_9 
REMARK    6  A    between atoms: N2_9  and  C8_11 
REMARK    7  A    between atoms: C8_11  and  N3_13 
REMARK    8  A    between atoms: N3_13  and  C9_15 
REMARK    9  A    between atoms: C12_20  and  C13_21 
ROOT
HETATM    1  C9  UNL     1      -1.213  -1.238   0.209  1.00  0.00     0.685 A 
HETATM    2  N4  UNL     1      -2.015  -2.070   0.725  1.00  0.00    -0.193 N 
ATOM      3  H4  UNL     1      -1.590  -2.877   1.182  1.00  0.00     0.184 HD
HETATM    4  C10 UNL     1      -3.332  -2.022   0.744  1.00  0.00     0.051 A 
HETATM    5  C11 UNL     1      -4.307  -3.014   1.302  1.00  0.00     0.071 C 
HETATM    6  C12 UNL     1      -3.589  -0.882   0.093  1.00  0.00     0.082 A 
HETATM    7  N5  UNL     1      -2.465  -0.377  -0.249  1.00  0.00    -0.189 N 
ATOM      8  H5  UNL     1      -2.381   0.497  -0.768  1.00  0.00     0.184 HD
ENDROOT
BRANCH   1   9
HETATM    9  N3  UNL     1      -0.415  -0.392  -0.307  1.00  0.00    -0.166 N 
ATOM     10  H3  UNL     1      -0.698   0.588  -0.290  1.00  0.00     0.186 HD
BRANCH   9  11
HETATM   11  C8  UNL     1       0.794  -0.688  -0.884  1.00  0.00     0.186 C 
HETATM   12  S1  UNL     1       0.744  -1.671  -2.231  1.00  0.00    -0.040 SA
BRANCH  11  13
HETATM   13  N2  UNL     1       1.985  -0.147  -0.459  1.00  0.00    -0.367 N 
ATOM     14  H2  UNL     1       2.838  -0.505  -0.888  1.00  0.00     0.161 HD
BRANCH  13  15
HETATM   15  C7  UNL     1       2.133   0.887   0.546  1.00  0.00     0.123 C 
BRANCH  15  16
HETATM   16  C6  UNL     1       3.621   0.875   1.014  1.00  0.00     0.039 C 
BRANCH  16  17
HETATM   17  C5  UNL     1       4.490   0.715  -0.173  1.00  0.00     0.123 C 
BRANCH  17  18
HETATM   18  N1  UNL     1       5.868   0.492   0.287  1.00  0.00    -0.394 N 
HETATM   19  C2  UNL     1       6.045  -0.597   1.073  1.00  0.00     0.053 C 
HETATM   20  C1  UNL     1       6.890  -1.699   0.606  1.00  0.00     0.054 C 
BRANCH  18  21
HETATM   21  C3  UNL     1       6.813   1.448  -0.044  1.00  0.00     0.117 C 
HETATM   22  C4  UNL     1       7.977   0.833  -0.879  1.00  0.00     0.026 C 
ENDBRANCH  18  21
ENDBRANCH  17  18
ENDBRANCH  16  17
ENDBRANCH  15  16
ENDBRANCH  13  15
ENDBRANCH  11  13
ENDBRANCH   9  11
ENDBRANCH   1   9
BRANCH   6  23
HETATM   23  C13 UNL     1      -4.878  -0.234  -0.231  1.00  0.00    -0.001 A 
HETATM   24  C14 UNL     1      -5.516  -0.495  -1.419  1.00  0.00     0.015 A 
HETATM   25  C15 UNL     1      -6.678   0.266  -1.749  1.00  0.00     0.007 A 
HETATM   26  C16 UNL     1      -7.109   1.228  -0.845  1.00  0.00    -0.061 A 
HETATM   27  C17 UNL     1      -8.286   2.075  -1.126  1.00  0.00     0.048 C 
HETATM   28  C18 UNL     1      -6.397   1.424   0.344  1.00  0.00     0.014 A 
HETATM   29  C19 UNL     1      -5.321   0.731   0.656  1.00  0.00    -0.049 A 
HETATM   30  C20 UNL     1      -4.516   0.965   1.902  1.00  0.00     0.049 C 
ENDBRANCH   6  23
TORSDOF 9
