REMARK  9 active torsions:
REMARK  status: ('A' for Active; 'I' for Inactive)
REMARK    1  A    between atoms: O1_2  and  C2_3 
REMARK    2  A    between atoms: C2_3  and  C3_4 
REMARK    3  A    between atoms: C3_4  and  N1_5 
REMARK    4  A    between atoms: N1_5  and  C4_7 
REMARK    5  A    between atoms: C5_10  and  C6_11 
REMARK    6  A    between atoms: C15_24  and  N5_25 
REMARK    7  A    between atoms: N5_25  and  C16_26 
REMARK    8  A    between atoms: C16_26  and  C17_27 
REMARK    9  A    between atoms: C17_27  and  N6_28 
ROOT
HETATM    1  C4  UNL     1      -4.061  -1.125  -0.375  1.00  0.00     0.680 A 
HETATM    2  N2  UNL     1      -4.619   0.083  -0.389  1.00  0.00    -0.190 N 
ATOM      3  H2  UNL     1      -5.633   0.167  -0.466  1.00  0.00     0.184 HD
HETATM    4  C5  UNL     1      -3.851   1.221  -0.301  1.00  0.00     0.079 A 
HETATM    5  C12 UNL     1      -2.502   1.098  -0.195  1.00  0.00     0.105 A 
HETATM    6  C13 UNL     1      -1.689   2.181  -0.072  1.00  0.00     0.267 A 
HETATM    7  O2  UNL     1      -2.200   3.336  -0.075  1.00  0.00    -0.267 OA
HETATM    8  N4  UNL     1      -0.369   2.009   0.054  1.00  0.00    -0.278 N 
HETATM    9  C14 UNL     1       0.512   3.151   0.199  1.00  0.00     0.164 C 
HETATM   10  C15 UNL     1       0.253   0.788   0.070  1.00  0.00     0.264 A 
HETATM   11  N8  UNL     1      -0.595  -0.281  -0.053  1.00  0.00    -0.301 N 
ATOM     12  H8  UNL     1      -0.197  -1.220  -0.048  1.00  0.00     0.171 HD
HETATM   13  C24 UNL     1      -1.921  -0.150  -0.180  1.00  0.00     0.142 A 
HETATM   14  N9  UNL     1      -2.730  -1.232  -0.272  1.00  0.00    -0.175 N 
ATOM     15  H9  UNL     1      -2.311  -2.162  -0.263  1.00  0.00     0.186 HD
ENDROOT
BRANCH  10  16
HETATM   16  N5  UNL     1       1.441   0.627   0.159  1.00  0.00    -0.386 NA
BRANCH  16  17
HETATM   17  C16 UNL     1       2.741   0.411   0.256  1.00  0.00     0.178 C 
BRANCH  17  18
HETATM   18  C17 UNL     1       3.129  -1.038  -0.041  1.00  0.00     0.181 C 
BRANCH  18  19
HETATM   19  N6  UNL     1       4.532  -1.261  -0.005  1.00  0.00    -0.384 N 
HETATM   20  C18 UNL     1       5.210  -1.149   1.216  1.00  0.00     0.086 C 
HETATM   21  C19 UNL     1       6.683  -1.444   1.030  1.00  0.00     0.280 C 
HETATM   22  N7  UNL     1       7.210  -0.537   0.057  1.00  0.00    -0.069 N 
HETATM   23  C20 UNL     1       6.899   0.825   0.427  1.00  0.00     0.272 C 
HETATM   24  C21 UNL     1       8.654  -0.630  -0.116  1.00  0.00     0.272 C 
HETATM   25  C22 UNL     1       6.637  -0.885  -1.237  1.00  0.00     0.256 C 
HETATM   26  C23 UNL     1       5.130  -0.803  -1.201  1.00  0.00     0.150 C 
ENDBRANCH  18  19
ENDBRANCH  17  18
ENDBRANCH  16  17
ENDBRANCH  10  16
BRANCH   4  27
HETATM   27  C6  UNL     1      -4.611   2.477  -0.319  1.00  0.00     0.001 A 
HETATM   28  C7  UNL     1      -4.669   3.310  -1.420  1.00  0.00     0.031 A 
HETATM   29  C8  UNL     1      -5.504   4.404  -1.401  1.00  0.00     0.088 A 
HETATM   30  N3  UNL     1      -6.269   4.665  -0.307  1.00  0.00    -0.375 N 
HETATM   31  C9  UNL     1      -6.204   3.838   0.773  1.00  0.00     0.095 A 
ATOM     32  H3  UNL     1      -6.888   5.476  -0.296  1.00  0.00     0.164 HD
HETATM   33  C10 UNL     1      -5.384   2.736   0.799  1.00  0.00    -0.034 A 
HETATM   34  C11 UNL     1      -5.358   1.886   2.023  1.00  0.00     0.050 C 
ENDBRANCH   4  27
BRANCH   1  35
HETATM   35  N1  UNL     1      -4.863  -2.135  -0.469  1.00  0.00    -0.224 N 
ATOM     36  H1  UNL     1      -5.862  -1.943  -0.546  1.00  0.00     0.177 HD
BRANCH  35  37
HETATM   37  C3  UNL     1      -4.448  -3.499  -0.472  1.00  0.00     0.164 C 
BRANCH  37  38
HETATM   38  C2  UNL     1      -5.581  -4.416  -0.801  1.00  0.00     0.187 C 
BRANCH  38  39
HETATM   39  O1  UNL     1      -6.652  -4.424   0.015  1.00  0.00    -0.394 OA
HETATM   40  C1  UNL     1      -7.399  -3.298   0.204  1.00  0.00     0.201 C 
ENDBRANCH  38  39
ENDBRANCH  37  38
ENDBRANCH  35  37
ENDBRANCH   1  35
TORSDOF 9
