REMARK  12 active torsions:
REMARK  status: ('A' for Active; 'I' for Inactive)
REMARK    1  A    between atoms: C2_2  and  N1_3 
REMARK    2  A    between atoms: C2_2  and  O1_7 
REMARK    3  A    between atoms: N1_3  and  N2_4 
REMARK    4  A    between atoms: O1_7  and  C3_8 
REMARK    5  A    between atoms: C5_15  and  C6_16 
REMARK    6  A    between atoms: C8_23  and  C9_24 
REMARK    7  A    between atoms: C9_24  and  O3_25 
REMARK    8  A    between atoms: C9_24  and  O4_27 
REMARK    9  A    between atoms: C11_33  and  C12_34 
REMARK   10  A    between atoms: C12_34  and  N9_35 
REMARK   11  A    between atoms: C12_34  and  C13_40 
REMARK   12  A    between atoms: N9_35  and  N10_37 
ROOT
HETATM    1  C3  UNL     1      -0.945  -2.020  -0.296  1.00  0.00     0.177 A 
HETATM    2  N3  UNL     1      -0.078  -2.597  -1.189  1.00  0.00    -0.319 N 
ATOM      3  H3  UNL     1      -0.380  -3.416  -1.717  1.00  0.00     0.169 HD
HETATM    4  C4  UNL     1       1.157  -2.111  -1.386  1.00  0.00     0.132 A 
HETATM    5  N4  UNL     1       1.942  -2.687  -2.238  1.00  0.00    -0.383 N 
ATOM      6  H41 UNL     1       2.881  -2.318  -2.388  1.00  0.00     0.157 HD
ATOM      7  H42 UNL     1       1.609  -3.504  -2.749  1.00  0.00     0.157 HD
HETATM    8  C5  UNL     1       1.609  -1.000  -0.691  1.00  0.00     0.123 A 
HETATM    9  N8  UNL     1       0.744  -0.448   0.180  1.00  0.00    -0.348 N 
ATOM     10  H8  UNL     1       1.038   0.372   0.711  1.00  0.00     0.166 HD
HETATM   11  C11 UNL     1      -0.502  -0.941   0.377  1.00  0.00     0.094 A 
ENDROOT
BRANCH   8  12
HETATM   12  C6  UNL     1       2.948  -0.467  -0.903  1.00  0.00     0.160 A 
HETATM   13  N5  UNL     1       3.874  -0.949  -1.741  1.00  0.00    -0.280 N 
HETATM   14  N6  UNL     1       4.969  -0.236  -1.692  1.00  0.00    -0.263 N 
ATOM     15  H5  UNL     1       3.743  -1.765  -2.339  1.00  0.00     0.188 HD
HETATM   16  C7  UNL     1       4.753   0.741  -0.795  1.00  0.00     0.252 A 
ATOM     17  H6  UNL     1       5.821  -0.391  -2.230  1.00  0.00     0.190 HD
HETATM   18  O2  UNL     1       5.342   1.765  -0.249  1.00  0.00    -0.276 OA
HETATM   19  N7  UNL     1       3.487   0.595  -0.302  1.00  0.00    -0.267 N 
HETATM   20  C8  UNL     1       4.524   2.338   0.612  1.00  0.00     0.127 A 
HETATM   21  C10 UNL     1       3.355   1.612   0.587  1.00  0.00     0.140 A 
BRANCH  20  22
HETATM   22  C9  UNL     1       4.848   3.530   1.422  1.00  0.00     0.314 C 
BRANCH  22  23
HETATM   23  O3  UNL     1       6.117   3.373   1.961  1.00  0.00    -0.365 OA
ATOM     24  H3  UNL     1       6.325   4.140   2.482  1.00  0.00     0.213 HD
ENDBRANCH  22  23
BRANCH  22  25
HETATM   25  O4  UNL     1       4.776   4.711   0.648  1.00  0.00    -0.365 OA
ATOM     26  H4  UNL     1       4.984   5.478   1.169  1.00  0.00     0.213 HD
ENDBRANCH  22  25
ENDBRANCH  20  22
ENDBRANCH   8  12
BRANCH  11  27
HETATM   27  C12 UNL     1      -1.381  -0.261   1.370  1.00  0.00     0.222 C 
BRANCH  27  28
HETATM   28  N9  UNL     1      -2.196  -1.206   2.045  1.00  0.00    -0.325 N 
ATOM     29  H9  UNL     1      -2.159  -2.198   1.811  1.00  0.00     0.181 HD
BRANCH  28  30
HETATM   30  N10 UNL     1      -3.034  -0.738   3.023  1.00  0.00    -0.348 N 
ATOM     31 2H10 UNL     1      -3.059   0.257   3.246  1.00  0.00     0.176 HD
ATOM     32 1H10 UNL     1      -3.620  -1.417   3.508  1.00  0.00     0.176 HD
ENDBRANCH  28  30
ENDBRANCH  27  28
BRANCH  27  33
HETATM   33  C13 UNL     1      -2.059   0.878   0.756  1.00  0.00     0.137 A 
HETATM   34  N11 UNL     1      -1.776   1.333  -0.495  1.00  0.00    -0.241 N 
HETATM   35  O5  UNL     1      -2.530   2.337  -0.736  1.00  0.00    -0.179 OA
ATOM     36  H11 UNL     1      -1.082   0.941  -1.131  1.00  0.00     0.196 HD
HETATM   37  C14 UNL     1      -3.306   2.565   0.316  1.00  0.00     0.388 A 
HETATM   38  O6  UNL     1      -4.135   3.503   0.317  1.00  0.00    -0.236 OA
HETATM   39  N12 UNL     1      -3.025   1.655   1.268  1.00  0.00    -0.287 N 
ATOM     40  H12 UNL     1      -3.457   1.573   2.188  1.00  0.00     0.172 HD
ENDBRANCH  27  33
ENDBRANCH  11  27
BRANCH   1  41
HETATM   41  O1  UNL     1      -2.210  -2.540  -0.108  1.00  0.00    -0.265 OA
BRANCH  41  42
HETATM   42  C2  UNL     1      -3.185  -2.139  -1.064  1.00  0.00     0.218 C 
HETATM   43  C1  UNL     1      -4.650  -2.241  -0.626  1.00  0.00     0.117 C 
BRANCH  42  44
HETATM   44  N1  UNL     1      -2.858  -1.756  -2.121  1.00  0.00    -0.312 NA
BRANCH  44  45
HETATM   45  N2  UNL     1      -2.591  -1.328  -3.293  1.00  0.00    -0.278 N 
ATOM     46  H22 UNL     1      -3.610  -1.304  -3.262  1.00  0.00     0.191 HD
ATOM     47  H21 UNL     1      -2.306  -0.994  -4.214  1.00  0.00     0.191 HD
ENDBRANCH  44  45
ENDBRANCH  42  44
ENDBRANCH  41  42
ENDBRANCH   1  41
TORSDOF 12
