REMARK  6 active torsions:
REMARK  status: ('A' for Active; 'I' for Inactive)
REMARK    1  A    between atoms: O1_2  and  C2_3 
REMARK    2  A    between atoms: C6_7  and  C7_8 
REMARK    3  A    between atoms: N1_9  and  N2_11 
REMARK       I    between atoms: C8_13  and  N3_14 
REMARK       I    between atoms: C8_13  and  N8_23 
REMARK    4  A    between atoms: N3_14  and  N4_16 
REMARK    5  A    between atoms: N4_16  and  N5_18 
REMARK       I    between atoms: N8_23  and  C10_25 
REMARK    6  A    between atoms: C11_28  and  O4_29 
ROOT
HETATM    1  N2  UNL     1       0.994   1.177   1.171  1.00  0.00    -0.131 N 
ATOM      2  H2  UNL     1       1.734   1.567   0.587  1.00  0.00     0.205 HD
HETATM    3  C8  UNL     1       1.211   1.005   2.420  1.00  0.00     0.717 C 
HETATM    4  N3  UNL     1       0.180   0.464   3.225  1.00  0.00    -0.116 N 
ATOM      5  H3  UNL     1      -0.315   1.055   3.893  1.00  0.00     0.207 HD
HETATM    6  N8  UNL     1       2.471   1.362   2.953  1.00  0.00    -0.131 N 
ATOM      7  H8  UNL     1       3.182   1.749   2.332  1.00  0.00     0.190 HD
HETATM    8  C10 UNL     1       2.770   1.196   4.324  1.00  0.00     0.302 C 
HETATM    9  O2  UNL     1       1.911   0.723   5.101  1.00  0.00    -0.629 OA
HETATM   10  O3  UNL     1       4.007   1.554   4.811  1.00  0.00    -0.629 OA
ENDROOT
BRANCH   1  11
HETATM   11  N1  UNL     1      -0.188   0.856   0.607  1.00  0.00    -0.297 N 
HETATM   12  C7  UNL     1      -0.591   0.656  -0.545  1.00  0.00     0.122 C 
ATOM     13  H1  UNL     1      -0.930   0.753   1.299  1.00  0.00     0.186 HD
BRANCH  12  14
HETATM   14  C6  UNL     1       0.130   0.700  -1.803  1.00  0.00     0.017 A 
HETATM   15  C5  UNL     1       1.475   0.996  -1.886  1.00  0.00     0.016 A 
HETATM   16  C4  UNL     1       2.187   1.044  -3.081  1.00  0.00     0.004 A 
HETATM   17  C3  UNL     1       1.489   0.777  -4.228  1.00  0.00     0.040 A 
HETATM   18  C2  UNL     1       0.166   0.479  -4.227  1.00  0.00     0.102 A 
HETATM   19  C11 UNL     1      -0.526   0.439  -3.005  1.00  0.00     0.110 A 
BRANCH  18  20
HETATM   20  O1  UNL     1      -0.554   0.206  -5.394  1.00  0.00    -0.353 OA
HETATM   21  C1  UNL     1       0.069   0.228  -6.650  1.00  0.00     0.210 C 
ENDBRANCH  18  20
BRANCH  19  22
HETATM   22  O4  UNL     1      -1.850   0.136  -3.046  1.00  0.00    -0.357 OA
ATOM     23  H4  UNL     1      -2.318   0.109  -2.220  1.00  0.00     0.217 HD
ENDBRANCH  19  22
ENDBRANCH  12  14
ENDBRANCH   1  11
BRANCH   4  24
HETATM   24  N4  UNL     1      -0.154  -0.886   3.097  1.00  0.00    -0.226 N 
ATOM     25  H4  UNL     1       0.527  -1.603   3.346  1.00  0.00     0.209 HD
BRANCH  24  26
HETATM   26  N5  UNL     1      -1.409  -1.256   2.633  1.00  0.00    -0.261 N 
HETATM   27  C9  UNL     1      -2.401  -1.515   3.402  1.00  0.00     0.216 C 
HETATM   28  N6  UNL     1      -2.280  -1.439   4.809  1.00  0.00    -0.065 NA
HETATM   29  N7  UNL     1      -3.646  -1.887   2.844  1.00  0.00    -0.065 NA
ATOM     30  H5  UNL     1      -1.549  -1.326   1.625  1.00  0.00     0.190 HD
ENDBRANCH  24  26
ENDBRANCH   4  24
TORSDOF 6
