REMARK  4 active torsions:
REMARK  status: ('A' for Active; 'I' for Inactive)
REMARK    1  A    between atoms: C2_2  and  N1_3 
REMARK    2  A    between atoms: C3_4  and  N2_5 
REMARK    3  A    between atoms: C5_10  and  N4_11 
REMARK    4  A    between atoms: C7_23  and  N9_24 
ROOT
HETATM    1  N2  UNL     1       0.517  -0.425   0.743  1.00  0.00    -0.025 N 
HETATM    2  N3  UNL     1       1.076   0.447   1.562  1.00  0.00    -0.252 N 
ATOM      3  H3  UNL     1       0.674   0.844   2.411  1.00  0.00     0.190 HD
HETATM    4  C4  UNL     1       2.314   0.705   1.028  1.00  0.00     0.194 A 
HETATM    5  S1  UNL     1       3.779   1.572   1.185  1.00  0.00    -0.013 SA
HETATM    6  C5  UNL     1       4.554   0.980  -0.208  1.00  0.00     0.161 A 
HETATM    7  N5  UNL     1       3.639   0.149  -0.712  1.00  0.00    -0.267 N 
ATOM      8  H5  UNL     1       3.822  -0.369  -1.571  1.00  0.00     0.190 HD
HETATM    9  N6  UNL     1       2.517   0.015  -0.088  1.00  0.00    -0.177 N 
HETATM   10  C6  UNL     1       1.355  -0.708  -0.261  1.00  0.00     0.384 A 
HETATM   11  O1  UNL     1       1.049  -1.513  -1.170  1.00  0.00    -0.242 OA
ENDROOT
BRANCH   1  12
HETATM   12  C3  UNL     1      -0.803  -0.954   0.956  1.00  0.00     0.739 A 
HETATM   13  N1  UNL     1      -1.957  -0.630   0.359  1.00  0.00    -0.010 N 
HETATM   14  C7  UNL     1      -2.965  -1.368   0.855  1.00  0.00     0.707 A 
HETATM   15  N8  UNL     1      -2.416  -2.165   1.779  1.00  0.00    -0.117 N 
HETATM   16  N7  UNL     1      -1.107  -1.917   1.843  1.00  0.00    -0.115 N 
ATOM     17  H8  UNL     1      -2.917  -2.851   2.343  1.00  0.00     0.206 HD
ATOM     18  H7  UNL     1      -0.445  -2.382   2.464  1.00  0.00     0.206 HD
BRANCH  13  19
HETATM   19  C2  UNL     1      -2.076   0.375  -0.670  1.00  0.00     0.162 C 
HETATM   20  C1  UNL     1      -2.352   1.740  -0.138  1.00  0.00     0.028 C 
ENDBRANCH  13  19
BRANCH  14  21
HETATM   21  N9  UNL     1      -4.200  -1.305   0.498  1.00  0.00    -0.233 N 
ATOM     22  H92 UNL     1      -4.619  -0.697  -0.206  1.00  0.00     0.174 HD
ATOM     23  H91 UNL     1      -4.965  -1.865   0.874  1.00  0.00     0.174 HD
ENDBRANCH  14  21
ENDBRANCH   1  12
BRANCH   6  24
HETATM   24  N4  UNL     1       5.749   1.263  -0.675  1.00  0.00    -0.378 N 
ATOM     25  H42 UNL     1       6.448   1.898  -0.290  1.00  0.00     0.158 HD
ATOM     26  H41 UNL     1       6.214   0.908  -1.511  1.00  0.00     0.158 HD
ENDBRANCH   6  24
TORSDOF 4
