REMARK  11 active torsions:
REMARK  status: ('A' for Active; 'I' for Inactive)
REMARK    1  A    between atoms: C2_2  and  C3_3 
REMARK    2  A    between atoms: C2_2  and  C14_23 
REMARK       I    between atoms: C3_3  and  N1_5 
REMARK    3  A    between atoms: N1_5  and  C4_7 
REMARK    4  A    between atoms: C4_7  and  C5_8 
REMARK    5  A    between atoms: C4_7  and  C13_20 
REMARK    6  A    between atoms: C5_8  and  C6_9 
REMARK    7  A    between atoms: C6_9  and  C7_10 
REMARK    8  A    between atoms: C7_10  and  N2_11 
REMARK       I    between atoms: N2_11  and  C8_13 
REMARK    9  A    between atoms: C8_13  and  O3_15 
REMARK   10  A    between atoms: O3_15  and  C9_16 
REMARK   11  A    between atoms: C23_32  and  O6_33 
ROOT
HETATM    1  C1  UNL     1      -0.963  -3.498   1.041  1.00  0.00     0.020 C 
HETATM    2  C2  UNL     1      -0.622  -2.175   1.664  1.00  0.00     0.078 C 
ENDROOT
BRANCH   2   3
HETATM    3  C3  UNL     1       0.846  -2.096   1.828  1.00  0.00     0.222 C 
HETATM    4  O1  UNL     1       1.348  -1.899   2.966  1.00  0.00    -0.273 OA
HETATM    5  N1  UNL     1       1.743  -2.235   0.740  1.00  0.00    -0.346 N 
ATOM      6  H1  UNL     1       1.340  -2.389  -0.184  1.00  0.00     0.163 HD
BRANCH   5   7
HETATM    7  C4  UNL     1       3.167  -2.176   0.835  1.00  0.00     0.185 C 
BRANCH   7   8
HETATM    8  C5  UNL     1       3.703  -0.909   1.402  1.00  0.00     0.038 C 
BRANCH   8   9
HETATM    9  C6  UNL     1       3.346   0.325   0.626  1.00  0.00     0.022 C 
BRANCH   9  10
HETATM   10  C7  UNL     1       3.938   1.574   1.260  1.00  0.00     0.125 C 
BRANCH  10  11
HETATM   11  N2  UNL     1       5.361   1.565   1.351  1.00  0.00    -0.337 N 
HETATM   12  C8  UNL     1       6.217   1.474   0.216  1.00  0.00     0.361 C 
HETATM   13  O2  UNL     1       5.781   1.397  -0.955  1.00  0.00    -0.238 OA
ATOM     14  H2  UNL     1       5.788   1.627   2.275  1.00  0.00     0.164 HD
BRANCH  12  15
HETATM   15  O3  UNL     1       7.576   1.470   0.408  1.00  0.00    -0.294 OA
BRANCH  15  16
HETATM   16  C9  UNL     1       8.546   1.386  -0.603  1.00  0.00     0.061 C 
HETATM   17  C10 UNL     1       8.414   0.100  -1.422  1.00  0.00     0.046 C 
HETATM   18  C11 UNL     1       8.497   2.599  -1.488  1.00  0.00     0.046 C 
HETATM   19  C12 UNL     1       9.912   1.339   0.075  1.00  0.00     0.046 C 
ENDBRANCH  15  16
ENDBRANCH  12  15
ENDBRANCH  10  11
ENDBRANCH   9  10
ENDBRANCH   8   9
ENDBRANCH   7   8
BRANCH   7  20
HETATM   20  C13 UNL     1       3.635  -3.344   1.669  1.00  0.00     0.196 C 
HETATM   21  O4  UNL     1       2.863  -4.192   2.154  1.00  0.00    -0.646 OA
HETATM   22  O5  UNL     1       5.002  -3.438   1.880  1.00  0.00    -0.646 OA
ENDBRANCH   7  20
ENDBRANCH   5   7
ENDBRANCH   2   3
BRANCH   2  23
HETATM   23  C14 UNL     1      -1.122  -0.980   0.991  1.00  0.00     0.007 C 
HETATM   24  C15 UNL     1      -0.727  -0.709  -0.406  1.00  0.00     0.007 C 
HETATM   25  C16 UNL     1      -1.740   0.360  -0.847  1.00  0.00     0.006 C 
HETATM   26  C17 UNL     1      -2.669   0.568   0.311  1.00  0.00    -0.002 C 
HETATM   27  C18 UNL     1      -4.039   0.994  -0.048  1.00  0.00    -0.005 C 
HETATM   28  C29 UNL     1      -2.619  -0.801   0.971  1.00  0.00    -0.036 C 
HETATM   29  C19 UNL     1      -4.094   2.417  -0.474  1.00  0.00     0.006 C 
HETATM   30  C26 UNL     1      -4.703   0.042  -1.027  1.00  0.00    -0.005 C 
HETATM   31  C20 UNL     1      -5.579   2.788  -0.608  1.00  0.00     0.005 C 
HETATM   32  C21 UNL     1      -6.137   1.916  -1.677  1.00  0.00    -0.008 C 
HETATM   33  C22 UNL     1      -7.597   2.087  -1.947  1.00  0.00     0.036 C 
HETATM   34  C25 UNL     1      -6.132   0.466  -1.168  1.00  0.00    -0.004 C 
HETATM   35  C23 UNL     1      -7.917   0.797  -2.714  1.00  0.00     0.118 C 
HETATM   36  C24 UNL     1      -6.851  -0.203  -2.316  1.00  0.00     0.037 C 
HETATM   37  C27 UNL     1      -4.714  -1.307  -0.310  1.00  0.00     0.006 C 
HETATM   38  C28 UNL     1      -3.324  -1.760   0.065  1.00  0.00     0.010 C 
HETATM   39  C30 UNL     1      -3.208  -0.794   2.358  1.00  0.00     0.016 C 
BRANCH  35  40
HETATM   40  O6  UNL     1      -9.197   0.351  -2.444  1.00  0.00    -0.396 OA
ATOM     41  H6  UNL     1      -9.395  -0.448  -2.919  1.00  0.00     0.210 HD
ENDBRANCH  35  40
ENDBRANCH   2  23
TORSDOF 11
