REMARK  1 active torsions:
REMARK  status: ('A' for Active; 'I' for Inactive)
REMARK    1  A    between atoms: N1_1  and  C1_4 
ROOT
HETATM    1  C1  UNL     1       1.299   0.065   0.202  1.00  0.00     0.118 C 
HETATM    2  C2  UNL     1       0.915  -1.160  -0.312  1.00  0.00     0.141 C 
HETATM    3  N2  UNL     1      -0.340  -1.664  -0.497  1.00  0.00    -0.315 N 
ATOM      4  H2  UNL     1      -0.391  -2.651  -0.749  1.00  0.00     0.170 HD
HETATM    5  C3  UNL     1      -1.517  -1.024  -0.389  1.00  0.00     0.328 C 
HETATM    6  O1  UNL     1      -2.558  -1.696  -0.594  1.00  0.00    -0.247 OA
HETATM    7  N3  UNL     1      -1.764   0.260  -0.087  1.00  0.00    -0.260 N 
ATOM      8  H3  UNL     1      -2.746   0.522   0.002  1.00  0.00     0.175 HD
HETATM    9  C4  UNL     1      -0.851   1.256   0.115  1.00  0.00     0.329 C 
HETATM   10  O2  UNL     1      -1.304   2.436   0.146  1.00  0.00    -0.246 OA
HETATM   11  N4  UNL     1       0.478   1.145   0.287  1.00  0.00    -0.294 N 
ATOM     12  H4  UNL     1       0.950   2.019   0.521  1.00  0.00     0.172 HD
ENDROOT
BRANCH   1  13
HETATM   13  N1  UNL     1       2.509   0.208   0.631  1.00  0.00    -0.384 N 
ATOM     14  H12 UNL     1       3.125  -0.602   0.567  1.00  0.00     0.157 HD
ATOM     15  H11 UNL     1       2.792   1.112   1.010  1.00  0.00     0.157 HD
ENDBRANCH   1  13
TORSDOF 1
