REMARK  3 active torsions:
REMARK  status: ('A' for Active; 'I' for Inactive)
REMARK    1  A    between atoms: N1_1  and  C1_4 
REMARK    2  A    between atoms: C2_5  and  N2_6 
REMARK       I    between atoms: N2_6  and  C3_8 
REMARK    3  A    between atoms: N5_14  and  N6_15 
ROOT
HETATM    1  C1  UNL     1      -0.519   0.748  -0.078  1.00  0.00     0.182 A 
HETATM    2  C2  UNL     1       0.778   0.320   0.021  1.00  0.00     0.171 A 
HETATM    3  N3  UNL     1       0.701  -0.968   0.410  1.00  0.00    -0.264 N 
ATOM      4  H3  UNL     1       1.503  -1.576   0.575  1.00  0.00     0.186 HD
HETATM    5  N4  UNL     1      -0.562  -1.330   0.547  1.00  0.00     0.004 NA
HETATM    6  N5  UNL     1      -1.335  -0.289   0.252  1.00  0.00    -0.167 N 
ENDROOT
BRANCH   2   7
HETATM    7  N2  UNL     1       1.813   1.048  -0.221  1.00  0.00    -0.283 N 
HETATM    8  C3  UNL     1       3.139   0.548  -0.101  1.00  0.00     0.289 C 
HETATM    9  O1  UNL     1       3.991   1.254   0.497  1.00  0.00    -0.629 OA
HETATM   10  O2  UNL     1       3.464  -0.697  -0.642  1.00  0.00    -0.629 OA
ATOM     11  H2  UNL     1       1.677   2.017  -0.509  1.00  0.00     0.173 HD
ENDBRANCH   2   7
BRANCH   1  12
HETATM   12  N1  UNL     1      -0.901   1.926  -0.423  1.00  0.00    -0.380 N 
ATOM     13  H12 UNL     1      -0.289   2.704  -0.670  1.00  0.00     0.158 HD
ATOM     14  H11 UNL     1      -1.867   2.245  -0.497  1.00  0.00     0.158 HD
ENDBRANCH   1  12
BRANCH   6  15
HETATM   15  N6  UNL     1      -2.723  -0.294   0.285  1.00  0.00    -0.324 N 
ATOM     16  H62 UNL     1      -3.316   0.505   0.059  1.00  0.00     0.178 HD
ATOM     17  H61 UNL     1      -3.335  -1.072   0.532  1.00  0.00     0.178 HD
ENDBRANCH   6  15
TORSDOF 3
