REMARK  10 active torsions:
REMARK  status: ('A' for Active; 'I' for Inactive)
REMARK    1  A    between atoms: S1_2  and  C2_3 
REMARK    2  A    between atoms: C2_3  and  C3_4 
REMARK    3  A    between atoms: C2_3  and  N2_9 
REMARK    4  A    between atoms: C3_4  and  N1_5 
REMARK    5  A    between atoms: N2_9  and  C4_11 
REMARK    6  A    between atoms: C5_14  and  N4_15 
REMARK       I    between atoms: N5_18  and  C6_19 
REMARK       I    between atoms: C6_19  and  N6_21 
REMARK    7  A    between atoms: N6_21  and  C7_23 
REMARK    8  A    between atoms: C7_23  and  C8_24 
REMARK    9  A    between atoms: C8_24  and  C9_25 
REMARK   10  A    between atoms: C9_25  and  N7_26 
ROOT
HETATM    1  C4  UNL     1       3.807  -0.484   0.314  1.00  0.00     0.178 A 
HETATM    2  N3  UNL     1       2.995  -0.193   1.330  1.00  0.00    -0.168 N 
ATOM      3  H3  UNL     1       3.276  -0.387   2.291  1.00  0.00     0.186 HD
HETATM    4  C5  UNL     1       1.837   0.343   1.074  1.00  0.00     0.695 A 
HETATM    5  N5  UNL     1       1.500   0.582  -0.194  1.00  0.00    -0.060 N 
HETATM    6  C6  UNL     1       0.333   1.143  -0.792  1.00  0.00     0.347 C 
HETATM    7  O1  UNL     1       0.360   1.226  -2.080  1.00  0.00    -0.245 OA
HETATM    8  N6  UNL     1      -0.814   1.604  -0.150  1.00  0.00    -0.342 N 
ATOM      9  H6  UNL     1      -0.867   1.554   0.867  1.00  0.00     0.164 HD
HETATM   10  S2  UNL     1       2.893   0.019  -1.027  1.00  0.00     0.052 SA
ENDROOT
BRANCH   4  11
HETATM   11  N4  UNL     1       0.987   0.654   2.032  1.00  0.00    -0.233 N 
ATOM     12  H42 UNL     1       1.245   0.471   3.002  1.00  0.00     0.174 HD
ATOM     13  H41 UNL     1       0.079   1.074   1.831  1.00  0.00     0.174 HD
ENDBRANCH   4  11
BRANCH   8  14
HETATM   14  C7  UNL     1      -1.950   2.160  -0.898  1.00  0.00     0.126 C 
BRANCH  14  15
HETATM   15  C8  UNL     1      -3.023   2.554   0.059  1.00  0.00     0.040 C 
BRANCH  15  16
HETATM   16  C9  UNL     1      -3.601   1.550   0.946  1.00  0.00     0.129 C 
BRANCH  16  17
HETATM   17  N7  UNL     1      -4.304   0.408   0.417  1.00  0.00    -0.339 N 
HETATM   18  C10 UNL     1      -3.657  -0.655  -0.288  1.00  0.00     0.251 C 
HETATM   19  N8  UNL     1      -4.519  -1.789  -0.437  1.00  0.00    -0.348 N 
HETATM   20  C11 UNL     1      -5.765  -1.857  -0.198  1.00  0.00     0.191 C 
ATOM     21  H8  UNL     1      -4.080  -2.645  -0.776  1.00  0.00     0.163 HD
HETATM   22  N9  UNL     1      -6.456  -3.101  -0.426  1.00  0.00    -0.063 NA
HETATM   23  N10 UNL     1      -6.415  -0.737   0.373  1.00  0.00    -0.305 N 
HETATM   24  C12 UNL     1      -5.731   0.302   0.647  1.00  0.00     0.194 C 
ATOM     25  H10 UNL     1      -7.417  -0.761   0.562  1.00  0.00     0.171 HD
HETATM   26  N11 UNL     1      -6.337   1.481   1.220  1.00  0.00    -0.063 NA
ENDBRANCH  16  17
ENDBRANCH  15  16
ENDBRANCH  14  15
ENDBRANCH   8  14
BRANCH   1  27
HETATM   27  N2  UNL     1       5.002  -1.022   0.364  1.00  0.00    -0.354 N 
ATOM     28  H2  UNL     1       5.440  -1.280   1.248  1.00  0.00     0.163 HD
BRANCH  27  29
HETATM   29  C2  UNL     1       5.664  -1.229  -0.905  1.00  0.00     0.170 C 
BRANCH  29  30
HETATM   30  S1  UNL     1       7.204  -0.278  -1.044  1.00  0.00    -0.146 SA
HETATM   31  C1  UNL     1       6.896   1.498  -0.839  1.00  0.00     0.092 C 
ENDBRANCH  29  30
BRANCH  29  32
HETATM   32  C3  UNL     1       6.037  -2.686  -1.101  1.00  0.00     0.265 C 
BRANCH  32  33
HETATM   33  N1  UNL     1       4.860  -3.529  -1.005  1.00  0.00    -0.077 N 
ATOM     34  H13 UNL     1       4.357  -3.381  -0.130  1.00  0.00     0.274 HD
ATOM     35  H12 UNL     1       4.129  -3.234  -1.652  1.00  0.00     0.274 HD
ATOM     36  H11 UNL     1       5.111  -4.509  -1.137  1.00  0.00     0.274 HD
ENDBRANCH  32  33
ENDBRANCH  29  32
ENDBRANCH  27  29
ENDBRANCH   1  27
TORSDOF 10
