REMARK  13 active torsions:
REMARK  status: ('A' for Active; 'I' for Inactive)
REMARK    1  A    between atoms: N1_2  and  C2_4 
REMARK    2  A    between atoms: C2_4  and  O1_8 
REMARK    3  A    between atoms: O1_8  and  C3_9 
REMARK    4  A    between atoms: C3_9  and  C4_10 
REMARK    5  A    between atoms: C4_10  and  C5_11 
REMARK    6  A    between atoms: C5_11  and  C6_12 
REMARK    7  A    between atoms: C6_12  and  C7_13 
REMARK    8  A    between atoms: C7_13  and  C8_14 
REMARK    9  A    between atoms: C8_14  and  C9_15 
REMARK   10  A    between atoms: C9_15  and  N3_16 
REMARK   11  A    between atoms: N3_16  and  C10_18 
REMARK   12  A    between atoms: C11_21  and  N5_22 
REMARK   13  A    between atoms: C12_27  and  N7_28 
ROOT
HETATM    1  N3  UNL     1       3.295  -0.630   0.926  1.00  0.00    -0.225 N 
ATOM      2  H3  UNL     1       3.341  -1.405   1.588  1.00  0.00     0.177 HD
ENDROOT
BRANCH   1   3
HETATM    3  C9  UNL     1       2.210   0.344   1.015  1.00  0.00     0.138 C 
BRANCH   3   4
HETATM    4  C8  UNL     1       1.162  -0.065   0.037  1.00  0.00     0.020 C 
BRANCH   4   5
HETATM    5  C7  UNL     1       0.012   0.902   0.039  1.00  0.00     0.002 C 
BRANCH   5   6
HETATM    6  C6  UNL     1      -0.608   0.938   1.410  1.00  0.00     0.000 C 
BRANCH   6   7
HETATM    7  C5  UNL     1      -1.797   1.886   1.475  1.00  0.00     0.002 C 
BRANCH   7   8
HETATM    8  C4  UNL     1      -2.846   1.443   0.504  1.00  0.00     0.027 C 
BRANCH   8   9
HETATM    9  C3  UNL     1      -3.316   0.028   0.833  1.00  0.00     0.178 C 
BRANCH   9  10
HETATM   10  O1  UNL     1      -4.309  -0.278  -0.153  1.00  0.00    -0.323 OA
BRANCH  10  11
HETATM   11  C2  UNL     1      -4.974  -1.497  -0.175  1.00  0.00     0.212 C 
HETATM   12  N2  UNL     1      -4.298  -2.531   0.243  1.00  0.00    -0.366 N 
ATOM     13  H22 UNL     1      -4.786  -3.426   0.227  1.00  0.00     0.159 HD
ATOM     14  H21 UNL     1      -3.335  -2.419   0.561  1.00  0.00     0.159 HD
BRANCH  11  15
HETATM   15  N1  UNL     1      -6.298  -1.651  -0.613  1.00  0.00    -0.361 N 
HETATM   16  C1  UNL     1      -7.145  -0.505  -0.835  1.00  0.00     0.150 C 
ATOM     17  H1  UNL     1      -6.667  -2.588  -0.777  1.00  0.00     0.162 HD
ENDBRANCH  11  15
ENDBRANCH  10  11
ENDBRANCH   9  10
ENDBRANCH   8   9
ENDBRANCH   7   8
ENDBRANCH   6   7
ENDBRANCH   5   6
ENDBRANCH   4   5
ENDBRANCH   3   4
ENDBRANCH   1   3
BRANCH   1  18
HETATM   18  C10 UNL     1       4.185  -0.511   0.020  1.00  0.00     0.707 A 
HETATM   19  N4  UNL     1       4.212   0.469  -0.891  1.00  0.00    -0.022 N 
HETATM   20  C11 UNL     1       5.184   0.550  -1.835  1.00  0.00     0.705 A 
ATOM     21  H4  UNL     1       3.479   1.178  -0.875  1.00  0.00     0.203 HD
HETATM   22  N6  UNL     1       6.147  -0.386  -1.850  1.00  0.00    -0.022 N 
HETATM   23  C12 UNL     1       6.159  -1.383  -0.956  1.00  0.00     0.705 A 
ATOM     24  H6  UNL     1       6.882  -0.337  -2.555  1.00  0.00     0.203 HD
HETATM   25  N8  UNL     1       5.186  -1.439  -0.035  1.00  0.00    -0.022 N 
ATOM     26  H8  UNL     1       5.194  -2.198   0.646  1.00  0.00     0.203 HD
BRANCH  20  27
HETATM   27  N5  UNL     1       5.200   1.496  -2.708  1.00  0.00    -0.234 N 
ATOM     28  H52 UNL     1       4.469   2.207  -2.697  1.00  0.00     0.174 HD
ATOM     29  H51 UNL     1       5.930   1.557  -3.417  1.00  0.00     0.174 HD
ENDBRANCH  20  27
BRANCH  23  30
HETATM   30  N7  UNL     1       7.096  -2.253  -1.008  1.00  0.00    -0.234 N 
ATOM     31  H72 UNL     1       7.836  -2.210  -1.709  1.00  0.00     0.174 HD
ATOM     32  H71 UNL     1       7.105  -3.012  -0.327  1.00  0.00     0.174 HD
ENDBRANCH  23  30
ENDBRANCH   1  18
TORSDOF 13
