REMARK  6 active torsions:
REMARK  status: ('A' for Active; 'I' for Inactive)
REMARK    1  A    between atoms: C2_2  and  C3_3 
REMARK       I    between atoms: C3_3  and  N1_5 
REMARK    2  A    between atoms: N1_5  and  C4_7 
REMARK    3  A    between atoms: C4_7  and  C5_8 
REMARK    4  A    between atoms: C5_8  and  C6_9 
REMARK    5  A    between atoms: C6_9  and  C7_10 
REMARK    6  A    between atoms: C7_10  and  N2_11 
REMARK       I    between atoms: N2_11  and  C8_13 
REMARK       I    between atoms: C8_13  and  N3_15 
ROOT
HETATM    1  C7  UNL     1       0.094  -0.164  -0.848  1.00  0.00     0.124 C 
ENDROOT
BRANCH   1   2
HETATM    2  C6  UNL     1       0.751   1.095  -1.347  1.00  0.00     0.021 C 
BRANCH   2   3
HETATM    3  C5  UNL     1       2.177   0.965  -1.738  1.00  0.00     0.021 C 
BRANCH   3   4
HETATM    4  C4  UNL     1       2.993   0.517  -0.552  1.00  0.00     0.122 C 
BRANCH   4   5
HETATM    5  N1  UNL     1       4.401   0.400  -0.902  1.00  0.00    -0.361 N 
HETATM    6  C3  UNL     1       5.321  -0.010   0.086  1.00  0.00     0.217 C 
HETATM    7  O1  UNL     1       4.938  -0.271   1.253  1.00  0.00    -0.274 OA
ATOM      8  H1  UNL     1       4.718   0.611  -1.848  1.00  0.00     0.162 HD
BRANCH   6   9
HETATM    9  C2  UNL     1       6.768  -0.134  -0.260  1.00  0.00     0.098 C 
HETATM   10  C1  UNL     1       7.558  -0.583   0.951  1.00  0.00     0.014 C 
ENDBRANCH   6   9
ENDBRANCH   4   5
ENDBRANCH   3   4
ENDBRANCH   2   3
ENDBRANCH   1   2
BRANCH   1  11
HETATM   11  N2  UNL     1      -1.295   0.154  -0.534  1.00  0.00    -0.343 N 
HETATM   12  C8  UNL     1      -2.190  -0.848  -0.031  1.00  0.00     0.318 C 
HETATM   13  O2  UNL     1      -1.704  -2.006   0.119  1.00  0.00    -0.247 OA
HETATM   14  N3  UNL     1      -3.540  -0.556   0.279  1.00  0.00    -0.334 N 
HETATM   15  C9  UNL     1      -4.384  -1.619   0.781  1.00  0.00     0.127 C 
HETATM   16  C13 UNL     1      -4.020   0.771   0.087  1.00  0.00     0.127 C 
HETATM   17  C10 UNL     1      -5.840  -1.357   0.410  1.00  0.00     0.020 C 
HETATM   18  C11 UNL     1      -6.301  -0.012   0.844  1.00  0.00     0.003 C 
HETATM   19  C12 UNL     1      -5.295   1.081   0.794  1.00  0.00     0.020 C 
ATOM     20  H2  UNL     1      -1.636   1.105  -0.675  1.00  0.00     0.164 HD
ENDBRANCH   1  11
TORSDOF 6
