REMARK  8 active torsions:
REMARK  status: ('A' for Active; 'I' for Inactive)
REMARK    1  A    between atoms: S1_2  and  C2_3 
REMARK    2  A    between atoms: C2_3  and  C3_4 
REMARK    3  A    between atoms: C3_4  and  O1_5 
REMARK    4  A    between atoms: O1_5  and  C4_6 
REMARK    5  A    between atoms: C4_6  and  N3_13 
REMARK    6  A    between atoms: N1_7  and  O2_9 
REMARK    7  A    between atoms: O2_9  and  C5_10 
REMARK    8  A    between atoms: N3_13  and  C6_15 
ROOT
HETATM    1  C4  UNL     1      -0.461  -0.005   0.213  1.00  0.00     0.240 C 
HETATM    2  N1  UNL     1      -0.165   1.174   0.593  1.00  0.00    -0.220 N 
ATOM      3  H1  UNL     1      -0.615   1.551   1.427  1.00  0.00     0.198 HD
ENDROOT
BRANCH   1   4
HETATM    4  O1  UNL     1       0.157  -0.500  -0.915  1.00  0.00    -0.320 OA
BRANCH   4   5
HETATM    5  C3  UNL     1       1.525  -0.442  -1.178  1.00  0.00     0.189 C 
BRANCH   5   6
HETATM    6  C2  UNL     1       2.364  -1.149  -0.102  1.00  0.00     0.100 C 
BRANCH   6   7
HETATM    7  S1  UNL     1       4.114  -1.060  -0.469  1.00  0.00    -0.171 SA
HETATM    8  C1  UNL     1       4.652   0.659  -0.364  1.00  0.00     0.089 C 
ENDBRANCH   6   7
ENDBRANCH   5   6
ENDBRANCH   4   5
ENDBRANCH   1   4
BRANCH   1   9
HETATM    9  N3  UNL     1      -1.423  -0.803   0.949  1.00  0.00    -0.347 N 
ATOM     10  H3  UNL     1      -1.172  -1.110   1.889  1.00  0.00     0.163 HD
BRANCH   9  11
HETATM   11  C6  UNL     1      -2.694  -1.183   0.439  1.00  0.00     0.022 C 
HETATM   12  C7  UNL     1      -3.468   0.096   0.128  1.00  0.00     0.037 C 
HETATM   13  C8  UNL     1      -2.612  -2.011  -0.827  1.00  0.00     0.037 C 
HETATM   14  C9  UNL     1      -3.409  -2.030   1.469  1.00  0.00     0.037 C 
ENDBRANCH   9  11
ENDBRANCH   1   9
BRANCH   2  15
HETATM   15  O2  UNL     1       0.721   1.938  -0.069  1.00  0.00    -0.180 OA
BRANCH  15  16
HETATM   16  C5  UNL     1       1.220   3.145   0.347  1.00  0.00     0.394 C 
HETATM   17  N2  UNL     1       2.156   3.905  -0.402  1.00  0.00    -0.031 NA
HETATM   18  O3  UNL     1       0.834   3.612   1.445  1.00  0.00    -0.240 OA
ENDBRANCH  15  16
ENDBRANCH   2  15
TORSDOF 8
