REMARK  4 active torsions:
REMARK  status: ('A' for Active; 'I' for Inactive)
REMARK    1  A    between atoms: N1_1  and  C1_5 
REMARK    2  A    between atoms: C1_5  and  C2_6 
REMARK       I    between atoms: C2_6  and  N2_8 
REMARK    3  A    between atoms: N2_8  and  S1_10 
REMARK    4  A    between atoms: S1_10  and  N3_11 
ROOT
HETATM    1  C2  UNL     1       0.125   0.552  -0.506  1.00  0.00     0.287 C 
HETATM    2  O1  UNL     1       0.048   1.347  -1.412  1.00  0.00    -0.268 OA
HETATM    3  N2  UNL     1      -1.057   0.409   0.339  1.00  0.00    -0.234 N 
ATOM      4  H2  UNL     1      -0.984  -0.149   1.190  1.00  0.00     0.183 HD
ENDROOT
BRANCH   1   5
HETATM    5  C1  UNL     1       1.195  -0.372  -0.102  1.00  0.00     0.303 C 
HETATM    6  C3  UNL     1       2.603   0.070  -0.449  1.00  0.00     0.199 C 
HETATM    7  N4  UNL     1       2.502   0.794   0.816  1.00  0.00    -0.141 NA
HETATM    8  N5  UNL     1       1.646  -0.201   1.245  1.00  0.00    -0.098 NA
BRANCH   5   9
HETATM    9  N1  UNL     1       0.862  -1.696  -0.475  1.00  0.00    -0.044 N 
ATOM     10  H13 UNL     1      -0.046  -1.979  -0.106  1.00  0.00     0.277 HD
ATOM     11  H12 UNL     1       0.650  -1.770  -1.470  1.00  0.00     0.277 HD
ATOM     12  H11 UNL     1       1.604  -2.337  -0.195  1.00  0.00     0.277 HD
ENDBRANCH   5   9
ENDBRANCH   1   5
BRANCH   3  13
HETATM   13  S1  UNL     1      -2.566   1.140  -0.037  1.00  0.00     0.319 S 
HETATM   14  O2  UNL     1      -2.474   2.079  -1.169  1.00  0.00    -0.183 OA
HETATM   15  O3  UNL     1      -3.220   1.677   1.176  1.00  0.00    -0.183 OA
BRANCH  13  16
HETATM   16  N3  UNL     1      -3.572  -0.217  -0.608  1.00  0.00    -0.311 N 
ATOM     17  H32 UNL     1      -3.300  -1.197  -0.688  1.00  0.00     0.170 HD
ATOM     18  H31 UNL     1      -4.468   0.217  -0.831  1.00  0.00     0.170 HD
ENDBRANCH  13  16
ENDBRANCH   3  13
TORSDOF 4
