REMARK  7 active torsions:
REMARK  status: ('A' for Active; 'I' for Inactive)
REMARK    1  A    between atoms: C3_3  and  C4_4 
REMARK    2  A    between atoms: C4_4  and  C5_5 
REMARK    3  A    between atoms: C5_5  and  C6_6 
REMARK    4  A    between atoms: C6_6  and  N1_7 
REMARK    5  A    between atoms: C8_9  and  C9_10 
REMARK    6  A    between atoms: C9_10  and  C10_11 
REMARK    7  A    between atoms: C10_11  and  N2_12 
ROOT
HETATM    1  C1  UNL     1       6.986   0.263   1.373  1.00  0.00     0.012 C 
HETATM    2  C2  UNL     1       6.700   0.352   0.205  1.00  0.00    -0.117 C 
HETATM    3  C3  UNL     1       6.334   0.457  -1.206  1.00  0.00     0.093 C 
ENDROOT
BRANCH   3   4
HETATM    4  C4  UNL     1       4.836   0.175  -1.382  1.00  0.00     0.014 C 
BRANCH   4   5
HETATM    5  C5  UNL     1       4.018   1.142  -0.615  1.00  0.00     0.031 C 
BRANCH   5   6
HETATM    6  C6  UNL     1       2.560   0.974  -0.724  1.00  0.00     0.268 C 
BRANCH   6   7
HETATM    7  N1  UNL     1       2.012  -0.229  -0.209  1.00  0.00     0.042 N 
HETATM    8  C7  UNL     1       1.051   0.164   0.870  1.00  0.00     0.276 C 
HETATM    9  C8  UNL     1      -0.178   0.791   0.264  1.00  0.00     0.052 C 
HETATM   10  C12 UNL     1      -0.908  -0.321  -0.452  1.00  0.00     0.100 C 
HETATM   11  C13 UNL     1      -1.422   0.178  -1.737  1.00  0.00     0.041 C 
HETATM   12  C22 UNL     1      -2.032  -0.937   0.328  1.00  0.00     0.264 C 
HETATM   13  O1  UNL     1       0.034  -1.315  -0.627  1.00  0.00    -0.343 OA
HETATM   14  C14 UNL     1      -2.272  -0.702  -2.560  1.00  0.00     0.003 C 
HETATM   15  C15 UNL     1      -2.003  -2.156  -2.559  1.00  0.00     0.001 C 
HETATM   16  C16 UNL     1      -2.009  -2.907  -1.321  1.00  0.00     0.009 C 
HETATM   17  C17 UNL     1      -2.413  -2.288  -0.053  1.00  0.00     0.055 C 
HETATM   18  C18 UNL     1      -3.859  -1.842  -0.089  1.00  0.00     0.230 C 
HETATM   19  C19 UNL     1      -4.679  -2.216   1.117  1.00  0.00     0.038 C 
HETATM   20  N5  UNL     1      -3.366  -0.492   0.106  1.00  0.00     0.101 N 
HETATM   21  C20 UNL     1      -5.325  -0.857   1.424  1.00  0.00     0.032 C 
HETATM   22  C21 UNL     1      -4.123   0.041   1.197  1.00  0.00     0.273 C 
HETATM   23  C23 UNL     1       1.239  -0.977  -1.147  1.00  0.00     0.352 C 
HETATM   24  C24 UNL     1       1.892  -2.291  -1.599  1.00  0.00     0.073 C 
HETATM   25  C25 UNL     1       2.123  -3.246  -0.476  1.00  0.00     0.109 C 
HETATM   26  C26 UNL     1       2.730  -2.465   0.636  1.00  0.00     0.241 C 
HETATM   27  O2  UNL     1       3.073  -3.071   1.678  1.00  0.00    -0.272 OA
HETATM   28  N6  UNL     1       2.895  -1.068   0.469  1.00  0.00    -0.182 N 
ATOM     29  H6  UNL     1       3.727  -0.642   0.878  1.00  0.00     0.197 HD
BRANCH   9  30
HETATM   30  C9  UNL     1      -0.974   1.569   1.241  1.00  0.00     0.029 C 
BRANCH  30  31
HETATM   31  C10 UNL     1      -0.161   2.707   1.825  1.00  0.00     0.122 C 
BRANCH  31  32
HETATM   32  N2  UNL     1      -1.068   3.396   2.762  1.00  0.00    -0.367 N 
HETATM   33  C11 UNL     1      -1.674   4.477   2.430  1.00  0.00     0.196 C 
HETATM   34  N3  UNL     1      -2.554   5.179   3.284  1.00  0.00    -0.067 NA
HETATM   35  N4  UNL     1      -1.448   4.999   1.126  1.00  0.00    -0.067 NA
ATOM     36  H2  UNL     1      -1.216   3.005   3.692  1.00  0.00     0.161 HD
ENDBRANCH  31  32
ENDBRANCH  30  31
ENDBRANCH   9  30
ENDBRANCH   6   7
ENDBRANCH   5   6
ENDBRANCH   4   5
ENDBRANCH   3   4
TORSDOF 7
