REMARK  16 active torsions:
REMARK  status: ('A' for Active; 'I' for Inactive)
REMARK    1  A    between atoms: C3_3  and  N1_4 
REMARK    2  A    between atoms: C12_15  and  N3_16 
REMARK       I    between atoms: N3_16  and  C13_18 
REMARK    3  A    between atoms: C13_18  and  C14_20 
REMARK       I    between atoms: N5_26  and  C17_27 
REMARK    4  A    between atoms: C17_27  and  C18_29 
REMARK    5  A    between atoms: C18_29  and  C20_31 
REMARK    6  A    between atoms: C18_29  and  C29_45 
REMARK    7  A    between atoms: C20_31  and  C21_32 
REMARK    8  A    between atoms: C21_32  and  C22_33 
REMARK    9  A    between atoms: C22_33  and  C23_34 
REMARK   10  A    between atoms: C23_34  and  C24_35 
REMARK   11  A    between atoms: C24_35  and  C25_36 
REMARK       I    between atoms: C25_36  and  N6_38 
REMARK   12  A    between atoms: N6_38  and  C26_40 
REMARK   13  A    between atoms: C26_40  and  C27_41 
REMARK   14  A    between atoms: C27_41  and  C28_42 
REMARK   15  A    between atoms: C28_42  and  O5_43 
REMARK   16  A    between atoms: C29_45  and  C30_46 
ROOT
HETATM    1  C14 UNL     1      -0.481  -0.446   1.967  1.00  0.00     0.347 C 
HETATM    2  N4  UNL     1      -0.010   0.840   2.401  1.00  0.00    -0.324 N 
ATOM      3  H4  UNL     1      -0.654   1.543   2.764  1.00  0.00     0.165 HD
HETATM    4  C15 UNL     1       1.357   1.093   2.309  1.00  0.00     0.240 C 
HETATM    5  O2  UNL     1       1.916   1.963   3.007  1.00  0.00    -0.272 OA
HETATM    6  C16 UNL     1       2.180   0.308   1.356  1.00  0.00     0.262 C 
HETATM    7  N5  UNL     1       1.473  -0.749   0.697  1.00  0.00    -0.214 N 
HETATM    8  C17 UNL     1       2.035  -1.489  -0.398  1.00  0.00     0.252 C 
HETATM    9  O3  UNL     1       1.269  -2.407  -0.875  1.00  0.00    -0.270 OA
HETATM   10  O8  UNL     1       0.249  -1.099   1.076  1.00  0.00    -0.239 OA
ENDROOT
BRANCH   8  11
HETATM   11  C18 UNL     1       3.337  -1.332  -1.018  1.00  0.00     0.049 C 
HETATM   12  C19 UNL     1       3.715   0.041  -1.467  1.00  0.00     0.026 C 
BRANCH  11  13
HETATM   13  C20 UNL     1       4.459  -1.927  -0.163  1.00  0.00     0.019 C 
BRANCH  13  14
HETATM   14  C21 UNL     1       5.802  -1.773  -0.790  1.00  0.00     0.001 C 
BRANCH  14  15
HETATM   15  C22 UNL     1       6.910  -2.334   0.092  1.00  0.00     0.001 C 
BRANCH  15  16
HETATM   16  C23 UNL     1       6.979  -1.630   1.413  1.00  0.00     0.009 C 
BRANCH  16  17
HETATM   17  C24 UNL     1       7.243  -0.171   1.316  1.00  0.00     0.103 C 
BRANCH  17  18
HETATM   18  C25 UNL     1       8.503   0.223   0.690  1.00  0.00     0.217 C 
HETATM   19  O4  UNL     1       9.349  -0.634   0.343  1.00  0.00    -0.274 OA
HETATM   20  N6  UNL     1       8.779   1.595   0.468  1.00  0.00    -0.361 N 
ATOM     21  H6  UNL     1       8.099   2.304   0.743  1.00  0.00     0.162 HD
BRANCH  20  22
HETATM   22  C26 UNL     1      10.020   1.985  -0.146  1.00  0.00     0.124 C 
BRANCH  22  23
HETATM   23  C27 UNL     1      10.144   3.470  -0.322  1.00  0.00     0.046 C 
BRANCH  23  24
HETATM   24  C28 UNL     1      11.502   3.734  -0.975  1.00  0.00     0.165 C 
BRANCH  24  25
HETATM   25  O5  UNL     1      12.550   3.271  -0.186  1.00  0.00    -0.401 OA
ATOM     26  H5  UNL     1      13.393   3.435  -0.592  1.00  0.00     0.209 HD
ENDBRANCH  24  25
ENDBRANCH  23  24
ENDBRANCH  22  23
ENDBRANCH  20  22
ENDBRANCH  17  18
ENDBRANCH  16  17
ENDBRANCH  15  16
ENDBRANCH  14  15
ENDBRANCH  13  14
ENDBRANCH  11  13
BRANCH  11  27
HETATM   27  C29 UNL     1       3.338  -2.193  -2.295  1.00  0.00     0.132 C 
BRANCH  27  28
HETATM   28  C30 UNL     1       2.286  -1.775  -3.251  1.00  0.00     0.173 C 
HETATM   29  O6  UNL     1       2.109  -2.462  -4.318  1.00  0.00    -0.648 OA
HETATM   30  O7  UNL     1       1.448  -0.693  -3.116  1.00  0.00    -0.648 OA
ENDBRANCH  27  28
ENDBRANCH  11  27
ENDBRANCH   8  11
BRANCH   1  31
HETATM   31  C13 UNL     1      -1.925  -0.266   1.551  1.00  0.00     0.273 C 
HETATM   32  N3  UNL     1      -2.669  -1.340   1.043  1.00  0.00    -0.323 N 
ATOM     33  H3  UNL     1      -2.188  -2.236   0.965  1.00  0.00     0.169 HD
HETATM   34  O1  UNL     1      -2.427   0.865   1.676  1.00  0.00    -0.268 OA
BRANCH  32  35
HETATM   35  C12 UNL     1      -4.015  -1.305   0.630  1.00  0.00     0.035 A 
HETATM   36  C11 UNL     1      -4.482  -2.338  -0.200  1.00  0.00     0.032 A 
HETATM   37  C10 UNL     1      -5.743  -2.447  -0.663  1.00  0.00     0.033 A 
HETATM   38  C9  UNL     1      -6.656  -1.486  -0.309  1.00  0.00     0.044 A 
HETATM   39  N2  UNL     1      -7.954  -1.360  -0.631  1.00  0.00    -0.341 N 
HETATM   40  C32 UNL     1      -6.262  -0.446   0.504  1.00  0.00     0.002 A 
HETATM   41  C3  UNL     1      -8.446  -0.234  -0.038  1.00  0.00     0.110 A 
ATOM     42  H2  UNL     1      -8.484  -2.001  -1.222  1.00  0.00     0.167 HD
HETATM   43  C2  UNL     1      -7.392   0.328   0.664  1.00  0.00    -0.005 A 
HETATM   44  C1  UNL     1      -7.465   1.577   1.468  1.00  0.00     0.053 C 
HETATM   45  C31 UNL     1      -4.942  -0.360   0.970  1.00  0.00     0.044 A 
BRANCH  41  46
HETATM   46  N1  UNL     1      -9.778   0.226  -0.143  1.00  0.00    -0.367 N 
HETATM   47  C4  UNL     1     -10.075   1.246  -1.129  1.00  0.00     0.124 C 
HETATM   48  C5  UNL     1     -11.248   2.103  -0.668  1.00  0.00     0.020 C 
HETATM   49  C6  UNL     1     -12.471   1.255  -0.436  1.00  0.00     0.003 C 
HETATM   50  C7  UNL     1     -12.130  -0.207  -0.205  1.00  0.00     0.020 C 
HETATM   51  C8  UNL     1     -10.878  -0.257   0.662  1.00  0.00     0.124 C 
ENDBRANCH  41  46
ENDBRANCH  32  35
ENDBRANCH   1  31
TORSDOF 16
