REMARK  3 active torsions:
REMARK  status: ('A' for Active; 'I' for Inactive)
REMARK    1  A    between atoms: N1_2  and  C2_4 
REMARK    2  A    between atoms: C3_7  and  C4_8 
REMARK    3  A    between atoms: N5_17  and  C9_19 
ROOT
HETATM    1  C9  UNL     1      -2.986  -2.017  -0.380  1.00  0.00     0.245 C 
HETATM    2  C10 UNL     1      -4.393  -2.473  -0.324  1.00  0.00     0.078 C 
HETATM    3  N6  UNL     1      -5.493  -2.833  -0.290  1.00  0.00    -0.196 NA
ENDROOT
BRANCH   1   4
HETATM    4  N5  UNL     1      -3.016  -0.585  -0.175  1.00  0.00    -0.363 N 
HETATM    5  C8  UNL     1      -1.896   0.043  -0.055  1.00  0.00     0.119 A 
HETATM    6  C7  UNL     1      -0.685  -0.633  -0.120  1.00  0.00     0.081 A 
HETATM    7  N7  UNL     1      -1.856   1.389   0.139  1.00  0.00    -0.177 N 
HETATM    8  C3  UNL     1       0.530   0.004   0.004  1.00  0.00     0.081 A 
HETATM    9  N2  UNL     1       0.498   1.336   0.194  1.00  0.00    -0.190 N 
HETATM   10  C2  UNL     1      -0.672   2.012   0.260  1.00  0.00     0.679 A 
ATOM     11  H2  UNL     1       1.375   1.847   0.290  1.00  0.00     0.184 HD
ATOM     12  H7  UNL     1      -2.723   1.924   0.192  1.00  0.00     0.185 HD
ATOM     13  H5  UNL     1      -3.903  -0.084  -0.126  1.00  0.00     0.162 HD
BRANCH   8  14
HETATM   14  C4  UNL     1       1.801  -0.704  -0.064  1.00  0.00     0.076 A 
HETATM   15  C5  UNL     1       1.974  -2.058  -0.254  1.00  0.00     0.052 A 
HETATM   16  C6  UNL     1       3.332  -2.306  -0.254  1.00  0.00     0.109 A 
HETATM   17  N3  UNL     1       3.960  -1.135  -0.069  1.00  0.00    -0.311 N 
HETATM   18  N4  UNL     1       3.042  -0.210   0.039  1.00  0.00    -0.299 N 
ATOM     19  H3  UNL     1       4.969  -0.992  -0.021  1.00  0.00     0.186 HD
ATOM     20  H4  UNL     1       3.248   0.778   0.185  1.00  0.00     0.187 HD
ENDBRANCH   8  14
BRANCH  10  21
HETATM   21  N1  UNL     1      -0.610   3.284   0.444  1.00  0.00    -0.230 N 
HETATM   22  C1  UNL     1       0.603   4.025   0.583  1.00  0.00     0.165 C 
ATOM     23  H1  UNL     1      -1.489   3.799   0.494  1.00  0.00     0.177 HD
ENDBRANCH  10  21
ENDBRANCH   1   4
TORSDOF 3
