REMARK  4 active torsions:
REMARK  status: ('A' for Active; 'I' for Inactive)
REMARK    1  A    between atoms: C3_3  and  N1_4 
REMARK    2  A    between atoms: N1_4  and  C4_6 
REMARK    3  A    between atoms: C7_13  and  N4_14 
REMARK    4  A    between atoms: N4_14  and  C8_16 
ROOT
HETATM    1  C1  UNL     1      -4.726  -2.951  -0.132  1.00  0.00     0.014 C 
HETATM    2  C2  UNL     1      -3.696  -2.323  -0.089  1.00  0.00    -0.098 C 
HETATM    3  C3  UNL     1      -2.439  -1.545  -0.016  1.00  0.00     0.215 C 
ENDROOT
BRANCH   3   4
HETATM    4  N1  UNL     1      -2.561  -0.270  -0.614  1.00  0.00    -0.363 N 
ATOM      5  H1  UNL     1      -3.488  -0.075  -0.992  1.00  0.00     0.162 HD
BRANCH   4   6
HETATM    6  C4  UNL     1      -1.737   0.667  -0.765  1.00  0.00     0.146 A 
HETATM    7  N2  UNL     1      -2.162   1.793  -1.393  1.00  0.00    -0.348 N 
HETATM    8  C5  UNL     1      -1.361   2.846  -1.603  1.00  0.00     0.107 A 
ATOM      9  H2  UNL     1      -3.128   1.839  -1.717  1.00  0.00     0.167 HD
HETATM   10  C6  UNL     1      -0.068   2.745  -1.151  1.00  0.00     0.107 A 
HETATM   11  N3  UNL     1       0.372   1.641  -0.527  1.00  0.00    -0.348 N 
HETATM   12  C7  UNL     1      -0.441   0.596  -0.325  1.00  0.00     0.151 A 
ATOM     13  H3  UNL     1       1.338   1.597  -0.202  1.00  0.00     0.167 HD
BRANCH  12  14
HETATM   14  N4  UNL     1       0.045  -0.434   0.280  1.00  0.00    -0.326 N 
ATOM     15  H4  UNL     1      -0.567  -1.235   0.438  1.00  0.00     0.169 HD
BRANCH  14  16
HETATM   16  C8  UNL     1       1.377  -0.512   0.735  1.00  0.00     0.106 A 
HETATM   17  C9  UNL     1       2.435  -0.807  -0.114  1.00  0.00     0.048 A 
HETATM   18  C10 UNL     1       3.737  -0.884   0.328  1.00  0.00     0.005 A 
HETATM   19  C11 UNL     1       3.999  -0.658   1.666  1.00  0.00     0.017 A 
HETATM   20  C12 UNL     1       2.938  -0.363   2.512  1.00  0.00     0.089 A 
HETATM   21  N5  UNL     1       1.704  -0.303   2.028  1.00  0.00    -0.352 N 
ATOM     22  H5  UNL     1       0.950  -0.084   2.678  1.00  0.00     0.166 HD
ENDBRANCH  14  16
ENDBRANCH  12  14
ENDBRANCH   4   6
ENDBRANCH   3   4
TORSDOF 4
