REMARK  3 active torsions:
REMARK  status: ('A' for Active; 'I' for Inactive)
REMARK    1  A    between atoms: C2_2  and  N1_3 
REMARK    2  A    between atoms: C4_8  and  N3_9 
REMARK    3  A    between atoms: N3_9  and  C5_11 
ROOT
HETATM    1  N1  UNL     1       3.506   1.817   0.133  1.00  0.00    -0.375 N 
ATOM      2  H1  UNL     1       3.052   2.696   0.380  1.00  0.00     0.161 HD
HETATM    3  C3  UNL     1       2.725   0.837   0.091  1.00  0.00     0.136 A 
HETATM    4  N2  UNL     1       1.378   1.022   0.370  1.00  0.00    -0.176 N 
ATOM      5  H2  UNL     1       1.066   1.965   0.603  1.00  0.00     0.186 HD
HETATM    6  C4  UNL     1       0.477   0.065   0.354  1.00  0.00     0.680 A 
HETATM    7  N5  UNL     1       0.833  -1.189   0.055  1.00  0.00    -0.195 N 
ATOM      8  H5  UNL     1       0.123  -1.922   0.047  1.00  0.00     0.184 HD
HETATM    9  C12 UNL     1       2.104  -1.503  -0.235  1.00  0.00     0.043 A 
HETATM   10  C13 UNL     1       2.508  -2.907  -0.571  1.00  0.00     0.070 C 
HETATM   11  C14 UNL     1       3.044  -0.462  -0.210  1.00  0.00     0.077 A 
HETATM   12 BR1  UNL     1       4.838  -0.987  -0.634  1.00  0.00    -0.045 Br
ENDROOT
BRANCH   6  13
HETATM   13  N3  UNL     1      -0.760   0.329   0.628  1.00  0.00    -0.219 N 
ATOM     14  H3  UNL     1      -1.010   1.292   0.854  1.00  0.00     0.178 HD
BRANCH  13  15
HETATM   15  C5  UNL     1      -1.793  -0.658   0.631  1.00  0.00     0.130 C 
HETATM   16  C6  UNL     1      -2.271  -0.919  -0.787  1.00  0.00     0.034 C 
HETATM   17  C7  UNL     1      -3.732  -0.591  -0.937  1.00  0.00     0.013 C 
HETATM   18  C8  UNL     1      -3.902   0.885  -0.635  1.00  0.00     0.008 C 
HETATM   19  C11 UNL     1      -4.510  -1.403   0.065  1.00  0.00     0.237 C 
HETATM   20  C9  UNL     1      -3.398   1.195   0.765  1.00  0.00     0.035 C 
HETATM   21  C10 UNL     1      -2.993  -0.092   1.400  1.00  0.00     0.209 C 
HETATM   22  N4  UNL     1      -4.055  -1.059   1.386  1.00  0.00    -0.069 N 
ATOM     23  H42 UNL     1      -3.785  -1.896   1.902  1.00  0.00     0.277 HD
ATOM     24  H41 UNL     1      -4.835  -0.745   1.964  1.00  0.00     0.277 HD
ENDBRANCH  13  15
ENDBRANCH   6  13
BRANCH   1  25
HETATM   25  C2  UNL     1       4.866   1.934  -0.092  1.00  0.00     0.116 C 
HETATM   26  C1  UNL     1       5.394   3.358   0.158  1.00  0.00     0.026 C 
ENDBRANCH   1  25
TORSDOF 3
