REMARK  6 active torsions:
REMARK  status: ('A' for Active; 'I' for Inactive)
REMARK    1  A    between atoms: N1_2  and  C2_4 
REMARK    2  A    between atoms: C3_7  and  N3_8 
REMARK    3  A    between atoms: N3_8  and  O1_10 
REMARK       I    between atoms: N5_16  and  C7_17 
REMARK       I    between atoms: C7_17  and  N6_19 
REMARK    4  A    between atoms: N6_19  and  C8_21 
REMARK    5  A    between atoms: C8_21  and  C9_22 
REMARK    6  A    between atoms: C9_22  and  N7_23 
REMARK       I    between atoms: N7_23  and  C10_25 
ROOT
HETATM    1  N7  UNL     1       5.459   1.358  -0.789  1.00  0.00    -0.362 N 
ATOM      2  H7  UNL     1       5.901   1.654  -1.659  1.00  0.00     0.162 HD
HETATM    3  C10 UNL     1       6.260   0.671   0.184  1.00  0.00     0.197 C 
HETATM    4  N8  UNL     1       5.660   0.409   1.439  1.00  0.00    -0.063 NA
HETATM    5  N9  UNL     1       7.476   0.322  -0.102  1.00  0.00    -0.268 N 
ATOM      6  H9  UNL     1       7.868   0.532  -1.020  1.00  0.00     0.180 HD
HETATM    7  C11 UNL     1       8.238  -0.338   0.849  1.00  0.00     0.184 C 
HETATM    8  N10 UNL     1       8.882  -0.911   1.650  1.00  0.00    -0.172 NA
ENDROOT
BRANCH   1   9
HETATM    9  C9  UNL     1       4.070   1.649  -0.599  1.00  0.00     0.142 C 
BRANCH   9  10
HETATM   10  C8  UNL     1       3.177   0.427  -0.602  1.00  0.00     0.144 C 
BRANCH  10  11
HETATM   11  N6  UNL     1       1.815   0.815  -0.406  1.00  0.00    -0.341 N 
HETATM   12  C7  UNL     1       0.770  -0.142  -0.371  1.00  0.00     0.329 C 
HETATM   13  N5  UNL     1      -0.576   0.264  -0.175  1.00  0.00    -0.243 N 
HETATM   14  O2  UNL     1       1.085  -1.348  -0.521  1.00  0.00    -0.246 OA
HETATM   15  C6  UNL     1      -0.991   1.550  -0.004  1.00  0.00     0.195 A 
HETATM   16  C12 UNL     1      -1.688  -0.487  -0.121  1.00  0.00     0.163 A 
HETATM   17  N4  UNL     1      -2.324   1.575   0.151  1.00  0.00    -0.346 N 
HETATM   18  C5  UNL     1      -2.811   0.326   0.086  1.00  0.00     0.125 A 
ATOM     19  H4  UNL     1      -2.882   2.416   0.296  1.00  0.00     0.167 HD
HETATM   20  C3  UNL     1      -4.082  -0.197   0.180  1.00  0.00     0.171 A 
HETATM   21  N2  UNL     1      -4.206  -1.529   0.064  1.00  0.00    -0.173 N 
HETATM   22  C2  UNL     1      -3.123  -2.307  -0.135  1.00  0.00     0.681 A 
ATOM     23  H2  UNL     1      -5.130  -1.957   0.127  1.00  0.00     0.186 HD
HETATM   24  N11 UNL     1      -1.875  -1.809  -0.228  1.00  0.00    -0.174 N 
ATOM     25  H11 UNL     1      -1.081  -2.432  -0.378  1.00  0.00     0.186 HD
ATOM     26  H6  UNL     1       1.590   1.803  -0.289  1.00  0.00     0.164 HD
BRANCH  20  27
HETATM   27  N3  UNL     1      -5.084   0.584   0.371  1.00  0.00    -0.248 N 
ATOM     28  H3  UNL     1      -6.024   0.194   0.440  1.00  0.00     0.196 HD
BRANCH  27  29
HETATM   29  O1  UNL     1      -4.902   1.921   0.481  1.00  0.00    -0.284 OA
HETATM   30  C4  UNL     1      -6.026   2.773   0.506  1.00  0.00     0.237 C 
ENDBRANCH  27  29
ENDBRANCH  20  27
BRANCH  22  31
HETATM   31  N1  UNL     1      -3.250  -3.603  -0.250  1.00  0.00    -0.230 N 
HETATM   32  C1  UNL     1      -4.567  -4.192  -0.162  1.00  0.00     0.165 C 
ATOM     33  H1  UNL     1      -2.430  -4.191  -0.400  1.00  0.00     0.177 HD
ENDBRANCH  22  31
ENDBRANCH  10  11
ENDBRANCH   9  10
ENDBRANCH   1   9
TORSDOF 6
