REMARK  9 active torsions:
REMARK  status: ('A' for Active; 'I' for Inactive)
REMARK    1  A    between atoms: C2_2  and  C3_3 
REMARK    2  A    between atoms: C3_3  and  C4_4 
REMARK    3  A    between atoms: C4_4  and  C5_5 
REMARK    4  A    between atoms: C5_5  and  C6_6 
REMARK    5  A    between atoms: C9_11  and  C10_12 
REMARK    6  A    between atoms: C10_12  and  C11_13 
REMARK    7  A    between atoms: C11_13  and  C12_14 
REMARK    8  A    between atoms: C15_19  and  N3_20 
REMARK    9  A    between atoms: N6_29  and  O1_30 
ROOT
HETATM    1  C11 UNL     1      -2.099  -0.306   0.221  1.00  0.00    -0.057 C 
ENDROOT
BRANCH   1   2
HETATM    2  C10 UNL     1      -0.906  -0.373   0.438  1.00  0.00    -0.022 C 
BRANCH   2   3
HETATM    3  C9  UNL     1       0.502  -0.477   0.697  1.00  0.00     0.189 A 
HETATM    4  N1  UNL     1       1.166  -0.284   1.865  1.00  0.00    -0.335 N 
HETATM    5  C7  UNL     1       2.473  -0.476   1.694  1.00  0.00     0.032 A 
ATOM      6  H1  UNL     1       0.726  -0.028   2.749  1.00  0.00     0.168 HD
HETATM    7  C6  UNL     1       2.670  -0.804   0.371  1.00  0.00     0.065 A 
HETATM    8  C8  UNL     1       3.538  -0.363   2.722  1.00  0.00     0.070 C 
HETATM    9  N6  UNL     1       1.432  -0.791  -0.193  1.00  0.00    -0.202 N 
BRANCH   7  10
HETATM   10  C5  UNL     1       3.961  -1.108  -0.292  1.00  0.00     0.062 C 
BRANCH  10  11
HETATM   11  C4  UNL     1       4.758   0.155  -0.549  1.00  0.00     0.006 C 
BRANCH  11  12
HETATM   12  C3  UNL     1       6.071  -0.170  -1.224  1.00  0.00     0.000 C 
BRANCH  12  13
HETATM   13  C2  UNL     1       6.846   1.108  -1.468  1.00  0.00    -0.005 C 
HETATM   14  C1  UNL     1       7.130   1.814  -0.159  1.00  0.00     0.005 C 
ENDBRANCH  12  13
ENDBRANCH  11  12
ENDBRANCH  10  11
ENDBRANCH   7  10
BRANCH   9  15
HETATM   15  O1  UNL     1       1.186  -1.067  -1.517  1.00  0.00    -0.281 OA
ATOM     16  H1  UNL     1       0.322  -1.058  -1.911  1.00  0.00     0.245 HD
ENDBRANCH   9  15
ENDBRANCH   2   3
ENDBRANCH   1   2
BRANCH   1  17
HETATM   17  C12 UNL     1      -3.512  -0.252  -0.034  1.00  0.00     0.036 A 
HETATM   18  C13 UNL     1      -4.140   0.968  -0.218  1.00  0.00     0.056 A 
HETATM   19  C14 UNL     1      -5.509   1.036  -0.466  1.00  0.00     0.095 A 
HETATM   20  N2  UNL     1      -6.387   2.032  -0.681  1.00  0.00    -0.188 N 
HETATM   21  C16 UNL     1      -6.230  -0.127  -0.525  1.00  0.00     0.150 A 
HETATM   22  C15 UNL     1      -7.627   1.509  -0.871  1.00  0.00     0.678 A 
ATOM     23  H2  UNL     1      -6.158   3.026  -0.699  1.00  0.00     0.184 HD
HETATM   24  N4  UNL     1      -7.532   0.172  -0.775  1.00  0.00    -0.174 N 
ATOM     25  H4  UNL     1      -8.297  -0.496  -0.872  1.00  0.00     0.186 HD
HETATM   26  N5  UNL     1      -5.637  -1.304  -0.350  1.00  0.00    -0.344 N 
HETATM   27  C17 UNL     1      -6.432  -2.525  -0.419  1.00  0.00     0.157 C 
HETATM   28  C18 UNL     1      -4.316  -1.369  -0.111  1.00  0.00     0.112 A 
BRANCH  22  29
HETATM   29  N3  UNL     1      -8.723   2.181  -1.106  1.00  0.00    -0.234 N 
ATOM     30  H32 UNL     1      -8.795   3.196  -1.179  1.00  0.00     0.174 HD
ATOM     31  H31 UNL     1      -9.654   1.788  -1.249  1.00  0.00     0.174 HD
ENDBRANCH  22  29
ENDBRANCH   1  17
TORSDOF 9
