REMARK  15 active torsions:
REMARK  status: ('A' for Active; 'I' for Inactive)
REMARK    1  A    between atoms: O1_1  and  C1_3 
REMARK    2  A    between atoms: C1_3  and  C2_4 
REMARK    3  A    between atoms: C2_4  and  N1_5 
REMARK    4  A    between atoms: N1_5  and  C3_7 
REMARK    5  A    between atoms: C3_7  and  N2_9 
REMARK    6  A    between atoms: N2_9  and  C4_11 
REMARK    7  A    between atoms: C4_11  and  C5_12 
REMARK    8  A    between atoms: C5_12  and  C6_13 
REMARK    9  A    between atoms: C6_13  and  C7_14 
REMARK   10  A    between atoms: C7_14  and  C8_15 
REMARK   11  A    between atoms: C8_15  and  C9_16 
REMARK   12  A    between atoms: C9_16  and  N3_17 
REMARK       I    between atoms: N3_17  and  C10_19 
REMARK       I    between atoms: C10_19  and  N5_33 
REMARK   13  A    between atoms: N4_20  and  C11_22 
REMARK   14  A    between atoms: C11_22  and  C12_23 
REMARK   15  A    between atoms: C12_23  and  C13_24 
ROOT
HETATM    1  N3  UNL     1      -1.009  -1.878  -1.323  1.00  0.00    -0.226 N 
ATOM      2  H3  UNL     1      -0.989  -2.019  -2.333  1.00  0.00     0.177 HD
HETATM    3  C10 UNL     1      -2.160  -1.202  -0.730  1.00  0.00     0.675 C 
HETATM    4  N4  UNL     1      -2.130   0.047  -0.716  1.00  0.00    -0.205 N 
ATOM      5  H4  UNL     1      -1.276   0.414  -1.136  1.00  0.00     0.183 HD
HETATM    6  N5  UNL     1      -3.226  -1.985  -0.214  1.00  0.00    -0.218 N 
HETATM    7  C19 UNL     1      -3.599  -2.083   1.180  1.00  0.00     0.141 C 
HETATM    8  C20 UNL     1      -3.800  -3.602   1.276  1.00  0.00     0.022 C 
HETATM    9  C21 UNL     1      -4.652  -3.852   0.056  1.00  0.00     0.022 C 
HETATM   10  C22 UNL     1      -4.148  -2.848  -0.939  1.00  0.00     0.141 C 
ENDROOT
BRANCH   1  11
HETATM   11  C9  UNL     1       0.093  -2.351  -0.540  1.00  0.00     0.138 C 
BRANCH  11  12
HETATM   12  C8  UNL     1       0.939  -1.259   0.071  1.00  0.00     0.020 C 
BRANCH  12  13
HETATM   13  C7  UNL     1       1.564  -0.366  -0.956  1.00  0.00     0.002 C 
BRANCH  13  14
HETATM   14  C6  UNL     1       2.383   0.709  -0.334  1.00  0.00     0.002 C 
BRANCH  14  15
HETATM   15  C5  UNL     1       3.506   0.173   0.507  1.00  0.00     0.020 C 
BRANCH  15  16
HETATM   16  C4  UNL     1       4.415  -0.661  -0.338  1.00  0.00     0.122 C 
BRANCH  16  17
HETATM   17  N2  UNL     1       5.567  -1.187   0.334  1.00  0.00    -0.367 N 
ATOM     18  H2  UNL     1       5.599  -2.180   0.566  1.00  0.00     0.161 HD
BRANCH  17  19
HETATM   19  C3  UNL     1       6.659  -0.362   0.682  1.00  0.00     0.167 C 
HETATM   20  S1  UNL     1       7.860  -1.079   1.543  1.00  0.00    -0.041 SA
BRANCH  19  21
HETATM   21  N1  UNL     1       6.691   0.998   0.360  1.00  0.00    -0.365 N 
ATOM     22  H1  UNL     1       5.874   1.365  -0.128  1.00  0.00     0.161 HD
BRANCH  21  23
HETATM   23  C2  UNL     1       7.734   1.933   0.634  1.00  0.00     0.148 C 
BRANCH  23  24
HETATM   24  C1  UNL     1       8.911   1.750  -0.252  1.00  0.00     0.183 C 
BRANCH  24  25
HETATM   25  O1  UNL     1       9.555   0.547  -0.211  1.00  0.00    -0.399 OA
ATOM     26  H1  UNL     1      10.308   0.430  -0.778  1.00  0.00     0.209 HD
ENDBRANCH  24  25
ENDBRANCH  23  24
ENDBRANCH  21  23
ENDBRANCH  19  21
ENDBRANCH  17  19
ENDBRANCH  16  17
ENDBRANCH  15  16
ENDBRANCH  14  15
ENDBRANCH  13  14
ENDBRANCH  12  13
ENDBRANCH  11  12
ENDBRANCH   1  11
BRANCH   4  27
HETATM   27  C11 UNL     1      -2.977   1.069  -0.267  1.00  0.00     0.083 C 
BRANCH  27  28
HETATM   28  C12 UNL     1      -4.340   1.073  -0.907  1.00  0.00     0.087 C 
BRANCH  28  29
HETATM   29  C13 UNL     1      -5.171   2.201  -0.389  1.00  0.00    -0.012 A 
HETATM   30  C14 UNL     1      -6.140   1.979   0.562  1.00  0.00     0.056 A 
HETATM   31  C15 UNL     1      -6.853   3.094   0.997  1.00  0.00     0.155 A 
HETATM   32  F1  UNL     1      -7.819   2.869   1.950  1.00  0.00    -0.203 F 
HETATM   33  C16 UNL     1      -6.613   4.360   0.508  1.00  0.00     0.157 A 
HETATM   34  F2  UNL     1      -7.332   5.413   0.963  1.00  0.00    -0.203 F 
HETATM   35  C17 UNL     1      -5.621   4.523  -0.452  1.00  0.00     0.088 A 
HETATM   36  C18 UNL     1      -4.884   3.448  -0.917  1.00  0.00     0.126 A 
HETATM   37  F3  UNL     1      -3.915   3.622  -1.861  1.00  0.00    -0.205 F 
ENDBRANCH  28  29
ENDBRANCH  27  28
ENDBRANCH   4  27
TORSDOF 15
