REMARK  13 active torsions:
REMARK  status: ('A' for Active; 'I' for Inactive)
REMARK    1  A    between atoms: C1_2  and  N2_4 
REMARK    2  A    between atoms: N2_4  and  C2_6 
REMARK    3  A    between atoms: C2_6  and  C3_7 
REMARK    4  A    between atoms: C3_7  and  C4_8 
REMARK    5  A    between atoms: C4_8  and  C5_9 
REMARK    6  A    between atoms: C5_9  and  C6_10 
REMARK    7  A    between atoms: C6_10  and  C7_11 
REMARK    8  A    between atoms: C7_11  and  N3_12 
REMARK    9  A    between atoms: C7_11  and  C18_29 
REMARK   10  A    between atoms: N4_17  and  C11_18 
REMARK   11  A    between atoms: C11_18  and  C12_19 
REMARK   12  A    between atoms: C12_19  and  C13_20 
REMARK   13  A    between atoms: C18_29  and  C19_31 
ROOT
HETATM    1  N3  UNL     1      -0.442  -0.097  -0.047  1.00  0.00    -0.357 N 
ATOM      2  H3  UNL     1      -0.608  -1.059  -0.342  1.00  0.00     0.165 HD
HETATM    3  C8  UNL     1      -1.485   0.415   0.617  1.00  0.00     0.079 C 
HETATM    4  C9  UNL     1      -1.397   0.933   2.028  1.00  0.00     0.082 C 
HETATM    5  C10 UNL     1      -2.811   1.355   2.329  1.00  0.00     0.132 C 
HETATM    6  N4  UNL     1      -3.511   1.475   1.049  1.00  0.00    -0.343 N 
HETATM    7  C17 UNL     1      -2.554   1.241   0.030  1.00  0.00     0.266 C 
HETATM    8  O1  UNL     1      -2.682   1.696  -1.122  1.00  0.00    -0.266 OA
ENDROOT
BRANCH   1   9
HETATM    9  C7  UNL     1       0.807   0.360  -0.431  1.00  0.00     0.028 C 
BRANCH   9  10
HETATM   10  C6  UNL     1       1.733   0.753   0.696  1.00  0.00     0.058 C 
BRANCH  10  11
HETATM   11  C5  UNL     1       3.112   1.187   0.309  1.00  0.00     0.006 C 
BRANCH  11  12
HETATM   12  C4  UNL     1       3.942   0.137  -0.359  1.00  0.00     0.002 C 
BRANCH  12  13
HETATM   13  C3  UNL     1       4.100  -1.035   0.626  1.00  0.00     0.020 C 
BRANCH  13  14
HETATM   14  C2  UNL     1       4.937  -2.067  -0.069  1.00  0.00     0.121 C 
BRANCH  14  15
HETATM   15  N2  UNL     1       6.246  -1.617  -0.459  1.00  0.00    -0.369 N 
ATOM     16  H2  UNL     1       6.448  -1.507  -1.453  1.00  0.00     0.161 HD
BRANCH  15  17
HETATM   17  C1  UNL     1       7.267  -1.320   0.478  1.00  0.00     0.180 C 
HETATM   18  N1  UNL     1       8.563  -0.870   0.062  1.00  0.00    -0.070 NA
HETATM   19  S1  UNL     1       6.976  -1.498   2.054  1.00  0.00    -0.044 SA
ENDBRANCH  15  17
ENDBRANCH  14  15
ENDBRANCH  13  14
ENDBRANCH  12  13
ENDBRANCH  11  12
ENDBRANCH  10  11
ENDBRANCH   9  10
BRANCH   9  20
HETATM   20  C18 UNL     1       0.961   1.316  -1.559  1.00  0.00     0.048 C 
HETATM   21 CL2  UNL     1       0.616   3.012  -1.189  1.00  0.00    -0.086 Cl
BRANCH  20  22
HETATM   22  C19 UNL     1       0.373   0.856  -2.876  1.00  0.00     0.167 C 
HETATM   23 CL3  UNL     1       1.200  -0.659  -3.331  1.00  0.00    -0.125 Cl
ENDBRANCH  20  22
ENDBRANCH   9  20
ENDBRANCH   1   9
BRANCH   6  24
HETATM   24  C11 UNL     1      -4.908   1.747   0.888  1.00  0.00     0.155 C 
BRANCH  24  25
HETATM   25  C12 UNL     1      -5.853   0.653   1.025  1.00  0.00     0.022 C 
BRANCH  25  26
HETATM   26  C13 UNL     1      -5.890  -0.483   0.133  1.00  0.00     0.031 A 
HETATM   27  C14 UNL     1      -5.277  -0.784  -1.051  1.00  0.00     0.054 A 
HETATM   28  C15 UNL     1      -5.717  -2.060  -1.412  1.00  0.00     0.051 A 
HETATM   29 CL1  UNL     1      -5.251  -2.941  -2.839  1.00  0.00    -0.083 Cl
HETATM   30  C16 UNL     1      -6.574  -2.508  -0.465  1.00  0.00     0.112 A 
HETATM   31  N5  UNL     1      -6.683  -1.573   0.462  1.00  0.00    -0.364 N 
ATOM     32  H5  UNL     1      -7.265  -1.642   1.297  1.00  0.00     0.165 HD
ENDBRANCH  25  26
ENDBRANCH  24  25
ENDBRANCH   6  24
TORSDOF 13
