REMARK  9 active torsions:
REMARK  status: ('A' for Active; 'I' for Inactive)
REMARK    1  A    between atoms: C2_2  and  O1_3 
REMARK    2  A    between atoms: C2_2  and  C3_6 
REMARK    3  A    between atoms: C4_10  and  C5_11 
REMARK    4  A    between atoms: C5_11  and  C6_12 
REMARK    5  A    between atoms: C6_12  and  C7_13 
REMARK    6  A    between atoms: C16_29  and  C17_30 
REMARK    7  A    between atoms: C17_30  and  C18_31 
REMARK    8  A    between atoms: C18_31  and  C19_32 
REMARK    9  A    between atoms: C19_32  and  C20_33 
ROOT
HETATM    1  C3  UNL     1      -1.295  -1.174   0.123  1.00  0.00     0.288 C 
HETATM    2  N1  UNL     1      -1.837  -0.033  -0.615  1.00  0.00    -0.048 N 
ATOM      3  H11 UNL     1      -2.853  -0.094  -0.686  1.00  0.00     0.279 HD
ATOM      4  H12 UNL     1      -1.598  -0.092  -1.605  1.00  0.00     0.279 HD
HETATM    5  C4  UNL     1      -1.436   1.227  -0.065  1.00  0.00     0.279 C 
HETATM    6  C8  UNL     1       0.022   1.539  -0.298  1.00  0.00     0.256 C 
HETATM    7  O3  UNL     1       0.317   2.736  -0.079  1.00  0.00    -0.271 OA
HETATM    8  N3  UNL     1       1.046   0.662  -0.719  1.00  0.00    -0.304 N 
HETATM    9  C9  UNL     1       0.910  -0.728  -0.973  1.00  0.00     0.059 A 
HETATM   10  C10 UNL     1      -0.129  -1.614  -0.642  1.00  0.00     0.009 A 
HETATM   11  C11 UNL     1      -0.061  -2.926  -1.025  1.00  0.00     0.054 A 
HETATM   12  C12 UNL     1       1.040  -3.373  -1.740  1.00  0.00     0.117 A 
HETATM   13  F2  UNL     1       1.105  -4.687  -2.121  1.00  0.00    -0.206 F 
HETATM   14  C13 UNL     1       2.067  -2.506  -2.068  1.00  0.00     0.057 A 
HETATM   15  C14 UNL     1       1.993  -1.186  -1.680  1.00  0.00     0.045 A 
HETATM   16  C15 UNL     1       2.953  -0.033  -1.890  1.00  0.00     0.294 C 
HETATM   17  F3  UNL     1       2.724   0.333  -3.228  1.00  0.00    -0.198 F 
HETATM   18  F4  UNL     1       4.173  -0.543  -1.693  1.00  0.00    -0.198 F 
HETATM   19  C16 UNL     1       2.429   1.003  -0.992  1.00  0.00     0.174 C 
ENDROOT
BRANCH   1  20
HETATM   20  C2  UNL     1      -2.299  -2.141   0.555  1.00  0.00     0.232 C 
HETATM   21  C1  UNL     1      -1.753  -3.153   1.537  1.00  0.00     0.087 C 
HETATM   22  F1  UNL     1      -3.105  -2.689  -0.418  1.00  0.00    -0.210 F 
BRANCH  20  23
HETATM   23  O1  UNL     1      -3.220  -1.387   1.357  1.00  0.00    -0.360 OA
ATOM     24  H1  UNL     1      -3.563  -0.751   0.740  1.00  0.00     0.213 HD
ENDBRANCH  20  23
ENDBRANCH   1  20
BRANCH   5  25
HETATM   25  C5  UNL     1      -2.280   2.390  -0.424  1.00  0.00     0.052 C 
BRANCH  25  26
HETATM   26  C6  UNL     1      -3.707   2.240   0.026  1.00  0.00     0.102 C 
BRANCH  26  27
HETATM   27  C7  UNL     1      -4.452   3.460  -0.375  1.00  0.00     0.231 C 
HETATM   28  N2  UNL     1      -5.829   3.603  -0.081  1.00  0.00    -0.062 NA
HETATM   29  O2  UNL     1      -3.871   4.384  -0.980  1.00  0.00    -0.277 OA
ENDBRANCH  26  27
ENDBRANCH  25  26
ENDBRANCH   5  25
BRANCH  19  30
HETATM   30  C17 UNL     1       3.165   1.321   0.271  1.00  0.00     0.059 C 
BRANCH  30  31
HETATM   31  C18 UNL     1       3.244   0.268   1.254  1.00  0.00    -0.024 C 
BRANCH  31  32
HETATM   32  C19 UNL     1       4.227  -0.327   1.832  1.00  0.00     0.008 C 
BRANCH  32  33
HETATM   33  C20 UNL     1       5.657  -0.171   1.729  1.00  0.00     0.084 C 
HETATM   34 CL1  UNL     1       6.345   1.038   0.695  1.00  0.00    -0.097 Cl
ENDBRANCH  32  33
ENDBRANCH  31  32
ENDBRANCH  30  31
ENDBRANCH  19  30
TORSDOF 9
