REMARK  18 active torsions:
REMARK  status: ('A' for Active; 'I' for Inactive)
REMARK    1  A    between atoms: C1_2  and  C2_3 
REMARK    2  A    between atoms: C2_3  and  N1_4 
REMARK    3  A    between atoms: N1_4  and  C3_5 
REMARK    4  A    between atoms: N1_4  and  C4_7 
REMARK    5  A    between atoms: C4_7  and  C5_8 
REMARK    6  A    between atoms: C5_8  and  C6_9 
REMARK    7  A    between atoms: C6_9  and  N2_10 
REMARK    8  A    between atoms: N2_10  and  C7_12 
REMARK    9  A    between atoms: C8_15  and  N4_16 
REMARK   10  A    between atoms: N4_16  and  C9_18 
REMARK   11  A    between atoms: C9_18  and  C10_19 
REMARK   12  A    between atoms: C10_19  and  C11_20 
REMARK   13  A    between atoms: C11_20  and  N5_21 
REMARK   14  A    between atoms: N5_21  and  C12_23 
REMARK   15  A    between atoms: C19_34  and  C20_35 
REMARK   16  A    between atoms: C23_40  and  N9_41 
REMARK   17  A    between atoms: C24_43  and  C25_44 
REMARK   18  A    between atoms: C25_44  and  N10_45 
ROOT
HETATM    1  C7  UNL     1      -1.637  -1.258   0.500  1.00  0.00     0.680 A 
HETATM    2  N3  UNL     1      -2.634  -0.404   0.768  1.00  0.00    -0.176 N 
ATOM      3  H3  UNL     1      -3.583  -0.773   0.825  1.00  0.00     0.186 HD
HETATM    4  C8  UNL     1      -2.452   0.909   0.965  1.00  0.00     0.129 A 
HETATM    5  C15 UNL     1      -1.177   1.414   0.888  1.00  0.00     0.036 A 
HETATM    6  C16 UNL     1      -0.971   2.760   1.077  1.00  0.00     0.017 A 
HETATM    7  C17 UNL     1       0.306   3.275   0.992  1.00  0.00     0.002 A 
HETATM    8  C18 UNL     1       1.321   2.407   0.720  1.00  0.00     0.014 A 
HETATM    9  C19 UNL     1       1.143   1.030   0.523  1.00  0.00     0.003 A 
HETATM   10  C31 UNL     1      -0.125   0.543   0.610  1.00  0.00     0.074 A 
HETATM   11  N12 UNL     1      -0.364  -0.764   0.421  1.00  0.00    -0.190 N 
ATOM     12  H12 UNL     1       0.411  -1.395   0.217  1.00  0.00     0.184 HD
ENDROOT
BRANCH   9  13
HETATM   13  C20 UNL     1       2.341   0.227   0.278  1.00  0.00    -0.019 A 
HETATM   14  C21 UNL     1       2.703  -0.851   1.053  1.00  0.00     0.029 A 
HETATM   15  C22 UNL     1       3.840  -1.592   0.788  1.00  0.00     0.090 A 
HETATM   16  N8  UNL     1       4.626  -1.257  -0.257  1.00  0.00    -0.352 N 
HETATM   17  C23 UNL     1       4.342  -0.220  -1.059  1.00  0.00     0.105 A 
ATOM     18  H8  UNL     1       5.463  -1.810  -0.443  1.00  0.00     0.166 HD
HETATM   19  C30 UNL     1       3.165   0.532  -0.771  1.00  0.00     0.060 A 
BRANCH  17  20
HETATM   20  N9  UNL     1       5.023   0.123  -2.019  1.00  0.00    -0.354 N 
HETATM   21  C24 UNL     1       6.102  -0.034  -2.825  1.00  0.00     0.092 C 
ATOM     22  H9  UNL     1       4.533   0.930  -2.404  1.00  0.00     0.166 HD
BRANCH  21  23
HETATM   23  C25 UNL     1       7.324  -0.713  -2.236  1.00  0.00     0.317 C 
BRANCH  23  24
HETATM   24  N10 UNL     1       7.788   0.012  -1.088  1.00  0.00     0.096 N 
HETATM   25  C26 UNL     1       8.329   1.296  -1.401  1.00  0.00     0.300 C 
HETATM   26  C27 UNL     1       9.692   1.567  -0.863  1.00  0.00     0.262 C 
HETATM   27  N11 UNL     1       9.882   1.184   0.502  1.00  0.00    -0.072 N 
HETATM   28  C28 UNL     1       9.118   0.042   0.912  1.00  0.00     0.262 C 
ATOM     29 2H11 UNL     1      10.873   1.036   0.694  1.00  0.00     0.277 HD
ATOM     30 1H11 UNL     1       9.699   1.974   1.121  1.00  0.00     0.277 HD
HETATM   31  C29 UNL     1       8.615  -0.789  -0.219  1.00  0.00     0.300 C 
ENDBRANCH  23  24
ENDBRANCH  21  23
ENDBRANCH  17  20
ENDBRANCH   9  13
BRANCH   4  32
HETATM   32  N4  UNL     1      -3.414   1.725   1.223  1.00  0.00    -0.375 N 
ATOM     33  H4  UNL     1      -3.167   2.706   1.355  1.00  0.00     0.161 HD
BRANCH  32  34
HETATM   34  C9  UNL     1      -4.799   1.381   1.342  1.00  0.00     0.123 C 
BRANCH  34  35
HETATM   35  C10 UNL     1      -5.694   2.609   1.160  1.00  0.00     0.040 C 
BRANCH  35  36
HETATM   36  C11 UNL     1      -5.458   3.205  -0.218  1.00  0.00     0.139 C 
BRANCH  36  37
HETATM   37  N5  UNL     1      -6.287   4.362  -0.412  1.00  0.00    -0.226 N 
ATOM     38  H5  UNL     1      -7.216   4.230  -0.813  1.00  0.00     0.177 HD
BRANCH  37  39
HETATM   39  C12 UNL     1      -5.920   5.550  -0.108  1.00  0.00     0.677 A 
HETATM   40  N6  UNL     1      -6.653   6.658  -0.268  1.00  0.00    -0.201 N 
HETATM   41  C13 UNL     1      -5.925   7.729   0.170  1.00  0.00     0.123 A 
ATOM     42  H6  UNL     1      -7.597   6.697  -0.652  1.00  0.00     0.183 HD
HETATM   43  C14 UNL     1      -4.714   7.222   0.604  1.00  0.00     0.123 A 
HETATM   44  N7  UNL     1      -4.738   5.880   0.422  1.00  0.00    -0.201 N 
ATOM     45  H7  UNL     1      -3.984   5.232   0.650  1.00  0.00     0.183 HD
ENDBRANCH  37  39
ENDBRANCH  36  37
ENDBRANCH  35  36
ENDBRANCH  34  35
ENDBRANCH  32  34
ENDBRANCH   4  32
BRANCH   1  46
HETATM   46  N2  UNL     1      -1.826  -2.515   0.316  1.00  0.00    -0.226 N 
ATOM     47  H2  UNL     1      -1.010  -3.093   0.115  1.00  0.00     0.177 HD
BRANCH  46  48
HETATM   48  C6  UNL     1      -3.129  -3.175   0.374  1.00  0.00     0.143 C 
BRANCH  48  49
HETATM   49  C5  UNL     1      -2.890  -4.620   0.669  1.00  0.00     0.064 C 
BRANCH  49  50
HETATM   50  C4  UNL     1      -4.028  -5.527   0.797  1.00  0.00     0.061 C 
BRANCH  50  51
HETATM   51  N1  UNL     1      -4.931  -5.757  -0.245  1.00  0.00    -0.380 N 
BRANCH  51  52
HETATM   52  C2  UNL     1      -5.868  -4.748  -0.616  1.00  0.00     0.138 C 
BRANCH  52  53
HETATM   53  C1  UNL     1      -6.597  -4.175   0.573  1.00  0.00     0.134 C 
HETATM   54 CL1  UNL     1      -7.487  -5.476   1.403  1.00  0.00    -0.129 Cl
ENDBRANCH  52  53
ENDBRANCH  51  52
BRANCH  51  55
HETATM   55  C3  UNL     1      -4.316  -6.379  -1.412  1.00  0.00     0.237 C 
HETATM   56 CL2  UNL     1      -5.597  -7.121  -2.397  1.00  0.00    -0.109 Cl
ENDBRANCH  51  55
ENDBRANCH  50  51
ENDBRANCH  49  50
ENDBRANCH  48  49
ENDBRANCH  46  48
ENDBRANCH   1  46
TORSDOF 18
