REMARK  6 active torsions:
REMARK  status: ('A' for Active; 'I' for Inactive)
REMARK    1  A    between atoms: C2_2  and  N1_3 
REMARK    2  A    between atoms: N1_3  and  C3_6 
REMARK    3  A    between atoms: C3_6  and  C4_7 
REMARK    4  A    between atoms: C4_7  and  N2_8 
REMARK    5  A    between atoms: N2_8  and  C5_11 
REMARK    6  A    between atoms: C5_11  and  C6_12 
ROOT
HETATM    1  N2  UNL     1       0.417   0.173   0.361  1.00  0.00    -0.073 N 
ATOM      2  H21 UNL     1       0.932  -0.077   1.205  1.00  0.00     0.277 HD
ATOM      3  H22 UNL     1       0.374  -0.749  -0.073  1.00  0.00     0.277 HD
ENDROOT
BRANCH   1   4
HETATM    4  C4  UNL     1       1.149   1.107  -0.449  1.00  0.00     0.259 C 
BRANCH   4   5
HETATM    5  C3  UNL     1       2.475   0.514  -0.874  1.00  0.00     0.259 C 
BRANCH   5   6
HETATM    6  N1  UNL     1       3.216   0.163   0.322  1.00  0.00    -0.074 N 
ATOM      7  H12 UNL     1       2.669  -0.435   0.942  1.00  0.00     0.277 HD
ATOM      8  H11 UNL     1       3.332   0.964   0.942  1.00  0.00     0.277 HD
BRANCH   6   9
HETATM    9  C2  UNL     1       4.498  -0.444  -0.019  1.00  0.00     0.228 C 
HETATM   10  C1  UNL     1       5.171  -0.841   1.277  1.00  0.00     0.034 C 
ENDBRANCH   6   9
ENDBRANCH   5   6
ENDBRANCH   4   5
ENDBRANCH   1   4
BRANCH   1  11
HETATM   11  C5  UNL     1      -0.880   0.670   0.666  1.00  0.00     0.237 C 
BRANCH  11  12
HETATM   12  C6  UNL     1      -1.835   0.745  -0.494  1.00  0.00     0.017 C 
HETATM   13  C7  UNL     1      -3.174   1.324  -0.064  1.00  0.00     0.026 C 
HETATM   14  C8  UNL     1      -3.739   0.407   0.972  1.00  0.00     0.119 C 
HETATM   15  N3  UNL     1      -3.978  -0.896   0.486  1.00  0.00    -0.402 N 
HETATM   16  C9  UNL     1      -3.248  -1.361  -0.615  1.00  0.00     0.056 C 
ATOM     17  H3  UNL     1      -4.675  -1.493   0.932  1.00  0.00     0.158 HD
HETATM   18  C10 UNL     1      -2.088  -0.589  -1.112  1.00  0.00     0.050 C 
ENDBRANCH  11  12
ENDBRANCH   1  11
TORSDOF 6
