REMARK  8 active torsions:
REMARK  status: ('A' for Active; 'I' for Inactive)
REMARK    1  A    between atoms: C2_2  and  C5_7 
REMARK    2  A    between atoms: C3_3  and  C4_4 
REMARK    3  A    between atoms: C4_4  and  O1_5 
REMARK    4  A    between atoms: C5_7  and  O3_9 
REMARK    5  A    between atoms: O3_9  and  C6_10 
REMARK    6  A    between atoms: C6_10  and  C7_11 
REMARK    7  A    between atoms: C7_11  and  C8_13 
REMARK    8  A    between atoms: C23_29  and  O6_30 
ROOT
HETATM    1  C8  UNL     1       0.645   0.342  -0.684  1.00  0.00     0.074 C 
HETATM    2  C9  UNL     1       1.517   1.374  -0.175  1.00  0.00     0.013 C 
HETATM    3  C10 UNL     1       0.843   2.492   0.567  1.00  0.00     0.002 C 
HETATM    4  C11 UNL     1      -0.561   2.413   0.823  1.00  0.00     0.011 C 
HETATM    5  C12 UNL     1      -1.366   1.150   0.467  1.00  0.00    -0.028 C 
HETATM    6  C13 UNL     1      -0.873   0.188   1.533  1.00  0.00     0.016 C 
HETATM    7  C14 UNL     1      -2.785   1.537   0.586  1.00  0.00     0.017 C 
HETATM    8  C15 UNL     1      -3.452   1.083   1.915  1.00  0.00     0.084 C 
HETATM    9  C16 UNL     1      -3.838  -0.317   1.949  1.00  0.00     0.131 C 
HETATM   10  O5  UNL     1      -4.219  -0.611   3.099  1.00  0.00    -0.298 OA
HETATM   11  C17 UNL     1      -3.916  -1.476   1.064  1.00  0.00     0.116 C 
HETATM   12  C18 UNL     1      -3.825  -1.081  -0.426  1.00  0.00    -0.031 C 
HETATM   13  C19 UNL     1      -2.536  -1.359  -1.013  1.00  0.00     0.003 C 
HETATM   14  C20 UNL     1      -1.499  -0.476  -1.487  1.00  0.00    -0.015 C 
HETATM   15  C21 UNL     1      -0.865   0.663  -0.850  1.00  0.00    -0.008 C 
HETATM   16  C22 UNL     1      -0.857   1.871  -1.778  1.00  0.00     0.021 C 
HETATM   17  C23 UNL     1      -4.544   0.179  -0.574  1.00  0.00     0.153 A 
HETATM   18  C24 UNL     1      -4.159   1.036  -1.678  1.00  0.00     0.174 A 
HETATM   19  O7  UNL     1      -4.189   1.121  -2.899  1.00  0.00    -0.294 OA
HETATM   20  C25 UNL     1      -3.851   1.469  -0.366  1.00  0.00     0.111 A 
ENDROOT
BRANCH   1  21
HETATM   21  C7  UNL     1       1.201  -0.159  -1.960  1.00  0.00     0.176 C 
HETATM   22  O4  UNL     1       0.699   0.232  -3.048  1.00  0.00    -0.291 OA
BRANCH  21  23
HETATM   23  C6  UNL     1       2.303  -1.092  -2.166  1.00  0.00     0.196 C 
BRANCH  23  24
HETATM   24  O3  UNL     1       3.117  -1.575  -1.221  1.00  0.00    -0.284 OA
BRANCH  24  25
HETATM   25  C5  UNL     1       4.169  -1.161  -0.483  1.00  0.00     0.293 C 
HETATM   26  O2  UNL     1       4.575   0.006  -0.708  1.00  0.00    -0.259 OA
BRANCH  25  27
HETATM   27  C2  UNL     1       4.760  -2.062   0.507  1.00  0.00     0.012 C 
HETATM   28  C1  UNL     1       4.164  -3.454   0.675  1.00  0.00     0.054 C 
HETATM   29  C3  UNL     1       5.770  -1.792   1.282  1.00  0.00     0.011 C 
BRANCH  29  30
HETATM   30  C4  UNL     1       6.583  -0.582   1.402  1.00  0.00     0.192 C 
BRANCH  30  31
HETATM   31  O1  UNL     1       7.921  -0.948   1.104  1.00  0.00    -0.397 OA
ATOM     32  H1  UNL     1       8.449  -0.162   1.182  1.00  0.00     0.209 HD
ENDBRANCH  30  31
ENDBRANCH  29  30
ENDBRANCH  25  27
ENDBRANCH  24  25
ENDBRANCH  23  24
ENDBRANCH  21  23
ENDBRANCH   1  21
BRANCH  17  33
HETATM   33  O6  UNL     1      -5.931   0.091  -0.265  1.00  0.00    -0.377 OA
ATOM     34  H6  UNL     1      -6.399   0.912  -0.361  1.00  0.00     0.211 HD
ENDBRANCH  17  33
TORSDOF 8
