REMARK  8 active torsions:
REMARK  status: ('A' for Active; 'I' for Inactive)
REMARK    1  A    between atoms: C2_2  and  C3_3 
REMARK    2  A    between atoms: C3_3  and  C4_5 
REMARK    3  A    between atoms: C13_14  and  C15_16 
REMARK    4  A    between atoms: C17_20  and  N1_21 
REMARK       I    between atoms: N1_21  and  C18_23 
REMARK    5  A    between atoms: C18_23  and  C19_25 
REMARK    6  A    between atoms: C19_25  and  C20_26 
REMARK    7  A    between atoms: C21_27  and  O5_29 
REMARK    8  A    between atoms: C28_36  and  O6_37 
ROOT
HETATM    1  C4  UNL     1      -4.069   1.408  -0.463  1.00  0.00     0.028 C 
HETATM    2  C5  UNL     1      -4.904   1.067  -1.711  1.00  0.00     0.024 C 
HETATM    3  C6  UNL     1      -3.606   0.056   0.132  1.00  0.00     0.026 C 
HETATM    4  C7  UNL     1      -2.191   0.266   0.527  1.00  0.00     0.035 C 
HETATM    5  C8  UNL     1      -1.452  -0.922   0.952  1.00  0.00    -0.030 C 
HETATM    6  C9  UNL     1      -1.803  -1.067   2.462  1.00  0.00     0.016 C 
HETATM    7  C10 UNL     1      -2.266  -2.064   0.345  1.00  0.00     0.010 C 
HETATM    8  C11 UNL     1      -1.790  -3.428   0.770  1.00  0.00     0.002 C 
HETATM    9  C12 UNL     1      -0.404  -3.504   0.307  1.00  0.00     0.020 C 
HETATM   10  C13 UNL     1       0.500  -2.444   0.907  1.00  0.00     0.051 C 
HETATM   11  C14 UNL     1       0.731  -2.931   2.353  1.00  0.00     0.027 C 
HETATM   12  C16 UNL     1       0.019  -1.035   0.853  1.00  0.00     0.036 C 
HETATM   13  C17 UNL     1       0.848  -0.085   0.073  1.00  0.00     0.094 C 
HETATM   14  C23 UNL     1       0.656   1.401   0.416  1.00  0.00     0.062 C 
HETATM   15  C24 UNL     1      -0.638   1.926   0.020  1.00  0.00    -0.047 A 
HETATM   16  C25 UNL     1      -1.039   3.159   0.173  1.00  0.00    -0.020 A 
HETATM   17  C26 UNL     1      -2.431   3.355  -0.339  1.00  0.00     0.036 A 
HETATM   18  C27 UNL     1      -2.817   2.038  -0.894  1.00  0.00     0.044 A 
HETATM   19  C28 UNL     1      -1.687   1.073  -0.607  1.00  0.00     0.090 A 
ENDROOT
BRANCH  13  20
HETATM   20  N1  UNL     1       2.251  -0.129   0.583  1.00  0.00    -0.355 N 
HETATM   21  C18 UNL     1       3.357   0.211  -0.215  1.00  0.00     0.221 C 
HETATM   22  O4  UNL     1       3.138   0.569  -1.417  1.00  0.00    -0.273 OA
ATOM     23  H1  UNL     1       2.413  -0.417   1.548  1.00  0.00     0.162 HD
BRANCH  21  24
HETATM   24  C19 UNL     1       4.751   0.177   0.259  1.00  0.00     0.133 C 
BRANCH  24  25
HETATM   25  C20 UNL     1       5.728   0.568  -0.746  1.00  0.00     0.035 C 
HETATM   26  C21 UNL     1       6.669  -0.266  -1.124  1.00  0.00     0.148 C 
HETATM   27  N2  UNL     1       6.735  -1.556  -0.552  1.00  0.00    -0.075 NA
BRANCH  26  28
HETATM   28  O5  UNL     1       7.619   0.095  -2.092  1.00  0.00    -0.343 OA
HETATM   29  C22 UNL     1       8.489   1.206  -1.864  1.00  0.00     0.211 C 
ENDBRANCH  26  28
ENDBRANCH  24  25
ENDBRANCH  21  24
ENDBRANCH  13  20
BRANCH  10  30
HETATM   30  C15 UNL     1       1.763  -2.798   0.214  1.00  0.00     0.181 C 
HETATM   31  O2  UNL     1       2.834  -3.130   0.778  1.00  0.00    -0.647 OA
HETATM   32  O3  UNL     1       1.784  -2.771  -1.190  1.00  0.00    -0.647 OA
ENDBRANCH  10  30
BRANCH  19  33
HETATM   33  O6  UNL     1      -1.208   0.454  -1.701  1.00  0.00    -0.384 OA
ATOM     34  H6  UNL     1      -0.885   0.972  -2.429  1.00  0.00     0.211 HD
ENDBRANCH  19  33
BRANCH   1  35
HETATM   35  C3  UNL     1      -4.927   2.125   0.482  1.00  0.00     0.157 C 
HETATM   36  O1  UNL     1      -5.070   1.695   1.693  1.00  0.00    -0.292 OA
BRANCH  35  37
HETATM   37  C2  UNL     1      -5.668   3.329   0.180  1.00  0.00     0.041 C 
HETATM   38  C1  UNL     1      -5.721   3.983  -0.943  1.00  0.00     0.015 C 
ENDBRANCH  35  37
ENDBRANCH   1  35
TORSDOF 8
