REMARK  4 active torsions:
REMARK  status: ('A' for Active; 'I' for Inactive)
REMARK    1  A    between atoms: C2_2  and  O1_3 
REMARK    2  A    between atoms: C4_6  and  O2_7 
REMARK    3  A    between atoms: C5_9  and  O3_10 
REMARK    4  A    between atoms: C9_15  and  O4_16 
ROOT
HETATM    1  C1  UNL     1       2.282  -1.120  -0.306  1.00  0.00     0.049 C 
HETATM    2  C2  UNL     1       0.928  -0.567   0.166  1.00  0.00     0.088 C 
HETATM    3  C3  UNL     1      -0.069  -1.655  -0.056  1.00  0.00     0.075 C 
HETATM    4  C4  UNL     1      -1.486  -1.251   0.030  1.00  0.00     0.150 C 
HETATM    5  C5  UNL     1      -1.774   0.196  -0.074  1.00  0.00     0.154 C 
HETATM    6  C6  UNL     1      -0.773   1.025  -0.775  1.00  0.00     0.054 A 
HETATM    7  C7  UNL     1      -0.571   2.371  -0.078  1.00  0.00     0.013 A 
HETATM    8  C8  UNL     1       0.845   1.969   0.227  1.00  0.00     0.042 A 
HETATM    9  C9  UNL     1       0.644   0.696  -0.561  1.00  0.00     0.094 A 
ENDROOT
BRANCH   2  10
HETATM   10  O1  UNL     1       1.111  -0.256   1.521  1.00  0.00    -0.387 OA
ATOM     11  H1  UNL     1       0.274   0.086   1.813  1.00  0.00     0.210 HD
ENDBRANCH   2  10
BRANCH   9  12
HETATM   12  O4  UNL     1       1.394   0.779  -1.750  1.00  0.00    -0.386 OA
ATOM     13  H4  UNL     1       1.212   1.587  -2.215  1.00  0.00     0.210 HD
ENDBRANCH   9  12
BRANCH   4  14
HETATM   14  O2  UNL     1      -2.201  -1.973  -0.955  1.00  0.00    -0.393 OA
ATOM     15  H2  UNL     1      -3.113  -1.713  -0.900  1.00  0.00     0.210 HD
ENDBRANCH   4  14
BRANCH   5  16
HETATM   16  O3  UNL     1      -3.001   0.329  -0.768  1.00  0.00    -0.393 OA
ATOM     17  H3  UNL     1      -3.186   1.258  -0.835  1.00  0.00     0.210 HD
ENDBRANCH   5  16
TORSDOF 4
