REMARK  1 active torsions:
REMARK  status: ('A' for Active; 'I' for Inactive)
REMARK    1  A    between atoms: C3_4  and  N2_5 
REMARK       I    between atoms: N2_5  and  C4_7 
ROOT
HETATM    1  N2  UNL     1       1.205   0.457   1.079  1.00  0.00    -0.357 N 
ATOM      2  H2  UNL     1       1.516   0.957   1.912  1.00  0.00     0.162 HD
HETATM    3  C4  UNL     1       2.172  -0.282   0.370  1.00  0.00     0.182 C 
HETATM    4  N3  UNL     1       2.442  -1.468   0.770  1.00  0.00    -0.374 N 
ATOM      5  H31 UNL     1       3.142  -2.003   0.257  1.00  0.00     0.158 HD
ATOM      6  H32 UNL     1       1.961  -1.852   1.583  1.00  0.00     0.158 HD
HETATM    7  N4  UNL     1       2.838   0.249  -0.755  1.00  0.00    -0.064 NA
ENDROOT
BRANCH   1   8
HETATM    8  C3  UNL     1      -0.179   0.564   0.727  1.00  0.00     0.140 C 
HETATM    9  C2  UNL     1      -0.831  -0.802   0.726  1.00  0.00     0.298 C 
HETATM   10  N1  UNL     1      -1.556  -0.437  -0.483  1.00  0.00     0.088 N 
HETATM   11  C1  UNL     1      -2.857   0.148  -0.239  1.00  0.00     0.310 C 
HETATM   12  C5  UNL     1      -0.500   0.523  -0.746  1.00  0.00     0.298 C 
ENDBRANCH   1   8
TORSDOF 1
