REMARK  4 active torsions:
REMARK  status: ('A' for Active; 'I' for Inactive)
REMARK    1  A    between atoms: O1_1  and  C1_3 
REMARK    2  A    between atoms: C2_7  and  O2_8 
REMARK    3  A    between atoms: C4_12  and  O3_13 
REMARK    4  A    between atoms: C5_15  and  O4_16 
ROOT
HETATM    1  C1  UNL     1       1.190  -0.736  -0.086  1.00  0.00     0.353 C 
HETATM    2  N1  UNL     1       1.392   0.659  -0.456  1.00  0.00    -0.019 N 
ATOM      3  H11 UNL     1       1.330   0.822  -1.461  1.00  0.00     0.283 HD
ATOM      4  H12 UNL     1       2.355   0.973  -0.335  1.00  0.00     0.283 HD
HETATM    5  C2  UNL     1       0.443   1.429   0.305  1.00  0.00     0.338 C 
HETATM    6  C3  UNL     1      -0.955   1.085  -0.172  1.00  0.00     0.145 C 
HETATM    7 BR1  UNL     1      -1.241   1.796  -1.953  1.00  0.00    -0.084 Br
HETATM    8  C4  UNL     1      -1.250  -0.380  -0.099  1.00  0.00     0.169 C 
HETATM    9  C5  UNL     1      -0.131  -1.259  -0.548  1.00  0.00     0.204 C 
ENDROOT
BRANCH   1  10
HETATM   10  O1  UNL     1       2.260  -1.455  -0.551  1.00  0.00    -0.368 OA
ATOM     11  H1  UNL     1       2.128  -2.364  -0.310  1.00  0.00     0.212 HD
ENDBRANCH   1  10
BRANCH   9  12
HETATM   12  O4  UNL     1      -0.296  -2.532   0.033  1.00  0.00    -0.389 OA
ATOM     13  H4  UNL     1      -1.136  -2.865  -0.261  1.00  0.00     0.210 HD
ENDBRANCH   9  12
BRANCH   5  14
HETATM   14  O2  UNL     1       0.633   2.788   0.213  1.00  0.00    -0.369 OA
ATOM     15  H2  UNL     1       0.007   3.296   0.715  1.00  0.00     0.212 HD
ENDBRANCH   5  14
BRANCH   8  16
HETATM   16  O3  UNL     1      -1.581  -0.703   1.207  1.00  0.00    -0.392 OA
ATOM     17  H3  UNL     1      -1.768  -1.633   1.253  1.00  0.00     0.210 HD
ENDBRANCH   8  16
TORSDOF 4
