REMARK  7 active torsions:
REMARK  status: ('A' for Active; 'I' for Inactive)
REMARK    1  A    between atoms: O1_1  and  C1_3 
REMARK    2  A    between atoms: C1_3  and  C2_4 
REMARK    3  A    between atoms: C4_6  and  O2_7 
REMARK    4  A    between atoms: C5_9  and  O3_10 
REMARK    5  A    between atoms: C6_12  and  O4_13 
REMARK    6  A    between atoms: C7_15  and  O5_16 
REMARK    7  A    between atoms: C8_18  and  B1_19 
ROOT
HETATM    1  C2  UNL     1      -1.215  -0.246  -0.780  1.00  0.00     0.011 C 
HETATM    2  C3  UNL     1      -0.094  -1.089  -1.294  1.00  0.00     0.041 C 
HETATM    3  C4  UNL     1       0.798  -1.682  -0.288  1.00  0.00     0.150 C 
HETATM    4  C5  UNL     1       1.819  -0.804   0.320  1.00  0.00     0.178 C 
HETATM    5  C6  UNL     1       1.561   0.658   0.263  1.00  0.00     0.177 C 
HETATM    6  C7  UNL     1       0.196   1.079   0.692  1.00  0.00     0.147 C 
HETATM    7  C8  UNL     1      -0.705   1.132  -0.495  1.00  0.00     0.015 C 
ENDROOT
BRANCH   1   8
HETATM    8  C1  UNL     1      -1.977  -0.857   0.353  1.00  0.00     0.168 C 
BRANCH   8   9
HETATM    9  O1  UNL     1      -2.982  -0.005   0.750  1.00  0.00    -0.400 OA
ATOM     10  H1  UNL     1      -3.466  -0.393   1.470  1.00  0.00     0.209 HD
ENDBRANCH   8   9
ENDBRANCH   1   8
BRANCH   7  11
HETATM   11  B1  UNL     1      -1.860   2.200  -0.349  1.00  0.00     0.390 B 
HETATM   12  F1  UNL     1      -2.025   3.274  -1.305  1.00  0.00    -0.357 F 
ENDBRANCH   7  11
BRANCH   3  13
HETATM   13  O2  UNL     1       1.480  -2.756  -0.915  1.00  0.00    -0.393 OA
ATOM     14  H2  UNL     1       2.057  -3.139  -0.265  1.00  0.00     0.210 HD
ENDBRANCH   3  13
BRANCH   6  15
HETATM   15  O5  UNL     1       0.308   2.403   1.181  1.00  0.00    -0.393 OA
ATOM     16  H5  UNL     1      -0.561   2.671   1.454  1.00  0.00     0.210 HD
ENDBRANCH   6  15
BRANCH   4  17
HETATM   17  O3  UNL     1       3.082  -1.028  -0.265  1.00  0.00    -0.390 OA
ATOM     18  H3  UNL     1       3.738  -0.463   0.126  1.00  0.00     0.210 HD
ENDBRANCH   4  17
BRANCH   5  19
HETATM   19  O4  UNL     1       2.478   1.280   1.143  1.00  0.00    -0.390 OA
ATOM     20  H4  UNL     1       2.313   2.215   1.107  1.00  0.00     0.210 HD
ENDBRANCH   5  19
TORSDOF 7
