REMARK  13 active torsions:
REMARK  status: ('A' for Active; 'I' for Inactive)
REMARK    1  A    between atoms: C2_2  and  C3_3 
REMARK    2  A    between atoms: C3_3  and  C4_4 
REMARK    3  A    between atoms: C4_4  and  C5_5 
REMARK    4  A    between atoms: C5_5  and  N1_6 
REMARK    5  A    between atoms: N1_6  and  C6_8 
REMARK    6  A    between atoms: C7_11  and  N3_12 
REMARK    7  A    between atoms: N3_12  and  C8_14 
REMARK    8  A    between atoms: C8_14  and  C9_15 
REMARK    9  A    between atoms: C9_15  and  O1_16 
REMARK   10  A    between atoms: N5_21  and  O2_23 
REMARK   11  A    between atoms: O2_23  and  C11_24 
REMARK   12  A    between atoms: C11_24  and  C12_25 
REMARK   13  A    between atoms: C12_25  and  N6_26 
ROOT
HETATM    1  C6  UNL     1       0.802  -1.212  -0.359  1.00  0.00     0.707 A 
HETATM    2  N2  UNL     1      -0.110  -2.180  -0.383  1.00  0.00    -0.022 N 
ATOM      3  H2  UNL     1       0.161  -3.145  -0.572  1.00  0.00     0.203 HD
HETATM    4  C7  UNL     1      -1.379  -1.866  -0.157  1.00  0.00     0.707 A 
HETATM    5  N4  UNL     1      -1.751  -0.579   0.096  1.00  0.00    -0.020 N 
ATOM      6  H4  UNL     1      -2.735  -0.369   0.266  1.00  0.00     0.203 HD
HETATM    7  C10 UNL     1      -0.854   0.418   0.127  1.00  0.00     0.731 A 
HETATM    8  N5  UNL     1      -1.164   1.613   0.356  1.00  0.00    -0.095 N 
ATOM      9  H5  UNL     1      -0.341   2.215   0.333  1.00  0.00     0.213 HD
HETATM   10  N7  UNL     1       0.441   0.047  -0.112  1.00  0.00    -0.020 N 
ATOM     11  H7  UNL     1       1.163   0.767  -0.101  1.00  0.00     0.203 HD
ENDROOT
BRANCH   8  12
HETATM   12  O2  UNL     1      -2.237   2.302   0.614  1.00  0.00    -0.265 OA
BRANCH  12  13
HETATM   13  C11 UNL     1      -3.583   2.048   0.726  1.00  0.00     0.229 C 
BRANCH  13  14
HETATM   14  C12 UNL     1      -4.409   3.277   1.054  1.00  0.00     0.258 C 
BRANCH  14  15
HETATM   15  N6  UNL     1      -4.274   4.292   0.040  1.00  0.00    -0.077 N 
ATOM     16  H63 UNL     1      -3.296   4.532  -0.119  1.00  0.00     0.274 HD
ATOM     17  H62 UNL     1      -4.500   3.927  -0.885  1.00  0.00     0.274 HD
ATOM     18  H61 UNL     1      -4.830   5.119   0.261  1.00  0.00     0.274 HD
ENDBRANCH  14  15
ENDBRANCH  13  14
ENDBRANCH  12  13
ENDBRANCH   8  12
BRANCH   4  19
HETATM   19  N3  UNL     1      -2.258  -2.789  -0.178  1.00  0.00    -0.223 N 
ATOM     20  H3  UNL     1      -1.977  -3.751  -0.368  1.00  0.00     0.177 HD
BRANCH  19  21
HETATM   21  C8  UNL     1      -3.651  -2.483   0.065  1.00  0.00     0.164 C 
BRANCH  21  22
HETATM   22  C9  UNL     1      -4.481  -3.774   0.099  1.00  0.00     0.184 C 
BRANCH  22  23
HETATM   23  O1  UNL     1      -5.812  -3.471   0.332  1.00  0.00    -0.399 OA
ATOM     24  H1  UNL     1      -6.326  -4.270   0.353  1.00  0.00     0.209 HD
ENDBRANCH  22  23
ENDBRANCH  21  22
ENDBRANCH  19  21
ENDBRANCH   4  19
BRANCH   1  25
HETATM   25  N1  UNL     1       2.037  -1.550  -0.585  1.00  0.00    -0.225 N 
ATOM     26  H1  UNL     1       2.299  -2.518  -0.773  1.00  0.00     0.177 HD
BRANCH  25  27
HETATM   27  C5  UNL     1       3.027  -0.487  -0.557  1.00  0.00     0.138 C 
BRANCH  27  28
HETATM   28  C4  UNL     1       4.390  -1.006  -0.942  1.00  0.00     0.020 C 
BRANCH  28  29
HETATM   29  C3  UNL     1       5.384   0.104  -0.923  1.00  0.00     0.001 C 
BRANCH  29  30
HETATM   30  C2  UNL     1       5.519   0.744   0.430  1.00  0.00    -0.004 C 
HETATM   31  C1  UNL     1       6.570   1.837   0.296  1.00  0.00     0.005 C 
ENDBRANCH  29  30
ENDBRANCH  28  29
ENDBRANCH  27  28
ENDBRANCH  25  27
ENDBRANCH   1  25
TORSDOF 13
