REMARK  4 active torsions:
REMARK  status: ('A' for Active; 'I' for Inactive)
REMARK       I    between atoms: N1_1  and  C1_5 
REMARK       I    between atoms: C1_5  and  N2_6 
REMARK       I    between atoms: C1_5  and  N3_10 
REMARK    1  A    between atoms: N3_10  and  C2_12 
REMARK    2  A    between atoms: C2_12  and  C3_13 
REMARK    3  A    between atoms: C3_13  and  C4_14 
REMARK    4  A    between atoms: C4_14  and  N4_15 
ROOT
HETATM    1  N4  UNL     1       0.938  -0.648  -0.791  1.00  0.00    -0.254 N 
HETATM    2  N5  UNL     1       1.289   0.365  -1.561  1.00  0.00    -0.259 N 
ATOM      3  H5  UNL     1       0.650   0.663  -2.298  1.00  0.00     0.190 HD
HETATM    4  C5  UNL     1       2.439   1.012  -1.415  1.00  0.00     0.288 A 
HETATM    5  O1  UNL     1       2.811   1.972  -2.119  1.00  0.00    -0.264 OA
HETATM    6  C6  UNL     1       3.300   0.596  -0.405  1.00  0.00     0.127 A 
HETATM    7  N6  UNL     1       4.481   1.192  -0.184  1.00  0.00    -0.303 N 
ATOM      8  H6  UNL     1       4.766   1.976  -0.771  1.00  0.00     0.171 HD
HETATM    9  C7  UNL     1       5.305   0.766   0.811  1.00  0.00     0.327 A 
HETATM   10  O2  UNL     1       6.398   1.382   0.950  1.00  0.00    -0.247 OA
HETATM   11  N7  UNL     1       4.973  -0.264   1.612  1.00  0.00    -0.275 N 
ATOM     12  H7  UNL     1       5.607  -0.565   2.352  1.00  0.00     0.173 HD
HETATM   13  C8  UNL     1       3.800  -0.891   1.429  1.00  0.00     0.267 A 
HETATM   14  O3  UNL     1       3.471  -1.853   2.164  1.00  0.00    -0.267 OA
HETATM   15  C9  UNL     1       2.949  -0.468   0.417  1.00  0.00     0.134 A 
HETATM   16  C10 UNL     1       1.735  -1.084   0.195  1.00  0.00     0.280 A 
HETATM   17  O4  UNL     1       1.432  -2.039   0.942  1.00  0.00    -0.265 OA
ENDROOT
BRANCH   1  18
HETATM   18  C4  UNL     1      -0.342  -1.293  -1.029  1.00  0.00     0.158 C 
BRANCH  18  19
HETATM   19  C3  UNL     1      -1.412  -0.571  -0.172  1.00  0.00     0.066 C 
BRANCH  19  20
HETATM   20  C2  UNL     1      -2.752  -1.196  -0.381  1.00  0.00     0.060 C 
BRANCH  20  21
HETATM   21  N3  UNL     1      -3.766  -0.626   0.398  1.00  0.00    -0.354 N 
HETATM   22  C1  UNL     1      -4.193   0.684   0.126  1.00  0.00     0.479 C 
HETATM   23  N1  UNL     1      -5.411   0.898   0.961  1.00  0.00    -0.033 N 
HETATM   24  N2  UNL     1      -3.251   1.747   0.444  1.00  0.00    -0.033 N 
ATOM     25  H13 UNL     1      -5.204   0.960   1.958  1.00  0.00     0.278 HD
ATOM     26  H12 UNL     1      -5.811   1.830   0.849  1.00  0.00     0.278 HD
ATOM     27  H11 UNL     1      -6.071   0.153   0.738  1.00  0.00     0.278 HD
ATOM     28  H23 UNL     1      -3.651   2.679   0.332  1.00  0.00     0.278 HD
ATOM     29  H22 UNL     1      -3.044   1.809   1.441  1.00  0.00     0.278 HD
ATOM     30  H21 UNL     1      -2.418   1.601  -0.127  1.00  0.00     0.278 HD
ATOM     31  H3  UNL     1      -4.191  -1.158   1.157  1.00  0.00     0.162 HD
ENDBRANCH  20  21
ENDBRANCH  19  20
ENDBRANCH  18  19
ENDBRANCH   1  18
TORSDOF 4
