REMARK  9 active torsions:
REMARK  status: ('A' for Active; 'I' for Inactive)
REMARK    1  A    between atoms: N1_1  and  C1_5 
REMARK    2  A    between atoms: C1_5  and  C2_6 
REMARK    3  A    between atoms: C2_6  and  N2_7 
REMARK    4  A    between atoms: N2_7  and  C3_8 
REMARK    5  A    between atoms: N2_7  and  C5_12 
REMARK    6  A    between atoms: C3_8  and  C4_9 
REMARK    7  A    between atoms: C4_9  and  O1_10 
REMARK    8  A    between atoms: C6_13  and  N3_14 
REMARK    9  A    between atoms: C13_30  and  N6_31 
ROOT
HETATM    1  C5  UNL     1      -0.433  -0.024  -0.440  1.00  0.00     0.056 C 
HETATM    2  C6  UNL     1      -0.063  -0.478  -1.802  1.00  0.00     0.231 C 
HETATM    3  C7  UNL     1       1.078  -1.479  -1.793  1.00  0.00     0.041 C 
HETATM    4  C8  UNL     1       2.213  -1.119  -0.898  1.00  0.00     0.045 C 
HETATM    5  C9  UNL     1       1.897  -0.065   0.140  1.00  0.00     0.182 C 
HETATM    6  C10 UNL     1       2.777  -0.110   1.342  1.00  0.00     0.273 C 
HETATM    7  N4  UNL     1       4.131   0.226   0.998  1.00  0.00    -0.071 N 
ATOM      8  H41 UNL     1       4.614  -0.560   0.563  1.00  0.00     0.277 HD
ATOM      9  H42 UNL     1       4.715   0.327   1.828  1.00  0.00     0.277 HD
HETATM   10  C11 UNL     1       4.180   1.400   0.171  1.00  0.00     0.260 C 
HETATM   11  C12 UNL     1       2.859   2.139   0.137  1.00  0.00     0.260 C 
HETATM   12  N5  UNL     1       1.895   1.226  -0.500  1.00  0.00    -0.061 N 
ATOM     13  H51 UNL     1       0.959   1.629  -0.527  1.00  0.00     0.278 HD
ATOM     14  H52 UNL     1       2.060   1.147  -1.503  1.00  0.00     0.278 HD
HETATM   15  C13 UNL     1       0.481  -0.439   0.662  1.00  0.00     0.269 C 
ENDROOT
BRANCH   1  16
HETATM   16  N2  UNL     1      -1.816  -0.165  -0.065  1.00  0.00    -0.340 N 
BRANCH  16  17
HETATM   17  C2  UNL     1      -2.678   0.643  -0.827  1.00  0.00     0.096 C 
BRANCH  17  18
HETATM   18  C1  UNL     1      -3.625   1.436   0.024  1.00  0.00     0.274 C 
BRANCH  18  19
HETATM   19  N1  UNL     1      -2.908   2.329   0.936  1.00  0.00    -0.075 N 
ATOM     20  H13 UNL     1      -2.234   1.818   1.505  1.00  0.00     0.274 HD
ATOM     21  H12 UNL     1      -2.261   2.936   0.432  1.00  0.00     0.274 HD
ATOM     22  H11 UNL     1      -3.552   2.868   1.515  1.00  0.00     0.274 HD
ENDBRANCH  18  19
ENDBRANCH  17  18
ENDBRANCH  16  17
BRANCH  16  23
HETATM   23  C3  UNL     1      -2.199  -1.344   0.534  1.00  0.00     0.094 C 
BRANCH  23  24
HETATM   24  C4  UNL     1      -3.181  -1.329   1.658  1.00  0.00     0.209 C 
BRANCH  24  25
HETATM   25  O1  UNL     1      -3.316  -2.712   2.075  1.00  0.00    -0.396 OA
ATOM     26  H1  UNL     1      -3.941  -2.702   2.790  1.00  0.00     0.209 HD
ENDBRANCH  24  25
ENDBRANCH  23  24
ENDBRANCH  16  23
ENDBRANCH   1  16
BRANCH   2  27
HETATM   27  N3  UNL     1      -1.164  -1.134  -2.502  1.00  0.00    -0.070 N 
ATOM     28  H33 UNL     1      -1.539  -1.905  -1.950  1.00  0.00     0.275 HD
ATOM     29  H32 UNL     1      -1.988  -0.533  -2.529  1.00  0.00     0.275 HD
ATOM     30  H31 UNL     1      -0.909  -1.446  -3.439  1.00  0.00     0.275 HD
ENDBRANCH   2  27
BRANCH  15  31
HETATM   31  N6  UNL     1       0.177   0.287   1.855  1.00  0.00    -0.067 N 
ATOM     32  H63 UNL     1       0.197   1.295   1.703  1.00  0.00     0.275 HD
ATOM     33  H62 UNL     1      -0.804   0.194   2.118  1.00  0.00     0.275 HD
ATOM     34  H61 UNL     1       0.802   0.003   2.609  1.00  0.00     0.275 HD
ENDBRANCH  15  31
TORSDOF 9
