REMARK  8 active torsions:
REMARK  status: ('A' for Active; 'I' for Inactive)
REMARK    1  A    between atoms: N1_1  and  C1_4 
REMARK    2  A    between atoms: C2_7  and  S1_8 
REMARK    3  A    between atoms: S1_8  and  N3_9 
REMARK    4  A    between atoms: C3_16  and  N5_17 
REMARK    5  A    between atoms: N5_17  and  C4_19 
REMARK    6  A    between atoms: C4_19  and  C5_20 
REMARK    7  A    between atoms: C5_20  and  C6_21 
REMARK    8  A    between atoms: C6_21  and  N6_22 
ROOT
HETATM    1  C1  UNL     1      -2.548  -1.618  -0.889  1.00  0.00     0.692 A 
HETATM    2  N2  UNL     1      -3.696  -1.157  -0.365  1.00  0.00    -0.164 N 
ATOM      3  H2  UNL     1      -4.546  -1.714  -0.452  1.00  0.00     0.186 HD
HETATM    4  C2  UNL     1      -3.744   0.026   0.272  1.00  0.00     0.252 A 
HETATM    5  N4  UNL     1      -2.618   0.757   0.384  1.00  0.00    -0.163 N 
ATOM      6  H4  UNL     1      -2.653   1.655   0.867  1.00  0.00     0.186 HD
HETATM    7  C3  UNL     1      -1.437   0.327  -0.131  1.00  0.00     0.694 A 
HETATM    8  N9  UNL     1      -1.424  -0.852  -0.758  1.00  0.00    -0.023 N 
ATOM      9  H9  UNL     1      -0.547  -1.192  -1.152  1.00  0.00     0.203 HD
ENDROOT
BRANCH   7  10
HETATM   10  N5  UNL     1      -0.366   1.017  -0.027  1.00  0.00    -0.225 N 
ATOM     11  H5  UNL     1      -0.447   1.908   0.464  1.00  0.00     0.177 HD
BRANCH  10  12
HETATM   12  C4  UNL     1       0.936   0.679  -0.523  1.00  0.00     0.139 C 
BRANCH  12  13
HETATM   13  C5  UNL     1       1.672  -0.245   0.430  1.00  0.00     0.040 C 
BRANCH  13  14
HETATM   14  C6  UNL     1       3.040  -0.598  -0.100  1.00  0.00     0.123 C 
BRANCH  14  15
HETATM   15  N6  UNL     1       3.877   0.542  -0.292  1.00  0.00    -0.367 N 
HETATM   16  C7  UNL     1       5.115   0.608   0.040  1.00  0.00     0.196 C 
HETATM   17  N7  UNL     1       5.895   1.770  -0.177  1.00  0.00    -0.067 NA
HETATM   18  N8  UNL     1       5.714  -0.525   0.644  1.00  0.00    -0.067 NA
ATOM     19  H6  UNL     1       3.460   1.366  -0.725  1.00  0.00     0.161 HD
ENDBRANCH  14  15
ENDBRANCH  13  14
ENDBRANCH  12  13
ENDBRANCH  10  12
ENDBRANCH   7  10
BRANCH   4  20
HETATM   20  S1  UNL     1      -5.271   0.572   0.933  1.00  0.00     0.289 S 
HETATM   21  O1  UNL     1      -5.077   0.695   2.433  1.00  0.00    -0.198 OA
HETATM   22  O2  UNL     1      -6.314  -0.481   0.728  1.00  0.00    -0.198 OA
BRANCH  20  23
HETATM   23  N3  UNL     1      -5.773   2.067   0.248  1.00  0.00    -0.322 N 
ATOM     24  H32 UNL     1      -5.233   2.565  -0.460  1.00  0.00     0.169 HD
ATOM     25  H31 UNL     1      -6.662   2.385   0.633  1.00  0.00     0.169 HD
ENDBRANCH  20  23
ENDBRANCH   4  20
BRANCH   1  26
HETATM   26  N1  UNL     1      -2.509  -2.754  -1.499  1.00  0.00    -0.234 N 
ATOM     27  H12 UNL     1      -3.348  -3.326  -1.597  1.00  0.00     0.174 HD
ATOM     28  H11 UNL     1      -1.637  -3.104  -1.897  1.00  0.00     0.174 HD
ENDBRANCH   1  26
TORSDOF 8
