REMARK  13 active torsions:
REMARK  status: ('A' for Active; 'I' for Inactive)
REMARK    1  A    between atoms: N6_14  and  C4_15 
REMARK    2  A    between atoms: C4_15  and  C5_16 
REMARK    3  A    between atoms: C5_16  and  C6_17 
REMARK    4  A    between atoms: C5_16  and  C12_31 
REMARK    5  A    between atoms: C6_17  and  N7_18 
REMARK    6  A    between atoms: N7_18  and  N8_19 
REMARK    7  A    between atoms: N8_19  and  C7_20 
REMARK    8  A    between atoms: C7_20  and  C8_21 
REMARK    9  A    between atoms: C9_24  and  O1_25 
REMARK   10  A    between atoms: C11_28  and  O2_29 
REMARK   11  A    between atoms: C13_34  and  N11_35 
REMARK   12  A    between atoms: C15_44  and  O3_45 
REMARK   13  A    between atoms: C16_47  and  O4_48 
ROOT
HETATM    1  C5  UNL     1       0.268   1.531   0.311  1.00  0.00     0.002 C 
ENDROOT
BRANCH   1   2
HETATM    2  C4  UNL     1      -0.145   2.596  -0.644  1.00  0.00     0.192 C 
BRANCH   2   3
HETATM    3  N6  UNL     1      -1.297   3.369  -0.218  1.00  0.00    -0.255 N 
HETATM    4  C1  UNL     1      -1.233   4.500   0.553  1.00  0.00     0.149 A 
HETATM    5  N1  UNL     1      -0.156   5.032   1.014  1.00  0.00    -0.382 N 
HETATM    6  C2  UNL     1      -2.504   4.990   0.764  1.00  0.00     0.139 A 
ATOM      7  H12 UNL     1      -0.108   5.874   1.588  1.00  0.00     0.157 HD
ATOM      8  H11 UNL     1       0.785   4.669   0.858  1.00  0.00     0.157 HD
HETATM    9  C3  UNL     1      -3.305   5.955   1.341  1.00  0.00     0.146 A 
HETATM   10  N4  UNL     1      -3.314   4.158   0.125  1.00  0.00    -0.162 N 
HETATM   11  N2  UNL     1      -4.569   5.637   1.007  1.00  0.00    -0.293 N 
HETATM   12  N3  UNL     1      -4.570   4.550   0.271  1.00  0.00    -0.220 N 
ATOM     13  H2  UNL     1      -5.400   6.161   1.283  1.00  0.00     0.187 HD
ATOM     14  H3  UNL     1      -5.392   4.089  -0.119  1.00  0.00     0.210 HD
HETATM   15  N5  UNL     1      -2.586   3.212  -0.446  1.00  0.00    -0.215 N 
ATOM     16  H5  UNL     1      -2.977   2.449  -0.999  1.00  0.00     0.211 HD
ENDBRANCH   2   3
ENDBRANCH   1   2
BRANCH   1  17
HETATM   17  C6  UNL     1       1.469   0.747  -0.097  1.00  0.00     0.170 C 
BRANCH  17  18
HETATM   18  N7  UNL     1       1.700  -0.245   0.964  1.00  0.00    -0.144 NA
BRANCH  18  19
HETATM   19  N8  UNL     1       2.787  -1.052   0.728  1.00  0.00    -0.142 NA
BRANCH  19  20
HETATM   20  C7  UNL     1       3.185  -1.111  -0.662  1.00  0.00     0.190 C 
BRANCH  20  21
HETATM   21  C8  UNL     1       4.363  -2.006  -0.806  1.00  0.00     0.060 A 
HETATM   22  N9  UNL     1       4.982  -2.670   0.185  1.00  0.00    -0.337 N 
HETATM   23  C9  UNL     1       6.011  -3.390  -0.285  1.00  0.00     0.142 A 
ATOM     24  H9  UNL     1       4.705  -2.631   1.166  1.00  0.00     0.168 HD
HETATM   25  C10 UNL     1       6.074  -3.192  -1.646  1.00  0.00     0.094 A 
HETATM   26  C11 UNL     1       5.035  -2.321  -1.968  1.00  0.00     0.093 A 
BRANCH  23  27
HETATM   27  O1  UNL     1       6.881  -4.203   0.445  1.00  0.00    -0.346 OA
ATOM     28  H1  UNL     1       7.610  -4.713   0.112  1.00  0.00     0.219 HD
ENDBRANCH  23  27
BRANCH  26  29
HETATM   29  O2  UNL     1       4.723  -1.846  -3.238  1.00  0.00    -0.359 OA
ATOM     30  H2  UNL     1       5.186  -2.063  -4.039  1.00  0.00     0.217 HD
ENDBRANCH  26  29
ENDBRANCH  20  21
ENDBRANCH  19  20
ENDBRANCH  18  19
ENDBRANCH  17  18
ENDBRANCH   1  17
BRANCH   1  31
HETATM   31  C12 UNL     1      -0.795   0.765   0.976  1.00  0.00     0.149 A 
HETATM   32  N10 UNL     1      -1.150   0.945   2.298  1.00  0.00    -0.172 N 
HETATM   33  C13 UNL     1      -2.120   0.118   2.642  1.00  0.00     0.714 A 
ATOM     34  H10 UNL     1      -0.721   1.626   2.925  1.00  0.00     0.186 HD
HETATM   35  N12 UNL     1      -2.400  -0.599   1.560  1.00  0.00    -0.015 N 
HETATM   36  N13 UNL     1      -1.591  -0.204   0.538  1.00  0.00    -0.193 N 
HETATM   37  N17 UNL     1      -3.330  -1.611   1.377  1.00  0.00    -0.269 N 
HETATM   38  C14 UNL     1      -1.804  -0.898  -0.655  1.00  0.00     0.262 C 
HETATM   39  N14 UNL     1      -1.053  -0.803  -1.816  1.00  0.00    -0.074 NA
HETATM   40  N16 UNL     1      -2.963  -0.526  -1.459  1.00  0.00    -0.074 NA
HETATM   41  C15 UNL     1      -1.973  -2.413  -0.389  1.00  0.00     0.234 C 
HETATM   42  N15 UNL     1      -2.222  -0.878  -2.590  1.00  0.00    -0.032 NA
HETATM   43  C16 UNL     1      -3.067  -2.755   0.530  1.00  0.00     0.269 C 
ATOM     44  H17 UNL     1      -4.229  -1.547   1.855  1.00  0.00     0.186 HD
BRANCH  33  45
HETATM   45  N11 UNL     1      -2.672   0.051   3.831  1.00  0.00    -0.231 N 
ATOM     46 2H11 UNL     1      -2.457   0.602   4.662  1.00  0.00     0.174 HD
ATOM     47 1H11 UNL     1      -3.421  -0.588   4.097  1.00  0.00     0.174 HD
ENDBRANCH  33  45
BRANCH  41  48
HETATM   48  O3  UNL     1      -0.762  -2.943   0.030  1.00  0.00    -0.386 OA
ATOM     49  H3  UNL     1      -0.866  -3.873   0.193  1.00  0.00     0.210 HD
ENDBRANCH  41  48
BRANCH  43  50
HETATM   50  O4  UNL     1      -4.243  -3.160  -0.095  1.00  0.00    -0.373 OA
ATOM     51  H4  UNL     1      -4.950  -3.381   0.499  1.00  0.00     0.212 HD
ENDBRANCH  43  50
ENDBRANCH   1  31
TORSDOF 13
