REMARK  4 active torsions:
REMARK  status: ('A' for Active; 'I' for Inactive)
REMARK    1  A    between atoms: N1_1  and  N2_4 
REMARK       I    between atoms: N2_4  and  C1_6 
REMARK    2  A    between atoms: C1_6  and  C2_8 
REMARK    3  A    between atoms: C2_8  and  N3_9 
REMARK    4  A    between atoms: C2_8  and  C3_13 
ROOT
HETATM    1  C3  UNL     1       0.503   0.215  -0.717  1.00  0.00     0.126 A 
HETATM    2  N4  UNL     1      -0.281  -0.876  -0.512  1.00  0.00    -0.329 N 
ATOM      3  H4  UNL     1       0.103  -1.810  -0.652  1.00  0.00     0.168 HD
HETATM    4  C4  UNL     1      -1.561  -0.730  -0.125  1.00  0.00     0.132 A 
HETATM    5  N5  UNL     1      -2.377  -1.787   0.090  1.00  0.00    -0.293 N 
ATOM      6  H5  UNL     1      -2.020  -2.733  -0.044  1.00  0.00     0.172 HD
HETATM    7  C5  UNL     1      -3.654  -1.607   0.478  1.00  0.00     0.328 A 
HETATM    8  O2  UNL     1      -4.387  -2.618   0.670  1.00  0.00    -0.247 OA
HETATM    9  N6  UNL     1      -4.173  -0.373   0.668  1.00  0.00    -0.275 N 
ATOM     10  H6  UNL     1      -5.142  -0.247   0.962  1.00  0.00     0.173 HD
HETATM   11  C6  UNL     1      -3.367   0.684   0.456  1.00  0.00     0.269 A 
HETATM   12  O3  UNL     1      -3.808   1.865   0.621  1.00  0.00    -0.267 OA
HETATM   13  C7  UNL     1      -2.052   0.547   0.058  1.00  0.00     0.144 A 
HETATM   14  C8  UNL     1      -1.241   1.668  -0.154  1.00  0.00     0.266 A 
HETATM   15  O4  UNL     1      -1.748   2.784   0.029  1.00  0.00    -0.267 OA
HETATM   16  N7  UNL     1       0.025   1.456  -0.539  1.00  0.00    -0.310 N 
ATOM     17  H7  UNL     1       0.638   2.255  -0.700  1.00  0.00     0.170 HD
ENDROOT
BRANCH   1  18
HETATM   18  C2  UNL     1       1.915   0.063  -1.143  1.00  0.00     0.343 C 
BRANCH  18  19
HETATM   19  C1  UNL     1       2.803  -0.286  -0.026  1.00  0.00     0.273 C 
HETATM   20  N2  UNL     1       2.918   0.575   1.084  1.00  0.00    -0.275 N 
ATOM     21  H2  UNL     1       2.373   1.437   1.088  1.00  0.00     0.189 HD
HETATM   22  O1  UNL     1       3.459  -1.344  -0.053  1.00  0.00    -0.269 OA
BRANCH  20  23
HETATM   23  N1  UNL     1       3.744   0.305   2.181  1.00  0.00    -0.343 N 
ATOM     24  H12 UNL     1       4.282  -0.561   2.160  1.00  0.00     0.176 HD
ATOM     25  H11 UNL     1       3.827   0.928   2.984  1.00  0.00     0.176 HD
ENDBRANCH  20  23
ENDBRANCH  18  19
BRANCH  18  26
HETATM   26  N3  UNL     1       1.924  -0.936  -2.192  1.00  0.00    -0.059 N 
ATOM     27  H33 UNL     1       2.873  -1.115  -2.520  1.00  0.00     0.275 HD
ATOM     28  H32 UNL     1       1.701  -1.860  -1.821  1.00  0.00     0.275 HD
ATOM     29  H31 UNL     1       1.307  -0.694  -2.968  1.00  0.00     0.275 HD
ENDBRANCH  18  26
ENDBRANCH   1  18
TORSDOF 4
