REMARK  6 active torsions:
REMARK  status: ('A' for Active; 'I' for Inactive)
REMARK    1  A    between atoms: S1_2  and  N1_5 
REMARK    2  A    between atoms: C4_11  and  C5_12 
REMARK    3  A    between atoms: C6_15  and  N5_16 
REMARK    4  A    between atoms: C7_21  and  N7_22 
REMARK    5  A    between atoms: N7_22  and  O3_24 
REMARK    6  A    between atoms: N8_26  and  O4_27 
ROOT
HETATM    1  C5  UNL     1      -0.625   0.284   0.329  1.00  0.00     0.196 A 
HETATM    2  N4  UNL     1      -0.519   0.742   1.595  1.00  0.00    -0.171 N 
ATOM      3  H4  UNL     1       0.351   1.207   1.854  1.00  0.00     0.186 HD
HETATM    4  C6  UNL     1      -1.463   0.636   2.538  1.00  0.00     0.692 A 
HETATM    5  N6  UNL     1      -2.605   0.023   2.190  1.00  0.00    -0.019 N 
ATOM      6  H6  UNL     1      -3.359  -0.088   2.868  1.00  0.00     0.203 HD
HETATM    7  C7  UNL     1      -2.741  -0.442   0.940  1.00  0.00     0.744 A 
HETATM    8  N8  UNL     1      -1.773  -0.325  -0.010  1.00  0.00    -0.030 N 
ENDROOT
BRANCH   1   9
HETATM    9  C4  UNL     1       0.445   0.566  -0.603  1.00  0.00     0.119 A 
HETATM   10  N1  UNL     1       1.209  -0.230  -1.313  1.00  0.00    -0.176 N 
HETATM   11  N2  UNL     1       2.122   0.513  -2.009  1.00  0.00    -0.271 N 
HETATM   12  C2  UNL     1       1.960   1.798  -1.752  1.00  0.00     0.134 A 
ATOM     13  H2  UNL     1       2.828   0.129  -2.637  1.00  0.00     0.189 HD
HETATM   14  N3  UNL     1       2.705   2.890  -2.272  1.00  0.00    -0.081 NA
HETATM   15  C3  UNL     1       0.913   1.871  -0.867  1.00  0.00     0.083 A 
BRANCH  10  16
HETATM   16  S1  UNL     1       1.281  -1.942  -1.411  1.00  0.00     0.246 S 
HETATM   17  C1  UNL     1       2.898  -2.491  -0.796  1.00  0.00     0.188 C 
HETATM   18  O1  UNL     1       1.188  -2.439  -2.811  1.00  0.00    -0.204 OA
HETATM   19  O2  UNL     1       0.238  -2.642  -0.595  1.00  0.00    -0.204 OA
ENDBRANCH  10  16
ENDBRANCH   1   9
BRANCH   8  20
HETATM   20  O4  UNL     1      -2.049  -0.752  -1.313  1.00  0.00    -0.268 OA
ATOM     21  H4  UNL     1      -2.861  -1.183  -1.553  1.00  0.00     0.246 HD
ENDBRANCH   8  20
BRANCH   4  22
HETATM   22  N5  UNL     1      -1.284   1.107   3.744  1.00  0.00    -0.234 N 
ATOM     23  H52 UNL     1      -0.416   1.573   4.008  1.00  0.00     0.174 HD
ATOM     24  H51 UNL     1      -2.003   1.026   4.463  1.00  0.00     0.174 HD
ENDBRANCH   4  22
BRANCH   7  25
HETATM   25  N7  UNL     1      -3.834  -1.045   0.557  1.00  0.00    -0.096 N 
ATOM     26  H7  UNL     1      -3.916  -1.391  -0.399  1.00  0.00     0.213 HD
BRANCH  25  27
HETATM   27  O3  UNL     1      -4.874  -1.215   1.440  1.00  0.00    -0.276 OA
ATOM     28  H3  UNL     1      -5.669  -1.654   1.161  1.00  0.00     0.245 HD
ENDBRANCH  25  27
ENDBRANCH   7  25
TORSDOF 6
