REMARK  14 active torsions:
REMARK  status: ('A' for Active; 'I' for Inactive)
REMARK    1  A    between atoms: N1_1  and  C1_4 
REMARK    2  A    between atoms: C2_7  and  N3_8 
REMARK    3  A    between atoms: C5_16  and  N5_17 
REMARK    4  A    between atoms: N6_20  and  C6_21 
REMARK    5  A    between atoms: C6_21  and  C7_22 
REMARK    6  A    between atoms: C7_22  and  N7_23 
REMARK       I    between atoms: N7_23  and  C8_25 
REMARK    7  A    between atoms: C8_25  and  C9_27 
REMARK    8  A    between atoms: C9_27  and  C10_28 
REMARK    9  A    between atoms: C9_27  and  N9_34 
REMARK   10  A    between atoms: C10_28  and  C11_29 
REMARK   11  A    between atoms: C11_29  and  N8_30 
REMARK   12  A    between atoms: N9_34  and  C12_36 
REMARK   13  A    between atoms: C14_42  and  N12_43 
REMARK   14  A    between atoms: N12_43  and  C15_45 
ROOT
HETATM    1  N7  UNL     1       1.695  -1.047  -0.355  1.00  0.00    -0.358 N 
ATOM      2  H7  UNL     1       1.795  -2.052  -0.212  1.00  0.00     0.162 HD
HETATM    3  C8  UNL     1       0.504  -0.434   0.118  1.00  0.00     0.241 C 
HETATM    4  O2  UNL     1       0.303   0.787  -0.025  1.00  0.00    -0.271 OA
ENDROOT
BRANCH   3   5
HETATM    5  C9  UNL     1      -0.560  -1.243   0.813  1.00  0.00     0.193 C 
BRANCH   5   6
HETATM    6  C10 UNL     1       0.074  -1.785   2.081  1.00  0.00     0.062 C 
BRANCH   6   7
HETATM    7  C11 UNL     1      -0.853  -2.623   2.904  1.00  0.00     0.232 C 
BRANCH   7   8
HETATM    8  N8  UNL     1      -1.342  -3.780   2.214  1.00  0.00    -0.079 N 
ATOM      9  H83 UNL     1      -1.781  -3.516   1.332  1.00  0.00     0.274 HD
ATOM     10  H82 UNL     1      -0.569  -4.341   1.857  1.00  0.00     0.274 HD
ATOM     11  H81 UNL     1      -1.974  -4.351   2.775  1.00  0.00     0.274 HD
ENDBRANCH   7   8
ENDBRANCH   6   7
ENDBRANCH   5   6
BRANCH   5  12
HETATM   12  N9  UNL     1      -1.668  -0.366   1.127  1.00  0.00    -0.212 N 
ATOM     13  H9  UNL     1      -1.491   0.446   1.718  1.00  0.00     0.178 HD
BRANCH  12  14
HETATM   14  C12 UNL     1      -2.864  -0.561   0.697  1.00  0.00     0.694 A 
HETATM   15  N10 UNL     1      -3.218  -1.591  -0.086  1.00  0.00    -0.187 N 
HETATM   16  C13 UNL     1      -4.484  -1.744  -0.506  1.00  0.00     0.215 A 
ATOM     17  H10 UNL     1      -2.512  -2.271  -0.368  1.00  0.00     0.185 HD
HETATM   18  N11 UNL     1      -5.430  -0.857  -0.145  1.00  0.00    -0.187 N 
HETATM   19  C14 UNL     1      -5.104   0.184   0.638  1.00  0.00     0.698 A 
ATOM     20  H11 UNL     1      -6.391  -0.975  -0.465  1.00  0.00     0.185 HD
HETATM   21  N13 UNL     1      -3.829   0.310   1.042  1.00  0.00    -0.022 N 
ATOM     22  H13 UNL     1      -3.582   1.101   1.637  1.00  0.00     0.203 HD
BRANCH  19  23
HETATM   23  N12 UNL     1      -6.016   1.034   0.983  1.00  0.00    -0.191 N 
ATOM     24  H12 UNL     1      -5.739   1.814   1.579  1.00  0.00     0.184 HD
BRANCH  23  25
HETATM   25  C15 UNL     1      -7.369   0.952   0.589  1.00  0.00     0.049 A 
HETATM   26  C16 UNL     1      -8.311   0.510   1.498  1.00  0.00     0.030 A 
HETATM   27  C17 UNL     1      -9.625   0.438   1.089  1.00  0.00     0.002 A 
HETATM   28  C18 UNL     1     -10.036   0.784  -0.174  1.00  0.00     0.000 A 
HETATM   29  C19 UNL     1      -9.110   1.223  -1.081  1.00  0.00     0.002 A 
HETATM   30  C20 UNL     1      -7.776   1.300  -0.679  1.00  0.00     0.030 A 
ENDBRANCH  23  25
ENDBRANCH  19  23
ENDBRANCH  12  14
ENDBRANCH   5  12
ENDBRANCH   3   5
BRANCH   1  31
HETATM   31  C7  UNL     1       2.775  -0.359  -1.022  1.00  0.00     0.143 C 
BRANCH  31  32
HETATM   32  C6  UNL     1       3.365   0.658  -0.086  1.00  0.00     0.169 C 
BRANCH  32  33
HETATM   33  N6  UNL     1       4.459   1.393  -0.653  1.00  0.00    -0.165 N 
HETATM   34  C5  UNL     1       4.179   2.572  -1.263  1.00  0.00     0.682 A 
HETATM   35  N4  UNL     1       5.179   3.257  -1.792  1.00  0.00    -0.155 N 
HETATM   36  C4  UNL     1       6.471   2.870  -1.771  1.00  0.00     0.277 A 
ATOM     37  H4  UNL     1       4.957   4.142  -2.249  1.00  0.00     0.187 HD
HETATM   38  C3  UNL     1       6.766   1.667  -1.151  1.00  0.00     0.122 A 
HETATM   39  O1  UNL     1       7.374   3.552  -2.283  1.00  0.00    -0.266 OA
HETATM   40  C2  UNL     1       8.069   1.233  -1.115  1.00  0.00     0.134 A 
HETATM   41  C21 UNL     1       5.714   0.920  -0.581  1.00  0.00     0.158 A 
HETATM   42  N2  UNL     1       8.295   0.029  -0.493  1.00  0.00    -0.176 N 
HETATM   43  C1  UNL     1       7.295  -0.669   0.041  1.00  0.00     0.679 A 
ATOM     44  H2  UNL     1       9.246  -0.337  -0.439  1.00  0.00     0.186 HD
HETATM   45  N14 UNL     1       6.018  -0.252   0.011  1.00  0.00    -0.175 N 
ATOM     46  H14 UNL     1       5.283  -0.819   0.434  1.00  0.00     0.186 HD
BRANCH  34  47
HETATM   47  N5  UNL     1       2.972   3.023  -1.332  1.00  0.00    -0.234 N 
ATOM     48  H52 UNL     1       2.761   3.909  -1.791  1.00  0.00     0.174 HD
ATOM     49  H51 UNL     1       2.201   2.495  -0.924  1.00  0.00     0.174 HD
ENDBRANCH  34  47
BRANCH  40  50
HETATM   50  N3  UNL     1       9.079   1.799  -1.579  1.00  0.00    -0.384 N 
ATOM     51  H32 UNL     1      10.046   1.477  -1.552  1.00  0.00     0.157 HD
ATOM     52  H31 UNL     1       8.911   2.693  -2.041  1.00  0.00     0.157 HD
ENDBRANCH  40  50
BRANCH  43  53
HETATM   53  N1  UNL     1       7.496  -1.816   0.635  1.00  0.00    -0.234 N 
ATOM     54  H12 UNL     1       8.465  -2.133   0.658  1.00  0.00     0.174 HD
ATOM     55  H11 UNL     1       6.730  -2.351   1.044  1.00  0.00     0.174 HD
ENDBRANCH  43  53
ENDBRANCH  32  33
ENDBRANCH  31  32
ENDBRANCH   1  31
TORSDOF 14
