REMARK  12 active torsions:
REMARK  status: ('A' for Active; 'I' for Inactive)
REMARK       I    between atoms: C2_2  and  N1_4 
REMARK    1  A    between atoms: N1_4  and  C3_5 
REMARK    2  A    between atoms: C4_6  and  O2_7 
REMARK    3  A    between atoms: O2_7  and  C5_8 
REMARK    4  A    between atoms: C7_10  and  N2_11 
REMARK    5  A    between atoms: C9_16  and  C10_17 
REMARK    6  A    between atoms: C10_17  and  N3_18 
REMARK    7  A    between atoms: C11_23  and  N4_24 
REMARK    8  A    between atoms: C13_29  and  N5_30 
REMARK       I    between atoms: N5_30  and  C14_32 
REMARK    9  A    between atoms: C14_32  and  O5_34 
REMARK   10  A    between atoms: O5_34  and  C15_35 
REMARK   11  A    between atoms: C18_38  and  O6_39 
REMARK   12  A    between atoms: O6_39  and  C19_40 
ROOT
HETATM    1  C3  UNL     1      -0.004  -1.670   0.306  1.00  0.00     0.229 C 
HETATM    2  C4  UNL     1      -0.967  -0.718   0.931  1.00  0.00     0.193 C 
HETATM    3  C11 UNL     1      -0.295   0.175   1.966  1.00  0.00     0.217 C 
HETATM    4  C12 UNL     1       1.122  -0.157   2.259  1.00  0.00     0.063 C 
HETATM    5  C13 UNL     1       1.996  -0.378   1.069  1.00  0.00     0.121 C 
HETATM    6  C18 UNL     1       1.331  -1.062  -0.081  1.00  0.00     0.193 C 
ENDROOT
BRANCH   2   7
HETATM    7  O2  UNL     1      -1.633   0.125   0.095  1.00  0.00    -0.351 OA
BRANCH   7   8
HETATM    8  C5  UNL     1      -3.025   0.025   0.186  1.00  0.00     0.262 C 
HETATM    9  C6  UNL     1      -3.672   0.045  -1.128  1.00  0.00     0.093 C 
HETATM   10  C7  UNL     1      -4.440   1.320  -1.410  1.00  0.00     0.190 C 
HETATM   11  C8  UNL     1      -5.408   1.543  -0.268  1.00  0.00     0.066 C 
HETATM   12  C9  UNL     1      -4.737   1.369   1.076  1.00  0.00     0.152 C 
HETATM   13  O3  UNL     1      -3.417   1.090   1.017  1.00  0.00    -0.354 OA
BRANCH  10  14
HETATM   14  N2  UNL     1      -3.595   2.471  -1.543  1.00  0.00    -0.075 N 
ATOM     15  H23 UNL     1      -2.999   2.580  -0.723  1.00  0.00     0.274 HD
ATOM     16  H22 UNL     1      -2.878   2.315  -2.252  1.00  0.00     0.274 HD
ATOM     17  H21 UNL     1      -4.112   3.329  -1.733  1.00  0.00     0.274 HD
ENDBRANCH  10  14
BRANCH  12  18
HETATM   18  C10 UNL     1      -5.592   0.502   1.934  1.00  0.00     0.261 C 
BRANCH  18  19
HETATM   19  N3  UNL     1      -5.651  -0.872   1.611  1.00  0.00    -0.077 N 
ATOM     20  H33 UNL     1      -5.931  -0.979   0.636  1.00  0.00     0.274 HD
ATOM     21  H32 UNL     1      -4.705  -1.253   1.580  1.00  0.00     0.274 HD
ATOM     22  H31 UNL     1      -6.236  -1.466   2.199  1.00  0.00     0.274 HD
ENDBRANCH  18  19
ENDBRANCH  12  18
ENDBRANCH   7   8
ENDBRANCH   2   7
BRANCH   1  23
HETATM   23  N1  UNL     1      -0.466  -2.462  -0.710  1.00  0.00    -0.405 NA
HETATM   24  C2  UNL     1      -0.924  -3.249  -1.719  1.00  0.00     0.282 C 
HETATM   25  C1  UNL     1      -0.445  -4.703  -1.793  1.00  0.00     0.134 C 
HETATM   26  O1  UNL     1      -1.726  -2.978  -2.670  1.00  0.00    -0.258 OA
ENDBRANCH   1  23
BRANCH   3  27
HETATM   27  N4  UNL     1      -0.366   1.582   1.618  1.00  0.00    -0.072 N 
ATOM     28  H43 UNL     1       0.015   1.749   0.687  1.00  0.00     0.274 HD
ATOM     29  H42 UNL     1      -1.330   1.871   1.455  1.00  0.00     0.274 HD
ATOM     30  H41 UNL     1       0.084   2.180   2.311  1.00  0.00     0.274 HD
ENDBRANCH   3  27
BRANCH   6  31
HETATM   31  O6  UNL     1       2.160  -2.174  -0.433  1.00  0.00    -0.311 OA
BRANCH  31  32
HETATM   32  C19 UNL     1       2.727  -2.368  -1.661  1.00  0.00     0.255 C 
HETATM   33  C20 UNL     1       3.562  -3.585  -1.853  1.00  0.00     0.126 C 
HETATM   34  O7  UNL     1       2.521  -1.527  -2.556  1.00  0.00    -0.266 OA
ENDBRANCH  31  32
ENDBRANCH   6  31
BRANCH   5  35
HETATM   35  N5  UNL     1       2.595   0.836   0.536  1.00  0.00    -0.330 N 
HETATM   36  C14 UNL     1       3.975   1.103   0.619  1.00  0.00     0.361 C 
HETATM   37  O4  UNL     1       4.802   0.311   1.173  1.00  0.00    -0.238 OA
ATOM     38  H5  UNL     1       1.990   1.522   0.084  1.00  0.00     0.165 HD
BRANCH  36  39
HETATM   39  O5  UNL     1       4.526   2.263   0.091  1.00  0.00    -0.299 OA
BRANCH  39  40
HETATM   40  C15 UNL     1       5.919   2.540   0.182  1.00  0.00     0.125 C 
HETATM   41  C16 UNL     1       6.552   2.569  -1.190  1.00  0.00     0.040 C 
HETATM   42  C17 UNL     1       6.086   3.884   0.829  1.00  0.00     0.040 C 
ENDBRANCH  39  40
ENDBRANCH  36  39
ENDBRANCH   5  35
TORSDOF 12
