REMARK  12 active torsions:
REMARK  status: ('A' for Active; 'I' for Inactive)
REMARK    1  A    between atoms: N1_1  and  C1_4 
REMARK    2  A    between atoms: C2_9  and  S1_10 
REMARK    3  A    between atoms: S1_10  and  C3_11 
REMARK    4  A    between atoms: C3_11  and  O1_12 
REMARK    5  A    between atoms: O1_12  and  C4_13 
REMARK    6  A    between atoms: C4_13  and  C5_15 
REMARK    7  A    between atoms: C6_16  and  C7_17 
REMARK    8  A    between atoms: C9_24  and  O6_25 
REMARK    9  A    between atoms: C10_27  and  N5_28 
REMARK   10  A    between atoms: N5_28  and  O7_30 
REMARK   11  A    between atoms: C11_32  and  O8_33 
REMARK   12  A    between atoms: C11_32  and  C12_35 
ROOT
HETATM    1  C5  UNL     1      -0.638   0.046   0.615  1.00  0.00     0.114 C 
HETATM    2  C6  UNL     1      -1.254   0.668   1.593  1.00  0.00     0.125 C 
HETATM    3  N4  UNL     1      -2.615   0.205   1.866  1.00  0.00    -0.354 N 
ATOM      4  H4  UNL     1      -3.259   0.816   2.368  1.00  0.00     0.162 HD
HETATM    5  C8  UNL     1      -3.064  -1.091   1.442  1.00  0.00     0.273 C 
HETATM    6  O5  UNL     1      -1.947  -1.817   1.030  1.00  0.00    -0.320 OA
HETATM    7  C9  UNL     1      -1.451  -1.043  -0.025  1.00  0.00     0.228 C 
HETATM    8  C10 UNL     1      -2.668  -0.470  -0.759  1.00  0.00     0.223 C 
HETATM    9  C11 UNL     1      -3.781  -0.983   0.080  1.00  0.00     0.217 C 
ENDROOT
BRANCH   1  10
HETATM   10  C4  UNL     1       0.686   0.323   0.156  1.00  0.00     0.298 C 
HETATM   11  O2  UNL     1       1.540   1.139   0.511  1.00  0.00    -0.259 OA
BRANCH  10  12
HETATM   12  O1  UNL     1       1.135  -0.486  -0.923  1.00  0.00    -0.307 OA
BRANCH  12  13
HETATM   13  C3  UNL     1       2.444  -0.256  -1.422  1.00  0.00     0.260 C 
BRANCH  13  14
HETATM   14  S1  UNL     1       3.575  -0.543  -0.016  1.00  0.00    -0.077 SA
BRANCH  14  15
HETATM   15  C2  UNL     1       5.261  -0.259  -0.611  1.00  0.00     0.132 A 
HETATM   16  N3  UNL     1       5.654   0.092  -1.826  1.00  0.00    -0.286 N 
HETATM   17  N2  UNL     1       6.888   0.251  -2.075  1.00  0.00    -0.279 N 
ATOM     18  H3  UNL     1       4.963   0.235  -2.563  1.00  0.00     0.188 HD
HETATM   19  C1  UNL     1       7.773   0.057  -1.091  1.00  0.00     0.159 A 
ATOM     20  H2  UNL     1       7.199   0.522  -3.008  1.00  0.00     0.189 HD
HETATM   21  S2  UNL     1       6.751  -0.366   0.214  1.00  0.00    -0.027 SA
BRANCH  19  22
HETATM   22  N1  UNL     1       9.082   0.173  -1.160  1.00  0.00    -0.379 N 
ATOM     23  H12 UNL     1       9.691   0.425  -1.938  1.00  0.00     0.158 HD
ATOM     24  H11 UNL     1       9.757   0.025  -0.410  1.00  0.00     0.158 HD
ENDBRANCH  19  22
ENDBRANCH  14  15
ENDBRANCH  13  14
ENDBRANCH  12  13
ENDBRANCH  10  12
ENDBRANCH   1  10
BRANCH   2  25
HETATM   25  C7  UNL     1      -0.687   1.729   2.356  1.00  0.00     0.227 C 
HETATM   26  O3  UNL     1       0.411   2.252   2.275  1.00  0.00    -0.643 OA
HETATM   27  O4  UNL     1      -1.524   2.270   3.375  1.00  0.00    -0.643 OA
ENDBRANCH   2  25
BRANCH   7  28
HETATM   28  O6  UNL     1      -0.702  -1.833  -0.892  1.00  0.00    -0.359 OA
ATOM     29  H6  UNL     1      -1.216  -2.522  -1.297  1.00  0.00     0.213 HD
ENDBRANCH   7  28
BRANCH   8  30
HETATM   30  N5  UNL     1      -2.521   0.959  -0.815  1.00  0.00    -0.291 N 
ATOM     31  H5  UNL     1      -1.772   1.454  -0.331  1.00  0.00     0.188 HD
BRANCH  30  32
HETATM   32  O7  UNL     1      -3.446   1.592  -1.554  1.00  0.00    -0.294 OA
ATOM     33  H7  UNL     1      -3.349   2.536  -1.591  1.00  0.00     0.244 HD
ENDBRANCH  30  32
ENDBRANCH   8  30
BRANCH   9  34
HETATM   34  O8  UNL     1      -4.043  -2.291  -0.335  1.00  0.00    -0.373 OA
ATOM     35  H8  UNL     1      -4.484  -2.225  -1.174  1.00  0.00     0.211 HD
ENDBRANCH   9  34
BRANCH   9  36
HETATM   36  C12 UNL     1      -4.993  -0.194   0.167  1.00  0.00     0.216 C 
HETATM   37  O9  UNL     1      -6.084  -0.726  -0.243  1.00  0.00    -0.646 OA
HETATM   38  O10 UNL     1      -5.106   1.076   0.649  1.00  0.00    -0.646 OA
ENDBRANCH   9  36
TORSDOF 12
