REMARK  13 active torsions:
REMARK  status: ('A' for Active; 'I' for Inactive)
REMARK    1  A    between atoms: O1_3  and  C2_4 
REMARK    2  A    between atoms: C2_4  and  C3_5 
REMARK    3  A    between atoms: C4_6  and  C5_7 
REMARK    4  A    between atoms: C5_7  and  C6_8 
REMARK    5  A    between atoms: C6_8  and  N2_9 
REMARK    6  A    between atoms: N2_9  and  C7_11 
REMARK    7  A    between atoms: C7_11  and  C8_12 
REMARK    8  A    between atoms: C8_12  and  C9_13 
REMARK    9  A    between atoms: C9_13  and  C10_14 
REMARK   10  A    between atoms: C10_14  and  N3_16 
REMARK   11  A    between atoms: N3_16  and  C11_18 
REMARK   12  A    between atoms: C11_18  and  C12_19 
REMARK   13  A    between atoms: C12_19  and  C13_20 
ROOT
HETATM    1  N1  UNL     1       6.327   4.449   0.391  1.00  0.00    -0.164 NA
HETATM    2  C1  UNL     1       6.118   3.313   0.389  1.00  0.00     0.229 C 
HETATM    3  O1  UNL     1       5.863   1.988   0.366  1.00  0.00    -0.271 OA
ENDROOT
BRANCH   3   4
HETATM    4  C2  UNL     1       6.760   0.997   0.855  1.00  0.00     0.283 C 
BRANCH   4   5
HETATM    5  C3  UNL     1       6.206  -0.344   0.696  1.00  0.00    -0.079 C 
HETATM    6  C4  UNL     1       5.722  -1.464   0.543  1.00  0.00    -0.099 C 
BRANCH   6   7
HETATM    7  C5  UNL     1       5.200  -2.807   0.363  1.00  0.00     0.138 C 
BRANCH   7   8
HETATM    8  C6  UNL     1       4.266  -2.963  -0.770  1.00  0.00     0.067 C 
BRANCH   8   9
HETATM    9  N2  UNL     1       3.034  -2.294  -0.769  1.00  0.00    -0.401 N 
ATOM     10  H2  UNL     1       2.169  -2.830  -0.696  1.00  0.00     0.158 HD
BRANCH   9  11
HETATM   11  C7  UNL     1       2.976  -0.887  -0.868  1.00  0.00     0.119 C 
BRANCH  11  12
HETATM   12  C8  UNL     1       1.556  -0.383  -1.098  1.00  0.00     0.026 C 
BRANCH  12  13
HETATM   13  C9  UNL     1       0.601  -0.742  -0.013  1.00  0.00     0.071 C 
BRANCH  13  14
HETATM   14  C10 UNL     1      -0.731  -0.167  -0.393  1.00  0.00     0.073 C 
HETATM   15  S1  UNL     1      -0.916   0.541  -1.853  1.00  0.00    -0.066 SA
BRANCH  14  16
HETATM   16  N3  UNL     1      -1.859  -0.217   0.458  1.00  0.00    -0.384 N 
ATOM     17  H3  UNL     1      -1.782  -0.664   1.371  1.00  0.00     0.160 HD
BRANCH  16  18
HETATM   18  C11 UNL     1      -3.113   0.355   0.051  1.00  0.00     0.125 C 
BRANCH  18  19
HETATM   19  C12 UNL     1      -4.194   0.201   1.080  1.00  0.00     0.058 C 
BRANCH  19  20
HETATM   20  C13 UNL     1      -5.465   0.824   0.639  1.00  0.00    -0.057 A 
HETATM   21  C14 UNL     1      -5.709   2.167   0.918  1.00  0.00     0.007 A 
HETATM   22  C15 UNL     1      -6.879   2.801   0.534  1.00  0.00     0.001 A 
HETATM   23  C16 UNL     1      -7.839   2.050  -0.158  1.00  0.00     0.000 A 
HETATM   24  C17 UNL     1      -7.619   0.722  -0.443  1.00  0.00     0.001 A 
HETATM   25  C18 UNL     1      -6.424   0.117  -0.039  1.00  0.00     0.007 A 
ENDBRANCH  19  20
ENDBRANCH  18  19
ENDBRANCH  16  18
ENDBRANCH  14  16
ENDBRANCH  13  14
ENDBRANCH  12  13
ENDBRANCH  11  12
ENDBRANCH   9  11
ENDBRANCH   8   9
ENDBRANCH   7   8
ENDBRANCH   6   7
ENDBRANCH   4   5
ENDBRANCH   3   4
TORSDOF 13
