REMARK  4 active torsions:
REMARK  status: ('A' for Active; 'I' for Inactive)
REMARK    1  A    between atoms: C1_2  and  C2_4 
REMARK       I    between atoms: C2_4  and  N2_6 
REMARK    2  A    between atoms: N2_6  and  N3_8 
REMARK       I    between atoms: N3_8  and  C3_10 
REMARK       I    between atoms: C3_10  and  N4_12 
REMARK    3  A    between atoms: N4_12  and  N5_14 
REMARK       I    between atoms: N5_14  and  C4_16 
REMARK    4  A    between atoms: C4_16  and  C5_18 
ROOT
HETATM    1  N3  UNL     1       2.605   0.803   1.936  1.00  0.00    -0.247 N 
ATOM      2  H3  UNL     1       2.546   1.215   2.867  1.00  0.00     0.192 HD
HETATM    3  C3  UNL     1       1.415   0.581   1.195  1.00  0.00     0.353 C 
HETATM    4  O3  UNL     1       1.521   0.082   0.038  1.00  0.00    -0.244 OA
HETATM    5  N4  UNL     1       0.152   0.910   1.751  1.00  0.00    -0.248 N 
ATOM      6  H4  UNL     1       0.110   1.315   2.686  1.00  0.00     0.192 HD
ENDROOT
BRANCH   5   7
HETATM    7  N5  UNL     1      -1.030   0.694   1.051  1.00  0.00    -0.266 N 
HETATM    8  C4  UNL     1      -1.342  -0.614   0.612  1.00  0.00     0.240 C 
HETATM    9  O4  UNL     1      -0.587  -1.559   0.837  1.00  0.00    -0.271 OA
ATOM     10  H5  UNL     1      -1.664   1.469   0.857  1.00  0.00     0.190 HD
BRANCH   8  11
HETATM   11  C5  UNL     1      -2.604  -0.815  -0.126  1.00  0.00     0.082 C 
HETATM   12  C6  UNL     1      -2.608  -2.090  -0.931  1.00  0.00     0.033 C 
HETATM   13  C7  UNL     1      -4.031  -2.352  -1.375  1.00  0.00     0.114 C 
HETATM   14  N6  UNL     1      -4.729  -1.168  -1.737  1.00  0.00    -0.421 N 
HETATM   15  C8  UNL     1      -3.925  -0.038  -2.100  1.00  0.00     0.114 C 
ATOM     16  H6  UNL     1      -5.748  -1.125  -1.738  1.00  0.00     0.153 HD
HETATM   17  C9  UNL     1      -2.917   0.334  -1.046  1.00  0.00     0.033 C 
ENDBRANCH   8  11
ENDBRANCH   5   7
BRANCH   1  18
HETATM   18  N2  UNL     1       3.850   0.469   1.414  1.00  0.00    -0.258 N 
HETATM   19  C2  UNL     1       4.859   1.390   1.076  1.00  0.00     0.325 C 
HETATM   20  O2  UNL     1       4.643   2.625   1.252  1.00  0.00    -0.261 OA
ATOM     21  H2  UNL     1       4.047  -0.521   1.264  1.00  0.00     0.190 HD
BRANCH  19  22
HETATM   22  C1  UNL     1       6.134   0.984   0.536  1.00  0.00     0.324 C 
HETATM   23  N1  UNL     1       7.138   1.952   0.213  1.00  0.00    -0.053 NA
HETATM   24  O1  UNL     1       6.382  -0.239   0.341  1.00  0.00    -0.266 OA
ENDBRANCH  19  22
ENDBRANCH   1  18
TORSDOF 4
