REMARK  8 active torsions:
REMARK  status: ('A' for Active; 'I' for Inactive)
REMARK    1  A    between atoms: C2_2  and  C4_4 
REMARK    2  A    between atoms: C4_4  and  C5_5 
REMARK    3  A    between atoms: C4_4  and  N1_8 
REMARK    4  A    between atoms: C5_5  and  O1_6 
REMARK       I    between atoms: N1_8  and  C6_10 
REMARK    5  A    between atoms: C6_10  and  C7_12 
REMARK    6  A    between atoms: C12_19  and  O3_20 
REMARK    7  A    between atoms: O3_20  and  C13_21 
REMARK    8  A    between atoms: C13_21  and  C14_23 
ROOT
HETATM    1  C7  UNL     1      -1.675   0.456  -0.462  1.00  0.00     0.176 C 
HETATM    2  N2  UNL     1      -2.085  -0.833  -1.052  1.00  0.00    -0.405 N 
ATOM      3  H2  UNL     1      -2.709  -0.885  -1.857  1.00  0.00     0.154 HD
HETATM    4  C8  UNL     1      -1.566  -1.982  -0.440  1.00  0.00     0.080 C 
HETATM    5  C9  UNL     1      -1.863  -2.059   1.049  1.00  0.00     0.025 C 
HETATM    6  C10 UNL     1      -1.521  -0.712   1.709  1.00  0.00     0.011 C 
HETATM    7  C11 UNL     1      -0.719   0.071   0.690  1.00  0.00     0.047 C 
HETATM    8  C12 UNL     1       0.399  -0.821   0.312  1.00  0.00     0.140 C 
HETATM    9  C24 UNL     1      -0.059  -1.954  -0.626  1.00  0.00     0.057 C 
ENDROOT
BRANCH   8  10
HETATM   10  O3  UNL     1       1.615  -0.314  -0.086  1.00  0.00    -0.315 OA
BRANCH  10  11
HETATM   11  C13 UNL     1       2.783  -0.560   0.650  1.00  0.00     0.268 C 
HETATM   12  O4  UNL     1       2.669  -1.216   1.704  1.00  0.00    -0.264 OA
BRANCH  11  13
HETATM   13  C14 UNL     1       4.117  -0.104   0.236  1.00  0.00     0.049 C 
HETATM   14  C15 UNL     1       4.794   0.625   1.368  1.00  0.00     0.024 C 
HETATM   15  C16 UNL     1       6.211   0.980   0.947  1.00  0.00    -0.013 C 
HETATM   16  C17 UNL     1       6.133   1.805  -0.305  1.00  0.00     0.009 C 
HETATM   17  C21 UNL     1       6.997  -0.282   0.715  1.00  0.00     0.009 C 
HETATM   18  C18 UNL     1       5.528   0.987  -1.417  1.00  0.00    -0.013 C 
HETATM   19  C19 UNL     1       6.244  -0.304  -1.664  1.00  0.00     0.009 C 
HETATM   20  C23 UNL     1       4.097   0.681  -1.039  1.00  0.00     0.024 C 
HETATM   21  C20 UNL     1       6.335  -1.075  -0.363  1.00  0.00    -0.013 C 
HETATM   22  C22 UNL     1       4.933  -1.403   0.059  1.00  0.00     0.024 C 
ENDBRANCH  11  13
ENDBRANCH  10  11
ENDBRANCH   8  10
BRANCH   1  23
HETATM   23  C6  UNL     1      -2.910   0.900   0.224  1.00  0.00     0.240 C 
HETATM   24  N1  UNL     1      -4.190   0.809  -0.481  1.00  0.00    -0.352 N 
ATOM     25  H1  UNL     1      -4.227   0.538  -1.464  1.00  0.00     0.163 HD
HETATM   26  O2  UNL     1      -2.935   1.314   1.392  1.00  0.00    -0.271 OA
BRANCH  24  27
HETATM   27  C4  UNL     1      -5.377   1.106   0.234  1.00  0.00     0.111 C 
BRANCH  27  28
HETATM   28  C2  UNL     1      -6.555   1.695  -0.382  1.00  0.00     0.002 C 
HETATM   29  C1  UNL     1      -7.275   0.839  -1.382  1.00  0.00     0.011 C 
HETATM   30  C3  UNL     1      -7.546   2.111   0.709  1.00  0.00     0.011 C 
ENDBRANCH  27  28
BRANCH  27  31
HETATM   31  C5  UNL     1      -5.838  -0.217   0.943  1.00  0.00     0.189 C 
BRANCH  31  32
HETATM   32  O1  UNL     1      -6.020  -1.215  -0.020  1.00  0.00    -0.399 OA
ATOM     33  H1  UNL     1      -6.299  -2.015   0.409  1.00  0.00     0.209 HD
ENDBRANCH  31  32
ENDBRANCH  27  31
ENDBRANCH  24  27
ENDBRANCH   1  23
TORSDOF 8
