REMARK  9 active torsions:
REMARK  status: ('A' for Active; 'I' for Inactive)
REMARK    1  A    between atoms: C4_4  and  C5_5 
REMARK       I    between atoms: C5_5  and  N1_7 
REMARK    2  A    between atoms: N1_7  and  C6_8 
REMARK    3  A    between atoms: C13_15  and  O2_16 
REMARK    4  A    between atoms: O2_16  and  O3_17 
REMARK    5  A    between atoms: C16_21  and  C17_22 
REMARK    6  A    between atoms: C18_23  and  C19_24 
REMARK    7  A    between atoms: C20_25  and  C21_26 
REMARK    8  A    between atoms: C21_26  and  C22_27 
REMARK    9  A    between atoms: C23_30  and  C24_31 
ROOT
HETATM    1  C1  UNL     1       8.507   2.015  -2.617  1.00  0.00     0.027 C 
HETATM    2  C2  UNL     1       7.605   1.207  -2.590  1.00  0.00    -0.025 C 
HETATM    3  C3  UNL     1       6.536   0.286  -2.571  1.00  0.00    -0.005 C 
HETATM    4  C4  UNL     1       5.608  -0.474  -2.568  1.00  0.00     0.024 C 
ENDROOT
BRANCH   4   5
HETATM    5  C5  UNL     1       4.416  -1.387  -2.577  1.00  0.00     0.367 C 
HETATM    6  O1  UNL     1       4.627  -2.362  -3.364  1.00  0.00    -0.242 OA
HETATM    7  N1  UNL     1       3.373  -1.062  -1.805  1.00  0.00    -0.398 NA
BRANCH   7   8
HETATM    8  C6  UNL     1       2.297  -0.727  -1.009  1.00  0.00     0.172 C 
HETATM    9  C7  UNL     1       1.086  -1.638  -0.954  1.00  0.00     0.051 C 
HETATM   10  C8  UNL     1       0.303  -1.565   0.328  1.00  0.00    -0.019 C 
HETATM   11  C9  UNL     1       1.141  -2.340   1.319  1.00  0.00     0.012 C 
HETATM   12  C14 UNL     1      -0.050  -0.274   0.917  1.00  0.00     0.001 C 
HETATM   13  C23 UNL     1      -1.104  -1.890   0.065  1.00  0.00     0.025 C 
HETATM   14  C10 UNL     1       2.551  -1.780   1.255  1.00  0.00     0.009 C 
HETATM   15  C11 UNL     1       2.729  -0.544   0.426  1.00  0.00     0.024 C 
HETATM   16  C12 UNL     1       2.164   0.712   1.022  1.00  0.00     0.043 C 
HETATM   17  C13 UNL     1       0.732   0.934   0.551  1.00  0.00     0.170 C 
HETATM   18  C15 UNL     1      -0.271  -0.255   2.426  1.00  0.00     0.019 C 
HETATM   19  C16 UNL     1      -1.410  -0.377   0.254  1.00  0.00     0.028 C 
BRANCH  17  20
HETATM   20  O2  UNL     1       0.249   1.991   1.363  1.00  0.00    -0.237 OA
BRANCH  20  21
HETATM   21  O3  UNL     1      -0.079   3.050   0.691  1.00  0.00    -0.250 OA
ATOM     22  H3  UNL     1      -0.403   3.758   1.235  1.00  0.00     0.253 HD
ENDBRANCH  20  21
ENDBRANCH  17  20
BRANCH  19  23
HETATM   23  C17 UNL     1      -1.543   0.378  -0.985  1.00  0.00    -0.021 C 
HETATM   24  C18 UNL     1      -2.557   1.065  -1.357  1.00  0.00    -0.004 C 
BRANCH  24  25
HETATM   25  C19 UNL     1      -3.768   1.226  -0.601  1.00  0.00    -0.004 C 
HETATM   26  C20 UNL     1      -4.764   1.994  -1.101  1.00  0.00    -0.016 C 
BRANCH  26  27
HETATM   27  C21 UNL     1      -6.037   2.218  -0.395  1.00  0.00     0.140 C 
BRANCH  27  28
HETATM   28  C22 UNL     1      -6.116   3.698  -0.170  1.00  0.00     0.176 C 
HETATM   29  O4  UNL     1      -5.192   4.474  -0.507  1.00  0.00    -0.648 OA
HETATM   30  O5  UNL     1      -7.233   4.243   0.421  1.00  0.00    -0.648 OA
ENDBRANCH  27  28
ENDBRANCH  26  27
ENDBRANCH  24  25
ENDBRANCH  19  23
BRANCH  13  31
HETATM   31  C24 UNL     1      -1.960  -2.744   0.832  1.00  0.00    -0.031 C 
HETATM   32  C25 UNL     1      -1.775  -3.658   1.742  1.00  0.00     0.007 C 
ENDBRANCH  13  31
ENDBRANCH   7   8
ENDBRANCH   4   5
TORSDOF 9
