REMARK  7 active torsions:
REMARK  status: ('A' for Active; 'I' for Inactive)
REMARK    1  A    between atoms: N1_2  and  C4_5 
REMARK    2  A    between atoms: C4_5  and  C5_6 
REMARK    3  A    between atoms: C5_6  and  N2_7 
REMARK    4  A    between atoms: N2_7  and  C6_9 
REMARK    5  A    between atoms: C6_9  and  N3_11 
REMARK    6  A    between atoms: N3_11  and  N4_13 
REMARK    7  A    between atoms: N4_13  and  C7_15 
ROOT
HETATM    1  N3  UNL     1       1.991  -0.205  -0.604  1.00  0.00    -0.274 N 
ATOM      2  H3  UNL     1       2.253   0.193  -1.506  1.00  0.00     0.189 HD
ENDROOT
BRANCH   1   3
HETATM    3  C6  UNL     1       0.685   0.001  -0.082  1.00  0.00     0.186 C 
HETATM    4  S1  UNL     1       0.307  -0.627   1.403  1.00  0.00    -0.040 SA
BRANCH   3   5
HETATM    5  N2  UNL     1      -0.273   0.753  -0.810  1.00  0.00    -0.364 N 
ATOM      6  H2  UNL     1      -0.001   1.148  -1.710  1.00  0.00     0.162 HD
BRANCH   5   7
HETATM    7  C5  UNL     1      -1.611   0.983  -0.334  1.00  0.00     0.150 C 
BRANCH   7   8
HETATM    8  C4  UNL     1      -2.387  -0.280  -0.374  1.00  0.00     0.255 C 
BRANCH   8   9
HETATM    9  N1  UNL     1      -3.750  -0.201   0.086  1.00  0.00    -0.077 N 
HETATM   10  C1  UNL     1      -3.892  -0.239   1.525  1.00  0.00     0.271 C 
HETATM   11  C2  UNL     1      -4.427  -1.408  -0.420  1.00  0.00     0.271 C 
HETATM   12  C3  UNL     1      -4.474   0.927  -0.425  1.00  0.00     0.271 C 
ENDBRANCH   8   9
ENDBRANCH   7   8
ENDBRANCH   5   7
ENDBRANCH   3   5
ENDBRANCH   1   3
BRANCH   1  13
HETATM   13  N4  UNL     1       2.905  -0.950   0.121  1.00  0.00    -0.269 N 
ATOM     14  H4  UNL     1       2.610  -1.820   0.565  1.00  0.00     0.190 HD
BRANCH  13  15
HETATM   15  C7  UNL     1       4.265  -0.508   0.253  1.00  0.00     0.190 C 
HETATM   16  N5  UNL     1       5.117  -0.851   1.118  1.00  0.00    -0.360 N 
HETATM   17  C8  UNL     1       6.401  -0.228   0.981  1.00  0.00     0.142 C 
ATOM     18  H5  UNL     1       4.908  -1.521   1.859  1.00  0.00     0.162 HD
HETATM   19  C9  UNL     1       6.100   0.912   0.016  1.00  0.00     0.142 C 
HETATM   20  N6  UNL     1       4.881   0.439  -0.628  1.00  0.00    -0.360 N 
ATOM     21  H6  UNL     1       4.530   0.730  -1.541  1.00  0.00     0.162 HD
ENDBRANCH  13  15
ENDBRANCH   1  13
TORSDOF 7
