REMARK  4 active torsions:
REMARK  status: ('A' for Active; 'I' for Inactive)
REMARK    1  A    between atoms: N1_2  and  C2_4 
REMARK    2  A    between atoms: C2_4  and  C3_5 
REMARK    3  A    between atoms: C3_5  and  C4_6 
REMARK    4  A    between atoms: C6_11  and  C7_12 
ROOT
HETATM    1  C4  UNL     1       1.530  -0.414   0.039  1.00  0.00     0.178 C 
HETATM    2  N2  UNL     1       0.668  -1.399   0.724  1.00  0.00    -0.346 N 
ATOM      3  H2  UNL     1       1.084  -2.061   1.379  1.00  0.00     0.163 HD
HETATM    4  C5  UNL     1      -0.733  -1.439   0.484  1.00  0.00     0.241 C 
HETATM    5  O1  UNL     1      -1.343  -2.523   0.660  1.00  0.00    -0.271 OA
HETATM    6  C6  UNL     1      -1.357  -0.172   0.039  1.00  0.00     0.182 C 
HETATM    7  N4  UNL     1      -0.569   0.321  -1.076  1.00  0.00    -0.346 N 
ATOM      8  H4  UNL     1      -0.991   0.932  -1.775  1.00  0.00     0.163 HD
HETATM    9  C11 UNL     1       0.798  -0.057  -1.183  1.00  0.00     0.241 C 
HETATM   10  O2  UNL     1       1.342  -0.076  -2.314  1.00  0.00    -0.271 OA
ENDROOT
BRANCH   6  11
HETATM   11  C7  UNL     1      -2.811  -0.283  -0.288  1.00  0.00     0.045 C 
HETATM   12  C8  UNL     1      -3.265   1.112  -0.724  1.00  0.00     0.036 C 
HETATM   13  C9  UNL     1      -4.440   1.458   0.194  1.00  0.00     0.232 C 
HETATM   14  N3  UNL     1      -4.941   0.102   0.468  1.00  0.00    -0.075 N 
HETATM   15  C10 UNL     1      -3.684  -0.530   0.898  1.00  0.00     0.239 C 
ATOM     16  H32 UNL     1      -5.724   0.034   1.118  1.00  0.00     0.277 HD
ATOM     17  H31 UNL     1      -5.437  -0.357  -0.296  1.00  0.00     0.277 HD
ENDBRANCH   6  11
BRANCH   1  18
HETATM   18  C3  UNL     1       2.843  -1.071  -0.154  1.00  0.00     0.054 C 
BRANCH  18  19
HETATM   19  C2  UNL     1       3.896  -0.266  -0.831  1.00  0.00     0.115 C 
BRANCH  19  20
HETATM   20  N1  UNL     1       4.242   0.951  -0.145  1.00  0.00    -0.425 N 
HETATM   21  C1  UNL     1       4.914   0.769   1.103  1.00  0.00     0.139 C 
ATOM     22  H1  UNL     1       4.024   1.874  -0.521  1.00  0.00     0.152 HD
ENDBRANCH  19  20
ENDBRANCH  18  19
ENDBRANCH   1  18
TORSDOF 4
