REMARK  4 active torsions:
REMARK  status: ('A' for Active; 'I' for Inactive)
REMARK    1  A    between atoms: C3_3  and  C5_6 
REMARK    2  A    between atoms: C5_6  and  C6_7 
REMARK    3  A    between atoms: C6_7  and  C7_8 
REMARK    4  A    between atoms: C7_8  and  N1_9 
ROOT
HETATM    1  C1  UNL     1      -6.921  -0.405   1.255  1.00  0.00     0.014 C 
HETATM    2  C2  UNL     1      -5.951  -0.477   0.545  1.00  0.00    -0.091 C 
HETATM    3  C3  UNL     1      -4.759  -0.566  -0.295  1.00  0.00     0.096 C 
HETATM    4  C4  UNL     1      -4.979   0.309  -1.504  1.00  0.00     0.046 C 
HETATM    5 CL1  UNL     1      -4.570  -2.259  -0.843  1.00  0.00    -0.105 Cl
ENDROOT
BRANCH   3   6
HETATM    6  C5  UNL     1      -3.552  -0.127   0.499  1.00  0.00     0.043 C 
BRANCH   6   7
HETATM    7  C6  UNL     1      -2.309  -0.216  -0.366  1.00  0.00     0.048 C 
BRANCH   7   8
HETATM    8  C7  UNL     1      -1.148   0.241   0.519  1.00  0.00     0.068 C 
BRANCH   8   9
HETATM    9  N1  UNL     1       0.034   0.177  -0.225  1.00  0.00    -0.354 N 
HETATM   10  C8  UNL     1       0.546  -1.075  -0.612  1.00  0.00     0.071 C 
HETATM   11  C9  UNL     1       1.890  -1.268   0.059  1.00  0.00     0.086 C 
HETATM   12  C10 UNL     1       2.667   0.010  -0.069  1.00  0.00     0.124 C 
HETATM   13  C11 UNL     1       2.085   0.964  -1.103  1.00  0.00     0.086 C 
HETATM   14  N2  UNL     1       2.793   0.695   1.190  1.00  0.00    -0.324 N 
HETATM   15  C15 UNL     1       4.059  -0.356  -0.426  1.00  0.00     0.256 C 
HETATM   16  C12 UNL     1       0.703   1.347  -0.611  1.00  0.00     0.071 C 
HETATM   17  C13 UNL     1       4.083   0.437   1.703  1.00  0.00     0.325 C 
ATOM     18  H2  UNL     1       2.075   1.267   1.635  1.00  0.00     0.165 HD
HETATM   19  O1  UNL     1       4.490   0.736   2.876  1.00  0.00    -0.247 OA
HETATM   20  N3  UNL     1       4.856  -0.201   0.725  1.00  0.00    -0.272 N 
HETATM   21  C14 UNL     1       6.247  -0.659   0.791  1.00  0.00     0.164 C 
HETATM   22  O2  UNL     1       4.412  -0.735  -1.580  1.00  0.00    -0.270 OA
ENDBRANCH   8   9
ENDBRANCH   7   8
ENDBRANCH   6   7
ENDBRANCH   3   6
TORSDOF 4
