REMARK  8 active torsions:
REMARK  status: ('A' for Active; 'I' for Inactive)
REMARK    1  A    between atoms: C2_2  and  N1_5 
REMARK       I    between atoms: N1_5  and  C5_7 
REMARK    2  A    between atoms: C5_7  and  C6_9 
REMARK    3  A    between atoms: C6_9  and  C7_10 
REMARK    4  A    between atoms: N2_13  and  C10_14 
REMARK    5  A    between atoms: C10_14  and  O2_15 
REMARK    6  A    between atoms: C10_14  and  C11_17 
REMARK    7  A    between atoms: C12_20  and  C13_21 
REMARK    8  A    between atoms: C13_21  and  O3_22 
ROOT
HETATM    1  C7  UNL     1       0.963  -1.196  -0.036  1.00  0.00     0.021 C 
HETATM    2  C8  UNL     1       1.062  -1.149   1.495  1.00  0.00     0.027 C 
HETATM    3  C9  UNL     1       2.567  -1.095   1.799  1.00  0.00     0.125 C 
HETATM    4  N2  UNL     1       2.994  -0.307   0.580  1.00  0.00    -0.356 N 
HETATM    5  C12 UNL     1       2.418  -1.097  -0.434  1.00  0.00     0.114 C 
ENDROOT
BRANCH   1   6
HETATM    6  C6  UNL     1       0.094  -0.107  -0.557  1.00  0.00     0.109 C 
BRANCH   6   7
HETATM    7  C5  UNL     1      -1.304  -0.212  -0.017  1.00  0.00     0.218 C 
HETATM    8  N1  UNL     1      -2.297   0.720  -0.377  1.00  0.00    -0.353 N 
ATOM      9  H1  UNL     1      -2.071   1.483  -1.015  1.00  0.00     0.163 HD
HETATM   10  O1  UNL     1      -1.591  -1.150   0.770  1.00  0.00    -0.274 OA
BRANCH   8  11
HETATM   11  C2  UNL     1      -3.637   0.599   0.155  1.00  0.00     0.022 C 
HETATM   12  C1  UNL     1      -3.636   0.680   1.674  1.00  0.00     0.037 C 
HETATM   13  C3  UNL     1      -4.187  -0.753  -0.273  1.00  0.00     0.037 C 
HETATM   14  C4  UNL     1      -4.557   1.667  -0.347  1.00  0.00     0.037 C 
ENDBRANCH   8  11
ENDBRANCH   6   7
ENDBRANCH   1   6
BRANCH   5  15
HETATM   15  C13 UNL     1       2.689  -0.874  -1.855  1.00  0.00     0.189 C 
BRANCH  15  16
HETATM   16  O3  UNL     1       4.031  -1.042  -2.191  1.00  0.00    -0.399 OA
ATOM     17  H3  UNL     1       4.207  -0.897  -3.113  1.00  0.00     0.209 HD
ENDBRANCH  15  16
ENDBRANCH   5  15
BRANCH   4  18
HETATM   18  C10 UNL     1       3.754   0.855   0.759  1.00  0.00     0.147 C 
BRANCH  18  19
HETATM   19  O2  UNL     1       4.095   1.219   1.963  1.00  0.00    -0.347 OA
ATOM     20  H2  UNL     1       4.611   2.008   2.084  1.00  0.00     0.219 HD
ENDBRANCH  18  19
BRANCH  18  21
HETATM   21  C11 UNL     1       4.255   1.783  -0.266  1.00  0.00     0.252 C 
HETATM   22 CL1  UNL     1       5.345   3.026   0.473  1.00  0.00    -0.099 Cl
HETATM   23 CL2  UNL     1       2.892   2.741  -0.966  1.00  0.00    -0.099 Cl
ENDBRANCH  18  21
ENDBRANCH   4  18
TORSDOF 8
