REMARK  5 active torsions:
REMARK  status: ('A' for Active; 'I' for Inactive)
REMARK    1  A    between atoms: C1_2  and  C2_4 
REMARK    2  A    between atoms: N2_8  and  C5_9 
REMARK    3  A    between atoms: C5_9  and  N3_10 
REMARK    4  A    between atoms: C5_9  and  C12_20 
REMARK       I    between atoms: N3_10  and  C6_12 
REMARK    5  A    between atoms: C6_12  and  C7_14 
ROOT
HETATM    1  C5  UNL     1      -1.198  -1.553  -0.253  1.00  0.00     0.239 C 
ENDROOT
BRANCH   1   2
HETATM    2  N2  UNL     1      -2.306  -0.895   0.168  1.00  0.00    -0.346 N 
HETATM    3  C2  UNL     1      -3.261  -0.077  -0.307  1.00  0.00     0.256 C 
HETATM    4  F1  UNL     1      -4.304  -0.724  -1.001  1.00  0.00    -0.209 F 
HETATM    5  C3  UNL     1      -3.800   0.035   1.160  1.00  0.00     0.096 C 
HETATM    6  C4  UNL     1      -2.434  -0.496   1.558  1.00  0.00     0.128 C 
BRANCH   3   7
HETATM    7  C1  UNL     1      -3.053   1.281  -0.828  1.00  0.00     0.291 C 
HETATM    8  N1  UNL     1      -1.844   2.011  -0.835  1.00  0.00    -0.057 NA
HETATM    9  O1  UNL     1      -4.056   1.881  -1.330  1.00  0.00    -0.271 OA
ENDBRANCH   3   7
ENDBRANCH   1   2
BRANCH   1  10
HETATM   10  N3  UNL     1      -0.024  -0.820  -0.654  1.00  0.00    -0.336 N 
HETATM   11  C6  UNL     1       1.180  -0.853   0.085  1.00  0.00     0.223 C 
HETATM   12  O2  UNL     1       1.213  -1.549   1.129  1.00  0.00    -0.273 OA
ATOM     13  H3  UNL     1      -0.064  -0.256  -1.503  1.00  0.00     0.164 HD
BRANCH  11  14
HETATM   14  C7  UNL     1       2.401  -0.115  -0.298  1.00  0.00     0.080 C 
HETATM   15  C8  UNL     1       3.522  -0.352   0.719  1.00  0.00     0.017 C 
HETATM   16  C9  UNL     1       4.456   0.824   0.496  1.00  0.00     0.038 C 
HETATM   17  C10 UNL     1       3.498   1.957   0.298  1.00  0.00     0.171 C 
HETATM   18  F2  UNL     1       3.279   2.549   1.532  1.00  0.00    -0.249 F 
HETATM   19  C11 UNL     1       2.239   1.378  -0.299  1.00  0.00     0.051 C 
ENDBRANCH  11  14
ENDBRANCH   1  10
BRANCH   1  20
HETATM   20  C12 UNL     1      -1.475  -2.583  -1.323  1.00  0.00     0.225 C 
HETATM   21 CL1  UNL     1      -2.142  -1.864  -2.771  1.00  0.00    -0.080 Cl
HETATM   22 CL2  UNL     1      -0.027  -3.562  -1.658  1.00  0.00    -0.080 Cl
HETATM   23 CL3  UNL     1      -2.704  -3.729  -0.672  1.00  0.00    -0.080 Cl
ENDBRANCH   1  20
TORSDOF 5
