REMARK  5 active torsions:
REMARK  status: ('A' for Active; 'I' for Inactive)
REMARK    1  A    between atoms: C3_6  and  O2_7 
REMARK    2  A    between atoms: O2_7  and  C4_8 
REMARK    3  A    between atoms: C4_8  and  C5_9 
REMARK       I    between atoms: N2_13  and  C9_14 
REMARK    4  A    between atoms: C9_14  and  C10_16 
REMARK    5  A    between atoms: C10_16  and  C11_19 
ROOT
HETATM    1  C5  UNL     1      -0.843  -0.659  -0.387  1.00  0.00     0.111 C 
HETATM    2  C6  UNL     1      -0.833  -0.805  -1.915  1.00  0.00     0.029 C 
HETATM    3  C7  UNL     1      -2.218  -1.342  -2.166  1.00  0.00     0.022 C 
HETATM    4  C8  UNL     1      -3.049  -0.728  -1.061  1.00  0.00     0.126 C 
HETATM    5  N2  UNL     1      -2.113   0.042  -0.233  1.00  0.00    -0.342 N 
HETATM    6  C9  UNL     1      -2.410   1.191   0.492  1.00  0.00     0.268 C 
HETATM    7  O3  UNL     1      -1.412   1.737   1.119  1.00  0.00    -0.269 OA
ENDROOT
BRANCH   1   8
HETATM    8  C4  UNL     1       0.360   0.042   0.097  1.00  0.00     0.193 C 
BRANCH   8   9
HETATM    9  O2  UNL     1       1.456  -0.804  -0.194  1.00  0.00    -0.381 OA
BRANCH   9  10
HETATM   10  C3  UNL     1       2.602  -0.176   0.247  1.00  0.00     0.157 C 
HETATM   11  C2  UNL     1       3.158  -1.054   1.378  1.00  0.00     0.157 C 
HETATM   12  N1  UNL     1       4.292  -0.318   1.906  1.00  0.00    -0.341 N 
HETATM   13  C1  UNL     1       5.266   0.107   0.962  1.00  0.00     0.316 C 
ATOM     14  H1  UNL     1       4.385  -0.116   2.902  1.00  0.00     0.164 HD
HETATM   15  O1  UNL     1       6.345   0.621   1.353  1.00  0.00    -0.247 OA
HETATM   16  N3  UNL     1       4.973  -0.070  -0.417  1.00  0.00    -0.341 N 
HETATM   17  C12 UNL     1       3.600  -0.080  -0.871  1.00  0.00     0.157 C 
ATOM     18  H3  UNL     1       5.732  -0.190  -1.088  1.00  0.00     0.164 HD
ENDBRANCH   9  10
ENDBRANCH   8   9
ENDBRANCH   1   8
BRANCH   6  19
HETATM   19  C10 UNL     1      -3.673   1.900   0.670  1.00  0.00     0.290 C 
HETATM   20 CL1  UNL     1      -3.387   3.492   1.511  1.00  0.00    -0.082 Cl
HETATM   21 CL2  UNL     1      -4.403   2.356  -0.893  1.00  0.00    -0.082 Cl
BRANCH  19  22
HETATM   22  C11 UNL     1      -4.711   1.225   1.503  1.00  0.00     0.431 C 
HETATM   23  F1  UNL     1      -4.271   0.974   2.793  1.00  0.00    -0.167 F 
HETATM   24  F2  UNL     1      -5.235   0.075   0.986  1.00  0.00    -0.167 F 
HETATM   25  F3  UNL     1      -5.826   2.076   1.680  1.00  0.00    -0.167 F 
ENDBRANCH  19  22
ENDBRANCH   6  19
TORSDOF 5
