REMARK  21 active torsions:
REMARK  status: ('A' for Active; 'I' for Inactive)
REMARK    1  A    between atoms: C2_2  and  C3_3 
REMARK    2  A    between atoms: C3_3  and  S1_4 
REMARK    3  A    between atoms: S1_4  and  C4_5 
REMARK    4  A    between atoms: C4_5  and  C5_6 
REMARK    5  A    between atoms: C5_6  and  N1_7 
REMARK    6  A    between atoms: C5_6  and  C12_16 
REMARK    7  A    between atoms: N1_7  and  C6_10 
REMARK    8  A    between atoms: C6_10  and  C8_12 
REMARK       I    between atoms: C12_16  and  N2_18 
REMARK    9  A    between atoms: N2_18  and  C13_20 
REMARK   10  A    between atoms: C13_20  and  C14_21 
REMARK   11  A    between atoms: C13_20  and  C27_45 
REMARK       I    between atoms: C14_21  and  N3_23 
REMARK   12  A    between atoms: N3_23  and  C15_25 
REMARK   13  A    between atoms: C15_25  and  C16_26 
REMARK   14  A    between atoms: C15_25  and  C20_34 
REMARK   15  A    between atoms: C16_26  and  C17_27 
REMARK   16  A    between atoms: C17_27  and  C18_28 
REMARK   17  A    between atoms: C18_28  and  N4_29 
REMARK       I    between atoms: C20_34  and  N7_36 
REMARK   18  A    between atoms: N7_36  and  C21_38 
REMARK   19  A    between atoms: C21_38  and  C22_39 
REMARK   20  A    between atoms: C21_38  and  C23_41 
REMARK   21  A    between atoms: C23_41  and  C24_42 
ROOT
HETATM    1  C14 UNL     1       0.662   2.337  -0.433  1.00  0.00     0.265 C 
HETATM    2  O2  UNL     1       0.727   1.674  -1.541  1.00  0.00    -0.266 OA
HETATM    3  N3  UNL     1       1.643   2.190   0.485  1.00  0.00    -0.343 N 
ATOM      4  H3  UNL     1       1.481   2.695   1.356  1.00  0.00     0.163 HD
ENDROOT
BRANCH   1   5
HETATM    5  C13 UNL     1      -0.546   3.200  -0.382  1.00  0.00     0.083 C 
BRANCH   5   6
HETATM    6  N2  UNL     1      -1.767   2.626  -0.824  1.00  0.00    -0.324 N 
HETATM    7  C12 UNL     1      -2.236   1.295  -0.820  1.00  0.00     0.253 C 
HETATM    8  O1  UNL     1      -1.567   0.346  -0.381  1.00  0.00    -0.271 OA
ATOM      9  H2  UNL     1      -2.426   3.299  -1.216  1.00  0.00     0.169 HD
BRANCH   7  10
HETATM   10  C5  UNL     1      -3.601   0.983  -1.360  1.00  0.00     0.287 C 
BRANCH  10  11
HETATM   11  C4  UNL     1      -3.599   1.012  -2.868  1.00  0.00     0.117 C 
BRANCH  11  12
HETATM   12  S1  UNL     1      -2.666  -0.218  -3.673  1.00  0.00    -0.163 SA
BRANCH  12  13
HETATM   13  C3  UNL     1      -3.044  -1.895  -3.804  1.00  0.00     0.100 C 
BRANCH  13  14
HETATM   14  C2  UNL     1      -3.028  -2.747  -2.607  1.00  0.00    -0.027 C 
HETATM   15  C1  UNL     1      -2.191  -3.790  -2.498  1.00  0.00     0.007 C 
ENDBRANCH  13  14
ENDBRANCH  12  13
ENDBRANCH  11  12
ENDBRANCH  10  11
BRANCH  10  16
HETATM   16  N1  UNL     1      -4.220  -0.183  -0.852  1.00  0.00    -0.057 N 
ATOM     17  H12 UNL     1      -4.153  -0.964  -1.505  1.00  0.00     0.278 HD
ATOM     18  H11 UNL     1      -3.692  -0.587  -0.078  1.00  0.00     0.278 HD
BRANCH  16  19
HETATM   19  C6  UNL     1      -5.614   0.100  -0.476  1.00  0.00     0.190 C 
HETATM   20  C7  UNL     1      -5.519   1.026   0.704  1.00  0.00     0.041 C 
BRANCH  19  21
HETATM   21  C8  UNL     1      -6.503  -1.062  -0.401  1.00  0.00    -0.023 C 
HETATM   22  C9  UNL     1      -6.641  -1.736  -1.785  1.00  0.00     0.016 C 
HETATM   23  C10 UNL     1      -7.903  -0.736   0.061  1.00  0.00     0.016 C 
HETATM   24  C11 UNL     1      -6.023  -2.189   0.511  1.00  0.00     0.016 C 
ENDBRANCH  19  21
ENDBRANCH  16  19
ENDBRANCH  10  16
ENDBRANCH   7  10
ENDBRANCH   5   6
BRANCH   5  25
HETATM   25  C27 UNL     1      -0.740   4.067   0.790  1.00  0.00     0.033 C 
HETATM   26  C28 UNL     1      -1.294   3.441   2.018  1.00  0.00     0.016 C 
HETATM   27  C29 UNL     1       0.409   4.968   1.058  1.00  0.00     0.016 C 
ENDBRANCH   5  25
ENDBRANCH   1   5
BRANCH   3  28
HETATM   28  C15 UNL     1       2.892   1.437   0.450  1.00  0.00     0.177 C 
BRANCH  28  29
HETATM   29  C16 UNL     1       3.537   1.610  -0.931  1.00  0.00     0.036 C 
BRANCH  29  30
HETATM   30  C17 UNL     1       4.877   1.048  -1.140  1.00  0.00     0.022 C 
BRANCH  30  31
HETATM   31  C18 UNL     1       6.043   1.667  -0.454  1.00  0.00     0.122 C 
BRANCH  31  32
HETATM   32  N4  UNL     1       6.025   1.717   0.962  1.00  0.00    -0.367 N 
HETATM   33  C19 UNL     1       6.584   2.604   1.685  1.00  0.00     0.196 C 
HETATM   34  N5  UNL     1       6.492   2.547   3.108  1.00  0.00    -0.067 NA
HETATM   35  N6  UNL     1       7.339   3.692   1.156  1.00  0.00    -0.067 NA
ATOM     36  H4  UNL     1       5.519   0.976   1.446  1.00  0.00     0.161 HD
ENDBRANCH  31  32
ENDBRANCH  30  31
ENDBRANCH  29  30
ENDBRANCH  28  29
BRANCH  28  37
HETATM   37  C20 UNL     1       2.643   0.008   0.696  1.00  0.00     0.241 C 
HETATM   38  O3  UNL     1       1.567  -0.484   0.202  1.00  0.00    -0.271 OA
HETATM   39  N7  UNL     1       3.480  -0.832   1.413  1.00  0.00    -0.348 N 
ATOM     40  H7  UNL     1       4.326  -0.438   1.825  1.00  0.00     0.163 HD
BRANCH  39  41
HETATM   41  C21 UNL     1       3.208  -2.261   1.608  1.00  0.00     0.146 C 
BRANCH  41  42
HETATM   42  C22 UNL     1       2.813  -2.472   3.030  1.00  0.00     0.256 C 
HETATM   43  O4  UNL     1       2.822  -1.517   3.769  1.00  0.00    -0.305 OA
ENDBRANCH  41  42
BRANCH  41  44
HETATM   44  C23 UNL     1       4.409  -2.990   1.152  1.00  0.00     0.036 C 
BRANCH  44  45
HETATM   45  C24 UNL     1       4.416  -4.466   1.227  1.00  0.00    -0.020 C 
HETATM   46  C25 UNL     1       3.297  -5.137   0.449  1.00  0.00     0.009 C 
HETATM   47  C26 UNL     1       4.511  -5.000   2.610  1.00  0.00     0.009 C 
ENDBRANCH  44  45
ENDBRANCH  41  44
ENDBRANCH  39  41
ENDBRANCH  28  37
ENDBRANCH   3  28
TORSDOF 21
