REMARK  17 active torsions:
REMARK  status: ('A' for Active; 'I' for Inactive)
REMARK    1  A    between atoms: N1_1  and  C1_5 
REMARK    2  A    between atoms: C1_5  and  C2_6 
REMARK    3  A    between atoms: C2_6  and  C3_7 
REMARK    4  A    between atoms: C3_7  and  C4_8 
REMARK    5  A    between atoms: C4_8  and  C5_9 
REMARK    6  A    between atoms: C5_9  and  N2_10 
REMARK       I    between atoms: N2_10  and  C6_12 
REMARK       I    between atoms: C6_12  and  N3_13 
REMARK       I    between atoms: C6_12  and  N4_17 
REMARK    7  A    between atoms: N4_17  and  N5_19 
REMARK    8  A    between atoms: N5_19  and  C7_21 
REMARK    9  A    between atoms: C8_22  and  O1_23 
REMARK   10  A    between atoms: C9_25  and  N6_26 
REMARK   11  A    between atoms: C10_30  and  O2_31 
REMARK   12  A    between atoms: O2_31  and  C11_32 
REMARK   13  A    between atoms: C12_34  and  C13_35 
REMARK   14  A    between atoms: C13_35  and  O4_36 
REMARK   15  A    between atoms: C14_38  and  N7_39 
REMARK   16  A    between atoms: C15_43  and  N8_44 
REMARK   17  A    between atoms: C16_48  and  O5_49 
ROOT
HETATM    1  C7  UNL     1       0.232   1.097   0.263  1.00  0.00     0.161 C 
HETATM    2  C8  UNL     1       0.403   0.244  -0.943  1.00  0.00     0.178 C 
HETATM    3  C9  UNL     1      -0.944  -0.281  -1.367  1.00  0.00     0.245 C 
HETATM    4  C10 UNL     1      -1.913   0.479  -0.537  1.00  0.00     0.188 C 
HETATM    5  C16 UNL     1      -1.179   0.830   0.750  1.00  0.00     0.176 C 
ENDROOT
BRANCH   1   6
HETATM    6  N5  UNL     1       1.208   0.902   1.304  1.00  0.00    -0.328 N 
ATOM      7  H5  UNL     1       1.836   1.651   1.596  1.00  0.00     0.180 HD
BRANCH   6   8
HETATM    8  N4  UNL     1       1.252  -0.325   1.877  1.00  0.00    -0.294 N 
HETATM    9  C6  UNL     1       2.451  -1.072   1.862  1.00  0.00     0.396 C 
HETATM   10  N2  UNL     1       3.580  -0.596   2.556  1.00  0.00    -0.379 N 
HETATM   11  N3  UNL     1       2.193  -2.472   2.303  1.00  0.00    -0.040 N 
ATOM     12  H2  UNL     1       4.020  -1.152   3.289  1.00  0.00     0.157 HD
ATOM     13  H33 UNL     1       3.007  -3.076   2.192  1.00  0.00     0.279 HD
ATOM     14  H32 UNL     1       2.097  -2.555   3.315  1.00  0.00     0.279 HD
ATOM     15  H31 UNL     1       1.375  -2.817   1.800  1.00  0.00     0.279 HD
ATOM     16  H4  UNL     1       0.418  -0.710   2.320  1.00  0.00     0.184 HD
BRANCH  10  17
HETATM   17  C5  UNL     1       4.083   0.676   2.204  1.00  0.00     0.117 C 
BRANCH  17  18
HETATM   18  C4  UNL     1       4.675   0.712   0.804  1.00  0.00     0.019 C 
BRANCH  18  19
HETATM   19  C3  UNL     1       5.821  -0.269   0.683  1.00  0.00     0.003 C 
BRANCH  19  20
HETATM   20  C2  UNL     1       6.430  -0.272  -0.692  1.00  0.00     0.027 C 
BRANCH  20  21
HETATM   21  C1  UNL     1       6.981   1.083  -1.082  1.00  0.00     0.229 C 
BRANCH  21  22
HETATM   22  N1  UNL     1       8.005   1.522  -0.166  1.00  0.00    -0.079 N 
ATOM     23  H13 UNL     1       7.670   1.519   0.797  1.00  0.00     0.274 HD
ATOM     24  H12 UNL     1       8.748   0.829  -0.077  1.00  0.00     0.274 HD
ATOM     25  H11 UNL     1       8.376   2.435  -0.429  1.00  0.00     0.274 HD
ENDBRANCH  21  22
ENDBRANCH  20  21
ENDBRANCH  19  20
ENDBRANCH  18  19
ENDBRANCH  17  18
ENDBRANCH  10  17
ENDBRANCH   6   8
ENDBRANCH   1   6
BRANCH   2  26
HETATM   26  O1  UNL     1       0.927   0.990  -2.017  1.00  0.00    -0.391 OA
ATOM     27  H1  UNL     1       1.036   0.445  -2.787  1.00  0.00     0.210 HD
ENDBRANCH   2  26
BRANCH   5  28
HETATM   28  O5  UNL     1      -1.768   1.983   1.257  1.00  0.00    -0.391 OA
ATOM     29  H5  UNL     1      -2.652   1.816   1.562  1.00  0.00     0.210 HD
ENDBRANCH   5  28
BRANCH   3  30
HETATM   30  N6  UNL     1      -1.039  -1.719  -1.193  1.00  0.00    -0.070 N 
ATOM     31  H63 UNL     1      -0.282  -2.203  -1.676  1.00  0.00     0.274 HD
ATOM     32  H62 UNL     1      -0.817  -1.993  -0.236  1.00  0.00     0.274 HD
ATOM     33  H61 UNL     1      -1.951  -2.074  -1.480  1.00  0.00     0.274 HD
ENDBRANCH   3  30
BRANCH   4  34
HETATM   34  O2  UNL     1      -3.086  -0.223  -0.269  1.00  0.00    -0.349 OA
BRANCH  34  35
HETATM   35  C11 UNL     1      -4.191   0.500  -0.714  1.00  0.00     0.293 C 
HETATM   36  O3  UNL     1      -5.036   0.850   0.327  1.00  0.00    -0.349 OA
HETATM   37  C12 UNL     1      -6.266   0.292   0.122  1.00  0.00     0.180 C 
HETATM   38  C14 UNL     1      -6.430   0.125  -1.371  1.00  0.00     0.249 C 
HETATM   39  C15 UNL     1      -4.984  -0.182  -1.774  1.00  0.00     0.271 C 
BRANCH  37  40
HETATM   40  C13 UNL     1      -6.415  -1.000   0.872  1.00  0.00     0.198 C 
BRANCH  40  41
HETATM   41  O4  UNL     1      -7.643  -1.607   0.693  1.00  0.00    -0.398 OA
ATOM     42  H4  UNL     1      -7.737  -2.425   1.168  1.00  0.00     0.209 HD
ENDBRANCH  40  41
ENDBRANCH  37  40
BRANCH  38  43
HETATM   43  N7  UNL     1      -6.768   1.377  -2.016  1.00  0.00    -0.070 N 
ATOM     44  H73 UNL     1      -7.596   1.800  -1.596  1.00  0.00     0.274 HD
ATOM     45  H72 UNL     1      -6.088   2.104  -1.796  1.00  0.00     0.274 HD
ATOM     46  H71 UNL     1      -6.879   1.264  -3.024  1.00  0.00     0.274 HD
ENDBRANCH  38  43
BRANCH  39  47
HETATM   47  N8  UNL     1      -4.734  -1.588  -1.875  1.00  0.00    -0.068 N 
ATOM     48  H83 UNL     1      -3.738  -1.766  -2.003  1.00  0.00     0.275 HD
ATOM     49  H82 UNL     1      -4.876  -2.043  -0.973  1.00  0.00     0.275 HD
ATOM     50  H81 UNL     1      -5.277  -2.055  -2.601  1.00  0.00     0.275 HD
ENDBRANCH  39  47
ENDBRANCH  34  35
ENDBRANCH   4  34
TORSDOF 17
