REMARK  9 active torsions:
REMARK  status: ('A' for Active; 'I' for Inactive)
REMARK    1  A    between atoms: C4_6  and  N2_7 
REMARK    2  A    between atoms: N5_16  and  C7_17 
REMARK    3  A    between atoms: C7_17  and  C8_18 
REMARK    4  A    between atoms: C8_18  and  N6_19 
REMARK    5  A    between atoms: N6_19  and  C9_22 
REMARK    6  A    between atoms: C9_22  and  C10_23 
REMARK    7  A    between atoms: C10_23  and  S1_24 
REMARK    8  A    between atoms: S1_24  and  C11_25 
REMARK    9  A    between atoms: C11_25  and  C12_26 
ROOT
HETATM    1  C1  UNL     1       3.814  -3.260   0.508  1.00  0.00     0.089 C 
HETATM    2  C2  UNL     1       3.851  -1.758   0.430  1.00  0.00     0.081 A 
HETATM    3  N1  UNL     1       4.674  -0.945   1.113  1.00  0.00    -0.340 N 
ATOM      4  H1  UNL     1       5.381  -1.263   1.776  1.00  0.00     0.167 HD
HETATM    5  C3  UNL     1       4.441   0.343   0.807  1.00  0.00     0.122 A 
HETATM    6  C4  UNL     1       4.988   1.557   1.210  1.00  0.00     0.131 A 
HETATM    7  N3  UNL     1       4.542   2.738   0.716  1.00  0.00    -0.337 N 
ATOM      8  H3  UNL     1       4.948   3.624   1.015  1.00  0.00     0.168 HD
HETATM    9  C5  UNL     1       3.545   2.696  -0.182  1.00  0.00     0.183 A 
HETATM   10  N4  UNL     1       3.012   1.527  -0.576  1.00  0.00    -0.336 N 
ATOM     11  H4  UNL     1       2.257   1.550  -1.262  1.00  0.00     0.168 HD
HETATM   12  C6  UNL     1       3.416   0.327  -0.119  1.00  0.00     0.141 A 
HETATM   13  N5  UNL     1       3.075  -0.964  -0.331  1.00  0.00    -0.319 N 
ENDROOT
BRANCH  13  14
HETATM   14  C7  UNL     1       2.047  -1.378  -1.233  1.00  0.00     0.159 C 
BRANCH  14  15
HETATM   15  C8  UNL     1       0.690  -1.503  -0.640  1.00  0.00     0.252 C 
BRANCH  15  16
HETATM   16  N6  UNL     1       0.144  -0.314  -0.067  1.00  0.00    -0.073 N 
ATOM     17  H62 UNL     1       0.746   0.108   0.640  1.00  0.00     0.277 HD
ATOM     18  H61 UNL     1       0.132   0.477  -0.711  1.00  0.00     0.277 HD
BRANCH  16  19
HETATM   19  C9  UNL     1      -1.190  -0.673   0.442  1.00  0.00     0.242 C 
BRANCH  19  20
HETATM   20  C10 UNL     1      -1.852   0.530   1.079  1.00  0.00     0.101 C 
BRANCH  20  21
HETATM   21  S1  UNL     1      -3.479   0.168   1.721  1.00  0.00    -0.167 SA
BRANCH  21  22
HETATM   22  C11 UNL     1      -4.734  -0.232   0.542  1.00  0.00     0.077 C 
BRANCH  22  23
HETATM   23  C12 UNL     1      -5.210   0.875  -0.350  1.00  0.00    -0.013 C 
HETATM   24  C13 UNL     1      -4.108   1.443  -1.197  1.00  0.00     0.010 C 
HETATM   25  C14 UNL     1      -6.346   0.360  -1.249  1.00  0.00     0.010 C 
ENDBRANCH  22  23
ENDBRANCH  21  22
ENDBRANCH  20  21
ENDBRANCH  19  20
ENDBRANCH  16  19
ENDBRANCH  15  16
ENDBRANCH  14  15
ENDBRANCH  13  14
BRANCH   6  26
HETATM   26  N2  UNL     1       5.941   1.511   2.075  1.00  0.00    -0.383 N 
ATOM     27  H22 UNL     1       6.277   0.622   2.447  1.00  0.00     0.157 HD
ATOM     28  H21 UNL     1       6.342   2.401   2.370  1.00  0.00     0.157 HD
ENDBRANCH   6  26
TORSDOF 9
