REMARK  4 active torsions:
REMARK  status: ('A' for Active; 'I' for Inactive)
REMARK    1  A    between atoms: C3_3  and  N1_4 
REMARK       I    between atoms: N1_4  and  C4_6 
REMARK    2  A    between atoms: N3_8  and  C5_10 
REMARK    3  A    between atoms: C5_10  and  N4_12 
REMARK    4  A    between atoms: N4_12  and  C6_14 
ROOT
HETATM    1  C1  UNL     1       6.231   0.532  -1.168  1.00  0.00     0.014 C 
HETATM    2  C2  UNL     1       5.438   0.539  -0.247  1.00  0.00    -0.098 C 
HETATM    3  C3  UNL     1       4.493   0.567   0.876  1.00  0.00     0.215 C 
ENDROOT
BRANCH   3   4
HETATM    4  N1  UNL     1       3.120   0.596   0.410  1.00  0.00    -0.354 N 
HETATM    5  C4  UNL     1       2.555  -0.529  -0.242  1.00  0.00     0.191 C 
HETATM    6  N2  UNL     1       3.176  -1.087  -1.388  1.00  0.00    -0.063 NA
HETATM    7  N3  UNL     1       1.472  -1.090   0.162  1.00  0.00    -0.308 N 
ATOM      8  H3  UNL     1       1.097  -1.898  -0.336  1.00  0.00     0.171 HD
ATOM      9  H1  UNL     1       2.556   1.434   0.553  1.00  0.00     0.163 HD
BRANCH   7  10
HETATM   10  C5  UNL     1       0.806  -0.587   1.292  1.00  0.00     0.174 C 
HETATM   11  S1  UNL     1       1.654  -0.082   2.581  1.00  0.00    -0.041 SA
BRANCH  10  12
HETATM   12  N4  UNL     1      -0.598  -0.530   1.303  1.00  0.00    -0.361 N 
ATOM     13  H4  UNL     1      -1.043  -0.160   2.143  1.00  0.00     0.162 HD
BRANCH  12  14
HETATM   14  C6  UNL     1      -1.468  -0.952   0.222  1.00  0.00     0.101 C 
HETATM   15  C7  UNL     1      -1.278  -0.143  -1.015  1.00  0.00     0.028 C 
HETATM   16  C8  UNL     1      -2.366   0.858  -1.300  1.00  0.00     0.021 C 
HETATM   17  C9  UNL     1      -3.732   0.389  -0.922  1.00  0.00     0.116 C 
HETATM   18  N5  UNL     1      -3.761  -0.051   0.428  1.00  0.00    -0.415 N 
HETATM   19  C10 UNL     1      -3.875   0.938   1.434  1.00  0.00     0.143 C 
HETATM   20  C11 UNL     1      -2.883  -1.135   0.665  1.00  0.00     0.141 C 
ENDBRANCH  12  14
ENDBRANCH  10  12
ENDBRANCH   7  10
ENDBRANCH   3   4
TORSDOF 4
