REMARK  2 active torsions:
REMARK  status: ('A' for Active; 'I' for Inactive)
REMARK    1  A    between atoms: C3_3  and  N1_4 
REMARK    2  A    between atoms: C6_12  and  C7_13 
ROOT
HETATM    1  C1  UNL     1       3.004   3.489  -0.704  1.00  0.00     0.014 C 
HETATM    2  C2  UNL     1       2.931   2.428  -0.125  1.00  0.00    -0.097 C 
HETATM    3  C3  UNL     1       2.854   1.148   0.595  1.00  0.00     0.235 C 
ENDROOT
BRANCH   3   4
HETATM    4  N1  UNL     1       2.043   0.181  -0.097  1.00  0.00    -0.199 N 
HETATM    5  C4  UNL     1       2.512  -0.340  -1.325  1.00  0.00     0.671 C 
HETATM    6  N2  UNL     1       3.756  -0.394  -1.649  1.00  0.00    -0.235 N 
HETATM    7  N3  UNL     1       1.491  -0.825  -2.227  1.00  0.00    -0.224 N 
ATOM      8  H22 UNL     1       4.476  -0.052  -1.013  1.00  0.00     0.174 HD
ATOM      9  H21 UNL     1       4.094  -0.770  -2.535  1.00  0.00     0.174 HD
HETATM   10  C5  UNL     1       0.163  -0.361  -1.951  1.00  0.00     0.179 C 
ATOM     11  H3  UNL     1       1.701  -1.452  -3.004  1.00  0.00     0.177 HD
HETATM   12  C6  UNL     1      -0.249  -0.665  -0.503  1.00  0.00     0.169 A 
HETATM   13  N4  UNL     1      -0.016  -2.035  -0.107  1.00  0.00    -0.056 N 
HETATM   14  C14 UNL     1       0.788  -0.234   0.470  1.00  0.00     0.171 A 
HETATM   15  C12 UNL     1       0.906  -1.679   0.925  1.00  0.00     0.208 A 
ATOM     16  H42 UNL     1      -0.820  -2.612   0.139  1.00  0.00     0.278 HD
ATOM     17  H41 UNL     1       0.286  -2.701  -0.818  1.00  0.00     0.278 HD
HETATM   18  C13 UNL     1       0.518  -1.953   2.336  1.00  0.00     0.042 C 
BRANCH  12  19
HETATM   19  C7  UNL     1      -1.653  -0.213  -0.313  1.00  0.00     0.025 C 
HETATM   20  C8  UNL     1      -1.884   1.238  -0.544  1.00  0.00     0.007 C 
HETATM   21  C9  UNL     1      -3.320   1.409  -0.046  1.00  0.00     0.000 C 
HETATM   22  C10 UNL     1      -3.641   0.202   0.795  1.00  0.00     0.000 C 
HETATM   23  C11 UNL     1      -2.259  -0.441   1.019  1.00  0.00     0.007 C 
ENDBRANCH  12  19
ENDBRANCH   3   4
TORSDOF 2
