REMARK  8 active torsions:
REMARK  status: ('A' for Active; 'I' for Inactive)
REMARK    1  A    between atoms: C2_2  and  N1_4 
REMARK    2  A    between atoms: N1_4  and  C4_6 
REMARK    3  A    between atoms: C4_6  and  N2_8 
REMARK    4  A    between atoms: N2_8  and  N3_10 
REMARK    5  A    between atoms: N3_10  and  C5_12 
REMARK    6  A    between atoms: C5_12  and  N4_14 
REMARK    7  A    between atoms: N4_14  and  C6_16 
REMARK    8  A    between atoms: C6_16  and  C7_17 
ROOT
HETATM    1  N3  UNL     1      -0.421   0.826   1.113  1.00  0.00    -0.274 N 
ATOM      2  H3  UNL     1      -0.417   1.610   1.766  1.00  0.00     0.189 HD
ENDROOT
BRANCH   1   3
HETATM    3  N2  UNL     1      -1.633   0.483   0.511  1.00  0.00    -0.274 N 
ATOM      4  H2  UNL     1      -2.360   0.058   1.087  1.00  0.00     0.189 HD
BRANCH   3   5
HETATM    5  C4  UNL     1      -1.900   0.699  -0.870  1.00  0.00     0.191 C 
HETATM    6  S1  UNL     1      -0.771   1.381  -1.840  1.00  0.00    -0.039 SA
BRANCH   5   7
HETATM    7  N1  UNL     1      -3.138   0.341  -1.446  1.00  0.00    -0.337 N 
ATOM      8  H1  UNL     1      -3.317   0.500  -2.438  1.00  0.00     0.168 HD
BRANCH   7   9
HETATM    9  C2  UNL     1      -4.127  -0.244  -0.617  1.00  0.00    -0.002 C 
HETATM   10  C1  UNL     1      -4.239  -1.558  -0.586  1.00  0.00     0.037 C 
HETATM   11  C3  UNL     1      -5.028   0.602   0.208  1.00  0.00     0.067 C 
ENDBRANCH   7   9
ENDBRANCH   5   7
ENDBRANCH   3   5
ENDBRANCH   1   3
BRANCH   1  12
HETATM   12  C5  UNL     1       0.794   0.160   0.877  1.00  0.00     0.186 C 
HETATM   13  S2  UNL     1       0.811  -1.090  -0.149  1.00  0.00    -0.040 SA
BRANCH  12  14
HETATM   14  N4  UNL     1       1.969   0.556   1.515  1.00  0.00    -0.366 N 
ATOM     15  H4  UNL     1       1.891   1.345   2.157  1.00  0.00     0.161 HD
BRANCH  14  16
HETATM   16  C6  UNL     1       3.283  -0.023   1.371  1.00  0.00     0.126 C 
BRANCH  16  17
HETATM   17  C7  UNL     1       3.881   0.224   0.026  1.00  0.00     0.003 A 
HETATM   18  C8  UNL     1       5.206  -0.242  -0.380  1.00  0.00     0.007 A 
HETATM   19  C9  UNL     1       4.054  -0.988  -0.896  1.00  0.00     0.007 A 
ENDBRANCH  16  17
ENDBRANCH  14  16
ENDBRANCH  12  14
ENDBRANCH   1  12
TORSDOF 8
