REMARK  21 active torsions:
REMARK  status: ('A' for Active; 'I' for Inactive)
REMARK    1  A    between atoms: N2_7  and  C5_8 
REMARK    2  A    between atoms: C5_8  and  C6_9 
REMARK    3  A    between atoms: C6_9  and  N4_13 
REMARK    4  A    between atoms: N4_13  and  C7_15 
REMARK    5  A    between atoms: C7_15  and  C8_16 
REMARK    6  A    between atoms: C8_16  and  C9_17 
REMARK    7  A    between atoms: C9_17  and  N5_18 
REMARK    8  A    between atoms: N5_18  and  N6_19 
REMARK       I    between atoms: N5_18  and  C14_28 
REMARK    9  A    between atoms: N6_19  and  C10_20 
REMARK   10  A    between atoms: C10_20  and  C11_21 
REMARK   11  A    between atoms: C11_21  and  C12_22 
REMARK   12  A    between atoms: C12_22  and  N7_23 
REMARK   13  A    between atoms: C14_28  and  C15_30 
REMARK   14  A    between atoms: C15_30  and  C16_31 
REMARK   15  A    between atoms: C20_35  and  C21_36 
REMARK   16  A    between atoms: C21_36  and  C22_37 
REMARK   17  A    between atoms: C22_37  and  C23_38 
REMARK       I    between atoms: C23_38  and  N10_40 
REMARK   18  A    between atoms: N10_40  and  C24_42 
REMARK   19  A    between atoms: C24_42  and  C25_43 
REMARK   20  A    between atoms: C25_43  and  C26_44 
REMARK   21  A    between atoms: C26_44  and  N11_45 
ROOT
HETATM    1  N5  UNL     1      -2.405  -1.275  -0.397  1.00  0.00    -0.243 N 
HETATM    2  C14 UNL     1      -1.090  -0.930   0.083  1.00  0.00     0.243 C 
HETATM    3  O1  UNL     1      -0.925   0.313   0.411  1.00  0.00    -0.271 OA
ENDROOT
BRANCH   1   4
HETATM    4  C9  UNL     1      -3.337  -0.267  -0.392  1.00  0.00     0.090 C 
BRANCH   4   5
HETATM    5  C8  UNL     1      -3.504   0.728  -1.493  1.00  0.00     0.066 C 
BRANCH   5   6
HETATM    6  C7  UNL     1      -4.724   1.615  -1.026  1.00  0.00     0.126 C 
BRANCH   6   7
HETATM    7  N4  UNL     1      -4.405   2.156   0.272  1.00  0.00    -0.378 N 
ATOM      8  H4  UNL     1      -3.425   2.220   0.549  1.00  0.00     0.160 HD
BRANCH   7   9
HETATM    9  C6  UNL     1      -5.382   2.595   1.162  1.00  0.00     0.089 C 
HETATM   10  N3  UNL     1      -4.984   3.010   2.367  1.00  0.00    -0.388 N 
ATOM     11  H32 UNL     1      -5.700   3.332   3.019  1.00  0.00     0.157 HD
ATOM     12  H31 UNL     1      -3.972   2.968   2.488  1.00  0.00     0.157 HD
BRANCH   9  13
HETATM   13  C5  UNL     1      -6.835   2.656   0.988  1.00  0.00     0.205 C 
BRANCH  13  14
HETATM   14  N2  UNL     1      -7.250   3.955   0.509  1.00  0.00    -0.339 N 
HETATM   15  C2  UNL     1      -7.599   4.398  -0.686  1.00  0.00     0.079 A 
HETATM   16  C1  UNL     1      -7.817   3.627  -1.937  1.00  0.00     0.089 C 
HETATM   17  N1  UNL     1      -7.810   5.745  -0.579  1.00  0.00    -0.355 N 
HETATM   18  C3  UNL     1      -7.594   6.109   0.673  1.00  0.00     0.106 A 
ATOM     19  H1  UNL     1      -8.088   6.366  -1.339  1.00  0.00     0.166 HD
HETATM   20  C4  UNL     1      -7.241   5.007   1.384  1.00  0.00     0.110 A 
ENDBRANCH  13  14
ENDBRANCH   9  13
ENDBRANCH   7   9
ENDBRANCH   6   7
ENDBRANCH   5   6
ENDBRANCH   4   5
ENDBRANCH   1   4
BRANCH   1  21
HETATM   21  N6  UNL     1      -2.504  -2.659  -0.637  1.00  0.00    -0.132 NA
BRANCH  21  22
HETATM   22  C10 UNL     1      -3.791  -3.197  -0.257  1.00  0.00     0.137 C 
BRANCH  22  23
HETATM   23  C11 UNL     1      -3.579  -4.301   0.746  1.00  0.00     0.037 C 
BRANCH  23  24
HETATM   24  C12 UNL     1      -2.738  -5.453   0.348  1.00  0.00     0.123 C 
BRANCH  24  25
HETATM   25  N7  UNL     1      -2.661  -6.296   1.570  1.00  0.00    -0.367 N 
HETATM   26  C13 UNL     1      -3.583  -7.153   1.788  1.00  0.00     0.196 C 
HETATM   27  N8  UNL     1      -4.651  -7.303   0.881  1.00  0.00    -0.067 NA
HETATM   28  N9  UNL     1      -3.579  -7.946   2.972  1.00  0.00    -0.067 NA
ATOM     29  H7  UNL     1      -1.885  -6.192   2.224  1.00  0.00     0.161 HD
ENDBRANCH  24  25
ENDBRANCH  23  24
ENDBRANCH  22  23
ENDBRANCH  21  22
ENDBRANCH   1  21
BRANCH   2  30
HETATM   30  C15 UNL     1       0.073  -1.793   0.229  1.00  0.00     0.143 C 
BRANCH  30  31
HETATM   31  C16 UNL     1       1.222  -0.865   0.489  1.00  0.00    -0.049 A 
HETATM   32  C17 UNL     1       1.353  -0.302   1.720  1.00  0.00     0.007 A 
HETATM   33  C18 UNL     1       2.332   0.671   1.925  1.00  0.00     0.001 A 
HETATM   34  C19 UNL     1       3.128   1.011   0.849  1.00  0.00     0.007 A 
HETATM   35  C20 UNL     1       3.003   0.442  -0.401  1.00  0.00    -0.057 A 
HETATM   36  C28 UNL     1       2.037  -0.507  -0.576  1.00  0.00     0.014 A 
BRANCH  35  37
HETATM   37  C21 UNL     1       3.869   0.886  -1.523  1.00  0.00     0.048 C 
BRANCH  37  38
HETATM   38  C22 UNL     1       5.252   0.449  -1.108  1.00  0.00     0.107 C 
BRANCH  38  39
HETATM   39  C23 UNL     1       6.346   0.774  -2.030  1.00  0.00     0.217 C 
HETATM   40  O2  UNL     1       6.405   0.374  -3.187  1.00  0.00    -0.274 OA
HETATM   41  N10 UNL     1       7.364   1.621  -1.467  1.00  0.00    -0.361 N 
ATOM     42  H10 UNL     1       7.269   1.980  -0.517  1.00  0.00     0.162 HD
BRANCH  41  43
HETATM   43  C24 UNL     1       8.508   1.954  -2.252  1.00  0.00     0.124 C 
BRANCH  43  44
HETATM   44  C25 UNL     1       9.351   0.672  -2.385  1.00  0.00     0.039 C 
BRANCH  44  45
HETATM   45  C26 UNL     1       9.636   0.199  -0.932  1.00  0.00     0.123 C 
BRANCH  45  46
HETATM   46  N11 UNL     1      10.234   1.291  -0.211  1.00  0.00    -0.367 N 
HETATM   47  C27 UNL     1      10.431   1.269   1.050  1.00  0.00     0.196 C 
HETATM   48  N12 UNL     1      11.026   2.387   1.665  1.00  0.00    -0.067 NA
HETATM   49  N13 UNL     1      10.039   0.112   1.787  1.00  0.00    -0.067 NA
ATOM     50  H11 UNL     1      10.514   2.122  -0.732  1.00  0.00     0.161 HD
ENDBRANCH  45  46
ENDBRANCH  44  45
ENDBRANCH  43  44
ENDBRANCH  41  43
ENDBRANCH  38  39
ENDBRANCH  37  38
ENDBRANCH  35  37
ENDBRANCH  30  31
ENDBRANCH   2  30
TORSDOF 21
