REMARK  22 active torsions:
REMARK  status: ('A' for Active; 'I' for Inactive)
REMARK       I    between atoms: C2_2  and  N1_4 
REMARK    1  A    between atoms: N1_4  and  C3_6 
REMARK    2  A    between atoms: C3_6  and  C4_7 
REMARK    3  A    between atoms: C4_7  and  N2_8 
REMARK    4  A    between atoms: N2_8  and  C6_10 
REMARK    5  A    between atoms: N2_8  and  C7_13 
REMARK    6  A    between atoms: C6_10  and  O2_11 
REMARK    7  A    between atoms: C7_13  and  C8_14 
REMARK    8  A    between atoms: C8_14  and  C9_15 
REMARK    9  A    between atoms: C9_15  and  C10_16 
REMARK   10  A    between atoms: C10_16  and  C11_17 
REMARK   11  A    between atoms: C11_17  and  N3_18 
REMARK       I    between atoms: N3_18  and  C12_20 
REMARK       I    between atoms: C12_20  and  N8_31 
REMARK   12  A    between atoms: N4_21  and  C13_23 
REMARK   13  A    between atoms: C13_23  and  C14_24 
REMARK   14  A    between atoms: C14_24  and  C15_25 
REMARK   15  A    between atoms: C15_25  and  N5_26 
REMARK   16  A    between atoms: N8_31  and  C17_32 
REMARK   17  A    between atoms: C19_36  and  C20_37 
REMARK   18  A    between atoms: C20_37  and  O3_38 
REMARK   19  A    between atoms: O3_38  and  C21_39 
REMARK   20  A    between atoms: C21_39  and  C22_40 
REMARK   21  A    between atoms: C21_39  and  C26_45 
REMARK   22  A    between atoms: C22_40  and  N10_41 
ROOT
HETATM    1  N3  UNL     1       0.277  -0.572   1.523  1.00  0.00    -0.351 N 
ATOM      2  H3  UNL     1       0.661  -0.923   2.400  1.00  0.00     0.163 HD
HETATM    3  C12 UNL     1      -0.346  -1.475   0.553  1.00  0.00     0.254 C 
HETATM    4  N4  UNL     1       0.471  -2.312   0.030  1.00  0.00    -0.350 N 
ATOM      5  H4  UNL     1       1.441  -2.257   0.340  1.00  0.00     0.163 HD
HETATM    6  N8  UNL     1      -1.628  -1.369   0.316  1.00  0.00    -0.336 NA
ENDROOT
BRANCH   1   7
HETATM    7  C11 UNL     1       0.327   0.808   1.199  1.00  0.00     0.123 C 
BRANCH   7   8
HETATM    8  C10 UNL     1       1.316   1.145   0.086  1.00  0.00     0.020 C 
BRANCH   8   9
HETATM    9  C9  UNL     1       2.733   0.774   0.586  1.00  0.00     0.003 C 
BRANCH   9  10
HETATM   10  C8  UNL     1       3.681   1.131  -0.489  1.00  0.00     0.028 C 
BRANCH  10  11
HETATM   11  C7  UNL     1       5.135   0.906  -0.242  1.00  0.00     0.239 C 
BRANCH  11  12
HETATM   12  N2  UNL     1       5.725   1.597   0.838  1.00  0.00    -0.049 N 
HETATM   13  C5  UNL     1       5.358   1.004   2.143  1.00  0.00     0.275 C 
BRANCH  12  14
HETATM   14  C4  UNL     1       7.147   1.517   0.750  1.00  0.00     0.259 C 
BRANCH  14  15
HETATM   15  C3  UNL     1       7.780   0.858  -0.411  1.00  0.00     0.150 C 
BRANCH  15  16
HETATM   16  N1  UNL     1       9.249   0.916  -0.227  1.00  0.00    -0.360 N 
HETATM   17  C2  UNL     1      10.180   0.395  -1.120  1.00  0.00     0.213 C 
HETATM   18  C1  UNL     1      11.632   0.519  -0.827  1.00  0.00     0.117 C 
HETATM   19  O1  UNL     1       9.821  -0.178  -2.171  1.00  0.00    -0.274 OA
ATOM     20  H1  UNL     1       9.603   1.370   0.615  1.00  0.00     0.162 HD
ENDBRANCH  15  16
ENDBRANCH  14  15
ENDBRANCH  12  14
BRANCH  12  21
HETATM   21  C6  UNL     1       5.342   2.993   0.931  1.00  0.00     0.401 C 
BRANCH  21  22
HETATM   22  O2  UNL     1       5.574   3.718  -0.198  1.00  0.00    -0.374 OA
ATOM     23  H2  UNL     1       5.323   4.632  -0.137  1.00  0.00     0.211 HD
ENDBRANCH  21  22
ENDBRANCH  12  21
ENDBRANCH  11  12
ENDBRANCH  10  11
ENDBRANCH   9  10
ENDBRANCH   8   9
ENDBRANCH   7   8
ENDBRANCH   1   7
BRANCH   4  24
HETATM   24  C13 UNL     1       0.166  -3.312  -0.940  1.00  0.00     0.125 C 
BRANCH  24  25
HETATM   25  C14 UNL     1      -0.597  -4.431  -0.266  1.00  0.00     0.039 C 
BRANCH  25  26
HETATM   26  C15 UNL     1       0.266  -5.011   0.819  1.00  0.00     0.123 C 
BRANCH  26  27
HETATM   27  N5  UNL     1       1.463  -5.556   0.245  1.00  0.00    -0.367 N 
HETATM   28  C16 UNL     1       1.431  -6.731  -0.274  1.00  0.00     0.196 C 
HETATM   29  N6  UNL     1       0.224  -7.455  -0.269  1.00  0.00    -0.067 NA
HETATM   30  N7  UNL     1       2.612  -7.264  -0.836  1.00  0.00    -0.067 NA
ATOM     31  H5  UNL     1       2.329  -5.017   0.249  1.00  0.00     0.161 HD
ENDBRANCH  26  27
ENDBRANCH  25  26
ENDBRANCH  24  25
ENDBRANCH   4  24
BRANCH   6  32
HETATM   32  C17 UNL     1      -2.786  -1.276   0.082  1.00  0.00     0.262 A 
HETATM   33  N9  UNL     1      -3.405  -1.326  -1.135  1.00  0.00    -0.324 N 
HETATM   34  C18 UNL     1      -4.714  -1.196  -0.985  1.00  0.00     0.119 A 
ATOM     35  H9  UNL     1      -2.928  -1.446  -2.029  1.00  0.00     0.169 HD
HETATM   36  C19 UNL     1      -4.978  -1.058   0.344  1.00  0.00     0.052 A 
HETATM   37  N12 UNL     1      -3.821  -1.105   0.991  1.00  0.00    -0.317 N 
ATOM     38  H12 UNL     1      -3.709  -1.027   2.002  1.00  0.00     0.170 HD
BRANCH  36  39
HETATM   39  C20 UNL     1      -6.316  -0.902   0.965  1.00  0.00     0.227 C 
BRANCH  39  40
HETATM   40  O3  UNL     1      -6.560   0.336   1.474  1.00  0.00    -0.369 OA
BRANCH  40  41
HETATM   41  C21 UNL     1      -6.550   1.365   0.461  1.00  0.00     0.236 C 
BRANCH  41  42
HETATM   42  C22 UNL     1      -7.932   1.911   0.529  1.00  0.00     0.277 C 
BRANCH  42  43
HETATM   43  N10 UNL     1      -8.352   2.924  -0.366  1.00  0.00    -0.076 N 
HETATM   44  C23 UNL     1      -7.693   2.994  -1.626  1.00  0.00     0.271 C 
HETATM   45  C24 UNL     1      -9.798   2.732  -0.676  1.00  0.00     0.271 C 
HETATM   46  C25 UNL     1      -8.313   4.219   0.280  1.00  0.00     0.271 C 
ENDBRANCH  42  43
ENDBRANCH  41  42
BRANCH  41  47
HETATM   47  C26 UNL     1      -5.464   2.277   0.884  1.00  0.00     0.261 C 
HETATM   48  N11 UNL     1      -5.025   3.340   0.088  1.00  0.00    -0.060 NA
HETATM   49  O4  UNL     1      -4.892   2.108   2.006  1.00  0.00    -0.274 OA
ENDBRANCH  41  47
ENDBRANCH  40  41
ENDBRANCH  39  40
ENDBRANCH  36  39
ENDBRANCH   6  32
TORSDOF 22
