REMARK  19 active torsions:
REMARK  status: ('A' for Active; 'I' for Inactive)
REMARK    1  A    between atoms: C2_2  and  C3_3 
REMARK    2  A    between atoms: C3_3  and  N1_4 
REMARK       I    between atoms: C4_6  and  N3_8 
REMARK    3  A    between atoms: N3_8  and  C5_10 
REMARK    4  A    between atoms: C6_15  and  C7_16 
REMARK    5  A    between atoms: C8_17  and  S1_18 
REMARK    6  A    between atoms: S1_18  and  N6_21 
REMARK    7  A    between atoms: N6_21  and  C9_23 
REMARK    8  A    between atoms: C9_23  and  C10_24 
REMARK    9  A    between atoms: C10_24  and  N7_25 
REMARK   10  A    between atoms: N7_25  and  C11_26 
REMARK   11  A    between atoms: C12_27  and  C13_28 
REMARK   12  A    between atoms: C13_28  and  C14_29 
REMARK   13  A    between atoms: C14_29  and  N8_30 
REMARK   14  A    between atoms: N8_30  and  C15_32 
REMARK   15  A    between atoms: C15_32  and  C16_33 
REMARK   16  A    between atoms: C16_33  and  C17_34 
REMARK   17  A    between atoms: C17_34  and  C18_35 
REMARK   18  A    between atoms: C18_35  and  N9_36 
REMARK   19  A    between atoms: C23_44  and  C24_45 
ROOT
HETATM    1  C9  UNL     1       0.867   0.088  -0.123  1.00  0.00     0.160 C 
ENDROOT
BRANCH   1   2
HETATM    2  N6  UNL     1       1.639   1.053  -0.935  1.00  0.00    -0.315 N 
ATOM      3  H6  UNL     1       1.245   1.837  -1.455  1.00  0.00     0.172 HD
BRANCH   2   4
HETATM    4  S1  UNL     1       3.330   0.635  -0.862  1.00  0.00     0.248 S 
HETATM    5  O1  UNL     1       3.704   0.755   0.608  1.00  0.00    -0.201 OA
HETATM    6  O2  UNL     1       4.082   1.703  -1.594  1.00  0.00    -0.201 OA
BRANCH   4   7
HETATM    7  C8  UNL     1       3.615  -0.925  -1.509  1.00  0.00     0.135 C 
HETATM    8  C7  UNL     1       4.755  -1.531  -1.569  1.00  0.00     0.064 C 
BRANCH   8   9
HETATM    9  C6  UNL     1       6.022  -1.002  -1.097  1.00  0.00     0.136 A 
HETATM   10  N5  UNL     1       6.344   0.157  -0.518  1.00  0.00    -0.271 N 
HETATM   11  N4  UNL     1       7.639   0.209  -0.253  1.00  0.00    -0.130 N 
ATOM     12  H5  UNL     1       5.680   0.903  -0.308  1.00  0.00     0.189 HD
HETATM   13  C5  UNL     1       8.204  -0.929  -0.656  1.00  0.00     0.701 A 
ATOM     14  H4  UNL     1       8.125   0.991   0.187  1.00  0.00     0.205 HD
HETATM   15  N13 UNL     1       7.224  -1.665  -1.169  1.00  0.00    -0.174 N 
ATOM     16  H13 UNL     1       7.347  -2.597  -1.564  1.00  0.00     0.186 HD
BRANCH  13  17
HETATM   17  N3  UNL     1       9.447  -1.228  -0.555  1.00  0.00    -0.162 N 
HETATM   18  C4  UNL     1      10.412  -0.372   0.012  1.00  0.00     0.202 C 
HETATM   19  N1  UNL     1      11.007   0.589  -0.571  1.00  0.00    -0.364 N 
HETATM   20  N2  UNL     1      10.753  -0.614   1.385  1.00  0.00    -0.063 NA
ATOM     21  H1  UNL     1      11.683   1.120  -0.022  1.00  0.00     0.162 HD
ATOM     22  H3  UNL     1       9.754  -2.136  -0.904  1.00  0.00     0.187 HD
BRANCH  19  23
HETATM   23  C3  UNL     1      10.809   0.991  -1.934  1.00  0.00     0.122 C 
BRANCH  23  24
HETATM   24  C2  UNL     1      11.483   2.346  -2.113  1.00  0.00     0.015 C 
HETATM   25  C1  UNL     1      12.958   2.236  -1.811  1.00  0.00     0.006 C 
ENDBRANCH  23  24
ENDBRANCH  19  23
ENDBRANCH  13  17
ENDBRANCH   8   9
ENDBRANCH   4   7
ENDBRANCH   2   4
ENDBRANCH   1   2
BRANCH   1  26
HETATM   26  C10 UNL     1      -0.533   0.420  -0.173  1.00  0.00     0.264 C 
BRANCH  26  27
HETATM   27  N7  UNL     1      -1.494  -0.430   0.563  1.00  0.00    -0.033 N 
HETATM   28  C20 UNL     1      -1.943  -1.409  -0.423  1.00  0.00     0.244 C 
HETATM   29  C21 UNL     1      -1.663  -2.784   0.121  1.00  0.00     0.031 C 
HETATM   30  C22 UNL     1      -1.474  -2.559   1.634  1.00  0.00     0.045 C 
HETATM   31  C23 UNL     1      -0.851  -1.170   1.556  1.00  0.00     0.284 C 
BRANCH  27  32
HETATM   32  C11 UNL     1      -2.554   0.438   0.857  1.00  0.00     0.199 C 
HETATM   33  C12 UNL     1      -3.744   0.177   1.608  1.00  0.00    -0.000 C 
BRANCH  33  34
HETATM   34  C13 UNL     1      -4.745  -0.837   1.187  1.00  0.00     0.047 C 
BRANCH  34  35
HETATM   35  C14 UNL     1      -5.907  -0.861   2.201  1.00  0.00     0.117 C 
BRANCH  35  36
HETATM   36  N8  UNL     1      -6.581   0.386   2.311  1.00  0.00    -0.421 N 
ATOM     37  H8  UNL     1      -6.530   0.962   3.151  1.00  0.00     0.153 HD
BRANCH  36  38
HETATM   38  C15 UNL     1      -7.337   0.776   1.157  1.00  0.00     0.113 C 
BRANCH  38  39
HETATM   39  C16 UNL     1      -8.507  -0.181   1.037  1.00  0.00     0.021 C 
BRANCH  39  40
HETATM   40  C17 UNL     1      -9.388   0.111  -0.137  1.00  0.00     0.021 C 
BRANCH  40  41
HETATM   41  C18 UNL     1      -8.600   0.011  -1.446  1.00  0.00     0.122 C 
BRANCH  41  42
HETATM   42  N9  UNL     1      -9.552   0.309  -2.499  1.00  0.00    -0.367 N 
HETATM   43  C19 UNL     1      -9.854   1.507  -2.837  1.00  0.00     0.196 C 
HETATM   44  N10 UNL     1     -10.792   1.732  -3.874  1.00  0.00    -0.067 NA
HETATM   45  N11 UNL     1      -9.279   2.655  -2.206  1.00  0.00    -0.067 NA
ATOM     46  H9  UNL     1      -9.998  -0.466  -2.990  1.00  0.00     0.161 HD
ENDBRANCH  41  42
ENDBRANCH  40  41
ENDBRANCH  39  40
ENDBRANCH  38  39
ENDBRANCH  36  38
ENDBRANCH  35  36
ENDBRANCH  34  35
ENDBRANCH  33  34
ENDBRANCH  27  32
BRANCH  31  47
HETATM   47  C24 UNL     1      -0.566  -0.591   2.852  1.00  0.00     0.262 C 
HETATM   48  N12 UNL     1       0.062  -1.401   3.831  1.00  0.00    -0.060 NA
HETATM   49  O3  UNL     1      -0.837   0.569   3.155  1.00  0.00    -0.275 OA
ENDBRANCH  31  47
ENDBRANCH  26  27
ENDBRANCH   1  26
TORSDOF 19
