REMARK  22 active torsions:
REMARK  status: ('A' for Active; 'I' for Inactive)
REMARK    1  A    between atoms: N1_1  and  C1_4 
REMARK    2  A    between atoms: C2_9  and  N4_10 
REMARK    3  A    between atoms: N4_10  and  C3_12 
REMARK    4  A    between atoms: C3_12  and  C4_13 
REMARK    5  A    between atoms: C4_13  and  N5_14 
REMARK       I    between atoms: N5_14  and  C5_16 
REMARK    6  A    between atoms: C5_16  and  C6_18 
REMARK    7  A    between atoms: C6_18  and  N6_19 
REMARK    8  A    between atoms: N6_19  and  C7_20 
REMARK       I    between atoms: N6_19  and  C24_49 
REMARK    9  A    between atoms: C7_20  and  C8_21 
REMARK   10  A    between atoms: C8_21  and  C9_22 
REMARK   11  A    between atoms: C9_22  and  N7_23 
REMARK       I    between atoms: N7_23  and  C10_25 
REMARK   12  A    between atoms: N9_27  and  C11_29 
REMARK   13  A    between atoms: C11_29  and  C12_30 
REMARK   14  A    between atoms: C12_30  and  C13_31 
REMARK   15  A    between atoms: C13_31  and  C14_32 
REMARK   16  A    between atoms: N10_36  and  C18_37 
REMARK   17  A    between atoms: C18_37  and  C19_38 
REMARK   18  A    between atoms: C19_38  and  C20_39 
REMARK   19  A    between atoms: C20_39  and  C21_40 
REMARK   20  A    between atoms: C21_40  and  C22_41 
REMARK   21  A    between atoms: C22_41  and  S1_42 
REMARK   22  A    between atoms: S1_42  and  N11_43 
ROOT
HETATM    1  C9  UNL     1      -1.140   3.955  -0.713  1.00  0.00     0.123 C 
ENDROOT
BRANCH   1   2
HETATM    2  C8  UNL     1      -2.148   3.754   0.410  1.00  0.00     0.039 C 
BRANCH   2   3
HETATM    3  C7  UNL     1      -3.493   3.392  -0.175  1.00  0.00     0.129 C 
BRANCH   3   4
HETATM    4  N6  UNL     1      -4.512   3.179   0.805  1.00  0.00    -0.328 N 
HETATM    5  C24 UNL     1      -5.313   4.245   1.257  1.00  0.00     0.331 C 
HETATM    6  N12 UNL     1      -6.325   4.040   2.215  1.00  0.00    -0.040 NA
HETATM    7  O4  UNL     1      -5.115   5.397   0.791  1.00  0.00    -0.251 OA
BRANCH   4   8
HETATM    8  C6  UNL     1      -4.757   1.841   1.360  1.00  0.00     0.229 C 
BRANCH   8   9
HETATM    9  C5  UNL     1      -5.760   1.125   0.518  1.00  0.00     0.235 C 
HETATM   10  N5  UNL     1      -6.200  -0.184   0.806  1.00  0.00    -0.358 N 
ATOM     11  H5  UNL     1      -5.822  -0.667   1.621  1.00  0.00     0.162 HD
HETATM   12  O1  UNL     1      -6.244   1.706  -0.499  1.00  0.00    -0.272 OA
BRANCH  10  13
HETATM   13  C4  UNL     1      -7.167  -0.856  -0.018  1.00  0.00     0.143 C 
BRANCH  13  14
HETATM   14  C3  UNL     1      -7.488  -2.246   0.489  1.00  0.00     0.157 C 
BRANCH  14  15
HETATM   15  N4  UNL     1      -8.459  -2.877  -0.365  1.00  0.00    -0.223 N 
ATOM     16  H4  UNL     1      -8.159  -3.549  -1.071  1.00  0.00     0.177 HD
BRANCH  15  17
HETATM   17  C2  UNL     1      -9.712  -2.591  -0.235  1.00  0.00     0.707 A 
HETATM   18  N3  UNL     1     -10.232  -1.736   0.644  1.00  0.00    -0.117 N 
HETATM   19  N2  UNL     1     -11.528  -1.694   0.487  1.00  0.00    -0.118 N 
ATOM     20  H3  UNL     1      -9.702  -1.199   1.331  1.00  0.00     0.206 HD
HETATM   21  C1  UNL     1     -11.845  -2.525  -0.497  1.00  0.00     0.705 A 
ATOM     22  H2  UNL     1     -12.180  -1.124   1.025  1.00  0.00     0.206 HD
HETATM   23  N13 UNL     1     -10.726  -3.096  -0.963  1.00  0.00    -0.020 N 
ATOM     24  H13 UNL     1     -10.656  -3.777  -1.719  1.00  0.00     0.203 HD
BRANCH  21  25
HETATM   25  N1  UNL     1     -13.036  -2.755  -0.944  1.00  0.00    -0.233 N 
ATOM     26  H12 UNL     1     -13.888  -2.320  -0.589  1.00  0.00     0.174 HD
ATOM     27  H11 UNL     1     -13.280  -3.394  -1.701  1.00  0.00     0.174 HD
ENDBRANCH  21  25
ENDBRANCH  15  17
ENDBRANCH  14  15
ENDBRANCH  13  14
ENDBRANCH  10  13
ENDBRANCH   8   9
ENDBRANCH   4   8
ENDBRANCH   3   4
ENDBRANCH   2   3
ENDBRANCH   1   2
BRANCH   1  28
HETATM   28  N7  UNL     1      -1.045   2.712  -1.437  1.00  0.00    -0.365 N 
HETATM   29  C10 UNL     1      -0.454   1.596  -0.783  1.00  0.00     0.183 C 
HETATM   30  N8  UNL     1       0.447   1.820   0.318  1.00  0.00    -0.064 NA
HETATM   31  N9  UNL     1      -0.704   0.395  -1.153  1.00  0.00    -0.365 N 
ATOM     32  H9  UNL     1      -1.339   0.218  -1.932  1.00  0.00     0.162 HD
ATOM     33  H7  UNL     1      -1.392   2.635  -2.393  1.00  0.00     0.162 HD
BRANCH  31  34
HETATM   34  C11 UNL     1      -0.073  -0.715  -0.451  1.00  0.00     0.122 C 
BRANCH  34  35
HETATM   35  C12 UNL     1       1.296  -0.873  -1.100  1.00  0.00     0.024 C 
BRANCH  35  36
HETATM   36  C13 UNL     1       2.088  -1.983  -0.474  1.00  0.00     0.041 C 
BRANCH  36  37
HETATM   37  C14 UNL     1       3.394  -2.033  -1.189  1.00  0.00    -0.043 A 
HETATM   38  C15 UNL     1       3.579  -2.839  -2.290  1.00  0.00     0.010 A 
HETATM   39  C16 UNL     1       4.823  -2.846  -2.930  1.00  0.00     0.018 A 
HETATM   40  C17 UNL     1       5.834  -2.032  -2.425  1.00  0.00     0.090 A 
HETATM   41  N10 UNL     1       5.629  -1.257  -1.351  1.00  0.00    -0.366 N 
HETATM   42  C23 UNL     1       4.443  -1.241  -0.730  1.00  0.00     0.097 A 
BRANCH  41  43
HETATM   43  C18 UNL     1       6.707  -0.428  -0.866  1.00  0.00     0.128 C 
BRANCH  43  44
HETATM   44  C19 UNL     1       7.534  -1.187   0.173  1.00  0.00     0.020 C 
BRANCH  44  45
HETATM   45  C20 UNL     1       8.665  -0.283   0.673  1.00  0.00     0.002 C 
BRANCH  45  46
HETATM   46  C21 UNL     1       9.457  -1.038   1.687  1.00  0.00     0.017 C 
BRANCH  46  47
HETATM   47  C22 UNL     1      10.600  -0.252   2.261  1.00  0.00     0.163 C 
BRANCH  47  48
HETATM   48  S1  UNL     1      11.785   0.275   1.082  1.00  0.00     0.224 S 
HETATM   49  O2  UNL     1      11.282   1.298   0.123  1.00  0.00    -0.206 OA
HETATM   50  O3  UNL     1      12.907   0.949   1.862  1.00  0.00    -0.206 OA
BRANCH  48  51
HETATM   51  N11 UNL     1      12.514  -1.057   0.252  1.00  0.00    -0.328 N 
ATOM     52 2H11 UNL     1      12.271  -2.030   0.439  1.00  0.00     0.168 HD
ATOM     53 1H11 UNL     1      13.204  -0.750  -0.434  1.00  0.00     0.168 HD
ENDBRANCH  48  51
ENDBRANCH  47  48
ENDBRANCH  46  47
ENDBRANCH  45  46
ENDBRANCH  44  45
ENDBRANCH  43  44
ENDBRANCH  41  43
ENDBRANCH  36  37
ENDBRANCH  35  36
ENDBRANCH  34  35
ENDBRANCH  31  34
ENDBRANCH   1  28
TORSDOF 22
