REMARK  1 active torsions:
REMARK  status: ('A' for Active; 'I' for Inactive)
REMARK    1  A    between atoms: C9_9  and  C10_10 
REMARK       I    between atoms: C10_10  and  N1_12 
ROOT
HETATM    1  C1  UNL     1      -2.976  -2.130   1.305  1.00  0.00     0.014 C 
HETATM    2  C2  UNL     1      -2.403  -1.661   0.207  1.00  0.00    -0.084 C 
HETATM    3  C3  UNL     1      -3.132  -1.058  -0.973  1.00  0.00     0.039 C 
HETATM    4  C4  UNL     1      -2.250   0.177  -1.204  1.00  0.00    -0.005 C 
HETATM    5  C5  UNL     1      -2.600   1.168  -0.160  1.00  0.00     0.005 C 
HETATM    6  C6  UNL     1      -1.531   2.170   0.138  1.00  0.00     0.001 C 
HETATM    7  C7  UNL     1      -0.141   1.665   0.124  1.00  0.00     0.006 C 
HETATM    8  C8  UNL     1       0.185   0.476  -0.650  1.00  0.00     0.004 C 
HETATM    9  C9  UNL     1       1.051  -0.498   0.169  1.00  0.00     0.083 C 
HETATM   10  C12 UNL     1      -0.075  -1.190   0.954  1.00  0.00     0.023 C 
HETATM   11  C13 UNL     1      -0.973  -1.595  -0.163  1.00  0.00     0.019 C 
HETATM   12  C14 UNL     1      -0.891  -0.409  -1.113  1.00  0.00     0.003 C 
ENDROOT
BRANCH   9  13
HETATM   13  C10 UNL     1       1.982   0.196   1.050  1.00  0.00     0.228 C 
HETATM   14  O1  UNL     1       1.949   0.037   2.298  1.00  0.00    -0.273 OA
HETATM   15  N1  UNL     1       2.943   1.063   0.513  1.00  0.00    -0.303 N 
HETATM   16  C11 UNL     1       4.081   0.612   0.071  1.00  0.00     0.203 C 
ATOM     17  H1  UNL     1       2.748   2.063   0.468  1.00  0.00     0.171 HD
HETATM   18  N2  UNL     1       4.385  -0.787   0.121  1.00  0.00    -0.066 NA
HETATM   19  N3  UNL     1       5.035   1.504  -0.467  1.00  0.00    -0.066 NA
ENDBRANCH   9  13
TORSDOF 1
