REMARK  9 active torsions:
REMARK  status: ('A' for Active; 'I' for Inactive)
REMARK    1  A    between atoms: N1_1  and  N2_4 
REMARK    2  A    between atoms: C1_5  and  N3_6 
REMARK       I    between atoms: N3_6  and  C2_8 
REMARK    3  A    between atoms: C2_8  and  C3_10 
REMARK    4  A    between atoms: C3_10  and  O2_11 
REMARK    5  A    between atoms: C3_10  and  C4_13 
REMARK    6  A    between atoms: C4_13  and  O3_14 
REMARK    7  A    between atoms: C5_16  and  O4_17 
REMARK    8  A    between atoms: C5_16  and  O5_19 
REMARK    9  A    between atoms: C6_21  and  N4_22 
ROOT
HETATM    1  N2  UNL     1       0.083   0.732  -0.113  1.00  0.00    -0.179 NA
HETATM    2  C1  UNL     1      -0.828  -0.188   0.535  1.00  0.00     0.247 A 
HETATM    3  C5  UNL     1       0.067  -1.324   0.194  1.00  0.00     0.232 A 
HETATM    4  C6  UNL     1       1.044  -0.302  -0.379  1.00  0.00     0.254 A 
ENDROOT
BRANCH   4   5
HETATM    5  N4  UNL     1       2.282  -0.184   0.363  1.00  0.00    -0.302 N 
HETATM    6  C7  UNL     1       2.386  -0.119   1.700  1.00  0.00     0.187 A 
HETATM    7  N5  UNL     1       3.695  -0.014   2.030  1.00  0.00    -0.345 N 
HETATM    8  C8  UNL     1       4.405  -0.013   0.896  1.00  0.00     0.146 A 
ATOM      9  H5  UNL     1       4.073   0.053   2.975  1.00  0.00     0.167 HD
HETATM   10  C9  UNL     1       5.775   0.071   0.640  1.00  0.00     0.277 A 
HETATM   11  C11 UNL     1       3.514  -0.121  -0.169  1.00  0.00     0.143 A 
HETATM   12  O6  UNL     1       6.596   0.169   1.597  1.00  0.00    -0.266 OA
HETATM   13  N6  UNL     1       6.239   0.050  -0.612  1.00  0.00    -0.318 N 
HETATM   14  C10 UNL     1       5.359  -0.054  -1.633  1.00  0.00     0.185 A 
ATOM     15  H6  UNL     1       7.241   0.111  -0.795  1.00  0.00     0.169 HD
HETATM   16  N7  UNL     1       4.035  -0.137  -1.408  1.00  0.00    -0.336 N 
ATOM     17  H7  UNL     1       3.404  -0.215  -2.206  1.00  0.00     0.168 HD
ENDBRANCH   4   5
BRANCH   1  18
HETATM   18  N1  UNL     1      -0.512   1.322  -1.216  1.00  0.00    -0.359 NA
ATOM     19  H12 UNL     1      -1.194   2.056  -1.027  1.00  0.00     0.171 HD
ATOM     20  H11 UNL     1       0.130   1.970  -1.673  1.00  0.00     0.171 HD
ENDBRANCH   1  18
BRANCH   3  21
HETATM   21  O4  UNL     1       0.580  -2.054   1.272  1.00  0.00    -0.360 OA
ATOM     22  H4  UNL     1       1.152  -2.780   1.054  1.00  0.00     0.213 HD
ENDBRANCH   3  21
BRANCH   3  23
HETATM   23  O5  UNL     1      -0.378  -2.202  -0.783  1.00  0.00    -0.360 OA
ATOM     24  H5  UNL     1       0.194  -2.928  -1.001  1.00  0.00     0.213 HD
ENDBRANCH   3  23
BRANCH   2  25
HETATM   25  N3  UNL     1      -2.159  -0.216   0.004  1.00  0.00    -0.335 N 
HETATM   26  C2  UNL     1      -3.309  -0.006   0.824  1.00  0.00     0.250 C 
HETATM   27  O1  UNL     1      -3.103   0.208   2.047  1.00  0.00    -0.271 OA
ATOM     28  H3  UNL     1      -2.289  -0.392  -0.992  1.00  0.00     0.164 HD
BRANCH  26  29
HETATM   29  C3  UNL     1      -4.677  -0.031   0.302  1.00  0.00     0.233 C 
BRANCH  29  30
HETATM   30  O2  UNL     1      -5.567   0.206   1.340  1.00  0.00    -0.384 OA
ATOM     31  H2  UNL     1      -6.454   0.190   1.001  1.00  0.00     0.210 HD
ENDBRANCH  29  30
BRANCH  29  32
HETATM   32  C4  UNL     1      -4.867   1.045  -0.741  1.00  0.00     0.205 C 
BRANCH  32  33
HETATM   33  O3  UNL     1      -4.631   2.308  -0.233  1.00  0.00    -0.398 OA
ATOM     34  H3  UNL     1      -4.750   2.985  -0.889  1.00  0.00     0.209 HD
ENDBRANCH  32  33
ENDBRANCH  29  32
ENDBRANCH  26  29
ENDBRANCH   2  25
TORSDOF 9
