REMARK  8 active torsions:
REMARK  status: ('A' for Active; 'I' for Inactive)
REMARK    1  A    between atoms: N2_9  and  C5_10 
REMARK    2  A    between atoms: C6_12  and  O4_13 
REMARK    3  A    between atoms: C6_12  and  C7_15 
REMARK    4  A    between atoms: C7_15  and  O5_16 
REMARK    5  A    between atoms: C8_18  and  O6_19 
REMARK    6  A    between atoms: C9_21  and  O7_22 
REMARK    7  A    between atoms: C9_21  and  C10_24 
REMARK    8  A    between atoms: C10_24  and  O8_25 
ROOT
HETATM    1  C5  UNL     1      -0.642   0.622  -0.480  1.00  0.00     0.279 C 
HETATM    2  O3  UNL     1      -1.317   1.312   0.508  1.00  0.00    -0.322 OA
HETATM    3  C6  UNL     1      -2.612   0.886   0.547  1.00  0.00     0.215 C 
HETATM    4  C8  UNL     1      -2.784  -0.291  -0.338  1.00  0.00     0.223 C 
HETATM    5  C9  UNL     1      -1.355  -0.674  -0.676  1.00  0.00     0.154 C 
ENDROOT
BRANCH   1   6
HETATM    6  N2  UNL     1       0.744   0.478  -0.052  1.00  0.00    -0.234 N 
HETATM    7  C1  UNL     1       1.142   0.776   1.197  1.00  0.00     0.333 A 
HETATM    8  O1  UNL     1       0.303   1.198   2.047  1.00  0.00    -0.246 OA
HETATM    9  N1  UNL     1       2.408   0.657   1.628  1.00  0.00    -0.293 N 
HETATM   10  C2  UNL     1       3.396   0.218   0.815  1.00  0.00     0.134 A 
ATOM     11  H1  UNL     1       2.630   0.904   2.592  1.00  0.00     0.172 HD
HETATM   12  C3  UNL     1       3.021  -0.100  -0.482  1.00  0.00     0.071 A 
HETATM   13  N4  UNL     1       4.791  -0.006   0.976  1.00  0.00    -0.288 N 
HETATM   14  C4  UNL     1       1.700   0.037  -0.889  1.00  0.00     0.265 A 
HETATM   15  C11 UNL     1       4.265  -0.552  -1.164  1.00  0.00     0.183 C 
HETATM   16  O2  UNL     1       1.440  -0.271  -2.080  1.00  0.00    -0.267 OA
HETATM   17  N3  UNL     1       5.322  -0.088  -0.312  1.00  0.00    -0.135 NA
ATOM     18  H4  UNL     1       5.301  -0.090   1.856  1.00  0.00     0.184 HD
ENDBRANCH   1   6
BRANCH   5  19
HETATM   19  O7  UNL     1      -1.368  -1.115  -1.985  1.00  0.00    -0.380 OA
ATOM     20  H7  UNL     1      -1.822  -1.940  -2.110  1.00  0.00     0.211 HD
ENDBRANCH   5  19
BRANCH   5  21
HETATM   21  C10 UNL     1      -0.823  -1.721   0.278  1.00  0.00     0.209 C 
BRANCH  21  22
HETATM   22  O8  UNL     1      -1.597  -2.881   0.250  1.00  0.00    -0.398 OA
ATOM     23  H8  UNL     1      -1.263  -3.538   0.849  1.00  0.00     0.209 HD
ENDBRANCH  21  22
ENDBRANCH   5  21
BRANCH   3  24
HETATM   24  O4  UNL     1      -3.029   0.522   1.840  1.00  0.00    -0.362 OA
ATOM     25  H4  UNL     1      -3.931   0.225   1.867  1.00  0.00     0.213 HD
ENDBRANCH   3  24
BRANCH   3  26
HETATM   26  C7  UNL     1      -3.556   2.017   0.121  1.00  0.00     0.235 C 
BRANCH  26  27
HETATM   27  O5  UNL     1      -3.193   2.366  -1.180  1.00  0.00    -0.395 OA
ATOM     28  H5  UNL     1      -3.778   3.067  -1.444  1.00  0.00     0.209 HD
ENDBRANCH  26  27
ENDBRANCH   3  26
BRANCH   4  29
HETATM   29  O6  UNL     1      -3.523  -1.317   0.176  1.00  0.00    -0.387 OA
ATOM     30  H6  UNL     1      -3.633  -2.071  -0.391  1.00  0.00     0.210 HD
ENDBRANCH   4  29
TORSDOF 8
