REMARK  17 active torsions:
REMARK  status: ('A' for Active; 'I' for Inactive)
REMARK    1  A    between atoms: C2_2  and  C3_3 
REMARK    2  A    between atoms: C3_3  and  C4_4 
REMARK    3  A    between atoms: C4_4  and  C5_5 
REMARK    4  A    between atoms: C7_7  and  C8_8 
REMARK    5  A    between atoms: C8_8  and  C9_9 
REMARK    6  A    between atoms: C9_9  and  C10_10 
REMARK    7  A    between atoms: C12_12  and  C13_13 
REMARK    8  A    between atoms: C13_13  and  C14_14 
REMARK    9  A    between atoms: C17_17  and  C18_18 
REMARK   10  A    between atoms: C18_18  and  C19_19 
REMARK   11  A    between atoms: C19_19  and  N1_20 
REMARK       I    between atoms: N1_20  and  C20_22 
REMARK   12  A    between atoms: N3_24  and  C21_26 
REMARK   13  A    between atoms: C21_26  and  C22_27 
REMARK   14  A    between atoms: C22_27  and  N4_28 
REMARK   15  A    between atoms: N4_28  and  N5_29 
REMARK   16  A    between atoms: N4_28  and  C23_32 
REMARK   17  A    between atoms: C23_32  and  C24_33 
ROOT
HETATM    1  C18 UNL     1      -0.839   1.036   0.267  1.00  0.00     0.077 C 
ENDROOT
BRANCH   1   2
HETATM    2  C17 UNL     1      -2.064   0.436  -0.289  1.00  0.00     0.019 A 
HETATM    3  C12 UNL     1      -2.680  -0.647   0.314  1.00  0.00    -0.029 A 
HETATM    4  C7  UNL     1      -3.834  -1.167  -0.287  1.00  0.00    -0.048 A 
HETATM    5  C6  UNL     1      -4.307  -0.563  -1.458  1.00  0.00     0.033 A 
HETATM    6  C5  UNL     1      -3.696   0.506  -2.043  1.00  0.00     0.012 A 
HETATM    7  N6  UNL     1      -2.596   0.957  -1.425  1.00  0.00    -0.357 N 
HETATM    8  C30 UNL     1      -1.976   2.137  -2.031  1.00  0.00     0.156 C 
BRANCH   3   9
HETATM    9  C13 UNL     1      -2.231  -1.195   1.594  1.00  0.00     0.045 C 
BRANCH   9  10
HETATM   10  C14 UNL     1      -2.365  -0.383   2.835  1.00  0.00    -0.018 C 
HETATM   11  C15 UNL     1      -3.679   0.142   3.242  1.00  0.00     0.010 C 
HETATM   12  C16 UNL     1      -1.996  -1.352   4.050  1.00  0.00     0.010 C 
ENDBRANCH   9  10
ENDBRANCH   3   9
BRANCH   4  13
HETATM   13  C8  UNL     1      -4.541  -2.370   0.152  1.00  0.00     0.039 C 
BRANCH  13  14
HETATM   14  C9  UNL     1      -5.566  -2.267   1.205  1.00  0.00     0.004 C 
BRANCH  14  15
HETATM   15  C10 UNL     1      -6.685  -1.285   0.812  1.00  0.00    -0.004 C 
HETATM   16  C11 UNL     1      -7.714  -1.203   1.909  1.00  0.00     0.005 C 
ENDBRANCH  14  15
ENDBRANCH  13  14
ENDBRANCH   4  13
BRANCH   6  17
HETATM   17  C4  UNL     1      -4.244   1.110  -3.304  1.00  0.00     0.061 C 
BRANCH  17  18
HETATM   18  C3  UNL     1      -5.250   2.186  -2.996  1.00  0.00     0.032 C 
BRANCH  18  19
HETATM   19  C2  UNL     1      -5.807   2.824  -4.192  1.00  0.00    -0.037 C 
HETATM   20  C1  UNL     1      -7.091   2.820  -4.501  1.00  0.00     0.007 C 
ENDBRANCH  18  19
ENDBRANCH  17  18
ENDBRANCH   6  17
ENDBRANCH   1   2
BRANCH   1  21
HETATM   21  C19 UNL     1       0.432   0.292   0.167  1.00  0.00     0.128 C 
BRANCH  21  22
HETATM   22  N1  UNL     1       0.896  -0.092  -1.124  1.00  0.00    -0.364 N 
HETATM   23  C20 UNL     1       2.202  -0.724  -1.129  1.00  0.00     0.184 C 
HETATM   24  N2  UNL     1       2.411  -2.068  -1.495  1.00  0.00    -0.064 NA
HETATM   25  N3  UNL     1       3.217  -0.014  -0.782  1.00  0.00    -0.363 N 
ATOM     26  H3  UNL     1       3.019   0.953  -0.527  1.00  0.00     0.162 HD
ATOM     27  H1  UNL     1       0.355   0.064  -1.974  1.00  0.00     0.162 HD
BRANCH  25  28
HETATM   28  C21 UNL     1       4.581  -0.410  -0.710  1.00  0.00     0.138 C 
BRANCH  28  29
HETATM   29  C22 UNL     1       5.498   0.673  -1.194  1.00  0.00     0.133 C 
BRANCH  29  30
HETATM   30  N4  UNL     1       6.885   0.359  -1.141  1.00  0.00    -0.232 NA
BRANCH  30  31
HETATM   31  N5  UNL     1       7.671   1.321  -1.778  1.00  0.00    -0.363 NA
ATOM     32  H52 UNL     1       7.347   1.390  -2.743  1.00  0.00     0.171 HD
ATOM     33  H51 UNL     1       8.665   1.096  -1.740  1.00  0.00     0.171 HD
ENDBRANCH  30  31
BRANCH  30  34
HETATM   34  C23 UNL     1       7.347   0.260   0.233  1.00  0.00     0.151 C 
BRANCH  34  35
HETATM   35  C24 UNL     1       8.822   0.007   0.244  1.00  0.00    -0.043 A 
HETATM   36  C25 UNL     1       9.363  -1.254   0.161  1.00  0.00     0.008 A 
HETATM   37  C26 UNL     1      10.723  -1.411   0.178  1.00  0.00     0.001 A 
HETATM   38  C27 UNL     1      11.587  -0.347   0.277  1.00  0.00     0.000 A 
HETATM   39  C28 UNL     1      11.069   0.925   0.362  1.00  0.00     0.001 A 
HETATM   40  C29 UNL     1       9.710   1.081   0.345  1.00  0.00     0.008 A 
ENDBRANCH  34  35
ENDBRANCH  30  34
ENDBRANCH  29  30
ENDBRANCH  28  29
ENDBRANCH  25  28
ENDBRANCH  21  22
ENDBRANCH   1  21
TORSDOF 17
