REMARK  6 active torsions:
REMARK  status: ('A' for Active; 'I' for Inactive)
REMARK    1  A    between atoms: O1_2  and  C2_3 
REMARK    2  A    between atoms: C2_3  and  C3_4 
REMARK    3  A    between atoms: C3_4  and  C4_5 
REMARK    4  A    between atoms: C4_5  and  C5_6 
REMARK    5  A    between atoms: C8_11  and  N2_12 
REMARK    6  A    between atoms: C9_17  and  N4_18 
ROOT
HETATM    1  C5  UNL     1      -0.143  -0.649  -0.474  1.00  0.00    -0.004 C 
HETATM    2  C6  UNL     1       0.121   0.710   0.082  1.00  0.00     0.063 C 
HETATM    3  C7  UNL     1       1.590   0.700   0.256  1.00  0.00     0.037 A 
HETATM    4  N1  UNL     1       2.502   1.710   0.261  1.00  0.00    -0.195 N 
ATOM      5  H1  UNL     1       2.193   2.672   0.121  1.00  0.00     0.184 HD
HETATM    6  C8  UNL     1       3.804   1.450   0.448  1.00  0.00     0.677 A 
HETATM    7  N3  UNL     1       4.180   0.172   0.628  1.00  0.00    -0.177 N 
ATOM      8  H3  UNL     1       5.171  -0.026   0.769  1.00  0.00     0.185 HD
HETATM    9  C9  UNL     1       3.314  -0.861   0.631  1.00  0.00     0.122 A 
HETATM   10  C10 UNL     1       1.975  -0.606   0.441  1.00  0.00     0.009 A 
HETATM   11  C11 UNL     1       0.767  -1.502   0.383  1.00  0.00     0.049 C 
ENDROOT
BRANCH   1  12
HETATM   12  C4  UNL     1      -1.565  -1.086  -0.439  1.00  0.00     0.007 C 
BRANCH  12  13
HETATM   13  C3  UNL     1      -2.374  -0.087  -1.262  1.00  0.00     0.027 C 
BRANCH  13  14
HETATM   14  C2  UNL     1      -3.820  -0.452  -1.281  1.00  0.00     0.167 C 
BRANCH  14  15
HETATM   15  O1  UNL     1      -4.337  -0.475  -0.014  1.00  0.00    -0.396 OA
HETATM   16  C1  UNL     1      -4.249   0.741   0.629  1.00  0.00     0.201 C 
ENDBRANCH  14  15
ENDBRANCH  13  14
ENDBRANCH  12  13
ENDBRANCH   1  12
BRANCH   9  17
HETATM   17  N4  UNL     1       3.686  -2.083   0.805  1.00  0.00    -0.385 N 
ATOM     18  H42 UNL     1       4.678  -2.272   0.946  1.00  0.00     0.157 HD
ATOM     19  H41 UNL     1       3.031  -2.865   0.807  1.00  0.00     0.157 HD
ENDBRANCH   9  17
BRANCH   6  20
HETATM   20  N2  UNL     1       4.636   2.433   0.445  1.00  0.00    -0.234 N 
ATOM     21  H22 UNL     1       4.351   3.403   0.308  1.00  0.00     0.174 HD
ATOM     22  H21 UNL     1       5.626   2.235   0.587  1.00  0.00     0.174 HD
ENDBRANCH   6  20
TORSDOF 6
