REMARK  10 active torsions:
REMARK  status: ('A' for Active; 'I' for Inactive)
REMARK    1  A    between atoms: O1_2  and  N1_3 
REMARK    2  A    between atoms: N1_3  and  O2_4 
REMARK    3  A    between atoms: N1_3  and  N2_6 
REMARK       I    between atoms: N2_6  and  C2_8 
REMARK    4  A    between atoms: N4_10  and  C3_12 
REMARK    5  A    between atoms: C3_12  and  C4_13 
REMARK    6  A    between atoms: C4_13  and  C5_14 
REMARK    7  A    between atoms: C5_14  and  N5_15 
REMARK    8  A    between atoms: N5_15  and  C6_17 
REMARK    9  A    between atoms: C9_23  and  C10_24 
REMARK   10  A    between atoms: C10_24  and  O3_25 
ROOT
HETATM    1  C6  UNL     1      -2.504  -0.116   1.050  1.00  0.00     0.682 A 
HETATM    2  N6  UNL     1      -3.099  -0.999   0.232  1.00  0.00    -0.181 N 
ATOM      3  H6  UNL     1      -2.690  -1.928   0.127  1.00  0.00     0.185 HD
HETATM    4  C7  UNL     1      -4.231  -0.696  -0.463  1.00  0.00     0.143 A 
HETATM    5  C8  UNL     1      -4.818  -1.681  -1.320  1.00  0.00     0.119 C 
HETATM    6  N7  UNL     1      -5.282  -2.490  -2.002  1.00  0.00    -0.190 NA
HETATM    7  C9  UNL     1      -4.789   0.548  -0.330  1.00  0.00     0.072 A 
HETATM    8  C11 UNL     1      -4.182   1.459   0.508  1.00  0.00     0.271 A 
HETATM    9  O4  UNL     1      -4.699   2.582   0.619  1.00  0.00    -0.267 OA
HETATM   10  N8  UNL     1      -3.063   1.101   1.171  1.00  0.00    -0.156 N 
ATOM     11  H8  UNL     1      -2.623   1.782   1.790  1.00  0.00     0.187 HD
ENDROOT
BRANCH   7  12
HETATM   12  C10 UNL     1      -6.013   0.873  -1.084  1.00  0.00     0.211 C 
BRANCH  12  13
HETATM   13  O3  UNL     1      -6.428   2.180  -0.819  1.00  0.00    -0.396 OA
ATOM     14  H3  UNL     1      -7.217   2.389  -1.305  1.00  0.00     0.209 HD
ENDBRANCH  12  13
ENDBRANCH   7  12
BRANCH   1  15
HETATM   15  N5  UNL     1      -1.438  -0.380   1.715  1.00  0.00    -0.226 N 
ATOM     16  H5  UNL     1      -1.068   0.362   2.309  1.00  0.00     0.177 HD
BRANCH  15  17
HETATM   17  C5  UNL     1      -0.724  -1.610   1.702  1.00  0.00     0.139 C 
BRANCH  17  18
HETATM   18  C4  UNL     1       0.212  -1.749   0.521  1.00  0.00     0.040 C 
BRANCH  18  19
HETATM   19  C3  UNL     1       1.250  -0.656   0.507  1.00  0.00     0.124 C 
BRANCH  19  20
HETATM   20  N4  UNL     1       2.099  -0.869  -0.656  1.00  0.00    -0.363 N 
HETATM   21  C2  UNL     1       3.255  -0.310  -0.769  1.00  0.00     0.202 C 
HETATM   22  N2  UNL     1       3.803   0.556   0.216  1.00  0.00    -0.245 N 
HETATM   23  N3  UNL     1       4.010  -0.581  -1.943  1.00  0.00    -0.062 NA
ATOM     24  H2  UNL     1       3.177   1.183   0.722  1.00  0.00     0.188 HD
ATOM     25  H4  UNL     1       1.769  -1.479  -1.404  1.00  0.00     0.162 HD
BRANCH  22  26
HETATM   26  N1  UNL     1       5.169   0.580   0.516  1.00  0.00     0.037 NA
BRANCH  26  27
HETATM   27  O1  UNL     1       5.919   0.277  -0.579  1.00  0.00    -0.266 OA
HETATM   28  C1  UNL     1       6.467   1.399  -1.174  1.00  0.00     0.234 C 
ENDBRANCH  26  27
BRANCH  26  29
HETATM   29  O2  UNL     1       5.558   1.729   1.070  1.00  0.00    -0.270 OA
ATOM     30  H2  UNL     1       5.035   1.940   1.834  1.00  0.00     0.241 HD
ENDBRANCH  26  29
ENDBRANCH  22  26
ENDBRANCH  19  20
ENDBRANCH  18  19
ENDBRANCH  17  18
ENDBRANCH  15  17
ENDBRANCH   1  15
TORSDOF 10
