REMARK  16 active torsions:
REMARK  status: ('A' for Active; 'I' for Inactive)
REMARK    1  A    between atoms: C2_2  and  C3_3 
REMARK    2  A    between atoms: C3_3  and  N1_4 
REMARK       I    between atoms: C4_6  and  N3_8 
REMARK    3  A    between atoms: C5_10  and  C6_11 
REMARK    4  A    between atoms: C5_10  and  C21_32 
REMARK    5  A    between atoms: C6_11  and  C7_12 
REMARK    6  A    between atoms: C7_12  and  C8_13 
REMARK    7  A    between atoms: C8_13  and  C9_14 
REMARK    8  A    between atoms: C8_13  and  N4_17 
REMARK    9  A    between atoms: N4_17  and  C11_19 
REMARK   10  A    between atoms: C11_19  and  C12_20 
REMARK       I    between atoms: C12_20  and  N5_22 
REMARK   11  A    between atoms: N5_22  and  C13_24 
REMARK   12  A    between atoms: C13_24  and  C14_25 
REMARK   13  A    between atoms: C21_32  and  N6_33 
REMARK       I    between atoms: N6_33  and  C22_35 
REMARK   14  A    between atoms: C22_35  and  C23_37 
REMARK   15  A    between atoms: C23_37  and  C24_38 
REMARK   16  A    between atoms: C27_41  and  C28_42 
ROOT
HETATM    1  N1  UNL     1      -2.675   3.270  -0.007  1.00  0.00    -0.364 N 
ATOM      2  H1  UNL     1      -2.552   2.843   0.911  1.00  0.00     0.162 HD
HETATM    3  C4  UNL     1      -2.768   2.505  -1.059  1.00  0.00     0.188 C 
HETATM    4  N2  UNL     1      -2.938   3.161  -2.311  1.00  0.00    -0.064 NA
HETATM    5  N3  UNL     1      -2.697   1.142  -0.870  1.00  0.00    -0.336 N 
ATOM      6  H3  UNL     1      -3.436   0.792  -0.261  1.00  0.00     0.168 HD
HETATM    7  C5  UNL     1      -1.934   0.233  -1.274  1.00  0.00     0.007 C 
ENDROOT
BRANCH   7   8
HETATM    8  C6  UNL     1      -0.766   0.389  -2.161  1.00  0.00     0.057 C 
BRANCH   8   9
HETATM    9  C7  UNL     1       0.491  -0.254  -1.714  1.00  0.00     0.053 C 
BRANCH   9  10
HETATM   10  C8  UNL     1       1.053   0.247  -0.446  1.00  0.00     0.323 C 
BRANCH  10  11
HETATM   11  C9  UNL     1       1.433   1.667  -0.525  1.00  0.00     0.207 C 
HETATM   12  O1  UNL     1       0.730   2.620  -0.892  1.00  0.00    -0.646 OA
HETATM   13  O2  UNL     1       2.759   2.017  -0.140  1.00  0.00    -0.646 OA
ENDBRANCH  10  11
BRANCH  10  14
HETATM   14  N4  UNL     1       2.198  -0.562   0.013  1.00  0.00     0.107 N 
HETATM   15  C10 UNL     1       1.646  -1.900   0.301  1.00  0.00     0.311 C 
BRANCH  14  16
HETATM   16  C11 UNL     1       3.137  -0.752  -1.082  1.00  0.00     0.375 C 
BRANCH  16  17
HETATM   17  C12 UNL     1       4.340  -1.435  -0.604  1.00  0.00     0.246 C 
HETATM   18  O3  UNL     1       4.456  -1.769   0.604  1.00  0.00    -0.272 OA
HETATM   19  N5  UNL     1       5.441  -1.761  -1.457  1.00  0.00    -0.355 N 
ATOM     20  H5  UNL     1       5.374  -1.504  -2.442  1.00  0.00     0.162 HD
BRANCH  19  21
HETATM   21  C13 UNL     1       6.633  -2.426  -1.015  1.00  0.00     0.161 C 
BRANCH  21  22
HETATM   22  C14 UNL     1       7.541  -1.519  -0.260  1.00  0.00    -0.041 A 
HETATM   23  C15 UNL     1       7.303  -0.201  -0.025  1.00  0.00     0.009 A 
HETATM   24  C16 UNL     1       8.207   0.563   0.693  1.00  0.00     0.007 A 
HETATM   25  C17 UNL     1       9.377   0.027   1.197  1.00  0.00    -0.062 A 
HETATM   26  C18 UNL     1      10.350   0.847   1.971  1.00  0.00     0.048 C 
HETATM   27  C19 UNL     1       9.632  -1.312   0.966  1.00  0.00     0.007 A 
HETATM   28  C20 UNL     1       8.705  -2.065   0.238  1.00  0.00     0.009 A 
ENDBRANCH  21  22
ENDBRANCH  19  21
ENDBRANCH  16  17
ENDBRANCH  14  16
ENDBRANCH  10  14
ENDBRANCH   9  10
ENDBRANCH   8   9
ENDBRANCH   7   8
BRANCH   7  29
HETATM   29  C21 UNL     1      -2.323  -1.175  -0.856  1.00  0.00     0.175 C 
BRANCH  29  30
HETATM   30  N6  UNL     1      -3.393  -1.151   0.099  1.00  0.00    -0.356 N 
HETATM   31  C22 UNL     1      -3.357  -0.569   1.381  1.00  0.00     0.222 C 
HETATM   32  O4  UNL     1      -2.321  -0.007   1.801  1.00  0.00    -0.273 OA
ATOM     33  H6  UNL     1      -4.266  -1.600  -0.178  1.00  0.00     0.162 HD
BRANCH  31  34
HETATM   34  C23 UNL     1      -4.544  -0.612   2.253  1.00  0.00     0.141 C 
BRANCH  34  35
HETATM   35  C24 UNL     1      -5.642  -1.398   1.637  1.00  0.00    -0.049 A 
HETATM   36  C25 UNL     1      -5.692  -2.772   1.901  1.00  0.00     0.008 A 
HETATM   37  C26 UNL     1      -6.712  -3.496   1.331  1.00  0.00     0.015 A 
HETATM   38  C27 UNL     1      -7.651  -2.903   0.533  1.00  0.00     0.004 A 
HETATM   39  C29 UNL     1      -7.590  -1.553   0.282  1.00  0.00     0.015 A 
HETATM   40  C30 UNL     1      -6.581  -0.803   0.839  1.00  0.00     0.008 A 
BRANCH  38  41
HETATM   41  C28 UNL     1      -8.713  -3.687  -0.054  1.00  0.00     0.120 C 
HETATM   42  N7  UNL     1      -9.631  -3.219  -0.817  1.00  0.00    -0.387 N 
ATOM     43  H72 UNL     1      -9.610  -2.221  -1.026  1.00  0.00     0.157 HD
ATOM     44  H71 UNL     1     -10.381  -3.773  -1.231  1.00  0.00     0.157 HD
HETATM   45  N8  UNL     1      -8.743  -5.099   0.241  1.00  0.00    -0.082 NA
ENDBRANCH  38  41
ENDBRANCH  34  35
ENDBRANCH  31  34
ENDBRANCH  29  30
ENDBRANCH   7  29
BRANCH   1  46
HETATM   46  C3  UNL     1      -2.742   4.696  -0.114  1.00  0.00     0.122 C 
BRANCH  46  47
HETATM   47  C2  UNL     1      -1.434   5.381   0.230  1.00  0.00     0.015 C 
HETATM   48  C1  UNL     1      -1.683   6.880   0.071  1.00  0.00     0.006 C 
ENDBRANCH  46  47
ENDBRANCH   1  46
TORSDOF 16
