REMARK  16 active torsions:
REMARK  status: ('A' for Active; 'I' for Inactive)
REMARK    1  A    between atoms: N1_5  and  C5_6 
REMARK    2  A    between atoms: C5_6  and  C6_7 
REMARK    3  A    between atoms: C6_7  and  C7_8 
REMARK    4  A    between atoms: C7_8  and  C8_9 
REMARK    5  A    between atoms: C8_9  and  C9_10 
REMARK    6  A    between atoms: C9_10  and  C10_11 
REMARK    7  A    between atoms: C10_11  and  C11_12 
REMARK    8  A    between atoms: C11_12  and  C12_13 
REMARK    9  A    between atoms: C12_13  and  C13_14 
REMARK   10  A    between atoms: C13_14  and  C14_15 
REMARK   11  A    between atoms: C14_15  and  C15_16 
REMARK   12  A    between atoms: C15_16  and  C16_17 
REMARK   13  A    between atoms: C16_17  and  C17_18 
REMARK       I    between atoms: C17_18  and  N2_20 
REMARK   14  A    between atoms: N2_20  and  C18_22 
REMARK   15  A    between atoms: C21_28  and  N4_29 
REMARK       I    between atoms: N4_29  and  C22_31 
REMARK   16  A    between atoms: C22_31  and  C23_33 
REMARK       I    between atoms: C23_33  and  N5_35 
ROOT
HETATM    1  C18 UNL     1      -4.314  -1.802  -3.177  1.00  0.00     0.197 C 
HETATM    2  C19 UNL     1      -4.804  -3.213  -3.138  1.00  0.00     0.169 C 
HETATM    3  N3  UNL     1      -5.614  -3.420  -1.962  1.00  0.00    -0.356 N 
ATOM      4  H3  UNL     1      -5.526  -4.335  -1.520  1.00  0.00     0.162 HD
HETATM    5  C20 UNL     1      -6.523  -2.514  -1.334  1.00  0.00     0.242 C 
HETATM    6  O2  UNL     1      -7.144  -2.956  -0.343  1.00  0.00    -0.271 OA
HETATM    7  C21 UNL     1      -6.794  -1.080  -1.765  1.00  0.00     0.194 C 
HETATM    8  C27 UNL     1      -6.630  -1.064  -3.234  1.00  0.00     0.150 C 
HETATM    9  N8  UNL     1      -5.288  -0.860  -3.663  1.00  0.00    -0.398 N 
ATOM     10  H8  UNL     1      -5.031  -0.090  -4.280  1.00  0.00     0.155 HD
ENDROOT
BRANCH   1  11
HETATM   11  N2  UNL     1      -3.655  -1.395  -1.967  1.00  0.00    -0.339 N 
HETATM   12  C17 UNL     1      -2.489  -0.573  -2.055  1.00  0.00     0.219 C 
HETATM   13  O1  UNL     1      -2.092  -0.239  -3.194  1.00  0.00    -0.274 OA
ATOM     14  H2  UNL     1      -4.014  -1.688  -1.058  1.00  0.00     0.164 HD
BRANCH  12  15
HETATM   15  C16 UNL     1      -1.771  -0.125  -0.837  1.00  0.00     0.103 C 
BRANCH  15  16
HETATM   16  C15 UNL     1      -0.624   0.763  -1.108  1.00  0.00     0.009 C 
BRANCH  16  17
HETATM   17  C14 UNL     1       0.500   0.247  -1.924  1.00  0.00     0.000 C 
BRANCH  17  18
HETATM   18  C13 UNL     1       1.174  -0.987  -1.360  1.00  0.00     0.000 C 
BRANCH  18  19
HETATM   19  C12 UNL     1       1.731  -0.743   0.019  1.00  0.00     0.000 C 
BRANCH  19  20
HETATM   20  C11 UNL     1       2.394  -2.047   0.472  1.00  0.00     0.000 C 
BRANCH  20  21
HETATM   21  C10 UNL     1       2.956  -1.918   1.847  1.00  0.00     0.000 C 
BRANCH  21  22
HETATM   22  C9  UNL     1       3.982  -0.817   1.909  1.00  0.00     0.000 C 
BRANCH  22  23
HETATM   23  C8  UNL     1       5.167  -1.010   1.018  1.00  0.00     0.000 C 
BRANCH  23  24
HETATM   24  C7  UNL     1       6.096   0.163   1.146  1.00  0.00     0.002 C 
BRANCH  24  25
HETATM   25  C6  UNL     1       6.610   0.374   2.528  1.00  0.00     0.020 C 
BRANCH  25  26
HETATM   26  C5  UNL     1       7.548   1.540   2.660  1.00  0.00     0.128 C 
BRANCH  26  27
HETATM   27  N1  UNL     1       8.746   1.442   1.860  1.00  0.00    -0.366 N 
HETATM   28  C4  UNL     1       8.854   1.925   0.601  1.00  0.00     0.091 A 
HETATM   29  C3  UNL     1      10.015   1.828  -0.154  1.00  0.00     0.024 A 
HETATM   30  C2  UNL     1      11.146   1.203   0.389  1.00  0.00    -0.059 A 
HETATM   31  C1  UNL     1      12.406   1.087  -0.394  1.00  0.00     0.048 C 
HETATM   32  C29 UNL     1      11.030   0.715   1.666  1.00  0.00     0.024 A 
HETATM   33  C28 UNL     1       9.842   0.847   2.359  1.00  0.00     0.091 A 
ENDBRANCH  26  27
ENDBRANCH  25  26
ENDBRANCH  24  25
ENDBRANCH  23  24
ENDBRANCH  22  23
ENDBRANCH  21  22
ENDBRANCH  20  21
ENDBRANCH  19  20
ENDBRANCH  18  19
ENDBRANCH  17  18
ENDBRANCH  16  17
ENDBRANCH  15  16
ENDBRANCH  12  15
ENDBRANCH   1  11
BRANCH   7  34
HETATM   34  N4  UNL     1      -8.075  -0.691  -1.251  1.00  0.00    -0.338 N 
HETATM   35  C22 UNL     1      -8.079  -0.010   0.035  1.00  0.00     0.310 C 
HETATM   36  O3  UNL     1      -7.030   0.206   0.615  1.00  0.00    -0.262 OA
ATOM     37  H4  UNL     1      -8.938  -0.882  -1.760  1.00  0.00     0.163 HD
BRANCH  35  38
HETATM   38  C23 UNL     1      -9.407   0.389   0.571  1.00  0.00     0.327 C 
HETATM   39  O4  UNL     1     -10.401   0.176  -0.137  1.00  0.00    -0.261 OA
HETATM   40  N5  UNL     1      -9.511   0.979   1.832  1.00  0.00    -0.151 N 
HETATM   41  C24 UNL     1      -9.865   2.154   2.140  1.00  0.00     0.684 A 
ATOM     42  H5  UNL     1      -9.267   0.376   2.618  1.00  0.00     0.188 HD
HETATM   43  N6  UNL     1     -10.236   3.154   1.350  1.00  0.00    -0.200 N 
HETATM   44  N7  UNL     1      -9.959   2.604   3.426  1.00  0.00    -0.200 N 
HETATM   45  C25 UNL     1     -10.566   4.228   2.072  1.00  0.00     0.123 A 
ATOM     46  H6  UNL     1     -10.265   3.108   0.331  1.00  0.00     0.183 HD
HETATM   47  C26 UNL     1     -10.384   3.862   3.405  1.00  0.00     0.123 A 
ATOM     48  H7  UNL     1      -9.739   2.064   4.263  1.00  0.00     0.183 HD
ENDBRANCH  35  38
ENDBRANCH   7  34
TORSDOF 16
