REMARK  16 active torsions:
REMARK  status: ('A' for Active; 'I' for Inactive)
REMARK    1  A    between atoms: N3_4  and  C2_6 
REMARK    2  A    between atoms: C2_6  and  C3_7 
REMARK    3  A    between atoms: C3_7  and  C4_8 
REMARK    4  A    between atoms: C4_8  and  C5_9 
REMARK    5  A    between atoms: C5_9  and  C6_10 
REMARK    6  A    between atoms: C5_9  and  C20_33 
REMARK    7  A    between atoms: C6_10  and  C7_11 
REMARK    8  A    between atoms: C7_11  and  C8_12 
REMARK    9  A    between atoms: C8_12  and  N4_13 
REMARK       I    between atoms: C9_15  and  N6_17 
REMARK   10  A    between atoms: N6_17  and  C10_19 
REMARK   11  A    between atoms: C10_19  and  C11_20 
REMARK   12  A    between atoms: C11_20  and  C12_21 
REMARK   13  A    between atoms: C12_21  and  C13_22 
REMARK       I    between atoms: C20_33  and  N9_35 
REMARK   14  A    between atoms: N9_35  and  C21_37 
REMARK   15  A    between atoms: C21_37  and  C22_38 
REMARK   16  A    between atoms: C25_41  and  N10_42 
ROOT
HETATM    1  C5  UNL     1       0.711  -0.593   1.600  1.00  0.00     0.078 C 
ENDROOT
BRANCH   1   2
HETATM    2  C4  UNL     1       1.336   0.327   2.617  1.00  0.00     0.015 C 
BRANCH   2   3
HETATM    3  C3  UNL     1       2.412   1.220   2.054  1.00  0.00     0.020 C 
BRANCH   3   4
HETATM    4  C2  UNL     1       2.921   2.044   3.248  1.00  0.00     0.122 C 
BRANCH   4   5
HETATM    5  N3  UNL     1       3.444   1.099   4.209  1.00  0.00    -0.367 N 
HETATM    6  C1  UNL     1       4.073   1.440   5.269  1.00  0.00     0.196 C 
HETATM    7  N1  UNL     1       4.262   2.840   5.505  1.00  0.00    -0.067 NA
HETATM    8  N2  UNL     1       4.589   0.531   6.211  1.00  0.00    -0.067 NA
ATOM      9  H3  UNL     1       3.303   0.104   4.032  1.00  0.00     0.161 HD
ENDBRANCH   4   5
ENDBRANCH   3   4
ENDBRANCH   2   3
ENDBRANCH   1   2
BRANCH   1  10
HETATM   10  C6  UNL     1      -0.378  -1.425   2.306  1.00  0.00     0.015 C 
BRANCH  10  11
HETATM   11  C7  UNL     1      -1.451  -0.567   2.898  1.00  0.00     0.020 C 
BRANCH  11  12
HETATM   12  C8  UNL     1      -2.115   0.225   1.770  1.00  0.00     0.122 C 
BRANCH  12  13
HETATM   13  N4  UNL     1      -2.693  -0.705   0.881  1.00  0.00    -0.365 N 
HETATM   14  C9  UNL     1      -2.774  -0.676  -0.393  1.00  0.00     0.183 C 
HETATM   15  N5  UNL     1      -2.234   0.411  -1.122  1.00  0.00    -0.064 NA
HETATM   16  N6  UNL     1      -3.440  -1.766  -1.057  1.00  0.00    -0.365 N 
ATOM     17  H6  UNL     1      -3.095  -2.109  -1.953  1.00  0.00     0.162 HD
ATOM     18  H4  UNL     1      -3.109  -1.525   1.323  1.00  0.00     0.162 HD
BRANCH  16  19
HETATM   19  C10 UNL     1      -4.610  -2.375  -0.440  1.00  0.00     0.122 C 
BRANCH  19  20
HETATM   20  C11 UNL     1      -5.706  -1.316  -0.509  1.00  0.00     0.027 C 
BRANCH  20  21
HETATM   21  C12 UNL     1      -5.957  -1.035  -1.972  1.00  0.00     0.078 C 
BRANCH  21  22
HETATM   22  C13 UNL     1      -7.019   0.023  -2.104  1.00  0.00     0.082 A 
HETATM   23  N7  UNL     1      -7.552   0.484  -3.237  1.00  0.00    -0.344 N 
HETATM   24  C14 UNL     1      -8.468   1.448  -3.010  1.00  0.00     0.060 A 
ATOM     25  H7  UNL     1      -7.297   0.147  -4.165  1.00  0.00     0.167 HD
HETATM   26  C15 UNL     1      -9.277   2.218  -3.819  1.00  0.00     0.032 A 
HETATM   27  C19 UNL     1      -8.498   1.587  -1.622  1.00  0.00     0.060 A 
HETATM   28  C16 UNL     1     -10.122   3.135  -3.243  1.00  0.00     0.002 A 
HETATM   29  C17 UNL     1     -10.174   3.296  -1.876  1.00  0.00     0.002 A 
HETATM   30  C18 UNL     1      -9.361   2.519  -1.094  1.00  0.00     0.032 A 
HETATM   31  N8  UNL     1      -7.609   0.709  -1.101  1.00  0.00    -0.344 N 
ATOM     32  H8  UNL     1      -7.415   0.585  -0.107  1.00  0.00     0.167 HD
ENDBRANCH  21  22
ENDBRANCH  20  21
ENDBRANCH  19  20
ENDBRANCH  16  19
ENDBRANCH  12  13
ENDBRANCH  11  12
ENDBRANCH  10  11
ENDBRANCH   1  10
BRANCH   1  33
HETATM   33  C20 UNL     1       1.779  -1.548   1.129  1.00  0.00     0.222 C 
HETATM   34  O1  UNL     1       2.832  -1.659   1.810  1.00  0.00    -0.273 OA
HETATM   35  N9  UNL     1       1.639  -2.323  -0.047  1.00  0.00    -0.356 N 
ATOM     36  H9  UNL     1       0.794  -2.255  -0.614  1.00  0.00     0.162 HD
BRANCH  35  37
HETATM   37  C21 UNL     1       2.712  -3.214  -0.434  1.00  0.00     0.162 C 
BRANCH  37  38
HETATM   38  C22 UNL     1       3.860  -2.445  -1.013  1.00  0.00    -0.025 A 
HETATM   39  C23 UNL     1       3.766  -1.096  -1.262  1.00  0.00     0.014 A 
HETATM   40  C24 UNL     1       4.880  -0.448  -1.787  1.00  0.00     0.050 A 
HETATM   41  C25 UNL     1       6.059  -1.106  -2.063  1.00  0.00     0.111 A 
HETATM   42  N11 UNL     1       6.106  -2.423  -1.805  1.00  0.00    -0.351 N 
HETATM   43  C31 UNL     1       5.052  -3.090  -1.297  1.00  0.00     0.098 A 
ATOM     44  H11 UNL     1       6.967  -2.934  -2.000  1.00  0.00     0.166 HD
BRANCH  41  45
HETATM   45  N10 UNL     1       7.145  -0.358  -2.594  1.00  0.00    -0.319 N 
HETATM   46  C26 UNL     1       7.422  -0.389  -3.912  1.00  0.00     0.098 A 
HETATM   47  C27 UNL     1       8.449   0.302  -4.499  1.00  0.00     0.018 A 
HETATM   48  C28 UNL     1       9.249   1.080  -3.678  1.00  0.00     0.003 A 
HETATM   49  C29 UNL     1       8.976   1.120  -2.331  1.00  0.00     0.018 A 
HETATM   50  C30 UNL     1       7.935   0.408  -1.794  1.00  0.00     0.098 A 
ENDBRANCH  41  45
ENDBRANCH  37  38
ENDBRANCH  35  37
ENDBRANCH   1  33
TORSDOF 16
