REMARK  4 active torsions:
REMARK  status: ('A' for Active; 'I' for Inactive)
REMARK    1  A    between atoms: C2_2  and  C3_3 
REMARK    2  A    between atoms: C3_3  and  C4_4 
REMARK    3  A    between atoms: C4_4  and  N1_5 
REMARK    4  A    between atoms: N2_12  and  C8_13 
ROOT
HETATM    1  C8  UNL     1       1.452  -0.085  -0.074  1.00  0.00     0.076 A 
HETATM    2  C9  UNL     1       2.011  -1.341   0.024  1.00  0.00     0.098 A 
HETATM    3  C10 UNL     1       1.211  -2.492  -0.267  1.00  0.00     0.104 C 
HETATM    4  N3  UNL     1       0.571  -3.430  -0.486  1.00  0.00    -0.191 NA
HETATM    5  C11 UNL     1       3.342  -1.515   0.401  1.00  0.00     0.092 A 
HETATM    6  N4  UNL     1       3.931  -2.808   0.505  1.00  0.00    -0.099 NA
HETATM    7  C12 UNL     1       4.148  -0.438   0.689  1.00  0.00     0.096 A 
HETATM    8  C13 UNL     1       5.521  -0.631   1.077  1.00  0.00     0.103 C 
HETATM    9  N5  UNL     1       6.628  -0.771   1.402  1.00  0.00    -0.191 NA
HETATM   10  C14 UNL     1       3.601   0.822   0.595  1.00  0.00     0.092 A 
HETATM   11  N6  UNL     1       4.416   1.946   0.889  1.00  0.00    -0.099 NA
HETATM   12  C15 UNL     1       2.288   0.994   0.224  1.00  0.00     0.098 A 
HETATM   13  C16 UNL     1       1.706   2.307   0.123  1.00  0.00     0.104 C 
HETATM   14  N7  UNL     1       1.217   3.364   0.038  1.00  0.00    -0.191 NA
ENDROOT
BRANCH   1  15
HETATM   15  N2  UNL     1       0.091   0.098  -0.459  1.00  0.00    -0.378 N 
HETATM   16  C7  UNL     1      -0.183   0.245  -1.860  1.00  0.00     0.123 C 
HETATM   17  C6  UNL     1      -1.523   0.779  -2.199  1.00  0.00     0.021 C 
HETATM   18  C5  UNL     1      -2.427   1.051  -1.039  1.00  0.00     0.014 C 
HETATM   19  C3  UNL     1      -2.299   0.043   0.079  1.00  0.00    -0.001 C 
HETATM   20  C17 UNL     1      -0.894   0.120   0.593  1.00  0.00     0.134 C 
BRANCH  19  21
HETATM   21  C2  UNL     1      -3.289   0.368   1.155  1.00  0.00     0.008 C 
HETATM   22  C1  UNL     1      -3.119   1.713   1.784  1.00  0.00     0.006 C 
ENDBRANCH  19  21
BRANCH  19  23
HETATM   23  C4  UNL     1      -2.607  -1.347  -0.450  1.00  0.00     0.240 C 
BRANCH  23  24
HETATM   24  N1  UNL     1      -3.947  -1.417  -0.999  1.00  0.00    -0.079 N 
ATOM     25  H13 UNL     1      -4.645  -1.111  -0.322  1.00  0.00     0.274 HD
ATOM     26  H12 UNL     1      -4.097  -0.703  -1.712  1.00  0.00     0.274 HD
ATOM     27  H11 UNL     1      -4.154  -2.350  -1.354  1.00  0.00     0.274 HD
ENDBRANCH  23  24
ENDBRANCH  19  23
ENDBRANCH   1  15
TORSDOF 4
