REMARK  12 active torsions:
REMARK  status: ('A' for Active; 'I' for Inactive)
REMARK    1  A    between atoms: C2_2  and  C3_3 
REMARK    2  A    between atoms: C3_3  and  C4_4 
REMARK    3  A    between atoms: C4_4  and  C5_5 
REMARK    4  A    between atoms: C5_5  and  C6_6 
REMARK    5  A    between atoms: N2_12  and  C9_13 
REMARK    6  A    between atoms: C9_13  and  C10_14 
REMARK       I    between atoms: C10_14  and  N3_16 
REMARK    7  A    between atoms: N3_16  and  C11_18 
REMARK    8  A    between atoms: C13_20  and  C14_21 
REMARK       I    between atoms: C14_21  and  N4_23 
REMARK    9  A    between atoms: N4_23  and  C15_25 
REMARK   10  A    between atoms: C15_25  and  C16_26 
REMARK   11  A    between atoms: C16_26  and  N5_27 
REMARK   12  A    between atoms: C21_33  and  S1_34 
ROOT
HETATM    1  C11 UNL     1       0.303   0.606   1.325  1.00  0.00     0.152 A 
HETATM    2  C12 UNL     1       1.617   0.743   1.689  1.00  0.00     0.077 A 
HETATM    3  C13 UNL     1       2.406   0.031   0.770  1.00  0.00     0.076 A 
HETATM    4  C21 UNL     1       1.503  -0.497  -0.102  1.00  0.00     0.130 A 
HETATM    5  O5  UNL     1       0.264  -0.144   0.245  1.00  0.00    -0.286 OA
ENDROOT
BRANCH   1   6
HETATM    6  N3  UNL     1      -0.835   1.156   1.968  1.00  0.00    -0.306 N 
HETATM    7  C10 UNL     1      -2.144   0.896   1.456  1.00  0.00     0.242 C 
HETATM    8  O2  UNL     1      -2.253   0.184   0.438  1.00  0.00    -0.271 OA
ATOM      9  H3  UNL     1      -0.719   1.738   2.797  1.00  0.00     0.171 HD
BRANCH   7  10
HETATM   10  C9  UNL     1      -3.358   1.440   2.093  1.00  0.00     0.240 C 
BRANCH  10  11
HETATM   11  N2  UNL     1      -4.517   0.980   1.332  1.00  0.00    -0.259 N 
HETATM   12  C8  UNL     1      -5.231  -0.231   1.570  1.00  0.00     0.326 C 
HETATM   13  N1  UNL     1      -6.315  -0.317   0.617  1.00  0.00    -0.324 N 
HETATM   14  O1  UNL     1      -4.918  -1.046   2.474  1.00  0.00    -0.247 OA
HETATM   15  C4  UNL     1      -6.145   0.656  -0.408  1.00  0.00     0.116 C 
ATOM     16  H1  UNL     1      -7.089  -0.979   0.671  1.00  0.00     0.165 HD
HETATM   17  C23 UNL     1      -5.170   1.602   0.252  1.00  0.00     0.256 C 
HETATM   18  O6  UNL     1      -4.991   2.772  -0.135  1.00  0.00    -0.270 OA
BRANCH  15  19
HETATM   19  C3  UNL     1      -7.315   1.456  -0.797  1.00  0.00     0.041 C 
BRANCH  19  20
HETATM   20  C2  UNL     1      -8.112   2.049   0.319  1.00  0.00    -0.002 C 
HETATM   21  C1  UNL     1      -8.751   1.046   1.241  1.00  0.00     0.005 C 
ENDBRANCH  19  20
ENDBRANCH  15  19
BRANCH  15  22
HETATM   22  C5  UNL     1      -5.377   0.094  -1.589  1.00  0.00     0.041 C 
BRANCH  22  23
HETATM   23  C6  UNL     1      -6.194  -0.806  -2.466  1.00  0.00    -0.002 C 
HETATM   24  C7  UNL     1      -6.731  -2.007  -1.723  1.00  0.00     0.005 C 
ENDBRANCH  22  23
ENDBRANCH  15  22
ENDBRANCH  10  11
ENDBRANCH   7  10
ENDBRANCH   1   6
BRANCH   3  25
HETATM   25  C14 UNL     1       3.841  -0.058   0.805  1.00  0.00     0.255 C 
HETATM   26  O3  UNL     1       4.417   0.312   1.890  1.00  0.00    -0.268 OA
HETATM   27  N4  UNL     1       4.699  -0.503  -0.211  1.00  0.00    -0.355 N 
ATOM     28  H4  UNL     1       4.266  -0.800  -1.086  1.00  0.00     0.162 HD
BRANCH  27  29
HETATM   29  C15 UNL     1       6.139  -0.580  -0.133  1.00  0.00     0.153 C 
BRANCH  29  30
HETATM   30  C16 UNL     1       6.743   0.753   0.086  1.00  0.00     0.292 C 
BRANCH  30  31
HETATM   31  N5  UNL     1       8.204   0.694   0.151  1.00  0.00     0.094 N 
HETATM   32  C17 UNL     1       8.810   0.364  -1.104  1.00  0.00     0.298 C 
HETATM   33  C18 UNL     1       9.760  -0.805  -0.973  1.00  0.00     0.198 C 
HETATM   34  O4  UNL     1      10.710  -0.599   0.016  1.00  0.00    -0.388 OA
HETATM   35  C19 UNL     1      10.180  -0.142   1.205  1.00  0.00     0.198 C 
HETATM   36  C20 UNL     1       8.667  -0.251   1.139  1.00  0.00     0.298 C 
ENDBRANCH  30  31
ENDBRANCH  29  30
ENDBRANCH  27  29
ENDBRANCH   3  25
BRANCH   4  37
HETATM   37  S1  UNL     1       1.789  -1.521  -1.526  1.00  0.00    -0.108 SA
HETATM   38  C22 UNL     1       1.755  -3.259  -0.983  1.00  0.00     0.097 C 
ENDBRANCH   4  37
TORSDOF 12
