REMARK  10 active torsions:
REMARK  status: ('A' for Active; 'I' for Inactive)
REMARK    1  A    between atoms: C2_2  and  C3_3 
REMARK    2  A    between atoms: C3_3  and  C4_4 
REMARK       I    between atoms: C4_4  and  N1_6 
REMARK    3  A    between atoms: N1_6  and  C5_7 
REMARK    4  A    between atoms: N1_6  and  C12_17 
REMARK    5  A    between atoms: C5_7  and  C6_8 
REMARK    6  A    between atoms: C12_17  and  C13_18 
REMARK    7  A    between atoms: C12_17  and  C19_28 
REMARK    8  A    between atoms: C13_18  and  O3_19 
REMARK    9  A    between atoms: C13_18  and  N3_21 
REMARK   10  A    between atoms: N3_21  and  C14_23 
ROOT
HETATM    1  C4  UNL     1       0.517  -2.091   1.067  1.00  0.00     0.224 C 
HETATM    2  O1  UNL     1      -0.047  -3.178   0.680  1.00  0.00    -0.273 OA
HETATM    3  N1  UNL     1       0.266  -0.868   0.407  1.00  0.00    -0.318 N 
ENDROOT
BRANCH   3   4
HETATM    4  C5  UNL     1       0.879   0.333   0.742  1.00  0.00     0.084 C 
BRANCH   4   5
HETATM    5  C6  UNL     1       2.108   0.828   0.047  1.00  0.00     0.092 C 
HETATM    6  C7  UNL     1       3.331  -0.080   0.142  1.00  0.00     0.041 C 
HETATM    7  C8  UNL     1       4.615   0.609  -0.258  1.00  0.00     0.124 C 
HETATM    8  N2  UNL     1       5.166   1.634   0.566  1.00  0.00    -0.360 N 
HETATM    9  C9  UNL     1       4.660   2.842   1.171  1.00  0.00     0.227 C 
ATOM     10  H2  UNL     1       6.151   1.476   0.778  1.00  0.00     0.162 HD
HETATM   11  O2  UNL     1       5.424   3.579   1.799  1.00  0.00    -0.273 OA
HETATM   12  C10 UNL     1       3.192   3.234   1.049  1.00  0.00     0.183 C 
HETATM   13  C11 UNL     1       2.456   2.130   0.530  1.00  0.00    -0.164 C 
ENDBRANCH   4   5
ENDBRANCH   3   4
BRANCH   3  14
HETATM   14  C12 UNL     1      -0.805  -0.966  -0.645  1.00  0.00     0.170 C 
BRANCH  14  15
HETATM   15  C13 UNL     1      -1.949  -0.176  -0.126  1.00  0.00     0.136 C 
BRANCH  15  16
HETATM   16  O3  UNL     1      -2.074  -0.164   1.189  1.00  0.00    -0.348 OA
ATOM     17  H3  UNL     1      -2.806   0.342   1.521  1.00  0.00     0.219 HD
ENDBRANCH  15  16
BRANCH  15  18
HETATM   18  N3  UNL     1      -2.932   0.569  -0.771  1.00  0.00    -0.368 N 
ATOM     19  H3  UNL     1      -2.938   0.644  -1.788  1.00  0.00     0.161 HD
BRANCH  18  20
HETATM   20  C14 UNL     1      -3.962   1.246   0.030  1.00  0.00     0.083 C 
HETATM   21  C15 UNL     1      -5.346   1.001  -0.457  1.00  0.00     0.025 C 
HETATM   22  C16 UNL     1      -6.147   2.115   0.208  1.00  0.00     0.002 C 
HETATM   23  C17 UNL     1      -5.128   3.150   0.674  1.00  0.00     0.002 C 
HETATM   24  C18 UNL     1      -3.823   2.748  -0.025  1.00  0.00     0.025 C 
ENDBRANCH  18  20
ENDBRANCH  15  18
ENDBRANCH  14  15
BRANCH  14  25
HETATM   25  C19 UNL     1      -0.357  -0.681  -2.008  1.00  0.00     0.017 C 
HETATM   26  C20 UNL     1      -1.527  -0.924  -2.972  1.00  0.00     0.007 C 
HETATM   27  C21 UNL     1      -1.025  -1.917  -4.014  1.00  0.00     0.000 C 
HETATM   28  C22 UNL     1       0.488  -1.768  -3.991  1.00  0.00     0.000 C 
HETATM   29  C23 UNL     1       0.689  -1.624  -2.487  1.00  0.00     0.007 C 
ENDBRANCH  14  25
ENDBRANCH   3  14
BRANCH   1  30
HETATM   30  C3  UNL     1       1.411  -2.255   2.230  1.00  0.00     0.103 C 
BRANCH  30  31
HETATM   31  C2  UNL     1       1.079  -3.544   2.987  1.00  0.00     0.005 C 
HETATM   32  C1  UNL     1       2.030  -3.673   4.159  1.00  0.00     0.005 C 
ENDBRANCH  30  31
ENDBRANCH   1  30
TORSDOF 10
