REMARK  0 active torsions:
REMARK  status: ('A' for Active; 'I' for Inactive)
ROOT
HETATM    1  C1  UNL     1       2.125   1.092   2.051  1.00  0.00     0.165 C 
HETATM    2  N1  UNL     1       2.195  -0.130   1.277  1.00  0.00    -0.229 N 
ATOM      3  H1  UNL     1       2.974  -0.776   1.403  1.00  0.00     0.177 HD
HETATM    4  C2  UNL     1       1.268  -0.390   0.433  1.00  0.00     0.694 A 
HETATM    5  N2  UNL     1       0.182   0.498   0.247  1.00  0.00    -0.172 N 
ATOM      6  H2  UNL     1       0.145   1.355   0.799  1.00  0.00     0.186 HD
HETATM    7  C3  UNL     1      -0.771   0.256  -0.605  1.00  0.00     0.169 A 
HETATM    8  N3  UNL     1      -1.883   0.922  -0.960  1.00  0.00    -0.280 N 
ATOM      9  H3  UNL     1      -2.170   1.817  -0.564  1.00  0.00     0.188 HD
HETATM   10  N4  UNL     1      -2.553   0.270  -1.883  1.00  0.00    -0.263 N 
ATOM     11  H4  UNL     1      -3.428   0.561  -2.318  1.00  0.00     0.190 HD
HETATM   12  C4  UNL     1      -1.863  -0.856  -2.144  1.00  0.00     0.291 A 
HETATM   13  O1  UNL     1      -2.187  -1.742  -2.976  1.00  0.00    -0.264 OA
HETATM   14  C5  UNL     1      -0.721  -0.904  -1.351  1.00  0.00     0.164 A 
HETATM   15  N5  UNL     1       0.240  -1.770  -1.241  1.00  0.00    -0.278 N 
ATOM     16  H5  UNL     1       0.222  -2.609  -1.820  1.00  0.00     0.188 HD
HETATM   17  N6  UNL     1       1.310  -1.578  -0.338  1.00  0.00    -0.132 N 
ATOM     18  H6  UNL     1       2.068  -2.255  -0.247  1.00  0.00     0.205 HD
ENDROOT
TORSDOF 0
