REMARK  10 active torsions:
REMARK  status: ('A' for Active; 'I' for Inactive)
REMARK    1  A    between atoms: N1_1  and  C1_4 
REMARK    2  A    between atoms: C5_14  and  N4_15 
REMARK    3  A    between atoms: C6_21  and  N6_22 
REMARK    4  A    between atoms: N6_22  and  C7_24 
REMARK    5  A    between atoms: C10_27  and  C11_28 
REMARK       I    between atoms: C11_28  and  N7_30 
REMARK    6  A    between atoms: N7_30  and  S1_32 
REMARK    7  A    between atoms: S1_32  and  N8_35 
REMARK       I    between atoms: N8_35  and  C12_37 
REMARK    8  A    between atoms: C12_37  and  C13_39 
REMARK    9  A    between atoms: C14_40  and  C15_41 
REMARK   10  A    between atoms: C18_44  and  O7_45 
ROOT
HETATM    1  C7  UNL     1      -3.259  -1.119  -0.667  1.00  0.00     0.033 A 
HETATM    2  C8  UNL     1      -2.236  -1.975  -0.287  1.00  0.00     0.030 A 
HETATM    3  C9  UNL     1      -0.950  -1.546  -0.047  1.00  0.00     0.019 A 
HETATM    4  C10 UNL     1      -0.632  -0.213  -0.182  1.00  0.00     0.033 A 
HETATM    5  C21 UNL     1      -1.617   0.666  -0.555  1.00  0.00     0.019 A 
HETATM    6  C22 UNL     1      -2.893   0.212  -0.789  1.00  0.00     0.030 A 
ENDROOT
BRANCH   1   7
HETATM    7  N6  UNL     1      -4.573  -1.569  -0.911  1.00  0.00    -0.342 N 
ATOM      8  H6  UNL     1      -4.812  -2.550  -0.767  1.00  0.00     0.167 HD
BRANCH   7   9
HETATM    9  C6  UNL     1      -5.556  -0.659  -1.355  1.00  0.00     0.124 A 
HETATM   10  C3  UNL     1      -6.621  -0.257  -0.452  1.00  0.00     0.127 A 
HETATM   11  C2  UNL     1      -6.682  -0.736   0.832  1.00  0.00     0.266 A 
HETATM   12  C4  UNL     1      -7.590   0.629  -0.879  1.00  0.00     0.170 A 
HETATM   13  N2  UNL     1      -7.685  -0.324   1.626  1.00  0.00    -0.288 N 
HETATM   14  O1  UNL     1      -5.807  -1.543   1.234  1.00  0.00    -0.267 OA
HETATM   15  C1  UNL     1      -8.611   0.540   1.175  1.00  0.00     0.226 A 
ATOM     16  H2  UNL     1      -7.744  -0.671   2.583  1.00  0.00     0.172 HD
HETATM   17  O2  UNL     1      -8.549   0.996  -0.052  1.00  0.00    -0.261 OA
HETATM   18  N3  UNL     1      -7.521   1.120  -2.207  1.00  0.00    -0.326 N 
HETATM   19  C5  UNL     1      -6.480   0.748  -3.105  1.00  0.00     0.389 A 
ATOM     20  H3  UNL     1      -8.243   1.763  -2.531  1.00  0.00     0.165 HD
HETATM   21  N5  UNL     1      -5.544  -0.178  -2.530  1.00  0.00    -0.332 N 
ATOM     22  H5  UNL     1      -4.782  -0.484  -3.135  1.00  0.00     0.165 HD
BRANCH  15  23
HETATM   23  N1  UNL     1      -9.559   0.910   1.971  1.00  0.00    -0.365 N 
ATOM     24  H12 UNL     1      -9.607   0.555   2.926  1.00  0.00     0.159 HD
ATOM     25  H11 UNL     1     -10.262   1.566   1.629  1.00  0.00     0.159 HD
ENDBRANCH  15  23
BRANCH  19  26
HETATM   26  N4  UNL     1      -7.052   0.142  -4.302  1.00  0.00    -0.041 N 
ATOM     27  H43 UNL     1      -7.665  -0.643  -4.079  1.00  0.00     0.279 HD
ATOM     28  H42 UNL     1      -7.743   0.748  -4.746  1.00  0.00     0.279 HD
ATOM     29  H41 UNL     1      -6.306  -0.124  -4.945  1.00  0.00     0.279 HD
ENDBRANCH  19  26
ENDBRANCH   7   9
ENDBRANCH   1   7
BRANCH   4  30
HETATM   30  C11 UNL     1       0.728   0.251   0.063  1.00  0.00     0.266 C 
HETATM   31  O3  UNL     1       0.971   1.474  -0.058  1.00  0.00    -0.267 OA
HETATM   32  N7  UNL     1       1.780  -0.627   0.430  1.00  0.00    -0.233 N 
ATOM     33  H7  UNL     1       2.340  -1.108  -0.274  1.00  0.00     0.183 HD
BRANCH  32  34
HETATM   34  S1  UNL     1       2.046  -0.828   1.960  1.00  0.00     0.328 S 
HETATM   35  O4  UNL     1       0.861  -0.264   2.688  1.00  0.00    -0.182 OA
HETATM   36  O5  UNL     1       2.268  -2.454   2.327  1.00  0.00    -0.182 OA
BRANCH  34  37
HETATM   37  N8  UNL     1       3.424   0.105   2.353  1.00  0.00    -0.234 N 
HETATM   38  C12 UNL     1       4.708  -0.080   1.670  1.00  0.00     0.255 C 
HETATM   39  O6  UNL     1       4.681  -0.950   0.812  1.00  0.00    -0.268 OA
ATOM     40  H8  UNL     1       3.350   0.812   3.085  1.00  0.00     0.183 HD
BRANCH  38  41
HETATM   41  C13 UNL     1       5.796   0.728   2.057  1.00  0.00     0.076 C 
HETATM   42  C14 UNL     1       7.017   0.955   1.812  1.00  0.00     0.017 C 
BRANCH  42  43
HETATM   43  C15 UNL     1       7.978   0.418   0.908  1.00  0.00    -0.036 A 
HETATM   44  C16 UNL     1       7.850  -0.582  -0.014  1.00  0.00     0.014 A 
HETATM   45  C17 UNL     1       8.903  -1.000  -0.844  1.00  0.00     0.037 A 
HETATM   46  C18 UNL     1      10.133  -0.414  -0.768  1.00  0.00     0.065 A 
HETATM   47  C19 UNL     1      10.307   0.593   0.142  1.00  0.00     0.037 A 
HETATM   48  C20 UNL     1       9.278   0.991   0.943  1.00  0.00     0.014 A 
BRANCH  46  49
HETATM   49  O7  UNL     1      11.194  -0.807  -1.578  1.00  0.00    -0.361 OA
ATOM     50  H7  UNL     1      12.050  -0.399  -1.525  1.00  0.00     0.217 HD
ENDBRANCH  46  49
ENDBRANCH  42  43
ENDBRANCH  38  41
ENDBRANCH  34  37
ENDBRANCH  32  34
ENDBRANCH   4  30
TORSDOF 10
