REMARK  13 active torsions:
REMARK  status: ('A' for Active; 'I' for Inactive)
REMARK    1  A    between atoms: C2_2  and  N1_3 
REMARK    2  A    between atoms: N1_3  and  N2_4 
REMARK       I    between atoms: N2_4  and  C3_6 
REMARK       I    between atoms: C3_6  and  N4_10 
REMARK    3  A    between atoms: N4_10  and  C4_12 
REMARK    4  A    between atoms: C4_12  and  C5_13 
REMARK    5  A    between atoms: C5_13  and  N5_14 
REMARK    6  A    between atoms: C6_15  and  C7_16 
REMARK    7  A    between atoms: N6_17  and  N7_19 
REMARK    8  A    between atoms: N7_19  and  O1_21 
REMARK    9  A    between atoms: C8_23  and  S1_24 
REMARK   10  A    between atoms: S1_24  and  C9_25 
REMARK   11  A    between atoms: N9_36  and  C17_37 
REMARK   12  A    between atoms: C24_44  and  C25_45 
REMARK   13  A    between atoms: C28_48  and  N10_49 
ROOT
HETATM    1  N5  UNL     1       1.730  -1.160   0.213  1.00  0.00    -0.342 N 
HETATM    2  C6  UNL     1       0.582  -0.978   0.871  1.00  0.00     0.070 A 
HETATM    3  C8  UNL     1      -0.024   0.187   0.456  1.00  0.00     0.050 A 
HETATM    4  C23 UNL     1       0.796   0.740  -0.500  1.00  0.00     0.021 A 
HETATM    5  C24 UNL     1       0.736   1.863  -1.276  1.00  0.00    -0.012 A 
HETATM    6  C31 UNL     1       1.764   2.127  -2.191  1.00  0.00     0.013 A 
HETATM    7  C32 UNL     1       2.816   1.253  -2.293  1.00  0.00     0.003 A 
HETATM    8  C33 UNL     1       2.922   0.119  -1.538  1.00  0.00     0.030 A 
HETATM    9  C34 UNL     1       1.901  -0.124  -0.644  1.00  0.00     0.047 A 
ENDROOT
BRANCH   3  10
HETATM   10  S1  UNL     1      -1.550   0.821   1.020  1.00  0.00    -0.050 SA
BRANCH  10  11
HETATM   11  C9  UNL     1      -2.964   0.215   0.094  1.00  0.00     0.160 A 
HETATM   12  N8  UNL     1      -2.817  -0.660  -0.911  1.00  0.00    -0.335 N 
HETATM   13  C10 UNL     1      -3.838  -1.137  -1.620  1.00  0.00     0.050 A 
ATOM     14  H8  UNL     1      -1.876  -0.976  -1.144  1.00  0.00     0.168 HD
HETATM   15  C11 UNL     1      -3.663  -2.027  -2.633  1.00  0.00     0.030 A 
HETATM   16  C15 UNL     1      -5.106  -0.711  -1.304  1.00  0.00     0.059 A 
HETATM   17  C12 UNL     1      -4.760  -2.501  -3.342  1.00  0.00     0.002 A 
HETATM   18  C13 UNL     1      -6.045  -2.070  -3.025  1.00  0.00     0.001 A 
HETATM   19  C14 UNL     1      -6.207  -1.173  -2.001  1.00  0.00     0.019 A 
HETATM   20  C16 UNL     1      -5.264   0.191  -0.270  1.00  0.00     0.266 A 
HETATM   21  O2  UNL     1      -6.448   0.602   0.039  1.00  0.00    -0.267 OA
HETATM   22  N9  UNL     1      -4.196   0.627   0.397  1.00  0.00    -0.258 N 
BRANCH  22  23
HETATM   23  C17 UNL     1      -4.402   1.571   1.445  1.00  0.00     0.044 A 
HETATM   24  C18 UNL     1      -5.022   2.765   1.151  1.00  0.00     0.030 A 
HETATM   25  C19 UNL     1      -5.227   3.691   2.150  1.00  0.00     0.002 A 
HETATM   26  C20 UNL     1      -4.819   3.450   3.461  1.00  0.00     0.000 A 
HETATM   27  C21 UNL     1      -4.197   2.230   3.706  1.00  0.00     0.002 A 
HETATM   28  C22 UNL     1      -3.982   1.287   2.719  1.00  0.00     0.030 A 
ENDBRANCH  22  23
ENDBRANCH  10  11
ENDBRANCH   3  10
BRANCH   2  29
HETATM   29  C7  UNL     1       0.037  -1.855   1.868  1.00  0.00     0.140 C 
HETATM   30  N6  UNL     1      -1.066  -1.582   2.446  1.00  0.00    -0.290 N 
ATOM     31  H6  UNL     1      -1.537  -0.720   2.170  1.00  0.00     0.188 HD
BRANCH  30  32
HETATM   32  N7  UNL     1      -1.682  -2.360   3.421  1.00  0.00    -0.210 N 
ATOM     33  H7  UNL     1      -1.123  -2.820   4.139  1.00  0.00     0.215 HD
BRANCH  32  34
HETATM   34  O1  UNL     1      -3.034  -2.503   3.411  1.00  0.00    -0.274 OA
ATOM     35  H1  UNL     1      -3.455  -3.034   4.077  1.00  0.00     0.246 HD
ENDBRANCH  32  34
ENDBRANCH  30  32
ENDBRANCH   2  29
BRANCH   1  36
HETATM   36  C5  UNL     1       2.656  -2.268   0.367  1.00  0.00     0.149 C 
BRANCH  36  37
HETATM   37  C4  UNL     1       3.711  -2.008   1.415  1.00  0.00     0.158 C 
BRANCH  37  38
HETATM   38  N4  UNL     1       4.576  -3.167   1.493  1.00  0.00    -0.224 N 
HETATM   39  C3  UNL     1       5.446  -3.525   0.433  1.00  0.00     0.683 C 
HETATM   40  N2  UNL     1       6.260  -2.630  -0.271  1.00  0.00    -0.137 N 
HETATM   41  N3  UNL     1       5.486  -4.777   0.093  1.00  0.00    -0.234 N 
ATOM     42  H2  UNL     1       5.850  -1.745  -0.569  1.00  0.00     0.201 HD
ATOM     43  H32 UNL     1       6.112  -5.035  -0.670  1.00  0.00     0.174 HD
ATOM     44  H31 UNL     1       4.893  -5.429   0.606  1.00  0.00     0.174 HD
ATOM     45  H4  UNL     1       4.559  -3.742   2.335  1.00  0.00     0.177 HD
BRANCH  40  46
HETATM   46  N1  UNL     1       7.598  -2.872  -0.592  1.00  0.00    -0.127 NA
BRANCH  46  47
HETATM   47  C2  UNL     1       8.528  -2.316   0.357  1.00  0.00     0.131 C 
HETATM   48  C1  UNL     1       9.922  -2.656  -0.123  1.00  0.00     0.024 C 
ENDBRANCH  46  47
ENDBRANCH  40  46
ENDBRANCH  37  38
ENDBRANCH  36  37
ENDBRANCH   1  36
BRANCH   5  49
HETATM   49  C25 UNL     1      -0.329   2.833  -1.151  1.00  0.00    -0.025 A 
HETATM   50  C26 UNL     1      -1.181   3.004  -2.237  1.00  0.00     0.014 A 
HETATM   51  C27 UNL     1      -2.191   3.948  -2.229  1.00  0.00     0.037 A 
HETATM   52  C28 UNL     1      -2.387   4.767  -1.119  1.00  0.00     0.102 A 
HETATM   53  C29 UNL     1      -1.541   4.592  -0.049  1.00  0.00     0.037 A 
HETATM   54  C30 UNL     1      -0.519   3.637  -0.055  1.00  0.00     0.014 A 
BRANCH  52  55
HETATM   55  N10 UNL     1      -3.432   5.744  -1.104  1.00  0.00    -0.116 N 
HETATM   56  O3  UNL     1      -3.558   6.433  -0.087  1.00  0.00    -0.532 OA
HETATM   57  O4  UNL     1      -4.274   5.927  -2.164  1.00  0.00    -0.532 OA
ENDBRANCH  52  55
ENDBRANCH   5  49
TORSDOF 13
