REMARK  6 active torsions:
REMARK  status: ('A' for Active; 'I' for Inactive)
REMARK    1  A    between atoms: N1_1  and  C1_4 
REMARK    2  A    between atoms: C2_5  and  C3_6 
REMARK    3  A    between atoms: N2_10  and  C6_11 
REMARK    4  A    between atoms: C6_11  and  C7_12 
REMARK    5  A    between atoms: C7_12  and  C8_13 
REMARK       I    between atoms: C8_13  and  N3_15 
REMARK    6  A    between atoms: N3_15  and  C9_17 
ROOT
HETATM    1  C3  UNL     1       4.398  -0.264  -0.822  1.00  0.00     0.190 C 
HETATM    2  F1  UNL     1       4.790  -1.182  -1.783  1.00  0.00    -0.227 F 
HETATM    3  C4  UNL     1       4.293  -0.985   0.481  1.00  0.00     0.079 C 
HETATM    4  C5  UNL     1       3.127  -1.914   0.433  1.00  0.00     0.126 C 
HETATM    5  N2  UNL     1       1.923  -1.135   0.249  1.00  0.00    -0.391 N 
HETATM    6  C15 UNL     1       1.889  -0.390  -0.942  1.00  0.00     0.082 C 
HETATM    7  C16 UNL     1       3.121   0.381  -1.277  1.00  0.00     0.172 C 
HETATM    8 CL1  UNL     1       3.079   2.033  -0.624  1.00  0.00    -0.115 Cl
ENDROOT
BRANCH   5   9
HETATM    9  C6  UNL     1       1.452  -0.536   1.443  1.00  0.00     0.131 C 
BRANCH   9  10
HETATM   10  C7  UNL     1       0.194   0.279   1.324  1.00  0.00     0.122 C 
BRANCH  10  11
HETATM   11  C8  UNL     1      -0.946  -0.512   0.823  1.00  0.00     0.219 C 
HETATM   12  O1  UNL     1      -0.827  -1.725   0.542  1.00  0.00    -0.274 OA
HETATM   13  N3  UNL     1      -2.203   0.113   0.656  1.00  0.00    -0.356 N 
ATOM     14  H3  UNL     1      -2.304   1.102   0.884  1.00  0.00     0.162 HD
BRANCH  13  15
HETATM   15  C9  UNL     1      -3.343  -0.621   0.170  1.00  0.00     0.084 C 
HETATM   16  C10 UNL     1      -3.754  -0.017  -1.152  1.00  0.00     0.025 C 
HETATM   17  C11 UNL     1      -4.692   1.150  -0.951  1.00  0.00     0.002 C 
HETATM   18  C12 UNL     1      -5.973   0.741  -0.270  1.00  0.00     0.000 C 
HETATM   19  C13 UNL     1      -5.827  -0.543   0.506  1.00  0.00     0.002 C 
HETATM   20  C14 UNL     1      -4.468  -0.665   1.154  1.00  0.00     0.025 C 
ENDBRANCH  13  15
ENDBRANCH  10  11
ENDBRANCH   9  10
ENDBRANCH   5   9
BRANCH   1  21
HETATM   21  C2  UNL     1       5.447   0.758  -0.763  1.00  0.00    -0.038 C 
HETATM   22  C1  UNL     1       6.299   1.614  -0.723  1.00  0.00     0.006 C 
BRANCH  22  23
HETATM   23  N1  UNL     1       7.273   2.619  -0.692  1.00  0.00    -0.359 N 
ATOM     24  H12 UNL     1       6.373   2.441  -1.139  1.00  0.00     0.166 HD
ATOM     25  H11 UNL     1       7.992   3.342  -0.658  1.00  0.00     0.166 HD
ENDBRANCH  22  23
ENDBRANCH   1  21
TORSDOF 6
