REMARK  5 active torsions:
REMARK  status: ('A' for Active; 'I' for Inactive)
REMARK       I    between atoms: C2_4  and  N2_5 
REMARK       I    between atoms: C2_4  and  N4_14 
REMARK    1  A    between atoms: N2_5  and  C3_7 
REMARK    2  A    between atoms: C13_19  and  C14_20 
REMARK    3  A    between atoms: C14_20  and  N5_21 
REMARK    4  A    between atoms: N5_21  and  C15_24 
REMARK    5  A    between atoms: C15_24  and  C16_25 
ROOT
HETATM    1  C1  UNL     1       0.972  -1.949   1.867  1.00  0.00     0.165 C 
HETATM    2  N1  UNL     1       0.075  -1.741   0.810  1.00  0.00    -0.230 N 
ATOM      3  H1  UNL     1      -0.894  -1.870   1.102  1.00  0.00     0.177 HD
HETATM    4  C2  UNL     1       0.160  -1.444  -0.374  1.00  0.00     0.676 C 
HETATM    5  N2  UNL     1       1.309  -1.189  -1.135  1.00  0.00    -0.199 N 
ATOM      6  H2  UNL     1       1.355  -1.695  -2.019  1.00  0.00     0.183 HD
HETATM    7  N4  UNL     1      -1.091  -1.335  -1.108  1.00  0.00    -0.212 N 
HETATM    8  C9  UNL     1      -1.494  -2.467  -1.897  1.00  0.00     0.141 C 
HETATM    9  C10 UNL     1      -2.816  -3.052  -1.480  1.00  0.00     0.020 C 
HETATM   10  C11 UNL     1      -3.607  -1.995  -0.767  1.00  0.00     0.004 C 
HETATM   11  C12 UNL     1      -3.345  -0.664  -1.439  1.00  0.00     0.027 C 
HETATM   12  C13 UNL     1      -1.933  -0.176  -1.087  1.00  0.00     0.127 C 
ENDROOT
BRANCH  12  13
HETATM   13  C14 UNL     1      -2.041   0.456   0.282  1.00  0.00     0.258 C 
BRANCH  13  14
HETATM   14  N5  UNL     1      -2.910   1.613   0.188  1.00  0.00    -0.065 N 
ATOM     15  H52 UNL     1      -2.583   2.258  -0.531  1.00  0.00     0.277 HD
ATOM     16  H51 UNL     1      -3.813   1.361  -0.214  1.00  0.00     0.277 HD
BRANCH  14  17
HETATM   17  C15 UNL     1      -3.077   2.285   1.445  1.00  0.00     0.349 C 
BRANCH  17  18
HETATM   18  C16 UNL     1      -3.997   3.466   1.221  1.00  0.00     0.411 C 
HETATM   19  F1  UNL     1      -5.200   2.973   0.755  1.00  0.00    -0.169 F 
HETATM   20  F2  UNL     1      -4.264   4.032   2.474  1.00  0.00    -0.169 F 
HETATM   21  F3  UNL     1      -3.444   4.393   0.377  1.00  0.00    -0.169 F 
ENDBRANCH  17  18
ENDBRANCH  14  17
ENDBRANCH  13  14
ENDBRANCH  12  13
BRANCH   5  22
HETATM   22  C3  UNL     1       2.415  -0.345  -0.879  1.00  0.00     0.007 C 
HETATM   23  C4  UNL     1       2.068   0.985  -0.235  1.00  0.00     0.083 C 
HETATM   24  C5  UNL     1       3.320   1.830  -0.287  1.00  0.00     0.277 C 
HETATM   25  N3  UNL     1       4.425   1.251   0.412  1.00  0.00     0.084 N 
HETATM   26  C6  UNL     1       4.771   1.997   1.613  1.00  0.00     0.309 C 
HETATM   27  C7  UNL     1       4.239  -0.125   0.809  1.00  0.00     0.277 C 
HETATM   28  C8  UNL     1       3.617  -0.966  -0.293  1.00  0.00     0.083 C 
ENDBRANCH   5  22
TORSDOF 5
