REMARK  7 active torsions:
REMARK  status: ('A' for Active; 'I' for Inactive)
REMARK    1  A    between atoms: N1_2  and  C2_4 
REMARK    2  A    between atoms: C3_7  and  C4_8 
REMARK    3  A    between atoms: C7_13  and  C8_14 
REMARK    4  A    between atoms: C15_26  and  N7_27 
REMARK    5  A    between atoms: N7_27  and  C16_29 
REMARK    6  A    between atoms: C16_29  and  N8_31 
REMARK    7  A    between atoms: C18_36  and  C19_37 
ROOT
HETATM    1  C4  UNL     1       0.436   1.941  -0.872  1.00  0.00     0.105 A 
HETATM    2  N3  UNL     1      -0.825   1.489  -0.603  1.00  0.00    -0.349 N 
ATOM      3  H3  UNL     1      -1.612   2.045  -0.938  1.00  0.00     0.166 HD
HETATM    4  C5  UNL     1      -1.094   0.374   0.066  1.00  0.00     0.060 A 
HETATM    5  C6  UNL     1      -2.394  -0.038   0.312  1.00  0.00     0.044 A 
HETATM    6  C7  UNL     1      -2.665  -1.191   1.004  1.00  0.00    -0.021 A 
HETATM    7  C12 UNL     1      -1.613  -1.946   1.458  1.00  0.00     0.014 A 
HETATM    8  C13 UNL     1      -0.322  -1.534   1.212  1.00  0.00     0.033 A 
HETATM    9  C14 UNL     1      -0.040  -0.375   0.516  1.00  0.00     0.060 A 
HETATM   10  N6  UNL     1       1.207   0.042   0.267  1.00  0.00    -0.339 N 
ATOM     11  H6  UNL     1       1.986  -0.522   0.605  1.00  0.00     0.167 HD
HETATM   12  C15 UNL     1       1.484   1.196  -0.424  1.00  0.00     0.137 A 
ENDROOT
BRANCH  12  13
HETATM   13  N7  UNL     1       2.677   1.505  -0.609  1.00  0.00    -0.317 N 
ATOM     14  H7  UNL     1       2.800   2.373  -1.130  1.00  0.00     0.170 HD
BRANCH  13  15
HETATM   15  C16 UNL     1       3.875   0.897  -0.243  1.00  0.00     0.179 C 
HETATM   16  S1  UNL     1       4.411   1.207   1.290  1.00  0.00    -0.040 SA
BRANCH  15  17
HETATM   17  N8  UNL     1       4.666   0.074  -1.053  1.00  0.00    -0.313 N 
HETATM   18  C17 UNL     1       5.003  -1.136  -0.737  1.00  0.00     0.151 A 
HETATM   19  N9  UNL     1       4.715  -1.854   0.343  1.00  0.00    -0.331 N 
HETATM   20  S2  UNL     1       5.972  -2.231  -1.664  1.00  0.00    -0.063 SA
HETATM   21  C18 UNL     1       5.178  -3.076   0.440  1.00  0.00     0.118 A 
ATOM     22  H9  UNL     1       4.141  -1.459   1.088  1.00  0.00     0.168 HD
HETATM   23  C20 UNL     1       5.943  -3.551  -0.592  1.00  0.00     0.090 A 
ATOM     24  H8  UNL     1       4.996   0.448  -1.943  1.00  0.00     0.170 HD
BRANCH  21  25
HETATM   25  C19 UNL     1       4.908  -3.962   1.613  1.00  0.00     0.227 C 
HETATM   26  O1  UNL     1       4.213  -3.583   2.586  1.00  0.00    -0.643 OA
HETATM   27  O2  UNL     1       5.406  -5.247   1.694  1.00  0.00    -0.643 OA
ENDBRANCH  21  25
ENDBRANCH  15  17
ENDBRANCH  13  15
ENDBRANCH  12  13
BRANCH   1  28
HETATM   28  C3  UNL     1       0.578   3.215  -1.637  1.00  0.00     0.071 A 
HETATM   29  N2  UNL     1      -0.495   3.883  -2.038  1.00  0.00    -0.334 N 
HETATM   30  C2  UNL     1      -0.324   5.007  -2.711  1.00  0.00     0.144 A 
ATOM     31  H2  UNL     1      -1.432   3.537  -1.831  1.00  0.00     0.168 HD
HETATM   32  S3  UNL     1       1.351   5.185  -2.814  1.00  0.00    -0.064 SA
HETATM   33  C21 UNL     1       1.790   3.745  -1.951  1.00  0.00     0.085 A 
BRANCH  30  34
HETATM   34  N1  UNL     1      -1.291   5.777  -3.173  1.00  0.00    -0.375 N 
HETATM   35  C1  UNL     1      -0.860   6.979  -3.891  1.00  0.00     0.148 C 
ATOM     36  H1  UNL     1      -2.276   5.550  -3.039  1.00  0.00     0.161 HD
ENDBRANCH  30  34
ENDBRANCH   1  28
BRANCH   6  37
HETATM   37  C8  UNL     1      -4.058  -1.545   1.214  1.00  0.00     0.008 A 
HETATM   38  C9  UNL     1      -5.088  -1.256   0.344  1.00  0.00     0.120 A 
HETATM   39  N4  UNL     1      -6.203  -1.740   0.888  1.00  0.00    -0.310 N 
HETATM   40  N5  UNL     1      -5.988  -2.324   2.044  1.00  0.00    -0.307 N 
ATOM     41  H4  UNL     1      -7.123  -1.665   0.454  1.00  0.00     0.186 HD
HETATM   42  C10 UNL     1      -6.971  -2.958   2.910  1.00  0.00     0.177 C 
HETATM   43  C11 UNL     1      -4.655  -2.212   2.266  1.00  0.00     0.123 A 
ENDBRANCH   6  37
TORSDOF 7
