REMARK  3 active torsions:
REMARK  status: ('A' for Active; 'I' for Inactive)
REMARK    1  A    between atoms: C3_4  and  C4_5 
REMARK    2  A    between atoms: C7_8  and  C8_9 
REMARK    3  A    between atoms: N2_10  and  N3_12 
ROOT
HETATM    1  N1  UNL     1       6.289   0.648  -0.712  1.00  0.00    -0.192 NA
HETATM    2  C1  UNL     1       5.677  -0.220  -0.196  1.00  0.00     0.087 C 
HETATM    3  C2  UNL     1       5.000  -1.274   0.424  1.00  0.00     0.094 C 
HETATM    4  C3  UNL     1       3.781  -1.490   0.665  1.00  0.00     0.022 C 
ENDROOT
BRANCH   4   5
HETATM    5  C4  UNL     1       2.602  -0.712   0.385  1.00  0.00    -0.036 A 
HETATM    6  C5  UNL     1       1.358  -1.262   0.802  1.00  0.00     0.012 A 
HETATM    7  C6  UNL     1       0.219  -0.582   0.569  1.00  0.00     0.013 A 
HETATM    8  C7  UNL     1       0.166   0.639  -0.060  1.00  0.00    -0.019 A 
HETATM    9  C10 UNL     1       1.372   1.155  -0.456  1.00  0.00     0.013 A 
HETATM   10  C11 UNL     1       2.561   0.506  -0.244  1.00  0.00     0.012 A 
BRANCH   8  11
HETATM   11  C8  UNL     1      -1.101   1.324  -0.283  1.00  0.00     0.118 C 
HETATM   12  N2  UNL     1      -2.172   0.756   0.126  1.00  0.00    -0.309 N 
ATOM     13  H2  UNL     1      -2.120  -0.150   0.592  1.00  0.00     0.186 HD
BRANCH  12  14
HETATM   14  N3  UNL     1      -3.412   1.370  -0.062  1.00  0.00    -0.276 N 
HETATM   15  C9  UNL     1      -4.491   0.668   0.008  1.00  0.00     0.215 C 
HETATM   16  N4  UNL     1      -4.435  -0.729   0.276  1.00  0.00    -0.065 NA
HETATM   17  N5  UNL     1      -5.768   1.257  -0.178  1.00  0.00    -0.065 NA
ATOM     18  H3  UNL     1      -3.464   2.370  -0.254  1.00  0.00     0.189 HD
ENDBRANCH  12  14
ENDBRANCH   8  11
ENDBRANCH   4   5
TORSDOF 3
