REMARK  10 active torsions:
REMARK  status: ('A' for Active; 'I' for Inactive)
REMARK    1  A    between atoms: C4_7  and  C5_8 
REMARK    2  A    between atoms: C5_8  and  C6_9 
REMARK    3  A    between atoms: N3_14  and  C8_15 
REMARK    4  A    between atoms: C10_17  and  C11_18 
REMARK    5  A    between atoms: C11_18  and  C12_19 
REMARK    6  A    between atoms: C12_19  and  C13_20 
REMARK    7  A    between atoms: C13_20  and  C14_21 
REMARK    8  A    between atoms: C14_21  and  C15_22 
REMARK    9  A    between atoms: C15_22  and  C16_23 
REMARK   10  A    between atoms: C16_23  and  O3_24 
ROOT
HETATM    1  C6  UNL     1       2.002  -0.555  -0.926  1.00  0.00     0.061 A 
HETATM    2  N2  UNL     1       2.900  -1.466  -1.343  1.00  0.00    -0.307 N 
ATOM      3  H2  UNL     1       3.892  -1.317  -1.527  1.00  0.00     0.170 HD
HETATM    4  C7  UNL     1       2.209  -2.620  -1.467  1.00  0.00     0.327 A 
HETATM    5  O2  UNL     1       2.731  -3.694  -1.840  1.00  0.00    -0.246 OA
HETATM    6  N3  UNL     1       0.916  -2.455  -1.142  1.00  0.00    -0.301 N 
HETATM    7  C10 UNL     1       0.775  -1.165  -0.801  1.00  0.00     0.043 A 
ENDROOT
BRANCH   1   8
HETATM    8  C5  UNL     1       2.302   0.841  -0.658  1.00  0.00     0.066 C 
BRANCH   8   9
HETATM    9  C4  UNL     1       2.945   1.264   0.407  1.00  0.00     0.104 A 
HETATM   10  C3  UNL     1       3.432   0.478   1.427  1.00  0.00     0.273 A 
HETATM   11  N1  UNL     1       4.024   1.322   2.319  1.00  0.00    -0.308 N 
HETATM   12  O1  UNL     1       3.367  -0.772   1.549  1.00  0.00    -0.266 OA
HETATM   13  C2  UNL     1       3.917   2.586   1.886  1.00  0.00     0.098 A 
ATOM     14  H1  UNL     1       4.480   1.035   3.185  1.00  0.00     0.170 HD
HETATM   15  C1  UNL     1       4.385   3.659   2.513  1.00  0.00     0.063 C 
HETATM   16  N4  UNL     1       3.257   2.533   0.721  1.00  0.00    -0.339 N 
ATOM     17  H4  UNL     1       3.023   3.345   0.150  1.00  0.00     0.167 HD
ENDBRANCH   8   9
ENDBRANCH   1   8
BRANCH   7  18
HETATM   18  C11 UNL     1      -0.499  -0.509  -0.365  1.00  0.00     0.060 C 
BRANCH  18  19
HETATM   19  C12 UNL     1      -1.078   0.328  -1.475  1.00  0.00     0.006 C 
BRANCH  19  20
HETATM   20  C13 UNL     1      -2.359   1.020  -1.052  1.00  0.00     0.000 C 
BRANCH  20  21
HETATM   21  C14 UNL     1      -3.429   0.079  -0.647  1.00  0.00     0.002 C 
BRANCH  21  22
HETATM   22  C15 UNL     1      -4.745   0.692  -0.266  1.00  0.00     0.026 C 
BRANCH  22  23
HETATM   23  C16 UNL     1      -4.712   1.627   0.881  1.00  0.00     0.164 C 
BRANCH  23  24
HETATM   24  O3  UNL     1      -3.932   2.759   0.725  1.00  0.00    -0.401 OA
ATOM     25  H3  UNL     1      -3.911   3.359   1.461  1.00  0.00     0.209 HD
ENDBRANCH  23  24
ENDBRANCH  22  23
ENDBRANCH  21  22
ENDBRANCH  20  21
ENDBRANCH  19  20
ENDBRANCH  18  19
ENDBRANCH   7  18
BRANCH   6  26
HETATM   26  C8  UNL     1      -0.159  -3.439  -1.141  1.00  0.00     0.129 C 
HETATM   27  C9  UNL     1      -0.272  -4.134   0.200  1.00  0.00     0.027 C 
ENDBRANCH   6  26
TORSDOF 10
