REMARK  8 active torsions:
REMARK  status: ('A' for Active; 'I' for Inactive)
REMARK    1  A    between atoms: C9_10  and  O2_12 
REMARK    2  A    between atoms: C11_14  and  C12_15 
REMARK    3  A    between atoms: C12_15  and  N1_16 
REMARK    4  A    between atoms: N1_16  and  C13_18 
REMARK    5  A    between atoms: C13_18  and  C14_19 
REMARK    6  A    between atoms: C14_19  and  C15_20 
REMARK    7  A    between atoms: C15_20  and  C16_21 
REMARK    8  A    between atoms: C16_21  and  N2_22 
ROOT
HETATM    1  C1  UNL     1      -6.124   0.787   1.995  1.00  0.00     0.011 C 
HETATM    2  C2  UNL     1      -5.188  -0.157   1.296  1.00  0.00    -0.007 C 
HETATM    3  C3  UNL     1      -4.495  -1.109   2.266  1.00  0.00     0.083 C 
HETATM    4  C4  UNL     1      -3.097  -1.253   1.761  1.00  0.00     0.132 C 
HETATM    5  O1  UNL     1      -2.219  -1.780   2.417  1.00  0.00    -0.298 OA
HETATM    6  C5  UNL     1      -3.101  -0.656   0.430  1.00  0.00     0.068 C 
HETATM    7  C6  UNL     1      -4.001   0.561   0.716  1.00  0.00     0.001 C 
HETATM    8  C7  UNL     1      -4.255   1.294  -0.538  1.00  0.00     0.009 C 
HETATM    9  C8  UNL     1      -3.550   0.795  -1.741  1.00  0.00     0.038 C 
HETATM   10  C9  UNL     1      -2.148   0.330  -1.551  1.00  0.00     0.060 C 
HETATM   11  C10 UNL     1      -1.969  -0.898  -2.457  1.00  0.00     0.046 C 
HETATM   12  C11 UNL     1      -1.853  -0.115  -0.114  1.00  0.00     0.048 C 
ENDROOT
BRANCH  12  13
HETATM   13  C12 UNL     1      -0.668  -1.044  -0.149  1.00  0.00     0.122 C 
BRANCH  13  14
HETATM   14  N1  UNL     1       0.419  -0.280  -0.725  1.00  0.00    -0.421 N 
ATOM     15  H1  UNL     1       0.313   0.699  -0.992  1.00  0.00     0.153 HD
BRANCH  14  16
HETATM   16  C13 UNL     1       1.644  -0.982  -0.895  1.00  0.00     0.114 C 
BRANCH  16  17
HETATM   17  C14 UNL     1       2.266  -1.291   0.472  1.00  0.00     0.024 C 
BRANCH  17  18
HETATM   18  C15 UNL     1       3.541  -2.021   0.250  1.00  0.00     0.046 C 
BRANCH  18  19
HETATM   19  C16 UNL     1       4.608  -1.282  -0.475  1.00  0.00     0.058 C 
BRANCH  19  20
HETATM   20  N2  UNL     1       5.139  -0.187   0.181  1.00  0.00    -0.393 N 
HETATM   21  C17 UNL     1       4.467   0.985   0.408  1.00  0.00     0.122 C 
HETATM   22  C18 UNL     1       5.453   2.152   0.216  1.00  0.00     0.021 C 
HETATM   23  C19 UNL     1       6.790   1.482   0.307  1.00  0.00     0.021 C 
HETATM   24  C20 UNL     1       6.559   0.033  -0.031  1.00  0.00     0.122 C 
ENDBRANCH  19  20
ENDBRANCH  18  19
ENDBRANCH  17  18
ENDBRANCH  16  17
ENDBRANCH  14  16
ENDBRANCH  13  14
ENDBRANCH  12  13
BRANCH  10  25
HETATM   25  O2  UNL     1      -1.188   1.270  -1.909  1.00  0.00    -0.390 OA
ATOM     26  H2  UNL     1      -0.294   0.973  -1.788  1.00  0.00     0.210 HD
ENDBRANCH  10  25
TORSDOF 8
