REMARK  15 active torsions:
REMARK  status: ('A' for Active; 'I' for Inactive)
REMARK    1  A    between atoms: C2_2  and  O1_3 
REMARK    2  A    between atoms: C2_2  and  C23_59 
REMARK    3  A    between atoms: O1_3  and  N1_4 
REMARK    4  A    between atoms: C3_6  and  N2_7 
REMARK    5  A    between atoms: N3_9  and  C4_11 
REMARK    6  A    between atoms: N7_18  and  C5_19 
REMARK    7  A    between atoms: C6_23  and  N10_24 
REMARK    8  A    between atoms: N10_24  and  C7_26 
REMARK    9  A    between atoms: C7_26  and  C8_27 
REMARK   10  A    between atoms: C8_27  and  N11_28 
REMARK   11  A    between atoms: N11_28  and  C9_31 
REMARK   12  A    between atoms: C12_35  and  O2_37 
REMARK   13  A    between atoms: C14_39  and  O3_40 
REMARK   14  A    between atoms: C18_49  and  O6_50 
REMARK   15  A    between atoms: C20_53  and  O7_54 
ROOT
HETATM    1  C5  UNL     1       1.978   0.680   0.913  1.00  0.00     0.215 A 
HETATM    2  N8  UNL     1       0.828   0.654   0.363  1.00  0.00    -0.271 N 
ATOM      3  H8  UNL     1       0.269   1.492   0.206  1.00  0.00     0.189 HD
HETATM    4  N9  UNL     1       0.401  -0.627  -0.007  1.00  0.00    -0.231 N 
HETATM    5  C6  UNL     1      -0.742  -0.996  -0.645  1.00  0.00     0.140 A 
HETATM    6  C15 UNL     1      -0.891  -2.353  -0.949  1.00  0.00     0.093 A 
HETATM    7  C16 UNL     1      -2.011  -2.876  -1.571  1.00  0.00     0.263 A 
HETATM    8  O4  UNL     1      -2.938  -2.139  -1.919  1.00  0.00    -0.267 OA
HETATM    9  N13 UNL     1      -2.121  -4.216  -1.819  1.00  0.00    -0.287 N 
ATOM     10  H13 UNL     1      -2.960  -4.569  -2.279  1.00  0.00     0.172 HD
HETATM   11  C17 UNL     1      -1.160  -5.073  -1.475  1.00  0.00     0.282 A 
HETATM   12  O5  UNL     1      -1.301  -6.305  -1.724  1.00  0.00    -0.265 OA
HETATM   13  C18 UNL     1      -0.014  -4.661  -0.856  1.00  0.00     0.148 A 
HETATM   14  C19 UNL     1       0.139  -3.313  -0.585  1.00  0.00     0.058 A 
HETATM   15  C20 UNL     1       1.263  -2.863   0.060  1.00  0.00     0.113 A 
HETATM   16  C21 UNL     1       1.343  -1.518   0.324  1.00  0.00     0.146 A 
HETATM   17  C22 UNL     1       2.424  -0.718   0.946  1.00  0.00     0.251 A 
HETATM   18  O8  UNL     1       3.475  -1.196   1.392  1.00  0.00    -0.282 OA
ENDROOT
BRANCH   1  19
HETATM   19  N7  UNL     1       2.758   1.758   1.418  1.00  0.00    -0.046 N 
HETATM   20  C4  UNL     1       4.117   1.975   1.216  1.00  0.00     0.737 A 
HETATM   21  N4  UNL     1       4.471   3.077   1.852  1.00  0.00    -0.113 N 
HETATM   22  N5  UNL     1       3.405   3.571   2.452  1.00  0.00    -0.213 N 
ATOM     23  H4  UNL     1       5.409   3.478   1.875  1.00  0.00     0.207 HD
HETATM   24  N6  UNL     1       2.375   2.752   2.174  1.00  0.00    -0.205 N 
ATOM     25  H5  UNL     1       3.369   4.417   3.021  1.00  0.00     0.210 HD
ATOM     26  H6  UNL     1       1.421   2.889   2.509  1.00  0.00     0.211 HD
BRANCH  20  27
HETATM   27  N3  UNL     1       4.813   1.039   0.421  1.00  0.00    -0.128 N 
HETATM   28  N2  UNL     1       5.139   1.104  -0.775  1.00  0.00    -0.280 N 
ATOM     29  H2  UNL     1       4.920   1.918  -1.350  1.00  0.00     0.188 HD
ATOM     30  H3  UNL     1       5.089   0.182   0.900  1.00  0.00     0.205 HD
BRANCH  28  31
HETATM   31  C3  UNL     1       5.839  -0.025  -1.301  1.00  0.00     0.221 C 
HETATM   32  N1  UNL     1       7.095  -0.124  -1.309  1.00  0.00    -0.260 N 
ATOM     33  H1  UNL     1       7.447  -0.989  -1.720  1.00  0.00     0.195 HD
BRANCH  32  34
HETATM   34  O1  UNL     1       8.038   0.700  -0.876  1.00  0.00    -0.265 OA
BRANCH  34  35
HETATM   35  C2  UNL     1       9.180   0.356  -0.081  1.00  0.00     0.237 C 
HETATM   36  C1  UNL     1      10.356   0.436  -1.019  1.00  0.00     0.052 C 
BRANCH  35  37
HETATM   37  C23 UNL     1       9.300   1.295   1.047  1.00  0.00     0.262 C 
HETATM   38  N14 UNL     1       8.331   2.308   1.245  1.00  0.00    -0.060 NA
HETATM   39  O9  UNL     1      10.273   1.179   1.825  1.00  0.00    -0.274 OA
ENDBRANCH  35  37
ENDBRANCH  34  35
ENDBRANCH  32  34
ENDBRANCH  28  31
ENDBRANCH  20  27
ENDBRANCH   1  19
BRANCH   5  40
HETATM   40  N10 UNL     1      -1.832  -0.111  -0.813  1.00  0.00    -0.372 N 
ATOM     41  H10 UNL     1      -2.550  -0.277  -1.518  1.00  0.00     0.161 HD
BRANCH  40  42
HETATM   42  C7  UNL     1      -1.881   1.059   0.076  1.00  0.00     0.149 C 
BRANCH  42  43
HETATM   43  C8  UNL     1      -3.347   1.558   0.123  1.00  0.00     0.253 C 
BRANCH  43  44
HETATM   44  N11 UNL     1      -4.194   0.471   0.533  1.00  0.00    -0.062 N 
ATOM     45 2H11 UNL     1      -4.137  -0.299  -0.134  1.00  0.00     0.278 HD
ATOM     46 1H11 UNL     1      -3.812   0.012   1.360  1.00  0.00     0.278 HD
BRANCH  44  47
HETATM   47  C9  UNL     1      -5.512   0.833   0.744  1.00  0.00     0.264 C 
HETATM   48  C10 UNL     1      -6.564  -0.126   0.244  1.00  0.00     0.056 C 
HETATM   49  N12 UNL     1      -6.480  -1.491  -0.072  1.00  0.00    -0.105 NA
HETATM   50  C11 UNL     1      -7.710   0.573   0.117  1.00  0.00     0.037 C 
HETATM   51  C12 UNL     1      -7.472   1.998   0.517  1.00  0.00     0.102 C 
HETATM   52  C13 UNL     1      -8.367   2.974  -0.144  1.00  0.00     0.053 C 
HETATM   53  C14 UNL     1      -5.999   2.091   0.012  1.00  0.00     0.192 C 
BRANCH  51  54
HETATM   54  O2  UNL     1      -7.376   2.161   1.889  1.00  0.00    -0.383 OA
ATOM     55  H2  UNL     1      -7.225   3.064   2.142  1.00  0.00     0.211 HD
ENDBRANCH  51  54
BRANCH  53  56
HETATM   56  O3  UNL     1      -5.995   1.886  -1.364  1.00  0.00    -0.390 OA
ATOM     57  H3  UNL     1      -6.296   2.665  -1.817  1.00  0.00     0.210 HD
ENDBRANCH  53  56
ENDBRANCH  44  47
ENDBRANCH  43  44
ENDBRANCH  42  43
ENDBRANCH  40  42
ENDBRANCH   5  40
BRANCH  15  58
HETATM   58  O7  UNL     1       2.230  -3.751   0.405  1.00  0.00    -0.357 OA
ATOM     59  H7  UNL     1       3.008  -3.439   0.852  1.00  0.00     0.217 HD
ENDBRANCH  15  58
BRANCH  13  60
HETATM   60  O6  UNL     1       1.015  -5.493  -0.472  1.00  0.00    -0.355 OA
ATOM     61  H6  UNL     1       1.812  -5.206  -0.042  1.00  0.00     0.218 HD
ENDBRANCH  13  60
TORSDOF 15
