REMARK  4 active torsions:
REMARK  status: ('A' for Active; 'I' for Inactive)
REMARK    1  A    between atoms: C1_4  and  O1_5 
REMARK    2  A    between atoms: C1_4  and  C2_7 
REMARK    3  A    between atoms: C2_7  and  O2_8 
REMARK    4  A    between atoms: C2_7  and  C3_10 
ROOT
HETATM    1  N1  UNL     1       2.296  -0.228  -1.204  1.00  0.00    -0.382 N 
ATOM      2  H11 UNL     1       2.111  -1.209  -1.413  1.00  0.00     0.158 HD
ATOM      3  H12 UNL     1       3.017   0.271  -1.726  1.00  0.00     0.158 HD
HETATM    4  C1  UNL     1       1.626   0.381  -0.290  1.00  0.00     0.139 C 
ENDROOT
BRANCH   4   5
HETATM    5  O1  UNL     1       1.876   1.707  -0.008  1.00  0.00    -0.348 OA
ATOM      6  H1  UNL     1       1.381   2.157   0.667  1.00  0.00     0.219 HD
ENDBRANCH   4   5
BRANCH   4   7
HETATM    7  C2  UNL     1       0.599  -0.330   0.454  1.00  0.00     0.196 C 
BRANCH   7   8
HETATM    8  O2  UNL     1       0.968  -0.290   1.816  1.00  0.00    -0.387 OA
ATOM      9  H2  UNL     1       0.297  -0.755   2.302  1.00  0.00     0.210 HD
ENDBRANCH   7   8
BRANCH   7  10
HETATM   10  C3  UNL     1      -0.789   0.197   0.272  1.00  0.00     0.022 A 
HETATM   11  C4  UNL     1      -1.475   0.264  -1.008  1.00  0.00     0.008 A 
HETATM   12  C5  UNL     1      -1.871  -0.841  -0.046  1.00  0.00     0.008 A 
ENDBRANCH   7  10
ENDBRANCH   4   7
TORSDOF 4
