REMARK  6 active torsions:
REMARK  status: ('A' for Active; 'I' for Inactive)
REMARK    1  A    between atoms: C2_3  and  N7_17 
REMARK    2  A    between atoms: N2_4  and  N3_6 
REMARK    3  A    between atoms: N3_6  and  C3_8 
REMARK    4  A    between atoms: N7_17  and  N8_19 
REMARK    5  A    between atoms: C5_21  and  C6_22 
REMARK    6  A    between atoms: C7_23  and  O2_24 
ROOT
HETATM    1  N1  UNL     1       2.238   1.856   1.656  1.00  0.00    -0.188 NA
HETATM    2  C1  UNL     1       1.775   1.553   0.643  1.00  0.00     0.139 C 
HETATM    3  C2  UNL     1       1.164   1.189  -0.639  1.00  0.00     0.218 C 
HETATM    4  N2  UNL     1       1.569   0.317  -1.405  1.00  0.00    -0.261 N 
ATOM      5  H2  UNL     1       0.987   0.227  -2.238  1.00  0.00     0.190 HD
ENDROOT
BRANCH   3   6
HETATM    6  N7  UNL     1      -0.016   1.927  -1.013  1.00  0.00    -0.276 N 
ATOM      7  H7  UNL     1       0.052   2.852  -1.438  1.00  0.00     0.189 HD
BRANCH   6   8
HETATM    8  N8  UNL     1      -1.246   1.335  -0.775  1.00  0.00    -0.309 N 
HETATM    9  C5  UNL     1      -1.383   0.337   0.035  1.00  0.00     0.128 C 
ATOM     10  H8  UNL     1      -2.070   1.698  -1.254  1.00  0.00     0.186 HD
BRANCH   9  11
HETATM   11  C6  UNL     1      -2.693  -0.245   0.249  1.00  0.00     0.100 A 
HETATM   12  C7  UNL     1      -3.829   0.212  -0.372  1.00  0.00     0.161 A 
HETATM   13  N9  UNL     1      -5.021  -0.339  -0.149  1.00  0.00    -0.288 N 
HETATM   14  C8  UNL     1      -5.115  -1.378   0.713  1.00  0.00     0.329 A 
ATOM     15  H9  UNL     1      -5.852   0.017  -0.622  1.00  0.00     0.172 HD
HETATM   16  O3  UNL     1      -6.231  -1.890   0.919  1.00  0.00    -0.247 OA
HETATM   17  N10 UNL     1      -4.056  -1.880   1.355  1.00  0.00    -0.275 N 
HETATM   18  C9  UNL     1      -2.860  -1.320   1.126  1.00  0.00     0.265 A 
ATOM     19  H10 UNL     1      -4.155  -2.665   1.999  1.00  0.00     0.173 HD
HETATM   20  O4  UNL     1      -1.843  -1.771   1.716  1.00  0.00    -0.267 OA
BRANCH  12  21
HETATM   21  O2  UNL     1      -3.645   1.292  -1.251  1.00  0.00    -0.345 OA
ATOM     22  H2  UNL     1      -4.431   1.608  -1.681  1.00  0.00     0.219 HD
ENDBRANCH  12  21
ENDBRANCH   9  11
ENDBRANCH   6   8
ENDBRANCH   3   6
BRANCH   4  23
HETATM   23  N3  UNL     1       2.594  -0.541  -1.401  1.00  0.00    -0.128 N 
ATOM     24  H3  UNL     1       2.529  -1.402  -1.943  1.00  0.00     0.205 HD
BRANCH  23  25
HETATM   25  C3  UNL     1       3.790  -0.269  -0.643  1.00  0.00     0.715 A 
HETATM   26  N4  UNL     1       4.683   0.698  -0.897  1.00  0.00    -0.127 N 
HETATM   27  N5  UNL     1       5.656   0.623  -0.006  1.00  0.00    -0.237 N 
ATOM     28  H4  UNL     1       4.622   1.379  -1.653  1.00  0.00     0.206 HD
HETATM   29  C4  UNL     1       5.395  -0.404   0.838  1.00  0.00     0.353 A 
ATOM     30  H5  UNL     1       6.469   1.237   0.039  1.00  0.00     0.192 HD
HETATM   31  O1  UNL     1       6.122  -0.771   1.825  1.00  0.00    -0.245 OA
HETATM   32  N6  UNL     1       4.241  -0.939   0.426  1.00  0.00    -0.137 N 
ATOM     33  H6  UNL     1       3.775  -1.736   0.860  1.00  0.00     0.189 HD
ENDBRANCH  23  25
ENDBRANCH   4  23
TORSDOF 6
