REMARK  2 active torsions:
REMARK  status: ('A' for Active; 'I' for Inactive)
REMARK    1  A    between atoms: C4_5  and  O1_6 
REMARK    2  A    between atoms: C6_9  and  O2_10 
ROOT
HETATM    1  N1  UNL     1      -1.625   3.093   0.643  1.00  0.00    -0.197 NA
HETATM    2  C1  UNL     1      -1.222   1.989   0.667  1.00  0.00     0.066 C 
HETATM    3  C2  UNL     1      -0.701   0.632   0.700  1.00  0.00     0.124 C 
HETATM    4  C3  UNL     1       0.822   0.655   0.667  1.00  0.00     0.053 C 
HETATM    5  C4  UNL     1       1.118  -0.643  -0.043  1.00  0.00     0.122 C 
HETATM    6  C5  UNL     1       0.160  -0.533  -1.236  1.00  0.00     0.065 C 
HETATM    7  C6  UNL     1      -1.127  -0.160  -0.511  1.00  0.00     0.138 C 
ENDROOT
BRANCH   7   8
HETATM    8  O2  UNL     1      -1.891  -1.265  -0.205  1.00  0.00    -0.394 OA
ATOM      9  H2  UNL     1      -2.159  -1.764  -0.968  1.00  0.00     0.210 HD
ENDBRANCH   7   8
BRANCH   5  10
HETATM   10  O1  UNL     1       2.426  -0.777  -0.434  1.00  0.00    -0.395 OA
ATOM     11  H1  UNL     1       2.612  -1.594  -0.881  1.00  0.00     0.210 HD
ENDBRANCH   5  10
TORSDOF 2
