REMARK  7 active torsions:
REMARK  status: ('A' for Active; 'I' for Inactive)
REMARK    1  A    between atoms: N1_1  and  N2_4 
REMARK       I    between atoms: N2_4  and  C1_6 
REMARK    2  A    between atoms: C1_6  and  C2_8 
REMARK    3  A    between atoms: N4_11  and  C4_12 
REMARK    4  A    between atoms: C5_14  and  O3_15 
REMARK    5  A    between atoms: C6_17  and  C7_18 
REMARK    6  A    between atoms: C7_18  and  O4_19 
REMARK    7  A    between atoms: C7_18  and  C8_21 
ROOT
HETATM    1  C2  UNL     1       2.832  -0.548   0.379  1.00  0.00     0.143 A 
HETATM    2  C3  UNL     1       1.621   0.131   0.593  1.00  0.00     0.147 A 
HETATM    3  N3  UNL     1       1.620   1.559   0.599  1.00  0.00    -0.081 NA
HETATM    4  N4  UNL     1       0.518  -0.589   0.783  1.00  0.00    -0.235 N 
HETATM    5  C9  UNL     1       0.557  -1.931   0.771  1.00  0.00     0.334 A 
HETATM    6  O7  UNL     1      -0.530  -2.571   0.958  1.00  0.00    -0.246 OA
HETATM    7  N6  UNL     1       1.670  -2.628   0.574  1.00  0.00    -0.274 N 
ATOM      8  H6  UNL     1       1.667  -3.648   0.571  1.00  0.00     0.173 HD
HETATM    9  C10 UNL     1       2.817  -1.919   0.376  1.00  0.00     0.268 A 
HETATM   10  O8  UNL     1       3.837  -2.623   0.195  1.00  0.00    -0.267 OA
ENDROOT
BRANCH   4  11
HETATM   11  C4  UNL     1      -0.745   0.094   1.006  1.00  0.00     0.385 C 
HETATM   12  O2  UNL     1      -0.809   1.329   0.410  1.00  0.00    -0.310 OA
HETATM   13  C5  UNL     1      -1.345   1.047  -0.836  1.00  0.00     0.293 C 
HETATM   14  C6  UNL     1      -2.395   0.015  -0.502  1.00  0.00     0.219 C 
HETATM   15  O6  UNL     1      -1.772  -0.686   0.539  1.00  0.00    -0.330 OA
BRANCH  13  16
HETATM   16  O3  UNL     1      -1.856   2.146  -1.480  1.00  0.00    -0.368 OA
ATOM     17  H3  UNL     1      -2.224   1.953  -2.334  1.00  0.00     0.212 HD
ENDBRANCH  13  16
BRANCH  14  18
HETATM   18  C7  UNL     1      -3.640   0.631   0.089  1.00  0.00     0.241 C 
BRANCH  18  19
HETATM   19  O4  UNL     1      -4.376   1.360  -0.807  1.00  0.00    -0.384 OA
ATOM     20  H4  UNL     1      -5.160   1.748  -0.435  1.00  0.00     0.210 HD
ENDBRANCH  18  19
BRANCH  18  21
HETATM   21  C8  UNL     1      -4.438  -0.513   0.661  1.00  0.00     0.262 C 
HETATM   22  N5  UNL     1      -5.785  -0.754   0.278  1.00  0.00    -0.060 NA
HETATM   23  O5  UNL     1      -3.917  -1.290   1.503  1.00  0.00    -0.274 OA
ENDBRANCH  18  21
ENDBRANCH  14  18
ENDBRANCH   4  11
BRANCH   1  24
HETATM   24  C1  UNL     1       4.035   0.234   0.172  1.00  0.00     0.278 C 
HETATM   25  N2  UNL     1       5.335  -0.232  -0.056  1.00  0.00    -0.272 N 
ATOM     26  H2  UNL     1       5.513  -1.236  -0.090  1.00  0.00     0.189 HD
HETATM   27  O1  UNL     1       3.924   1.519   0.197  1.00  0.00    -0.266 OA
BRANCH  25  28
HETATM   28  N1  UNL     1       6.410   0.679  -0.240  1.00  0.00    -0.342 N 
ATOM     29  H12 UNL     1       6.215   1.680  -0.203  1.00  0.00     0.176 HD
ATOM     30  H11 UNL     1       7.357   0.339  -0.406  1.00  0.00     0.176 HD
ENDBRANCH  25  28
ENDBRANCH   1  24
TORSDOF 7
