REMARK  14 active torsions:
REMARK  status: ('A' for Active; 'I' for Inactive)
REMARK    1  A    between atoms: S1_2  and  C2_3 
REMARK    2  A    between atoms: C2_3  and  C3_4 
REMARK    3  A    between atoms: C3_4  and  C4_5 
REMARK    4  A    between atoms: C4_5  and  C5_6 
REMARK    5  A    between atoms: C5_6  and  C6_7 
REMARK    6  A    between atoms: C6_7  and  C7_8 
REMARK    7  A    between atoms: C13_19  and  O2_20 
REMARK    8  A    between atoms: C14_22  and  C15_23 
REMARK    9  A    between atoms: C15_23  and  C16_24 
REMARK   10  A    between atoms: C16_24  and  C17_25 
REMARK   11  A    between atoms: C24_35  and  C25_36 
REMARK   12  A    between atoms: C25_36  and  C26_37 
REMARK   13  A    between atoms: C26_37  and  C27_38 
REMARK   14  A    between atoms: C27_38  and  N4_39 
ROOT
HETATM    1  C7  UNL     1       2.499  -0.055   0.911  1.00  0.00     0.177 C 
HETATM    2  N1  UNL     1       1.419  -0.871   1.408  1.00  0.00    -0.337 N 
ATOM      3  H1  UNL     1       0.730  -0.369   1.969  1.00  0.00     0.164 HD
HETATM    4  C8  UNL     1       1.156  -2.249   1.248  1.00  0.00     0.297 C 
HETATM    5  O1  UNL     1       0.986  -2.906   2.348  1.00  0.00    -0.258 OA
HETATM    6  C9  UNL     1       1.051  -3.002   0.098  1.00  0.00    -0.001 C 
HETATM    7  C10 UNL     1       0.930  -3.605  -0.847  1.00  0.00    -0.067 C 
HETATM    8  C11 UNL     1       0.744  -4.327  -1.997  1.00  0.00     0.082 C 
HETATM    9  C12 UNL     1       0.416  -3.925  -3.211  1.00  0.00     0.098 C 
HETATM   10  N2  UNL     1       0.149  -2.672  -3.739  1.00  0.00    -0.348 N 
ATOM     11  H2  UNL     1       0.855  -2.394  -4.420  1.00  0.00     0.167 HD
HETATM   12  C13 UNL     1      -0.824  -1.697  -3.586  1.00  0.00     0.138 C 
HETATM   13  C14 UNL     1      -1.619  -1.292  -2.416  1.00  0.00     0.159 C 
HETATM   14  N3  UNL     1      -1.827   0.149  -2.445  1.00  0.00    -0.347 N 
ATOM     15  H3  UNL     1      -2.647   0.486  -2.950  1.00  0.00     0.163 HD
HETATM   16  C23 UNL     1      -1.004   1.124  -1.842  1.00  0.00     0.241 C 
HETATM   17  O3  UNL     1      -0.718   2.119  -2.542  1.00  0.00    -0.271 OA
HETATM   18  C24 UNL     1      -0.453   1.069  -0.461  1.00  0.00     0.178 C 
HETATM   19  N7  UNL     1       0.863   1.611  -0.302  1.00  0.00    -0.341 N 
HETATM   20  C29 UNL     1       1.001   3.077  -0.338  1.00  0.00     0.153 C 
HETATM   21  C30 UNL     1       2.087   0.913  -0.143  1.00  0.00     0.243 C 
HETATM   22  O4  UNL     1       2.943   1.190  -1.075  1.00  0.00    -0.271 OA
ENDROOT
BRANCH  13  23
HETATM   23  C15 UNL     1      -3.005  -1.931  -2.591  1.00  0.00     0.038 C 
BRANCH  23  24
HETATM   24  C16 UNL     1      -3.904  -1.567  -1.428  1.00  0.00     0.041 C 
BRANCH  24  25
HETATM   25  C17 UNL     1      -5.217  -2.219  -1.662  1.00  0.00    -0.058 A 
HETATM   26  C18 UNL     1      -6.225  -1.600  -2.356  1.00  0.00     0.007 A 
HETATM   27  C19 UNL     1      -7.454  -2.193  -2.581  1.00  0.00     0.001 A 
HETATM   28  C20 UNL     1      -7.692  -3.458  -2.093  1.00  0.00     0.000 A 
HETATM   29  C21 UNL     1      -6.701  -4.113  -1.389  1.00  0.00     0.001 A 
HETATM   30  C22 UNL     1      -5.466  -3.487  -1.177  1.00  0.00     0.007 A 
ENDBRANCH  24  25
ENDBRANCH  23  24
ENDBRANCH  13  23
BRANCH  12  31
HETATM   31  O2  UNL     1      -1.110  -0.989  -4.656  1.00  0.00    -0.348 OA
ATOM     32  H2  UNL     1      -1.777  -0.321  -4.551  1.00  0.00     0.219 HD
ENDBRANCH  12  31
BRANCH  18  33
HETATM   33  C25 UNL     1      -1.441   1.477   0.580  1.00  0.00     0.037 C 
BRANCH  33  34
HETATM   34  C26 UNL     1      -2.026   2.838   0.509  1.00  0.00     0.022 C 
BRANCH  34  35
HETATM   35  C27 UNL     1      -3.070   2.978   1.655  1.00  0.00     0.122 C 
BRANCH  35  36
HETATM   36  N4  UNL     1      -2.459   2.776   2.924  1.00  0.00    -0.367 N 
HETATM   37  C28 UNL     1      -2.411   3.574   3.910  1.00  0.00     0.196 C 
HETATM   38  N5  UNL     1      -1.778   3.284   5.135  1.00  0.00    -0.067 NA
HETATM   39  N6  UNL     1      -3.032   4.851   3.784  1.00  0.00    -0.067 NA
ATOM     40  H4  UNL     1      -2.001   1.875   3.059  1.00  0.00     0.161 HD
ENDBRANCH  35  36
ENDBRANCH  34  35
ENDBRANCH  33  34
ENDBRANCH  18  33
BRANCH   1  41
HETATM   41  C6  UNL     1       3.223   0.660   2.036  1.00  0.00     0.035 C 
BRANCH  41  42
HETATM   42  C5  UNL     1       4.360   1.503   1.647  1.00  0.00     0.002 C 
BRANCH  42  43
HETATM   43  C4  UNL     1       5.537   0.789   1.006  1.00  0.00     0.001 C 
BRANCH  43  44
HETATM   44  C3  UNL     1       6.127  -0.224   1.946  1.00  0.00     0.010 C 
BRANCH  44  45
HETATM   45  C2  UNL     1       7.259  -0.964   1.341  1.00  0.00     0.073 C 
BRANCH  45  46
HETATM   46  S1  UNL     1       8.639   0.055   0.860  1.00  0.00    -0.173 SA
HETATM   47  C1  UNL     1       8.270   1.032  -0.603  1.00  0.00     0.089 C 
ENDBRANCH  45  46
ENDBRANCH  44  45
ENDBRANCH  43  44
ENDBRANCH  42  43
ENDBRANCH  41  42
ENDBRANCH   1  41
TORSDOF 14
