REMARK  18 active torsions:
REMARK  status: ('A' for Active; 'I' for Inactive)
REMARK    1  A    between atoms: C2_2  and  C3_3 
REMARK    2  A    between atoms: C5_5  and  O1_6 
REMARK    3  A    between atoms: C7_10  and  C8_11 
REMARK    4  A    between atoms: C8_11  and  C10_13 
REMARK    5  A    between atoms: C12_15  and  O2_16 
REMARK    6  A    between atoms: C13_20  and  C14_21 
REMARK    7  A    between atoms: C14_21  and  O3_22 
REMARK    8  A    between atoms: C14_21  and  N3_24 
REMARK    9  A    between atoms: N3_24  and  C15_25 
REMARK   10  A    between atoms: C15_25  and  C16_26 
REMARK   11  A    between atoms: C15_25  and  C20_34 
REMARK   12  A    between atoms: C16_26  and  C17_27 
REMARK   13  A    between atoms: C17_27  and  C18_28 
REMARK   14  A    between atoms: C18_28  and  N4_29 
REMARK   15  A    between atoms: C23_37  and  N7_38 
REMARK   16  A    between atoms: N7_38  and  C24_40 
REMARK   17  A    between atoms: N8_44  and  N9_46 
REMARK   18  A    between atoms: N9_46  and  N10_48 
ROOT
HETATM    1  C3  UNL     1      -2.136  -1.362  -1.503  1.00  0.00     0.042 C 
HETATM    2  C4  UNL     1      -3.296  -0.547  -1.055  1.00  0.00     0.094 C 
HETATM    3  C5  UNL     1      -3.274   0.867  -1.508  1.00  0.00     0.118 C 
HETATM    4  N1  UNL     1      -2.585   1.975  -0.983  1.00  0.00    -0.335 N 
HETATM    5  C6  UNL     1      -1.665   2.630  -1.973  1.00  0.00     0.158 C 
HETATM    6  C7  UNL     1      -2.626   2.586   0.299  1.00  0.00     0.067 C 
HETATM    7  C12 UNL     1      -1.993   1.960   1.440  1.00  0.00     0.160 C 
HETATM    8  N2  UNL     1      -1.579   0.656   1.706  1.00  0.00    -0.354 N 
ATOM      9  H2  UNL     1      -1.948   0.242   2.562  1.00  0.00     0.162 HD
HETATM   10  C13 UNL     1      -0.698  -0.187   0.933  1.00  0.00     0.201 C 
HETATM   11  C23 UNL     1      -1.276  -1.586   0.906  1.00  0.00     0.157 C 
HETATM   12  C27 UNL     1      -1.411  -2.115  -0.461  1.00  0.00     0.034 C 
HETATM   13  N8  UNL     1      -0.912  -3.219  -0.804  1.00  0.00    -0.292 N 
ATOM     14  H8  UNL     1      -1.097  -3.417  -1.787  1.00  0.00     0.188 HD
ENDROOT
BRANCH  10  15
HETATM   15  C14 UNL     1       0.637  -0.175   1.663  1.00  0.00     0.215 C 
BRANCH  15  16
HETATM   16  O3  UNL     1       0.505   0.062   2.948  1.00  0.00    -0.337 OA
ATOM     17  H3  UNL     1       1.338   0.069   3.404  1.00  0.00     0.220 HD
ENDBRANCH  15  16
BRANCH  15  18
HETATM   18  N3  UNL     1       1.813  -0.364   1.135  1.00  0.00    -0.391 NA
BRANCH  18  19
HETATM   19  C15 UNL     1       2.885  -0.563   0.650  1.00  0.00     0.068 C 
BRANCH  19  20
HETATM   20  C16 UNL     1       3.865   0.547   0.397  1.00  0.00     0.070 C 
BRANCH  20  21
HETATM   21  C17 UNL     1       4.190   0.724  -1.027  1.00  0.00     0.026 C 
BRANCH  21  22
HETATM   22  C18 UNL     1       5.162   1.912  -1.226  1.00  0.00     0.122 C 
BRANCH  22  23
HETATM   23  N4  UNL     1       6.360   1.637  -0.499  1.00  0.00    -0.367 N 
HETATM   24  C19 UNL     1       7.498   2.014  -0.977  1.00  0.00     0.196 C 
HETATM   25  N5  UNL     1       8.659   1.701  -0.196  1.00  0.00    -0.067 NA
HETATM   26  N6  UNL     1       7.627   2.706  -2.206  1.00  0.00    -0.067 NA
ATOM     27  H4  UNL     1       6.317   1.145   0.394  1.00  0.00     0.161 HD
ENDBRANCH  22  23
ENDBRANCH  21  22
ENDBRANCH  20  21
ENDBRANCH  19  20
BRANCH  19  28
HETATM   28  C20 UNL     1       3.241  -1.981   0.279  1.00  0.00     0.037 C 
HETATM   29  C21 UNL     1       3.099  -2.187  -1.189  1.00  0.00     0.017 C 
HETATM   30  C22 UNL     1       4.665  -2.304   0.748  1.00  0.00     0.017 C 
ENDBRANCH  19  28
ENDBRANCH  18  19
ENDBRANCH  15  18
ENDBRANCH  10  15
BRANCH  11  31
HETATM   31  N7  UNL     1      -0.586  -2.452   1.791  1.00  0.00    -0.406 N 
ATOM     32  H7  UNL     1       0.432  -2.507   1.757  1.00  0.00     0.154 HD
BRANCH  31  33
HETATM   33  C24 UNL     1      -1.299  -3.236   2.716  1.00  0.00     0.069 C 
HETATM   34  C25 UNL     1      -0.258  -4.065   3.501  1.00  0.00     0.031 C 
HETATM   35  C26 UNL     1      -2.141  -2.537   3.722  1.00  0.00     0.031 C 
ENDBRANCH  31  33
ENDBRANCH  11  31
BRANCH   7  36
HETATM   36  O2  UNL     1      -1.758   2.774   2.430  1.00  0.00    -0.345 OA
ATOM     37  H2  UNL     1      -1.342   2.363   3.179  1.00  0.00     0.219 HD
ENDBRANCH   7  36
BRANCH   6  38
HETATM   38  C8  UNL     1      -4.007   3.131   0.697  1.00  0.00     0.036 C 
HETATM   39  C9  UNL     1      -5.080   2.123   0.748  1.00  0.00     0.016 C 
BRANCH  38  40
HETATM   40  C10 UNL     1      -4.341   4.346  -0.142  1.00  0.00     0.006 C 
HETATM   41  C11 UNL     1      -5.692   4.919   0.212  1.00  0.00     0.006 C 
ENDBRANCH  38  40
ENDBRANCH   6  38
BRANCH   1  42
HETATM   42  C2  UNL     1      -2.448  -2.283  -2.675  1.00  0.00     0.006 C 
HETATM   43  C1  UNL     1      -2.897  -1.549  -3.910  1.00  0.00     0.006 C 
ENDBRANCH   1  42
BRANCH  13  44
HETATM   44  N9  UNL     1      -0.207  -4.204  -0.238  1.00  0.00    -0.249 N 
ATOM     45  H9  UNL     1       0.652  -3.943   0.245  1.00  0.00     0.207 HD
BRANCH  44  46
HETATM   46  N10 UNL     1      -0.518  -5.452  -0.250  1.00  0.00    -0.331 N 
ATOM     47 2H10 UNL     1      -1.380  -5.694  -0.738  1.00  0.00     0.178 HD
ATOM     48 1H10 UNL     1       0.020  -6.203   0.182  1.00  0.00     0.178 HD
ENDBRANCH  44  46
ENDBRANCH  13  44
BRANCH   3  49
HETATM   49  O1  UNL     1      -4.007   1.116  -2.556  1.00  0.00    -0.349 OA
ATOM     50  H1  UNL     1      -3.993   2.021  -2.846  1.00  0.00     0.219 HD
ENDBRANCH   3  49
TORSDOF 18
