REMARK  5 active torsions:
REMARK  status: ('A' for Active; 'I' for Inactive)
REMARK    1  A    between atoms: N1_1  and  C1_4 
REMARK    2  A    between atoms: C2_7  and  N3_8 
REMARK    3  A    between atoms: N6_19  and  C6_20 
REMARK    4  A    between atoms: C6_20  and  C7_21 
REMARK    5  A    between atoms: C7_21  and  N7_22 
ROOT
HETATM    1  C1  UNL     1       4.977  -0.647   0.598  1.00  0.00     0.679 A 
HETATM    2  N2  UNL     1       3.893  -1.470   0.664  1.00  0.00    -0.175 N 
ATOM      3  H2  UNL     1       4.012  -2.427   0.996  1.00  0.00     0.186 HD
HETATM    4  C2  UNL     1       2.670  -1.046   0.301  1.00  0.00     0.145 A 
HETATM    5  C3  UNL     1       2.467   0.243  -0.154  1.00  0.00     0.128 A 
HETATM    6  C4  UNL     1       3.582   1.088  -0.221  1.00  0.00     0.156 A 
HETATM    7  N4  UNL     1       4.777   0.604   0.157  1.00  0.00    -0.174 N 
ATOM      8  H4  UNL     1       5.583   1.227   0.105  1.00  0.00     0.186 HD
HETATM    9  N5  UNL     1       3.114   2.252  -0.682  1.00  0.00    -0.292 N 
ATOM     10  H5  UNL     1       3.696   3.075  -0.840  1.00  0.00     0.172 HD
HETATM   11  C5  UNL     1       1.798   2.216  -0.913  1.00  0.00     0.328 A 
HETATM   12  O1  UNL     1       1.058   3.145  -1.348  1.00  0.00    -0.246 OA
HETATM   13  N6  UNL     1       1.409   0.951  -0.577  1.00  0.00    -0.291 N 
ENDROOT
BRANCH  13  14
HETATM   14  C6  UNL     1       0.055   0.494  -0.686  1.00  0.00     0.154 C 
BRANCH  14  15
HETATM   15  C7  UNL     1      -0.745   0.695   0.569  1.00  0.00     0.146 C 
BRANCH  15  16
HETATM   16  N7  UNL     1      -2.104   0.216   0.406  1.00  0.00    -0.351 N 
HETATM   17  C8  UNL     1      -3.167   1.075  -0.079  1.00  0.00     0.126 C 
HETATM   18  C9  UNL     1      -4.444   0.625   0.620  1.00  0.00     0.020 C 
HETATM   19  C10 UNL     1      -4.862  -0.754   0.219  1.00  0.00     0.011 C 
HETATM   20  C11 UNL     1      -3.706  -1.728   0.175  1.00  0.00     0.103 C 
HETATM   21  C12 UNL     1      -2.459  -1.127   0.715  1.00  0.00     0.219 C 
HETATM   22  O2  UNL     1      -1.696  -1.797   1.456  1.00  0.00    -0.273 OA
ENDBRANCH  15  16
ENDBRANCH  14  15
ENDBRANCH  13  14
BRANCH   4  23
HETATM   23  N3  UNL     1       1.690  -1.872   0.391  1.00  0.00    -0.383 N 
ATOM     24  H32 UNL     1       1.840  -2.823   0.727  1.00  0.00     0.157 HD
ATOM     25  H31 UNL     1       0.762  -1.550   0.116  1.00  0.00     0.157 HD
ENDBRANCH   4  23
BRANCH   1  26
HETATM   26  N1  UNL     1       6.161  -1.052   0.948  1.00  0.00    -0.234 N 
ATOM     27  H12 UNL     1       6.313  -2.003   1.283  1.00  0.00     0.174 HD
ATOM     28  H11 UNL     1       6.972  -0.436   0.899  1.00  0.00     0.174 HD
ENDBRANCH   1  26
TORSDOF 5
