REMARK  12 active torsions:
REMARK  status: ('A' for Active; 'I' for Inactive)
REMARK    1  A    between atoms: C6_6  and  N1_7 
REMARK       I    between atoms: N1_7  and  C7_9 
REMARK    2  A    between atoms: C13_18  and  C14_19 
REMARK    3  A    between atoms: C14_19  and  C15_20 
REMARK    4  A    between atoms: C15_20  and  C16_21 
REMARK    5  A    between atoms: C16_21  and  C17_22 
REMARK    6  A    between atoms: C17_22  and  N4_23 
REMARK       I    between atoms: C18_25  and  N5_26 
REMARK       I    between atoms: C18_25  and  N10_48 
REMARK    7  A    between atoms: N5_26  and  C19_28 
REMARK    8  A    between atoms: C19_28  and  C20_29 
REMARK    9  A    between atoms: C20_29  and  N6_30 
REMARK   10  A    between atoms: C23_33  and  N7_34 
REMARK       I    between atoms: N7_34  and  C24_36 
REMARK   11  A    between atoms: C24_36  and  C25_38 
REMARK   12  A    between atoms: C25_38  and  N8_39 
ROOT
HETATM    1  N4  UNL     1      -0.049  -0.902  -0.539  1.00  0.00    -0.226 N 
ATOM      2  H4  UNL     1      -0.549  -1.775  -0.706  1.00  0.00     0.177 HD
HETATM    3  C18 UNL     1       1.205  -0.937  -0.727  1.00  0.00     0.671 C 
HETATM    4  N5  UNL     1       2.064   0.188  -0.543  1.00  0.00    -0.225 N 
ATOM      5  H5  UNL     1       1.661   1.125  -0.531  1.00  0.00     0.177 HD
HETATM    6  N10 UNL     1       1.804  -2.163  -1.144  1.00  0.00    -0.218 N 
HETATM    7  C29 UNL     1       2.155  -3.234  -0.244  1.00  0.00     0.141 C 
HETATM    8  C30 UNL     1       3.277  -3.974  -0.933  1.00  0.00     0.022 C 
HETATM    9  C31 UNL     1       2.942  -3.793  -2.403  1.00  0.00     0.022 C 
HETATM   10  C32 UNL     1       2.142  -2.508  -2.487  1.00  0.00     0.141 C 
ENDROOT
BRANCH   1  11
HETATM   11  C17 UNL     1      -0.852   0.209  -0.122  1.00  0.00     0.138 C 
BRANCH  11  12
HETATM   12  C16 UNL     1      -1.208   0.067   1.354  1.00  0.00     0.020 C 
BRANCH  12  13
HETATM   13  C15 UNL     1      -2.034   1.178   1.855  1.00  0.00     0.002 C 
BRANCH  13  14
HETATM   14  C14 UNL     1      -3.347   1.476   1.288  1.00  0.00     0.005 C 
BRANCH  14  15
HETATM   15  C13 UNL     1      -4.501   0.551   1.449  1.00  0.00    -0.007 C 
HETATM   16  C8  UNL     1      -5.732   1.075   0.741  1.00  0.00     0.014 C 
HETATM   17  C6  UNL     1      -5.816   0.793  -0.716  1.00  0.00     0.091 C 
HETATM   18  C9  UNL     1      -7.011   0.858   1.514  1.00  0.00     0.033 C 
HETATM   19  C5  UNL     1      -7.271   0.636  -1.179  1.00  0.00     0.040 C 
HETATM   20  C4  UNL     1      -7.861  -0.693  -0.895  1.00  0.00     0.089 C 
HETATM   21  C2  UNL     1      -8.622  -0.746   0.412  1.00  0.00    -0.015 C 
HETATM   22  C33 UNL     1      -6.761  -1.672  -0.558  1.00  0.00     0.225 C 
HETATM   23  C1  UNL     1      -9.131  -2.171   0.564  1.00  0.00     0.018 C 
HETATM   24  C3  UNL     1      -9.756   0.187   0.503  1.00  0.00     0.018 C 
HETATM   25  C10 UNL     1      -7.523  -0.553   1.397  1.00  0.00     0.096 C 
HETATM   26  N3  UNL     1      -6.462  -1.393   0.804  1.00  0.00    -0.346 N 
HETATM   27  C11 UNL     1      -5.321  -1.842   1.513  1.00  0.00     0.127 C 
HETATM   28  C12 UNL     1      -4.174  -0.862   1.304  1.00  0.00     0.025 C 
HETATM   29  O3  UNL     1      -6.230  -2.529  -1.292  1.00  0.00    -0.273 OA
BRANCH  17  30
HETATM   30  N1  UNL     1      -5.325   1.899  -1.533  1.00  0.00    -0.340 N 
HETATM   31  C7  UNL     1      -4.506   1.633  -2.652  1.00  0.00     0.329 C 
HETATM   32  N2  UNL     1      -3.987   2.650  -3.497  1.00  0.00    -0.040 NA
HETATM   33  O1  UNL     1      -4.208   0.445  -2.933  1.00  0.00    -0.251 OA
ATOM     34  H1  UNL     1      -5.573   2.860  -1.296  1.00  0.00     0.164 HD
ENDBRANCH  17  30
ENDBRANCH  14  15
ENDBRANCH  13  14
ENDBRANCH  12  13
ENDBRANCH  11  12
ENDBRANCH   1  11
BRANCH   4  35
HETATM   35  C19 UNL     1       3.499   0.031  -0.373  1.00  0.00     0.168 C 
BRANCH  35  36
HETATM   36  C20 UNL     1       4.179   1.370  -0.203  1.00  0.00     0.285 C 
BRANCH  36  37
HETATM   37  N6  UNL     1       5.593   1.188  -0.045  1.00  0.00     0.013 N 
HETATM   38  C21 UNL     1       5.950  -0.101   0.518  1.00  0.00     0.268 C 
HETATM   39  C22 UNL     1       7.432  -0.168   0.720  1.00  0.00     0.067 C 
HETATM   40  C23 UNL     1       8.104   1.022   0.053  1.00  0.00     0.069 C 
HETATM   41  C26 UNL     1       7.487   1.170  -1.298  1.00  0.00     0.118 C 
HETATM   42  C27 UNL     1       7.636   2.239   0.850  1.00  0.00     0.067 C 
HETATM   43  N9  UNL     1       6.204   1.253  -1.310  1.00  0.00    -0.229 N 
ATOM     44  H9  UNL     1       5.669   1.358  -2.172  1.00  0.00     0.192 HD
HETATM   45  C28 UNL     1       6.118   2.196   0.850  1.00  0.00     0.268 C 
BRANCH  40  46
HETATM   46  N7  UNL     1       9.524   0.885   0.006  1.00  0.00    -0.346 N 
HETATM   47  C24 UNL     1      10.406   1.828  -0.562  1.00  0.00     0.244 C 
HETATM   48  O2  UNL     1       9.973   2.886  -1.081  1.00  0.00    -0.272 OA
ATOM     49  H7  UNL     1       9.931   0.043   0.413  1.00  0.00     0.163 HD
BRANCH  47  50
HETATM   50  C25 UNL     1      11.882   1.574  -0.551  1.00  0.00     0.332 C 
BRANCH  50  51
HETATM   51  N8  UNL     1      12.164   0.303   0.094  1.00  0.00    -0.071 N 
ATOM     52  H83 UNL     1      11.761   0.252   1.029  1.00  0.00     0.274 HD
ATOM     53  H82 UNL     1      11.647  -0.465  -0.334  1.00  0.00     0.274 HD
ATOM     54  H81 UNL     1      13.169   0.130   0.101  1.00  0.00     0.274 HD
ENDBRANCH  50  51
ENDBRANCH  47  50
ENDBRANCH  40  46
ENDBRANCH  36  37
ENDBRANCH  35  36
ENDBRANCH   4  35
TORSDOF 12
