REMARK  11 active torsions:
REMARK  status: ('A' for Active; 'I' for Inactive)
REMARK    1  A    between atoms: C2_2  and  C3_3 
REMARK    2  A    between atoms: C3_3  and  S1_4 
REMARK    3  A    between atoms: S1_4  and  C4_6 
REMARK    4  A    between atoms: C4_6  and  C5_7 
REMARK    5  A    between atoms: C20_32  and  C21_33 
REMARK    6  A    between atoms: C25_40  and  C26_41 
REMARK    7  A    between atoms: C26_41  and  C27_42 
REMARK    8  A    between atoms: C27_42  and  C28_43 
REMARK    9  A    between atoms: C28_43  and  C29_44 
REMARK   10  A    between atoms: C29_44  and  C30_45 
REMARK   11  A    between atoms: C30_45  and  C31_46 
ROOT
HETATM    1  C5  UNL     1       0.155   2.863   0.227  1.00  0.00     0.089 C 
HETATM    2  C6  UNL     1      -0.904   3.421   1.127  1.00  0.00     0.015 C 
HETATM    3  C7  UNL     1      -2.038   4.094   0.416  1.00  0.00     0.002 C 
HETATM    4  C8  UNL     1      -3.337   3.332   0.539  1.00  0.00     0.020 C 
HETATM    5  C9  UNL     1      -3.756   3.154   1.978  1.00  0.00     0.122 C 
HETATM    6  N1  UNL     1      -5.181   2.926   2.115  1.00  0.00    -0.361 N 
ATOM      7  H1  UNL     1      -5.809   3.711   1.940  1.00  0.00     0.162 HD
HETATM    8  C10 UNL     1      -5.760   1.680   2.478  1.00  0.00     0.217 C 
HETATM    9  O2  UNL     1      -7.006   1.548   2.384  1.00  0.00    -0.274 OA
HETATM   10  C11 UNL     1      -4.955   0.532   2.962  1.00  0.00     0.112 C 
HETATM   11  C12 UNL     1      -5.822  -0.717   2.969  1.00  0.00     0.112 C 
HETATM   12  C13 UNL     1      -5.900  -1.366   1.627  1.00  0.00     0.218 C 
HETATM   13  O3  UNL     1      -7.067  -1.671   1.181  1.00  0.00    -0.274 OA
HETATM   14  N2  UNL     1      -4.829  -1.683   0.792  1.00  0.00    -0.348 N 
ATOM     15  H2  UNL     1      -4.924  -1.386  -0.179  1.00  0.00     0.163 HD
HETATM   16  C14 UNL     1      -3.606  -2.373   1.116  1.00  0.00     0.172 C 
HETATM   17  C15 UNL     1      -3.642  -2.869   2.557  1.00  0.00     0.042 C 
HETATM   18  C16 UNL     1      -3.298  -3.512   0.215  1.00  0.00     0.240 C 
HETATM   19  O4  UNL     1      -3.712  -4.645   0.608  1.00  0.00    -0.271 OA
HETATM   20  N3  UNL     1      -2.607  -3.469  -1.004  1.00  0.00    -0.348 N 
ATOM     21  H3  UNL     1      -1.904  -4.189  -1.168  1.00  0.00     0.163 HD
HETATM   22  C17 UNL     1      -2.808  -2.487  -2.051  1.00  0.00     0.152 C 
HETATM   23  C18 UNL     1      -4.069  -2.845  -2.868  1.00  0.00     0.040 C 
HETATM   24  C19 UNL     1      -1.675  -2.325  -2.979  1.00  0.00     0.172 C 
HETATM   25  O5  UNL     1      -1.923  -2.383  -4.198  1.00  0.00    -0.293 OA
HETATM   26  C20 UNL     1      -0.255  -2.096  -2.640  1.00  0.00     0.159 C 
HETATM   27  N4  UNL     1       0.175  -2.543  -1.360  1.00  0.00    -0.347 N 
ATOM     28  H4  UNL     1       0.398  -3.537  -1.303  1.00  0.00     0.163 HD
HETATM   29  C24 UNL     1       0.339  -1.832  -0.169  1.00  0.00     0.241 C 
HETATM   30  O6  UNL     1       0.208  -2.539   0.902  1.00  0.00    -0.271 OA
HETATM   31  C25 UNL     1       0.635  -0.410   0.019  1.00  0.00     0.176 C 
HETATM   32  N5  UNL     1      -0.442   0.446  -0.437  1.00  0.00    -0.347 N 
ATOM     33  H5  UNL     1      -1.342  -0.008  -0.592  1.00  0.00     0.163 HD
HETATM   34  C34 UNL     1      -0.393   1.811  -0.688  1.00  0.00     0.223 C 
HETATM   35  O7  UNL     1      -0.856   2.232  -1.803  1.00  0.00    -0.273 OA
ENDROOT
BRANCH  31  36
HETATM   36  C26 UNL     1       1.957  -0.075  -0.579  1.00  0.00     0.035 C 
BRANCH  36  37
HETATM   37  C27 UNL     1       3.014  -0.939   0.120  1.00  0.00     0.002 C 
BRANCH  37  38
HETATM   38  C28 UNL     1       4.387  -0.645  -0.448  1.00  0.00     0.000 C 
BRANCH  38  39
HETATM   39  C29 UNL     1       5.462  -1.461   0.183  1.00  0.00     0.000 C 
BRANCH  39  40
HETATM   40  C30 UNL     1       5.626  -1.283   1.656  1.00  0.00     0.004 C 
BRANCH  40  41
HETATM   41  C31 UNL     1       6.757  -2.183   2.116  1.00  0.00    -0.023 C 
HETATM   42  C32 UNL     1       8.054  -1.859   1.448  1.00  0.00     0.009 C 
HETATM   43  C33 UNL     1       6.951  -2.164   3.613  1.00  0.00     0.009 C 
ENDBRANCH  40  41
ENDBRANCH  39  40
ENDBRANCH  38  39
ENDBRANCH  37  38
ENDBRANCH  36  37
ENDBRANCH  31  36
BRANCH  26  44
HETATM   44  C21 UNL     1       0.542  -2.867  -3.713  1.00  0.00     0.007 C 
HETATM   45  C22 UNL     1       2.014  -2.768  -3.545  1.00  0.00     0.012 C 
HETATM   46  C23 UNL     1       0.147  -4.315  -3.750  1.00  0.00     0.012 C 
ENDBRANCH  26  44
BRANCH   1  47
HETATM   47  C4  UNL     1       0.888   3.871  -0.593  1.00  0.00     0.123 C 
BRANCH  47  48
HETATM   48  S1  UNL     1       1.751   5.101   0.303  1.00  0.00     0.019 S 
HETATM   49  O1  UNL     1       0.716   6.097   1.171  1.00  0.00    -0.258 OA
BRANCH  48  50
HETATM   50  C3  UNL     1       2.543   6.175  -0.906  1.00  0.00     0.135 C 
BRANCH  50  51
HETATM   51  C2  UNL     1       1.519   6.789  -1.790  1.00  0.00    -0.025 C 
HETATM   52  C1  UNL     1       1.334   8.096  -1.900  1.00  0.00     0.008 C 
ENDBRANCH  50  51
ENDBRANCH  48  50
ENDBRANCH  47  48
ENDBRANCH   1  47
TORSDOF 11
