REMARK  6 active torsions:
REMARK  status: ('A' for Active; 'I' for Inactive)
REMARK    1  A    between atoms: C3_3  and  C4_4 
REMARK    2  A    between atoms: C4_4  and  N3_10 
REMARK    3  A    between atoms: N1_5  and  N2_7 
REMARK       I    between atoms: N3_10  and  C5_12 
REMARK       I    between atoms: C5_12  and  N6_18 
REMARK    4  A    between atoms: N4_13  and  N5_15 
REMARK    5  A    between atoms: N6_18  and  N7_20 
REMARK    6  A    between atoms: C8_27  and  S1_28 
ROOT
HETATM    1  C4  UNL     1      -0.339  -0.716  -0.839  1.00  0.00     0.147 C 
HETATM    2  N1  UNL     1       0.060  -1.932  -0.868  1.00  0.00    -0.291 N 
ATOM      3  H1  UNL     1       1.069  -2.080  -0.839  1.00  0.00     0.188 HD
ENDROOT
BRANCH   1   4
HETATM    4  C3  UNL     1       0.661   0.339  -0.769  1.00  0.00     0.033 A 
HETATM    5  C2  UNL     1       1.831   0.243  -0.044  1.00  0.00    -0.023 A 
HETATM    6  C1  UNL     1       2.121  -0.963   0.738  1.00  0.00     0.051 C 
HETATM    7  C8  UNL     1       2.754   1.263  -0.016  1.00  0.00     0.097 A 
HETATM    8  C7  UNL     1       2.470   2.396  -0.744  1.00  0.00     0.112 A 
HETATM    9  N8  UNL     1       1.312   2.488  -1.460  1.00  0.00    -0.373 N 
HETATM   10  C6  UNL     1       0.409   1.508  -1.496  1.00  0.00     0.103 A 
ATOM     11  H8  UNL     1       1.130   3.341  -1.989  1.00  0.00     0.164 HD
BRANCH   7  12
HETATM   12  S1  UNL     1       4.220   1.148   0.884  1.00  0.00     0.288 S 
HETATM   13  O1  UNL     1       5.067  -0.046   0.500  1.00  0.00    -0.206 OA
HETATM   14  O2  UNL     1       4.004   1.205   2.385  1.00  0.00    -0.206 OA
ENDBRANCH   7  12
ENDBRANCH   1   4
BRANCH   1  15
HETATM   15  N3  UNL     1      -1.738  -0.470  -0.879  1.00  0.00    -0.172 N 
HETATM   16  C5  UNL     1      -2.547  -0.173   0.226  1.00  0.00     0.712 C 
HETATM   17  N4  UNL     1      -3.323   0.855   0.259  1.00  0.00    -0.137 N 
HETATM   18  N6  UNL     1      -2.541  -1.013   1.373  1.00  0.00    -0.137 N 
ATOM     19  H4  UNL     1      -3.904   1.052   1.074  1.00  0.00     0.205 HD
ATOM     20  H6  UNL     1      -1.691  -1.522   1.615  1.00  0.00     0.205 HD
ATOM     21  H3  UNL     1      -2.193  -0.513  -1.791  1.00  0.00     0.186 HD
BRANCH  17  22
HETATM   22  N5  UNL     1      -3.341   1.691  -0.861  1.00  0.00    -0.331 N 
ATOM     23  H52 UNL     1      -2.754   1.481  -1.668  1.00  0.00     0.177 HD
ATOM     24  H51 UNL     1      -3.955   2.505  -0.835  1.00  0.00     0.177 HD
ENDBRANCH  17  22
BRANCH  18  25
HETATM   25  N7  UNL     1      -3.684  -1.156   2.181  1.00  0.00    -0.331 N 
ATOM     26  H72 UNL     1      -4.526  -0.640   1.925  1.00  0.00     0.177 HD
ATOM     27  H71 UNL     1      -3.680  -1.759   3.004  1.00  0.00     0.177 HD
ENDBRANCH  18  25
ENDBRANCH   1  15
BRANCH   2  28
HETATM   28  N2  UNL     1      -0.722  -3.060  -0.934  1.00  0.00    -0.344 N 
ATOM     29  H22 UNL     1      -1.728  -2.892  -0.962  1.00  0.00     0.176 HD
ATOM     30  H21 UNL     1      -0.404  -4.029  -0.957  1.00  0.00     0.176 HD
ENDBRANCH   2  28
TORSDOF 6
