REMARK  6 active torsions:
REMARK  status: ('A' for Active; 'I' for Inactive)
REMARK    1  A    between atoms: C2_2  and  C3_3 
REMARK    2  A    between atoms: C3_3  and  C4_4 
REMARK    3  A    between atoms: C4_4  and  N1_5 
REMARK    4  A    between atoms: C4_4  and  N6_15 
REMARK    5  A    between atoms: N1_5  and  C5_7 
REMARK    6  A    between atoms: N6_15  and  N7_16 
ROOT
HETATM    1  N1  UNL     1       0.753   0.888   0.403  1.00  0.00    -0.204 N 
ATOM      2  H1  UNL     1       0.512   1.386   1.260  1.00  0.00     0.179 HD
ENDROOT
BRANCH   1   3
HETATM    3  C4  UNL     1      -0.226   0.861  -0.660  1.00  0.00     0.213 C 
BRANCH   3   4
HETATM    4  C3  UNL     1      -1.388   0.003  -0.186  1.00  0.00     0.044 C 
BRANCH   4   5
HETATM    5  C2  UNL     1      -0.941  -1.405   0.126  1.00  0.00    -0.001 C 
HETATM    6  C1  UNL     1      -2.147  -2.180   0.585  1.00  0.00     0.005 C 
ENDBRANCH   4   5
ENDBRANCH   3   4
BRANCH   3   7
HETATM    7  N6  UNL     1      -0.746   2.189  -0.875  1.00  0.00    -0.122 NA
BRANCH   7   8
HETATM    8  N7  UNL     1      -1.277   2.722   0.282  1.00  0.00    -0.346 N 
ATOM      9  H72 UNL     1      -1.292   2.225   1.172  1.00  0.00     0.172 HD
ATOM     10  H71 UNL     1      -1.645   3.661   0.130  1.00  0.00     0.172 HD
ENDBRANCH   7   8
ENDBRANCH   3   7
ENDBRANCH   1   3
BRANCH   1  11
HETATM   11  C5  UNL     1       1.900   0.330   0.341  1.00  0.00     0.708 A 
HETATM   12  N2  UNL     1       2.789   0.374   1.352  1.00  0.00    -0.118 N 
HETATM   13  N3  UNL     1       3.886  -0.277   1.029  1.00  0.00    -0.212 N 
ATOM     14  H2  UNL     1       2.634   0.846   2.243  1.00  0.00     0.207 HD
HETATM   15  N4  UNL     1       3.693  -0.741  -0.201  1.00  0.00     0.009 NA
ATOM     16  H3  UNL     1       4.717  -0.401   1.607  1.00  0.00     0.206 HD
HETATM   17  N5  UNL     1       2.488  -0.376  -0.628  1.00  0.00    -0.114 N 
ATOM     18  H5  UNL     1       2.083  -0.597  -1.538  1.00  0.00     0.203 HD
ENDBRANCH   1  11
TORSDOF 6
