REMARK  14 active torsions:
REMARK  status: ('A' for Active; 'I' for Inactive)
REMARK    1  A    between atoms: C1_4  and  C2_6 
REMARK       I    between atoms: C2_6  and  N3_8 
REMARK    2  A    between atoms: N3_8  and  C3_10 
REMARK    3  A    between atoms: C3_10  and  C4_11 
REMARK    4  A    between atoms: C4_11  and  N4_12 
REMARK    5  A    between atoms: C4_11  and  C21_49 
REMARK    6  A    between atoms: N4_12  and  C5_13 
REMARK    7  A    between atoms: C7_18  and  N6_19 
REMARK    8  A    between atoms: N8_24  and  C8_25 
REMARK    9  A    between atoms: C8_25  and  C9_26 
REMARK   10  A    between atoms: N9_31  and  C13_32 
REMARK   11  A    between atoms: C13_32  and  C14_33 
REMARK   12  A    between atoms: C14_33  and  C15_35 
REMARK   13  A    between atoms: C15_35  and  O5_36 
REMARK   14  A    between atoms: C15_35  and  C16_38 
ROOT
HETATM    1  C5  UNL     1      -2.433   1.526  -0.227  1.00  0.00     0.261 A 
HETATM    2  C6  UNL     1      -2.941   2.541  -1.076  1.00  0.00     0.319 A 
HETATM    3  O2  UNL     1      -4.157   2.406  -1.472  1.00  0.00    -0.262 OA
HETATM    4  N5  UNL     1      -2.215   3.582  -1.454  1.00  0.00    -0.151 N 
ATOM      5  H5  UNL     1      -2.618   4.291  -2.067  1.00  0.00     0.188 HD
HETATM    6  C7  UNL     1      -0.947   3.702  -1.029  1.00  0.00     0.693 A 
HETATM    7  N7  UNL     1      -0.464   2.744  -0.229  1.00  0.00    -0.127 N 
ATOM      8  H7  UNL     1       0.500   2.839   0.091  1.00  0.00     0.206 HD
HETATM    9  N8  UNL     1      -1.143   1.680   0.180  1.00  0.00    -0.242 N 
ENDROOT
BRANCH   9  10
HETATM   10  C8  UNL     1      -0.470   0.672   0.974  1.00  0.00     0.194 C 
BRANCH  10  11
HETATM   11  C9  UNL     1       0.511  -0.153   0.238  1.00  0.00     0.001 A 
HETATM   12  C10 UNL     1       1.866   0.247   0.335  1.00  0.00     0.031 A 
HETATM   13  C11 UNL     1       2.867  -0.399  -0.309  1.00  0.00     0.060 A 
HETATM   14  C12 UNL     1       4.199  -0.002  -0.211  1.00  0.00     0.261 A 
HETATM   15  C18 UNL     1       2.602  -1.494  -1.099  1.00  0.00     0.051 A 
HETATM   16  O3  UNL     1       4.437   0.998   0.512  1.00  0.00    -0.267 OA
HETATM   17  N9  UNL     1       5.142  -0.680  -0.870  1.00  0.00    -0.303 N 
HETATM   18  C17 UNL     1       4.854  -1.745  -1.634  1.00  0.00     0.187 A 
HETATM   19  N10 UNL     1       3.596  -2.162  -1.758  1.00  0.00    -0.351 N 
ATOM     20  H10 UNL     1       3.376  -2.971  -2.339  1.00  0.00     0.166 HD
HETATM   21  C19 UNL     1       1.300  -1.913  -1.218  1.00  0.00     0.073 A 
HETATM   22  C20 UNL     1       0.268  -1.233  -0.543  1.00  0.00     0.126 A 
HETATM   23  F4  UNL     1      -0.992  -1.746  -0.703  1.00  0.00    -0.205 F 
BRANCH  17  24
HETATM   24  C13 UNL     1       6.543  -0.247  -0.755  1.00  0.00     0.214 C 
BRANCH  24  25
HETATM   25  C14 UNL     1       7.167  -0.947   0.392  1.00  0.00     0.182 C 
HETATM   26  O4  UNL     1       6.509  -1.716   1.090  1.00  0.00    -0.293 OA
BRANCH  25  27
HETATM   27  C15 UNL     1       8.587  -0.742   0.725  1.00  0.00     0.296 C 
BRANCH  27  28
HETATM   28  O5  UNL     1       8.907  -1.531   1.853  1.00  0.00    -0.379 OA
ATOM     29  H5  UNL     1       9.823  -1.399   2.068  1.00  0.00     0.210 HD
ENDBRANCH  27  28
BRANCH  27  30
HETATM   30  C16 UNL     1       8.944   0.697   0.986  1.00  0.00     0.420 C 
HETATM   31  F1  UNL     1       8.212   1.214   2.042  1.00  0.00    -0.168 F 
HETATM   32  F2  UNL     1       8.817   1.446  -0.138  1.00  0.00    -0.168 F 
HETATM   33  F3  UNL     1      10.310   0.688   1.312  1.00  0.00    -0.168 F 
ENDBRANCH  27  30
ENDBRANCH  25  27
ENDBRANCH  24  25
ENDBRANCH  17  24
ENDBRANCH  10  11
ENDBRANCH   9  10
BRANCH   1  34
HETATM   34  N4  UNL     1      -3.157   0.643   0.140  1.00  0.00    -0.406 NA
BRANCH  34  35
HETATM   35  C4  UNL     1      -4.078  -0.282   0.474  1.00  0.00     0.283 C 
BRANCH  35  36
HETATM   36  C3  UNL     1      -5.417  -0.156  -0.235  1.00  0.00     0.173 C 
BRANCH  36  37
HETATM   37  N3  UNL     1      -6.303  -1.216   0.124  1.00  0.00    -0.351 N 
HETATM   38  C2  UNL     1      -7.615  -1.226  -0.416  1.00  0.00     0.282 C 
HETATM   39  O1  UNL     1      -7.972  -0.287  -1.211  1.00  0.00    -0.265 OA
ATOM     40  H3  UNL     1      -5.998  -1.954   0.758  1.00  0.00     0.162 HD
BRANCH  38  41
HETATM   41  C1  UNL     1      -8.610  -2.245  -0.129  1.00  0.00     0.178 C 
HETATM   42  N1  UNL     1      -8.323  -3.207   0.652  1.00  0.00    -0.383 N 
ATOM     43  H12 UNL     1      -9.022  -3.922   0.853  1.00  0.00     0.157 HD
ATOM     44  H11 UNL     1      -7.393  -3.248   1.069  1.00  0.00     0.157 HD
HETATM   45  N2  UNL     1      -9.898  -2.188  -0.707  1.00  0.00    -0.077 NA
ENDBRANCH  38  41
ENDBRANCH  36  37
ENDBRANCH  35  36
BRANCH  35  46
HETATM   46  C21 UNL     1      -4.330  -0.319   1.968  1.00  0.00     0.212 C 
HETATM   47  O6  UNL     1      -5.035  -1.114   2.583  1.00  0.00    -0.646 OA
HETATM   48  O7  UNL     1      -3.688   0.666   2.749  1.00  0.00    -0.646 OA
ENDBRANCH  35  46
ENDBRANCH  34  35
ENDBRANCH   1  34
BRANCH   6  49
HETATM   49  N6  UNL     1      -0.240   4.716  -1.394  1.00  0.00    -0.233 N 
ATOM     50  H62 UNL     1      -0.608   5.446  -2.004  1.00  0.00     0.174 HD
ATOM     51  H61 UNL     1       0.723   4.807  -1.071  1.00  0.00     0.174 HD
ENDBRANCH   6  49
TORSDOF 14
