REMARK  10 active torsions:
REMARK  status: ('A' for Active; 'I' for Inactive)
REMARK    1  A    between atoms: N1_1  and  C1_4 
REMARK    2  A    between atoms: C2_7  and  C3_8 
REMARK    3  A    between atoms: N5_13  and  N6_14 
REMARK    4  A    between atoms: C4_17  and  S1_18 
REMARK    5  A    between atoms: S1_18  and  C5_19 
REMARK    6  A    between atoms: C5_19  and  C6_20 
REMARK    7  A    between atoms: C6_20  and  O1_21 
REMARK    8  A    between atoms: N7_23  and  O2_24 
REMARK    9  A    between atoms: C7_26  and  N8_27 
REMARK       I    between atoms: N8_27  and  C8_29 
REMARK   10  A    between atoms: N10_32  and  N11_33 
ROOT
HETATM    1  C1  UNL     1       2.550  -1.676  -1.230  1.00  0.00     0.713 A 
HETATM    2  N2  UNL     1       1.251  -1.727  -1.504  1.00  0.00    -0.169 N 
ATOM      3  H2  UNL     1       0.917  -2.514  -2.061  1.00  0.00     0.186 HD
HETATM    4  C2  UNL     1       0.318  -0.794  -1.091  1.00  0.00     0.198 A 
HETATM    5  N7  UNL     1       0.842   0.197  -0.373  1.00  0.00    -0.030 N 
HETATM    6  C7  UNL     1       2.177   0.309  -0.054  1.00  0.00     0.750 A 
HETATM    7  N10 UNL     1       2.995  -0.641  -0.498  1.00  0.00     0.085 N 
ENDROOT
BRANCH   4   8
HETATM    8  C3  UNL     1      -1.043  -0.971  -1.502  1.00  0.00     0.134 A 
HETATM    9  N3  UNL     1      -1.419  -2.020  -2.317  1.00  0.00    -0.278 N 
HETATM   10  N4  UNL     1      -2.710  -1.981  -2.541  1.00  0.00    -0.220 N 
ATOM     11  H3  UNL     1      -0.783  -2.724  -2.691  1.00  0.00     0.189 HD
HETATM   12  N5  UNL     1      -3.238  -0.954  -1.916  1.00  0.00    -0.180 N 
ATOM     13  H4  UNL     1      -3.227  -2.648  -3.114  1.00  0.00     0.210 HD
HETATM   14  C4  UNL     1      -2.190  -0.334  -1.271  1.00  0.00     0.144 A 
BRANCH  12  15
HETATM   15  N6  UNL     1      -4.577  -0.563  -1.902  1.00  0.00    -0.322 N 
ATOM     16  H62 UNL     1      -5.353  -1.022  -2.379  1.00  0.00     0.179 HD
ATOM     17  H61 UNL     1      -4.987   0.235  -1.416  1.00  0.00     0.179 HD
ENDBRANCH  12  15
BRANCH  14  18
HETATM   18  S1  UNL     1      -2.537   1.058  -0.229  1.00  0.00    -0.104 SA
BRANCH  18  19
HETATM   19  C5  UNL     1      -3.060   0.426   1.421  1.00  0.00     0.107 C 
BRANCH  19  20
HETATM   20  C6  UNL     1      -3.367   1.571   2.348  1.00  0.00     0.174 C 
BRANCH  20  21
HETATM   21  O1  UNL     1      -4.386   2.315   1.795  1.00  0.00    -0.400 OA
ATOM     22  H1  UNL     1      -4.580   3.038   2.380  1.00  0.00     0.209 HD
ENDBRANCH  20  21
ENDBRANCH  19  20
ENDBRANCH  18  19
ENDBRANCH  14  18
ENDBRANCH   4   8
BRANCH   5  23
HETATM   23  O2  UNL     1       0.094   1.243   0.088  1.00  0.00    -0.268 OA
ATOM     24  H2  UNL     1       0.468   1.950   0.600  1.00  0.00     0.246 HD
ENDBRANCH   5  23
BRANCH   1  25
HETATM   25  N1  UNL     1       3.373  -2.589  -1.648  1.00  0.00    -0.232 N 
ATOM     26  H12 UNL     1       3.035  -3.375  -2.204  1.00  0.00     0.174 HD
ATOM     27  H11 UNL     1       4.370  -2.550  -1.438  1.00  0.00     0.174 HD
ENDBRANCH   1  25
BRANCH   6  28
HETATM   28  N8  UNL     1       2.530   1.296   0.632  1.00  0.00    -0.139 N 
HETATM   29  C8  UNL     1       3.728   1.735   1.130  1.00  0.00     0.347 C 
HETATM   30  N9  UNL     1       4.096   1.470   2.473  1.00  0.00    -0.039 NA
HETATM   31  O3  UNL     1       4.533   2.379   0.422  1.00  0.00    -0.250 OA
ATOM     32  H8  UNL     1       1.752   1.909   0.874  1.00  0.00     0.189 HD
ENDBRANCH   6  28
BRANCH   7  33
HETATM   33  N11 UNL     1       4.352  -0.567  -0.198  1.00  0.00    -0.309 N 
ATOM     34 2H11 UNL     1       4.979  -1.296  -0.539  1.00  0.00     0.178 HD
ATOM     35 1H11 UNL     1       4.690   0.219   0.358  1.00  0.00     0.178 HD
ENDBRANCH   7  33
TORSDOF 10
