REMARK  1 active torsions:
REMARK  status: ('A' for Active; 'I' for Inactive)
REMARK    1  A    between atoms: C2_2  and  N1_3 
ROOT
HETATM    1  N1  UNL     1       0.412  -0.032   0.141  1.00  0.00     0.095 N 
HETATM    2  C3  UNL     1       0.075  -1.382  -0.236  1.00  0.00     0.292 C 
HETATM    3  C4  UNL     1      -1.392  -1.644  -0.335  1.00  0.00     0.144 C 
HETATM    4  N2  UNL     1      -2.216  -0.892   0.549  1.00  0.00    -0.417 N 
ATOM      5  H2  UNL     1      -3.051  -1.290   0.978  1.00  0.00     0.153 HD
HETATM    6  C5  UNL     1      -1.808   0.445   0.800  1.00  0.00     0.149 C 
HETATM    7  C6  UNL     1      -0.704   0.807  -0.199  1.00  0.00     0.236 C 
HETATM    8  C7  UNL     1      -0.408   2.267  -0.202  1.00  0.00     0.044 C 
ENDROOT
BRANCH   1   9
HETATM    9  C2  UNL     1       1.663   0.407  -0.423  1.00  0.00     0.268 C 
HETATM   10  C1  UNL     1       2.752  -0.429   0.269  1.00  0.00     0.037 C 
ENDBRANCH   1   9
TORSDOF 1
