REMARK  4 active torsions:
REMARK  status: ('A' for Active; 'I' for Inactive)
REMARK    1  A    between atoms: C5_6  and  N1_7 
REMARK    2  A    between atoms: C6_8  and  O1_9 
REMARK    3  A    between atoms: C8_12  and  C9_13 
REMARK    4  A    between atoms: C14_18  and  O2_19 
ROOT
HETATM    1  C1  UNL     1       5.568   1.797   0.353  1.00  0.00     0.100 C 
HETATM    2  C2  UNL     1       4.859   0.909  -0.109  1.00  0.00    -0.144 C 
HETATM    3  C3  UNL     1       4.020  -0.153  -0.651  1.00  0.00     0.160 C 
HETATM    4  F1  UNL     1       4.409  -0.317  -1.987  1.00  0.00    -0.229 F 
HETATM    5  C4  UNL     1       2.593   0.324  -0.702  1.00  0.00     0.082 C 
HETATM    6  C5  UNL     1       1.756  -0.230   0.388  1.00  0.00     0.098 C 
HETATM    7  C15 UNL     1       1.810  -1.744   0.284  1.00  0.00     0.031 C 
HETATM    8  C16 UNL     1       3.189  -2.229   0.565  1.00  0.00    -0.004 A 
HETATM    9  C17 UNL     1       4.096  -1.588   1.541  1.00  0.00     0.014 A 
HETATM   10  C18 UNL     1       4.284  -1.402   0.062  1.00  0.00     0.042 A 
ENDROOT
BRANCH   6  11
HETATM   11  N1  UNL     1       0.395   0.235   0.303  1.00  0.00    -0.303 N 
HETATM   12  C6  UNL     1      -0.022   1.421   0.838  1.00  0.00     0.145 A 
HETATM   13  C7  UNL     1      -1.402   1.530   0.673  1.00  0.00     0.068 A 
HETATM   14  C8  UNL     1      -1.841   0.413   0.028  1.00  0.00     0.001 A 
HETATM   15  C14 UNL     1      -0.716  -0.366  -0.189  1.00  0.00     0.151 A 
BRANCH  12  16
HETATM   16  O1  UNL     1       0.741   2.407   1.453  1.00  0.00    -0.346 OA
ATOM     17  H1  UNL     1       0.451   3.232   1.825  1.00  0.00     0.219 HD
ENDBRANCH  12  16
BRANCH  14  18
HETATM   18  C9  UNL     1      -3.173   0.091  -0.505  1.00  0.00     0.023 C 
HETATM   19  C10 UNL     1      -4.118  -0.481   0.587  1.00  0.00     0.009 C 
HETATM   20  C11 UNL     1      -5.412  -0.431  -0.259  1.00  0.00     0.001 C 
HETATM   21  C12 UNL     1      -5.408   1.079  -0.562  1.00  0.00     0.001 C 
HETATM   22  C13 UNL     1      -3.950   1.463  -0.620  1.00  0.00     0.009 C 
ENDBRANCH  14  18
BRANCH  15  23
HETATM   23  O2  UNL     1      -0.730  -1.583  -0.814  1.00  0.00    -0.345 OA
ATOM     24  H2  UNL     1      -1.509  -2.004  -1.159  1.00  0.00     0.219 HD
ENDBRANCH  15  23
ENDBRANCH   6  11
TORSDOF 4
