REMARK  2 active torsions:
REMARK  status: ('A' for Active; 'I' for Inactive)
REMARK       I    between atoms: N1_1  and  C1_5 
REMARK       I    between atoms: C1_5  and  N2_6 
REMARK       I    between atoms: C1_5  and  N3_10 
REMARK    1  A    between atoms: N3_10  and  N4_12 
REMARK    2  A    between atoms: C2_14  and  C3_15 
ROOT
HETATM    1  N1  UNL     1      -2.465   0.913   0.993  1.00  0.00    -0.032 N 
ATOM      2  H11 UNL     1      -1.746   1.374   1.550  1.00  0.00     0.279 HD
ATOM      3  H12 UNL     1      -3.031   0.296   1.575  1.00  0.00     0.279 HD
ATOM      4  H13 UNL     1      -3.181   1.580   0.705  1.00  0.00     0.279 HD
HETATM    5  C1  UNL     1      -1.949   0.209  -0.136  1.00  0.00     0.494 C 
HETATM    6  N2  UNL     1      -2.973  -0.448  -0.930  1.00  0.00    -0.032 N 
ATOM      7  H21 UNL     1      -2.604  -0.951  -1.737  1.00  0.00     0.279 HD
ATOM      8  H22 UNL     1      -3.689   0.219  -1.218  1.00  0.00     0.279 HD
ATOM      9  H23 UNL     1      -3.539  -1.065  -0.348  1.00  0.00     0.279 HD
HETATM   10  N3  UNL     1      -0.939  -0.736   0.295  1.00  0.00    -0.284 N 
ATOM     11  H3  UNL     1      -0.725  -0.788   1.291  1.00  0.00     0.184 HD
ENDROOT
BRANCH  10  12
HETATM   12  N4  UNL     1      -0.255  -1.562  -0.552  1.00  0.00    -0.311 N 
HETATM   13  C2  UNL     1       0.966  -1.444  -0.859  1.00  0.00     0.137 C 
ATOM     14  H4  UNL     1      -0.771  -2.336  -0.970  1.00  0.00     0.185 HD
BRANCH  13  15
HETATM   15  C3  UNL     1       1.905  -0.451  -0.410  1.00  0.00     0.065 A 
HETATM   16  C4  UNL     1       3.237  -0.398  -0.802  1.00  0.00     0.119 A 
HETATM   17  N5  UNL     1       3.841   0.646  -0.207  1.00  0.00    -0.360 N 
HETATM   18  C5  UNL     1       2.925   1.263   0.558  1.00  0.00     0.180 A 
ATOM     19  H5  UNL     1       4.817   0.920  -0.317  1.00  0.00     0.166 HD
HETATM   20  N6  UNL     1       1.758   0.584   0.422  1.00  0.00    -0.350 N 
ATOM     21  H6  UNL     1       0.887   0.830   0.891  1.00  0.00     0.166 HD
ENDBRANCH  13  15
ENDBRANCH  10  12
TORSDOF 2
