REMARK  10 active torsions:
REMARK  status: ('A' for Active; 'I' for Inactive)
REMARK    1  A    between atoms: O1_2  and  C2_3 
REMARK    2  A    between atoms: C3_4  and  N1_5 
REMARK    3  A    between atoms: C4_9  and  O2_10 
REMARK    4  A    between atoms: O2_10  and  C5_11 
REMARK    5  A    between atoms: C6_12  and  O3_13 
REMARK    6  A    between atoms: C7_15  and  S1_17 
REMARK    7  A    between atoms: C12_21  and  N2_23 
REMARK    8  A    between atoms: C14_28  and  C15_29 
REMARK    9  A    between atoms: C15_29  and  N3_30 
REMARK   10  A    between atoms: C16_34  and  O5_35 
ROOT
HETATM    1  C2  UNL     1      -3.157   1.106   1.021  1.00  0.00     0.187 C 
HETATM    2  C3  UNL     1      -1.932   0.297   1.346  1.00  0.00     0.269 C 
HETATM    3  C4  UNL     1      -1.046   0.311   0.121  1.00  0.00     0.294 C 
HETATM    4  O4  UNL     1      -1.479   1.240  -0.821  1.00  0.00    -0.349 OA
HETATM    5  C14 UNL     1      -2.707   0.908  -1.351  1.00  0.00     0.181 C 
HETATM    6  C16 UNL     1      -3.730   0.597  -0.276  1.00  0.00     0.180 C 
ENDROOT
BRANCH   3   7
HETATM    7  O2  UNL     1       0.243   0.510   0.511  1.00  0.00    -0.348 OA
BRANCH   7   8
HETATM    8  C5  UNL     1       1.138  -0.465   0.149  1.00  0.00     0.194 C 
HETATM    9  C6  UNL     1       2.102   0.153  -0.832  1.00  0.00     0.172 C 
HETATM   10  C7  UNL     1       3.358  -0.651  -1.025  1.00  0.00     0.050 C 
HETATM   11  C8  UNL     1       3.109  -1.970  -1.694  1.00  0.00     0.034 C 
HETATM   12  C10 UNL     1       4.018  -0.772   0.284  1.00  0.00    -0.006 C 
HETATM   13  C11 UNL     1       3.271  -0.958   1.353  1.00  0.00     0.011 C 
HETATM   14  C12 UNL     1       1.779  -1.059   1.350  1.00  0.00     0.166 C 
HETATM   15  C13 UNL     1       1.377  -2.532   1.519  1.00  0.00     0.053 C 
BRANCH   9  16
HETATM   16  O3  UNL     1       1.504   0.293  -2.084  1.00  0.00    -0.391 OA
ATOM     17  H3  UNL     1       2.111   0.682  -2.702  1.00  0.00     0.210 HD
ENDBRANCH   9  16
BRANCH  10  18
HETATM   18  S1  UNL     1       4.455   0.324  -2.102  1.00  0.00    -0.157 SA
HETATM   19  C9  UNL     1       5.003   1.840  -1.283  1.00  0.00     0.091 C 
ENDBRANCH  10  18
BRANCH  14  20
HETATM   20  N2  UNL     1       1.331  -0.404   2.568  1.00  0.00    -0.065 N 
ATOM     21  H23 UNL     1       1.478   0.605   2.526  1.00  0.00     0.275 HD
ATOM     22  H22 UNL     1       0.314  -0.412   2.644  1.00  0.00     0.275 HD
ATOM     23  H21 UNL     1       1.771  -0.812   3.393  1.00  0.00     0.275 HD
ENDBRANCH  14  20
ENDBRANCH   7   8
ENDBRANCH   3   7
BRANCH   2  24
HETATM   24  N1  UNL     1      -2.223  -1.082   1.658  1.00  0.00    -0.068 N 
ATOM     25  H13 UNL     1      -2.909  -1.146   2.410  1.00  0.00     0.275 HD
ATOM     26  H12 UNL     1      -2.756  -1.519   0.906  1.00  0.00     0.275 HD
ATOM     27  H11 UNL     1      -1.392  -1.631   1.878  1.00  0.00     0.275 HD
ENDBRANCH   2  24
BRANCH   1  28
HETATM   28  O1  UNL     1      -4.040   1.271   2.024  1.00  0.00    -0.386 OA
HETATM   29  C1  UNL     1      -4.243   2.543   2.489  1.00  0.00     0.202 C 
ENDBRANCH   1  28
BRANCH   5  30
HETATM   30  C15 UNL     1      -2.647  -0.175  -2.398  1.00  0.00     0.264 C 
BRANCH  30  31
HETATM   31  N3  UNL     1      -1.812   0.253  -3.502  1.00  0.00    -0.077 N 
ATOM     32  H33 UNL     1      -2.118   1.145  -3.891  1.00  0.00     0.274 HD
ATOM     33  H32 UNL     1      -0.883   0.538  -3.192  1.00  0.00     0.274 HD
ATOM     34  H31 UNL     1      -1.771  -0.480  -4.210  1.00  0.00     0.274 HD
ENDBRANCH  30  31
ENDBRANCH   5  30
BRANCH   6  35
HETATM   35  O5  UNL     1      -4.000  -0.765  -0.247  1.00  0.00    -0.390 OA
ATOM     36  H5  UNL     1      -4.361  -1.086  -1.065  1.00  0.00     0.210 HD
ENDBRANCH   6  35
TORSDOF 10
