REMARK  11 active torsions:
REMARK  status: ('A' for Active; 'I' for Inactive)
REMARK    1  A    between atoms: N1_1  and  C1_4 
REMARK    2  A    between atoms: C2_9  and  C3_10 
REMARK    3  A    between atoms: N4_11  and  N5_13 
REMARK       I    between atoms: N5_13  and  C4_15 
REMARK    4  A    between atoms: C4_15  and  C5_17 
REMARK    5  A    between atoms: C7_19  and  N6_20 
REMARK    6  A    between atoms: N6_20  and  C8_22 
REMARK    7  A    between atoms: C11_25  and  C12_26 
REMARK       I    between atoms: C12_26  and  N7_28 
REMARK    8  A    between atoms: N7_28  and  N8_30 
REMARK    9  A    between atoms: N8_30  and  C13_32 
REMARK   10  A    between atoms: C13_32  and  C14_33 
REMARK   11  A    between atoms: C18_39  and  N10_40 
ROOT
HETATM    1  C5  UNL     1       3.756  -2.304  -0.117  1.00  0.00     0.287 C 
HETATM    2  C6  UNL     1       2.436  -1.565  -0.011  1.00  0.00     0.119 C 
HETATM    3  C7  UNL     1       1.313  -2.544   0.053  1.00  0.00     0.082 C 
HETATM    4  N11 UNL     1       1.484  -3.777   0.331  1.00  0.00    -0.357 N 
ATOM      5  H11 UNL     1       0.663  -4.382   0.355  1.00  0.00     0.162 HD
HETATM    6  C19 UNL     1       2.749  -4.357   0.609  1.00  0.00     0.356 C 
HETATM    7  N12 UNL     1       3.796  -3.409   0.821  1.00  0.00    -0.046 N 
ATOM      8 1H12 UNL     1       3.792  -3.071   1.783  1.00  0.00     0.280 HD
ATOM      9 2H12 UNL     1       4.708  -3.865   0.809  1.00  0.00     0.280 HD
ENDROOT
BRANCH   3  10
HETATM   10  N6  UNL     1       0.017  -2.056  -0.224  1.00  0.00    -0.326 N 
ATOM     11  H6  UNL     1      -0.392  -2.252  -1.138  1.00  0.00     0.169 HD
BRANCH  10  12
HETATM   12  C8  UNL     1      -0.748  -1.300   0.716  1.00  0.00     0.149 A 
HETATM   13  C9  UNL     1      -0.343  -0.978   1.975  1.00  0.00     0.059 A 
HETATM   14  C10 UNL     1      -1.398  -0.243   2.520  1.00  0.00     0.047 A 
HETATM   15  C11 UNL     1      -2.389  -0.152   1.576  1.00  0.00     0.147 A 
HETATM   16  O5  UNL     1      -1.957  -0.799   0.510  1.00  0.00    -0.288 OA
BRANCH  15  17
HETATM   17  C12 UNL     1      -3.698   0.524   1.680  1.00  0.00     0.294 C 
HETATM   18  O2  UNL     1      -4.060   1.094   2.727  1.00  0.00    -0.264 OA
HETATM   19  N7  UNL     1      -4.538   0.512   0.558  1.00  0.00    -0.257 N 
ATOM     20  H7  UNL     1      -4.222   0.040  -0.289  1.00  0.00     0.191 HD
BRANCH  19  21
HETATM   21  N8  UNL     1      -5.760   1.109   0.562  1.00  0.00    -0.260 N 
ATOM     22  H8  UNL     1      -5.735   1.930   1.167  1.00  0.00     0.197 HD
BRANCH  21  23
HETATM   23  C13 UNL     1      -6.851   0.993   0.094  1.00  0.00     0.007 C 
BRANCH  23  24
HETATM   24  C14 UNL     1      -8.115   0.857  -0.449  1.00  0.00     0.130 A 
HETATM   25  N9  UNL     1      -8.640  -0.103  -1.247  1.00  0.00    -0.356 N 
HETATM   26  C15 UNL     1      -9.871  -0.192  -1.708  1.00  0.00     0.089 A 
ATOM     27  H9  UNL     1      -8.003  -0.850  -1.526  1.00  0.00     0.166 HD
HETATM   28  C16 UNL     1     -10.760   0.789  -1.361  1.00  0.00     0.020 A 
HETATM   29  C17 UNL     1     -10.340   1.821  -0.552  1.00  0.00     0.040 A 
HETATM   30  C18 UNL     1      -9.049   1.875  -0.094  1.00  0.00     0.139 A 
BRANCH  30  31
HETATM   31  N10 UNL     1      -8.671   2.955   0.732  1.00  0.00    -0.113 N 
HETATM   32  O3  UNL     1      -9.523   3.529   1.476  1.00  0.00    -0.532 OA
HETATM   33  O4  UNL     1      -7.411   3.458   0.806  1.00  0.00    -0.532 OA
ENDBRANCH  30  31
ENDBRANCH  23  24
ENDBRANCH  21  23
ENDBRANCH  19  21
ENDBRANCH  15  17
ENDBRANCH  10  12
ENDBRANCH   3  10
BRANCH   1  34
HETATM   34  C4  UNL     1       4.872  -1.386   0.192  1.00  0.00     0.267 C 
HETATM   35  N5  UNL     1       5.126  -0.213  -0.571  1.00  0.00    -0.269 N 
ATOM     36  H5  UNL     1       4.513   0.005  -1.357  1.00  0.00     0.190 HD
HETATM   37  O1  UNL     1       5.646  -1.631   1.165  1.00  0.00    -0.269 OA
BRANCH  35  38
HETATM   38  N4  UNL     1       6.170   0.640  -0.287  1.00  0.00    -0.306 N 
HETATM   39  C3  UNL     1       7.236   0.645  -1.011  1.00  0.00     0.157 C 
ATOM     40  H4  UNL     1       6.098   1.276   0.507  1.00  0.00     0.186 HD
BRANCH  39  41
HETATM   41  C2  UNL     1       8.352   1.541  -0.730  1.00  0.00     0.152 A 
HETATM   42  N3  UNL     1       9.518   1.634  -1.419  1.00  0.00    -0.270 N 
HETATM   43  N2  UNL     1      10.287   2.555  -0.875  1.00  0.00    -0.131 N 
ATOM     44  H3  UNL     1       9.762   1.074  -2.236  1.00  0.00     0.189 HD
HETATM   45  C1  UNL     1       9.603   3.052   0.171  1.00  0.00     0.692 A 
ATOM     46  H2  UNL     1      11.217   2.836  -1.186  1.00  0.00     0.205 HD
HETATM   47  N13 UNL     1       8.420   2.432   0.261  1.00  0.00    -0.173 N 
ATOM     48  H13 UNL     1       7.700   2.609   0.961  1.00  0.00     0.186 HD
BRANCH  45  49
HETATM   49  N1  UNL     1      10.047   3.979   0.944  1.00  0.00    -0.233 N 
ATOM     50  H12 UNL     1      10.948   4.451   0.875  1.00  0.00     0.174 HD
ATOM     51  H11 UNL     1       9.528   4.356   1.737  1.00  0.00     0.174 HD
ENDBRANCH  45  49
ENDBRANCH  39  41
ENDBRANCH  35  38
ENDBRANCH   1  34
TORSDOF 11
