REMARK  13 active torsions:
REMARK  status: ('A' for Active; 'I' for Inactive)
REMARK    1  A    between atoms: C3_7  and  C4_8 
REMARK       I    between atoms: C4_8  and  N3_10 
REMARK    2  A    between atoms: N3_10  and  N4_11 
REMARK    3  A    between atoms: N4_11  and  C5_13 
REMARK    4  A    between atoms: C5_13  and  N5_15 
REMARK    5  A    between atoms: N5_15  and  C6_17 
REMARK    6  A    between atoms: C6_17  and  C7_18 
REMARK    7  A    between atoms: C6_17  and  C9_22 
REMARK    8  A    between atoms: C7_18  and  C8_19 
REMARK       I    between atoms: C9_22  and  N6_24 
REMARK    9  A    between atoms: N6_24  and  C10_26 
REMARK   10  A    between atoms: C13_29  and  O5_30 
REMARK   11  A    between atoms: N8_34  and  N9_35 
REMARK   12  A    between atoms: N9_35  and  C15_37 
REMARK   13  A    between atoms: N11_44  and  N12_45 
ROOT
HETATM    1  C10 UNL     1      -2.667  -0.360  -0.912  1.00  0.00     0.104 C 
HETATM    2  C11 UNL     1      -3.017   0.467  -2.101  1.00  0.00     0.033 C 
HETATM    3  C12 UNL     1      -4.441   0.206  -2.496  1.00  0.00     0.081 C 
HETATM    4  C13 UNL     1      -5.284  -0.321  -1.347  1.00  0.00     0.239 C 
HETATM    5  C14 UNL     1      -6.697  -0.129  -1.793  1.00  0.00     0.122 C 
HETATM    6  N7  UNL     1      -7.787   0.020  -2.169  1.00  0.00    -0.192 NA
HETATM    7  N8  UNL     1      -4.957   0.180  -0.091  1.00  0.00    -0.277 N 
HETATM    8  C19 UNL     1      -3.565  -0.160   0.259  1.00  0.00     0.172 C 
ENDROOT
BRANCH   4   9
HETATM    9  O5  UNL     1      -5.034  -1.726  -1.363  1.00  0.00    -0.358 OA
ATOM     10  H5  UNL     1      -5.561  -2.056  -0.645  1.00  0.00     0.213 HD
ENDBRANCH   4   9
BRANCH   7  11
HETATM   11  N9  UNL     1      -5.342   1.423   0.293  1.00  0.00    -0.284 N 
ATOM     12  H9  UNL     1      -4.825   2.220  -0.079  1.00  0.00     0.188 HD
BRANCH  11  13
HETATM   13  C15 UNL     1      -6.451   1.692   1.207  1.00  0.00     0.115 A 
HETATM   14  N10 UNL     1      -7.631   1.206   1.140  1.00  0.00    -0.372 N 
HETATM   15  C16 UNL     1      -8.452   1.678   2.197  1.00  0.00     0.148 A 
ATOM     16  H10 UNL     1      -7.944   0.559   0.416  1.00  0.00     0.161 HD
HETATM   17  C17 UNL     1      -7.558   2.556   2.994  1.00  0.00    -0.004 A 
HETATM   18  C18 UNL     1      -6.395   2.536   2.371  1.00  0.00     0.047 A 
ENDBRANCH  11  13
ENDBRANCH   7  11
BRANCH   1  19
HETATM   19  N6  UNL     1      -1.288  -0.240  -0.576  1.00  0.00    -0.353 N 
HETATM   20  C9  UNL     1      -0.632  -1.067   0.377  1.00  0.00     0.241 C 
HETATM   21  O4  UNL     1      -1.252  -1.907   1.014  1.00  0.00    -0.271 OA
ATOM     22  H6  UNL     1      -0.740   0.480  -1.046  1.00  0.00     0.163 HD
BRANCH  20  23
HETATM   23  C6  UNL     1       0.836  -0.872   0.554  1.00  0.00     0.186 C 
BRANCH  23  24
HETATM   24  N5  UNL     1       1.439  -1.399   1.696  1.00  0.00    -0.352 N 
ATOM     25  H5  UNL     1       0.889  -2.009   2.301  1.00  0.00     0.162 HD
BRANCH  24  26
HETATM   26  C5  UNL     1       2.774  -1.126   2.050  1.00  0.00     0.197 C 
HETATM   27  S1  UNL     1       3.412  -1.802   3.384  1.00  0.00    -0.039 SA
BRANCH  26  28
HETATM   28  N4  UNL     1       3.575  -0.239   1.286  1.00  0.00    -0.205 N 
ATOM     29  H4  UNL     1       3.087   0.263   0.544  1.00  0.00     0.204 HD
BRANCH  28  30
HETATM   30  N3  UNL     1       4.844   0.025   1.398  1.00  0.00    -0.276 NA
HETATM   31  C4  UNL     1       6.195   0.305   1.518  1.00  0.00     0.382 C 
HETATM   32  O1  UNL     1       6.902   0.417   2.485  1.00  0.00    -0.246 OA
BRANCH  31  33
HETATM   33  C3  UNL     1       6.905   0.485   0.196  1.00  0.00     0.228 A 
HETATM   34  N2  UNL     1       6.294   0.632  -1.009  1.00  0.00    -0.277 N 
HETATM   35  N1  UNL     1       7.202   0.848  -1.923  1.00  0.00    -0.286 N 
ATOM     36  H2  UNL     1       5.289   0.582  -1.173  1.00  0.00     0.189 HD
HETATM   37  C2  UNL     1       8.417   0.854  -1.336  1.00  0.00     0.115 A 
ATOM     38  H1  UNL     1       7.022   0.989  -2.917  1.00  0.00     0.188 HD
HETATM   39  C1  UNL     1       9.733   1.062  -2.020  1.00  0.00     0.092 C 
HETATM   40  N11 UNL     1       8.219   0.627  -0.036  1.00  0.00    -0.226 N 
BRANCH  40  41
HETATM   41  N12 UNL     1       9.174   0.475   0.944  1.00  0.00    -0.335 N 
ATOM     42 2H12 UNL     1      10.173   0.583   0.768  1.00  0.00     0.177 HD
ATOM     43 1H12 UNL     1       9.023   0.301   1.938  1.00  0.00     0.177 HD
ENDBRANCH  40  41
ENDBRANCH  31  33
ENDBRANCH  28  30
ENDBRANCH  26  28
ENDBRANCH  24  26
ENDBRANCH  23  24
BRANCH  23  44
HETATM   44  C7  UNL     1       1.484  -1.615  -0.666  1.00  0.00     0.147 C 
BRANCH  44  45
HETATM   45  C8  UNL     1       1.283  -3.063  -0.567  1.00  0.00     0.175 C 
HETATM   46  O2  UNL     1       1.403  -3.768  -1.611  1.00  0.00    -0.648 OA
HETATM   47  O3  UNL     1       0.962  -3.675   0.624  1.00  0.00    -0.648 OA
ENDBRANCH  44  45
ENDBRANCH  23  44
ENDBRANCH  20  23
ENDBRANCH   1  19
TORSDOF 13
