REMARK  7 active torsions:
REMARK  status: ('A' for Active; 'I' for Inactive)
REMARK    1  A    between atoms: C2_2  and  C3_3 
REMARK    2  A    between atoms: C3_3  and  N1_4 
REMARK    3  A    between atoms: C10_12  and  O2_13 
REMARK    4  A    between atoms: C15_20  and  C16_21 
REMARK    5  A    between atoms: C16_21  and  O4_22 
REMARK    6  A    between atoms: C17_24  and  O5_25 
REMARK    7  A    between atoms: C19_28  and  C20_29 
ROOT
HETATM    1  N1  UNL     1      -2.902   0.743  -0.027  1.00  0.00    -0.362 N 
HETATM    2  C4  UNL     1      -1.767   1.617   0.011  1.00  0.00     0.126 C 
HETATM    3  C5  UNL     1      -0.562   1.075   0.719  1.00  0.00     0.038 C 
HETATM    4  C6  UNL     1       0.422   0.264  -0.006  1.00  0.00     0.044 C 
HETATM    5  C7  UNL     1       0.225   0.354  -1.526  1.00  0.00     0.079 C 
HETATM    6  C8  UNL     1      -0.873  -0.558  -1.991  1.00  0.00     0.264 C 
HETATM    7  O1  UNL     1      -0.751  -1.783  -1.502  1.00  0.00    -0.352 OA
HETATM    8  C9  UNL     1      -0.280  -2.117  -0.314  1.00  0.00     0.167 C 
HETATM    9  C10 UNL     1      -1.424  -2.699   0.451  1.00  0.00     0.148 C 
HETATM   10  C11 UNL     1      -2.681  -1.927   0.571  1.00  0.00     0.039 C 
HETATM   11  C12 UNL     1      -3.311  -1.501  -0.725  1.00  0.00     0.063 C 
HETATM   12  C13 UNL     1      -3.048  -0.096  -1.147  1.00  0.00     0.135 C 
HETATM   13  C14 UNL     1      -4.269   0.295  -2.024  1.00  0.00     0.071 C 
HETATM   14  O3  UNL     1      -2.022   0.117  -1.998  1.00  0.00    -0.331 OA
HETATM   15  C15 UNL     1       0.649  -1.169   0.419  1.00  0.00     0.050 C 
HETATM   16  C17 UNL     1       2.051  -1.599  -0.056  1.00  0.00     0.135 C 
HETATM   17  C18 UNL     1       3.230  -0.963   0.494  1.00  0.00     0.074 C 
HETATM   18  C19 UNL     1       3.914   0.095  -0.381  1.00  0.00     0.106 A 
HETATM   19  O6  UNL     1       3.425   0.235  -1.636  1.00  0.00    -0.355 OA
HETATM   20  C23 UNL     1       2.920   1.143  -0.768  1.00  0.00     0.150 A 
HETATM   21  C24 UNL     1       3.384   2.564  -1.029  1.00  0.00     0.058 C 
HETATM   22  C25 UNL     1       1.757   1.018   0.098  1.00  0.00     0.173 C 
HETATM   23  O7  UNL     1       1.909   1.670   1.128  1.00  0.00    -0.294 OA
ENDROOT
BRANCH   1  24
HETATM   24  C3  UNL     1      -4.011   1.100   0.754  1.00  0.00     0.060 C 
BRANCH  24  25
HETATM   25  C2  UNL     1      -4.778   2.318   0.375  1.00  0.00     0.040 C 
HETATM   26  C1  UNL     1      -5.916   2.459   1.398  1.00  0.00     0.010 C 
ENDBRANCH  24  25
ENDBRANCH   1  24
BRANCH  15  27
HETATM   27  C16 UNL     1       0.718  -1.389   1.865  1.00  0.00     0.180 C 
BRANCH  27  28
HETATM   28  O4  UNL     1      -0.264  -1.166   2.750  1.00  0.00    -0.400 OA
ATOM     29  H4  UNL     1      -0.219  -1.309   3.688  1.00  0.00     0.209 HD
ENDBRANCH  27  28
ENDBRANCH  15  27
BRANCH   9  30
HETATM   30  O2  UNL     1      -1.867  -3.808  -0.345  1.00  0.00    -0.393 OA
ATOM     31  H2  UNL     1      -2.594  -4.178   0.141  1.00  0.00     0.210 HD
ENDBRANCH   9  30
BRANCH  16  32
HETATM   32  O5  UNL     1       2.079  -1.897  -1.405  1.00  0.00    -0.394 OA
ATOM     33  H5  UNL     1       2.943  -2.162  -1.698  1.00  0.00     0.210 HD
ENDBRANCH  16  32
BRANCH  18  34
HETATM   34  C20 UNL     1       5.336   0.442  -0.101  1.00  0.00     0.016 C 
HETATM   35  C21 UNL     1       5.569   0.988   1.289  1.00  0.00     0.012 C 
HETATM   36  C22 UNL     1       6.223  -0.786  -0.237  1.00  0.00     0.012 C 
ENDBRANCH  18  34
TORSDOF 7
