REMARK  3 active torsions:
REMARK  status: ('A' for Active; 'I' for Inactive)
REMARK    1  A    between atoms: N1_1  and  N2_4 
REMARK    2  A    between atoms: C1_6  and  C2_8 
REMARK    3  A    between atoms: C3_9  and  C4_10 
ROOT
HETATM    1  C2  UNL     1      -0.449   0.034  -0.096  1.00  0.00     0.082 C 
HETATM    2  C3  UNL     1       0.833  -0.211  -0.088  1.00  0.00     0.038 C 
HETATM    3  C5  UNL     1       1.557   1.123  -0.361  1.00  0.00     0.066 C 
HETATM    4  C6  UNL     1       0.548   2.057   0.271  1.00  0.00     0.124 C 
HETATM    5  N5  UNL     1      -0.630   1.470  -0.377  1.00  0.00    -0.386 N 
ATOM      6  H5  UNL     1      -1.380   1.935  -0.889  1.00  0.00     0.159 HD
ENDROOT
BRANCH   1   7
HETATM    7  C1  UNL     1      -1.551  -0.873   0.107  1.00  0.00     0.157 C 
HETATM    8  N2  UNL     1      -2.771  -0.493   0.093  1.00  0.00    -0.293 N 
ATOM      9  H2  UNL     1      -3.435  -1.253   0.240  1.00  0.00     0.187 HD
HETATM   10  N3  UNL     1      -1.383  -2.255   0.322  1.00  0.00    -0.079 NA
BRANCH   8  11
HETATM   11  N1  UNL     1      -3.361   0.714  -0.077  1.00  0.00    -0.344 N 
ATOM     12  H12 UNL     1      -2.679   1.459  -0.222  1.00  0.00     0.176 HD
ATOM     13  H11 UNL     1      -4.335   1.017  -0.088  1.00  0.00     0.176 HD
ENDBRANCH   8  11
ENDBRANCH   1   7
BRANCH   2  14
HETATM   14  C4  UNL     1       1.629  -1.396   0.111  1.00  0.00     0.263 C 
HETATM   15  N4  UNL     1       3.097  -1.254   0.038  1.00  0.00    -0.057 NA
HETATM   16  O1  UNL     1       1.311  -2.568   0.342  1.00  0.00    -0.271 OA
ENDBRANCH   2  14
TORSDOF 3
