REMARK  3 active torsions:
REMARK  status: ('A' for Active; 'I' for Inactive)
REMARK    1  A    between atoms: N1_1  and  N2_4 
REMARK       I    between atoms: N2_4  and  C1_6 
REMARK    2  A    between atoms: C1_6  and  C2_8 
REMARK    3  A    between atoms: C5_11  and  C6_12 
ROOT
HETATM    1  C2  UNL     1      -0.575   0.076   0.304  1.00  0.00     0.103 A 
HETATM    2  C3  UNL     1      -0.073  -0.673  -0.737  1.00  0.00     0.038 A 
HETATM    3  C4  UNL     1       1.307  -0.725  -0.634  1.00  0.00     0.037 A 
HETATM    4  C5  UNL     1       1.637  -0.001   0.479  1.00  0.00     0.098 A 
HETATM    5  N4  UNL     1       0.491   0.467   1.021  1.00  0.00    -0.348 N 
ATOM      6  H4  UNL     1       0.442   1.041   1.863  1.00  0.00     0.166 HD
ENDROOT
BRANCH   1   7
HETATM    7  C1  UNL     1      -1.977   0.400   0.600  1.00  0.00     0.286 C 
HETATM    8  N2  UNL     1      -3.002  -0.085  -0.250  1.00  0.00    -0.271 N 
ATOM      9  H2  UNL     1      -2.775  -0.656  -1.064  1.00  0.00     0.189 HD
HETATM   10  O1  UNL     1      -2.284   1.101   1.597  1.00  0.00    -0.264 OA
BRANCH   8  11
HETATM   11  N1  UNL     1      -4.323   0.232   0.046  1.00  0.00    -0.342 N 
ATOM     12  H12 UNL     1      -4.534   0.804   0.864  1.00  0.00     0.176 HD
ATOM     13  H11 UNL     1      -5.061  -0.117  -0.566  1.00  0.00     0.176 HD
ENDBRANCH   8  11
ENDBRANCH   1   7
BRANCH   4  14
HETATM   14  C6  UNL     1       2.967   0.242   1.011  1.00  0.00     0.281 C 
HETATM   15  N3  UNL     1       4.079  -0.314   0.335  1.00  0.00    -0.056 NA
HETATM   16  O2  UNL     1       3.167   0.924   2.045  1.00  0.00    -0.269 OA
ENDBRANCH   4  14
TORSDOF 3
