REMARK  4 active torsions:
REMARK  status: ('A' for Active; 'I' for Inactive)
REMARK       I    between atoms: C1_4  and  N2_5 
REMARK       I    between atoms: C1_4  and  N4_10 
REMARK    1  A    between atoms: N2_5  and  N3_7 
REMARK    2  A    between atoms: N4_10  and  O1_12 
REMARK    3  A    between atoms: O1_12  and  C2_13 
REMARK    4  A    between atoms: C2_13  and  C3_14 
ROOT
HETATM    1  N1  UNL     1      -3.264   1.468   0.544  1.00  0.00    -0.232 N 
ATOM      2  H11 UNL     1      -2.962   2.386   0.218  1.00  0.00     0.174 HD
ATOM      3  H12 UNL     1      -3.985   1.412   1.263  1.00  0.00     0.174 HD
HETATM    4  C1  UNL     1      -2.743   0.414   0.057  1.00  0.00     0.709 C 
HETATM    5  N2  UNL     1      -3.163  -0.863   0.511  1.00  0.00    -0.137 N 
ATOM      6  H2  UNL     1      -2.485  -1.483   0.954  1.00  0.00     0.205 HD
HETATM    7  N4  UNL     1      -1.750   0.491  -0.933  1.00  0.00    -0.095 N 
ATOM      8  H4  UNL     1      -2.018   0.801  -1.867  1.00  0.00     0.213 HD
ENDROOT
BRANCH   7   9
HETATM    9  O1  UNL     1      -0.474   0.178  -0.711  1.00  0.00    -0.264 OA
BRANCH   9  10
HETATM   10  C2  UNL     1       0.027   0.810   0.430  1.00  0.00     0.234 C 
BRANCH  10  11
HETATM   11  C3  UNL     1       1.465   0.431   0.643  1.00  0.00     0.212 C 
HETATM   12  C4  UNL     1       2.338   0.751  -0.542  1.00  0.00     0.037 C 
HETATM   13  C5  UNL     1       3.530  -0.143  -0.214  1.00  0.00     0.029 C 
HETATM   14  C6  UNL     1       2.762  -1.429   0.119  1.00  0.00     0.233 C 
HETATM   15  N5  UNL     1       1.581  -0.995   0.814  1.00  0.00    -0.069 N 
ATOM     16  H52 UNL     1       1.573  -1.277   1.794  1.00  0.00     0.277 HD
ATOM     17  H51 UNL     1       0.743  -1.498   0.521  1.00  0.00     0.277 HD
ENDBRANCH  10  11
ENDBRANCH   9  10
ENDBRANCH   7   9
BRANCH   5  18
HETATM   18  N3  UNL     1      -4.489  -1.291   0.364  1.00  0.00    -0.331 N 
ATOM     19  H32 UNL     1      -5.154  -0.659  -0.081  1.00  0.00     0.177 HD
ATOM     20  H31 UNL     1      -4.791  -2.209   0.690  1.00  0.00     0.177 HD
ENDBRANCH   5  18
TORSDOF 4
