REMARK  2 active torsions:
REMARK  status: ('A' for Active; 'I' for Inactive)
REMARK    1  A    between atoms: C2_5  and  C3_6 
REMARK    2  A    between atoms: C13_17  and  O1_18 
ROOT
HETATM    1  N1  UNL     1      -0.825  -1.694   0.931  1.00  0.00    -0.399 N 
ATOM      2  H11 UNL     1      -0.997  -2.619   1.326  1.00  0.00     0.156 HD
ATOM      3  H12 UNL     1       0.105  -1.277   0.902  1.00  0.00     0.156 HD
HETATM    4  C1  UNL     1      -1.747  -0.940   0.478  1.00  0.00     0.049 A 
HETATM    5  C2  UNL     1      -1.504   0.364  -0.079  1.00  0.00     0.028 A 
HETATM    6  C10 UNL     1      -2.572   1.025  -0.637  1.00  0.00     0.016 A 
HETATM    7  C11 UNL     1      -3.879   0.412  -0.637  1.00  0.00    -0.000 A 
HETATM    8  C12 UNL     1      -4.140  -0.762  -0.117  1.00  0.00     0.011 A 
HETATM    9  C13 UNL     1      -3.093  -1.543   0.520  1.00  0.00     0.191 A 
ENDROOT
BRANCH   5  10
HETATM   10  C3  UNL     1      -0.223   1.020  -0.138  1.00  0.00     0.131 C 
HETATM   11  F1  UNL     1      -0.354   2.274  -0.880  1.00  0.00    -0.205 F 
HETATM   12  C4  UNL     1       0.971   0.827   0.251  1.00  0.00    -0.040 C 
HETATM   13  C5  UNL     1       1.789  -0.129   0.978  1.00  0.00     0.037 C 
HETATM   14  C9  UNL     1       1.960   1.964  -0.279  1.00  0.00     0.037 C 
HETATM   15  C6  UNL     1       2.743  -0.868   0.030  1.00  0.00     0.004 C 
HETATM   16  C7  UNL     1       3.520   0.144  -0.794  1.00  0.00     0.001 C 
HETATM   17  C8  UNL     1       2.674   1.223  -1.382  1.00  0.00     0.004 C 
ENDBRANCH   5  10
BRANCH   9  18
HETATM   18  O1  UNL     1      -3.448  -1.848   1.845  1.00  0.00    -0.386 OA
ATOM     19  H1  UNL     1      -4.315  -2.236   1.872  1.00  0.00     0.210 HD
ENDBRANCH   9  18
TORSDOF 2
