REMARK  1 active torsions:
REMARK  status: ('A' for Active; 'I' for Inactive)
REMARK       I    between atoms: C1_4  and  N3_6 
REMARK    1  A    between atoms: N3_6  and  N4_8 
ROOT
HETATM    1  N4  UNL     1       1.904  -0.254   0.627  1.00  0.00    -0.297 N 
ATOM      2  H4  UNL     1       1.885  -1.090   1.211  1.00  0.00     0.187 HD
HETATM    3  C2  UNL     1       0.752   0.025   0.330  1.00  0.00     0.070 A 
HETATM    4  C3  UNL     1       0.305   1.136  -0.488  1.00  0.00     0.004 A 
HETATM    5  C4  UNL     1       1.194   2.038  -1.042  1.00  0.00     0.014 A 
HETATM    6  C5  UNL     1       0.828   3.101  -1.820  1.00  0.00     0.001 A 
HETATM    7  C6  UNL     1      -0.492   3.297  -2.074  1.00  0.00     0.001 A 
HETATM    8  C7  UNL     1      -1.442   2.416  -1.539  1.00  0.00     0.013 A 
HETATM    9  C8  UNL     1      -1.049   1.354  -0.760  1.00  0.00    -0.013 A 
HETATM   10  C9  UNL     1      -2.090   0.454  -0.221  1.00  0.00    -0.013 A 
HETATM   11  C10 UNL     1      -3.431   0.624  -0.458  1.00  0.00     0.013 A 
HETATM   12  C11 UNL     1      -4.391  -0.243   0.066  1.00  0.00     0.002 A 
HETATM   13  C12 UNL     1      -3.976  -1.287   0.835  1.00  0.00     0.012 A 
HETATM   14  C13 UNL     1      -2.630  -1.455   1.071  1.00  0.00    -0.024 A 
HETATM   15  C14 UNL     1      -2.287  -2.544   1.864  1.00  0.00     0.012 A 
HETATM   16  C15 UNL     1      -0.965  -2.753   2.127  1.00  0.00     0.002 A 
HETATM   17  C16 UNL     1      -0.006  -1.921   1.628  1.00  0.00     0.014 A 
HETATM   18  C17 UNL     1      -0.331  -0.845   0.845  1.00  0.00     0.005 A 
HETATM   19  C18 UNL     1      -1.654  -0.602   0.558  1.00  0.00    -0.002 A 
ENDROOT
BRANCH   1  20
HETATM   20  N3  UNL     1       3.178   0.117   0.479  1.00  0.00    -0.273 N 
HETATM   21  C1  UNL     1       4.193  -0.522  -0.262  1.00  0.00     0.200 C 
HETATM   22  N1  UNL     1       4.378  -0.191  -1.475  1.00  0.00    -0.372 N 
HETATM   23  N2  UNL     1       4.984  -1.512   0.342  1.00  0.00    -0.062 NA
ATOM     24  H12 UNL     1       5.112  -0.653  -2.011  1.00  0.00     0.158 HD
ATOM     25  H11 UNL     1       3.803   0.528  -1.914  1.00  0.00     0.158 HD
ATOM     26  H3  UNL     1       3.452   0.972   0.964  1.00  0.00     0.189 HD
ENDBRANCH   1  20
TORSDOF 1
