REMARK  2 active torsions:
REMARK  status: ('A' for Active; 'I' for Inactive)
REMARK    1  A    between atoms: C5_5  and  N1_6 
REMARK    2  A    between atoms: N1_6  and  C6_8 
ROOT
HETATM    1  C1  UNL     1      -0.872   2.317   3.694  1.00  0.00     0.002 A 
HETATM    2  C2  UNL     1       0.354   2.454   3.067  1.00  0.00     0.001 A 
HETATM    3  C3  UNL     1       0.606   1.712   1.927  1.00  0.00     0.016 A 
HETATM    4  C4  UNL     1      -0.315   0.841   1.389  1.00  0.00     0.018 A 
HETATM    5  C5  UNL     1      -0.006   0.106   0.220  1.00  0.00     0.058 A 
HETATM    6  C11 UNL     1      -0.991  -0.733  -0.234  1.00  0.00     0.018 A 
HETATM    7  C12 UNL     1      -0.821  -1.503  -1.358  1.00  0.00     0.016 A 
HETATM    8  C13 UNL     1      -1.764  -2.366  -1.871  1.00  0.00     0.001 A 
HETATM    9  C14 UNL     1      -2.965  -2.464  -1.210  1.00  0.00     0.002 A 
HETATM   10  C15 UNL     1      -3.194  -1.722  -0.084  1.00  0.00     0.030 A 
HETATM   11  C16 UNL     1      -2.228  -0.871   0.397  1.00  0.00     0.045 A 
HETATM   12  N3  UNL     1      -2.443  -0.133   1.509  1.00  0.00    -0.355 N 
ATOM     13  H3  UNL     1      -3.342  -0.223   1.983  1.00  0.00     0.166 HD
HETATM   14  C17 UNL     1      -1.532   0.714   2.022  1.00  0.00     0.045 A 
HETATM   15  C18 UNL     1      -1.809   1.454   3.177  1.00  0.00     0.030 A 
ENDROOT
BRANCH   5  16
HETATM   16  N1  UNL     1       1.074   0.276  -0.268  1.00  0.00    -0.355 N 
ATOM     17  H1  UNL     1       1.483   0.964   0.364  1.00  0.00     0.166 HD
BRANCH  16  18
HETATM   18  C6  UNL     1       2.059   0.097  -1.151  1.00  0.00     0.035 A 
HETATM   19  C7  UNL     1       3.080  -0.844  -1.100  1.00  0.00     0.046 A 
HETATM   20  C8  UNL     1       4.039  -0.915  -2.078  1.00  0.00     0.090 A 
HETATM   21  N2  UNL     1       4.003  -0.065  -3.112  1.00  0.00    -0.375 N 
HETATM   22  C9  UNL     1       3.051   0.879  -3.243  1.00  0.00     0.090 A 
ATOM     23  H2  UNL     1       4.725  -0.135  -3.829  1.00  0.00     0.164 HD
HETATM   24  C10 UNL     1       2.101   0.949  -2.273  1.00  0.00     0.046 A 
ENDBRANCH  16  18
ENDBRANCH   5  16
TORSDOF 2
