REMARK  1 active torsions:
REMARK  status: ('A' for Active; 'I' for Inactive)
REMARK    1  A    between atoms: N1_1  and  C1_5 
ROOT
HETATM    1  C1  UNL     1       0.837  -0.203  -0.467  1.00  0.00     0.183 C 
HETATM    2  C2  UNL     1      -0.367  -1.136  -0.447  1.00  0.00     0.033 C 
HETATM    3  C3  UNL     1      -1.501  -0.110  -0.484  1.00  0.00     0.002 C 
HETATM    4  C4  UNL     1      -1.059   0.819   0.650  1.00  0.00     0.002 C 
HETATM    5  C5  UNL     1       0.400   1.047   0.257  1.00  0.00     0.033 C 
ENDROOT
BRANCH   1   6
HETATM    6  N1  UNL     1       1.999  -0.817   0.140  1.00  0.00    -0.075 N 
ATOM      7  H13 UNL     1       1.797  -1.143   1.085  1.00  0.00     0.274 HD
ATOM      8  H12 UNL     1       2.216  -1.714  -0.295  1.00  0.00     0.274 HD
ATOM      9  H11 UNL     1       2.805  -0.192   0.127  1.00  0.00     0.274 HD
ENDBRANCH   1   6
TORSDOF 1
