REMARK  10 active torsions:
REMARK  status: ('A' for Active; 'I' for Inactive)
REMARK    1  A    between atoms: C2_2  and  C3_3 
REMARK    2  A    between atoms: C3_3  and  C4_4 
REMARK    3  A    between atoms: C4_4  and  C5_5 
REMARK    4  A    between atoms: N1_8  and  C8_9 
REMARK    5  A    between atoms: C8_9  and  C9_10 
REMARK       I    between atoms: C9_10  and  N2_12 
REMARK    6  A    between atoms: N2_12  and  C10_14 
REMARK    7  A    between atoms: C10_14  and  C11_15 
REMARK    8  A    between atoms: C10_14  and  C25_32 
REMARK       I    between atoms: C11_15  and  N3_17 
REMARK    9  A    between atoms: C15_21  and  C16_22 
REMARK   10  A    between atoms: C16_22  and  N4_25 
REMARK       I    between atoms: N5_34  and  C27_36 
ROOT
HETATM    1  C10 UNL     1      -0.891   0.654  -1.911  1.00  0.00     0.222 C 
ENDROOT
BRANCH   1   2
HETATM    2  N2  UNL     1       0.262  -0.183  -1.509  1.00  0.00    -0.341 N 
HETATM    3  C9  UNL     1       1.342   0.311  -0.741  1.00  0.00     0.247 C 
HETATM    4  O1  UNL     1       1.313   1.509  -0.389  1.00  0.00    -0.272 OA
ATOM      5  H2  UNL     1       0.278  -1.161  -1.799  1.00  0.00     0.163 HD
BRANCH   3   6
HETATM    6  C8  UNL     1       2.465  -0.535  -0.361  1.00  0.00     0.374 C 
BRANCH   6   7
HETATM    7  N1  UNL     1       3.506   0.070   0.409  1.00  0.00     0.097 N 
HETATM    8  C7  UNL     1       4.272   1.043  -0.316  1.00  0.00     0.273 C 
HETATM    9  C6  UNL     1       5.643   1.328   0.162  1.00  0.00     0.035 C 
HETATM   10  C5  UNL     1       6.494   0.074   0.419  1.00  0.00    -0.007 C 
HETATM   11  C29 UNL     1       5.631  -1.113   0.182  1.00  0.00     0.014 C 
HETATM   12  C28 UNL     1       4.318  -1.013   0.934  1.00  0.00     0.277 C 
HETATM   13  C30 UNL     1       6.240  -2.456   0.210  1.00  0.00     0.012 C 
BRANCH  10  14
HETATM   14  C4  UNL     1       7.181   0.188   1.743  1.00  0.00     0.005 C 
BRANCH  14  15
HETATM   15  C3  UNL     1       8.054  -0.935   2.162  1.00  0.00     0.000 C 
BRANCH  15  16
HETATM   16  C2  UNL     1       8.736  -0.653   3.504  1.00  0.00    -0.005 C 
HETATM   17  C1  UNL     1       9.589   0.587   3.395  1.00  0.00     0.005 C 
ENDBRANCH  15  16
ENDBRANCH  14  15
ENDBRANCH  10  14
ENDBRANCH   6   7
ENDBRANCH   3   6
ENDBRANCH   1   2
BRANCH   1  18
HETATM   18  C11 UNL     1      -2.133   0.119  -1.306  1.00  0.00     0.248 C 
HETATM   19  O2  UNL     1      -1.993  -0.982  -0.665  1.00  0.00    -0.271 OA
HETATM   20  N3  UNL     1      -3.413   0.658  -1.351  1.00  0.00    -0.343 N 
HETATM   21  C12 UNL     1      -3.597   1.981  -2.024  1.00  0.00     0.126 C 
HETATM   22  C15 UNL     1      -4.745   0.393  -1.005  1.00  0.00     0.123 C 
HETATM   23  C13 UNL     1      -4.622   1.662  -3.051  1.00  0.00     0.022 C 
HETATM   24  C14 UNL     1      -5.407   0.508  -2.399  1.00  0.00     0.029 C 
BRANCH  22  25
HETATM   25  C16 UNL     1      -5.229  -0.759  -0.234  1.00  0.00     0.142 C 
HETATM   26  C17 UNL     1      -4.878  -2.098  -0.839  1.00  0.00     0.048 C 
HETATM   27  C18 UNL     1      -6.775  -0.760  -0.621  1.00  0.00     0.048 C 
BRANCH  25  28
HETATM   28  N4  UNL     1      -5.218  -0.704   1.190  1.00  0.00    -0.061 N 
HETATM   29  C19 UNL     1      -6.568  -0.756   1.794  1.00  0.00     0.273 C 
HETATM   30  C20 UNL     1      -4.628   0.496   1.732  1.00  0.00     0.238 C 
HETATM   31  C21 UNL     1      -4.474   0.555   3.202  1.00  0.00     0.028 C 
HETATM   32  C22 UNL     1      -4.024  -0.695   3.863  1.00  0.00     0.003 C 
HETATM   33  C23 UNL     1      -4.700  -1.889   3.307  1.00  0.00     0.028 C 
HETATM   34  C24 UNL     1      -4.546  -1.842   1.790  1.00  0.00     0.238 C 
ENDBRANCH  25  28
ENDBRANCH  22  25
ENDBRANCH   1  18
BRANCH   1  35
HETATM   35  C25 UNL     1      -0.885   0.571  -3.380  1.00  0.00     0.017 C 
HETATM   36  C26 UNL     1      -1.194  -0.793  -3.964  1.00  0.00     0.066 C 
HETATM   37  N5  UNL     1      -0.619   1.474  -4.159  1.00  0.00    -0.336 N 
HETATM   38  C27 UNL     1      -0.251   2.799  -4.141  1.00  0.00     0.185 C 
ATOM     39  H5  UNL     1      -0.693   1.142  -5.121  1.00  0.00     0.168 HD
HETATM   40  N6  UNL     1      -0.235   3.425  -5.294  1.00  0.00    -0.374 N 
HETATM   41  N7  UNL     1       0.115   3.558  -3.006  1.00  0.00    -0.064 NA
ATOM     42  H62 UNL     1      -0.499   2.877  -6.113  1.00  0.00     0.158 HD
ATOM     43  H61 UNL     1       0.038   4.408  -5.281  1.00  0.00     0.158 HD
ENDBRANCH   1  35
TORSDOF 10
