REMARK  9 active torsions:
REMARK  status: ('A' for Active; 'I' for Inactive)
REMARK    1  A    between atoms: N1_1  and  C1_5 
REMARK    2  A    between atoms: C4_8  and  O1_9 
REMARK    3  A    between atoms: C4_8  and  O2_11 
REMARK    4  A    between atoms: C5_13  and  S1_14 
REMARK    5  A    between atoms: S1_14  and  C6_15 
REMARK    6  A    between atoms: C6_15  and  C7_16 
REMARK    7  A    between atoms: C7_16  and  S2_17 
REMARK    8  A    between atoms: S2_17  and  S3_18 
REMARK    9  A    between atoms: S3_18  and  C8_19 
ROOT
HETATM    1  C1  UNL     1      -3.035   0.394   0.240  1.00  0.00     0.202 C 
HETATM    2  C2  UNL     1      -4.361   0.386  -0.480  1.00  0.00     0.039 C 
HETATM    3  C3  UNL     1      -4.092  -0.101  -1.879  1.00  0.00     0.071 C 
HETATM    4  C4  UNL     1      -2.580  -0.250  -1.977  1.00  0.00     0.173 C 
HETATM    5  C5  UNL     1      -2.217  -0.590  -0.562  1.00  0.00     0.139 C 
ENDROOT
BRANCH   5   6
HETATM    6  S1  UNL     1      -0.461  -0.381  -0.220  1.00  0.00    -0.156 SA
BRANCH   6   7
HETATM    7  C6  UNL     1      -0.125  -0.847   1.500  1.00  0.00     0.085 C 
BRANCH   7   8
HETATM    8  C7  UNL     1       1.345  -0.670   1.758  1.00  0.00     0.096 C 
BRANCH   8   9
HETATM    9  S2  UNL     1       2.348  -1.709   0.650  1.00  0.00    -0.089 SA
BRANCH   9  10
HETATM   10  S3  UNL     1       4.416  -1.457   1.036  1.00  0.00    -0.019 SA
BRANCH  10  11
HETATM   11  C8  UNL     1       5.116  -0.142   0.053  1.00  0.00     0.180 C 
HETATM   12  N2  UNL     1       4.518   0.613  -0.805  1.00  0.00    -0.264 N 
HETATM   13  N3  UNL     1       5.461   1.518  -1.345  1.00  0.00    -0.007 NA
ATOM     14  H2  UNL     1       3.530   0.565  -1.053  1.00  0.00     0.186 HD
HETATM   15  N4  UNL     1       6.643   1.463  -0.614  1.00  0.00    -0.007 NA
HETATM   16  N5  UNL     1       6.480   0.253   0.097  1.00  0.00    -0.264 N 
ATOM     17  H5  UNL     1       7.226  -0.258   0.569  1.00  0.00     0.186 HD
ENDBRANCH  10  11
ENDBRANCH   9  10
ENDBRANCH   8   9
ENDBRANCH   7   8
ENDBRANCH   6   7
ENDBRANCH   5   6
BRANCH   1  18
HETATM   18  N1  UNL     1      -3.156  -0.080   1.602  1.00  0.00    -0.074 N 
ATOM     19  H13 UNL     1      -3.860   0.448   2.117  1.00  0.00     0.274 HD
ATOM     20  H12 UNL     1      -3.590  -1.002   1.636  1.00  0.00     0.274 HD
ATOM     21  H11 UNL     1      -2.260  -0.075   2.089  1.00  0.00     0.274 HD
ENDBRANCH   1  18
BRANCH   4  22
HETATM   22  O1  UNL     1      -2.059   0.980  -2.328  1.00  0.00    -0.364 OA
ATOM     23  H1  UNL     1      -1.116   0.887  -2.389  1.00  0.00     0.213 HD
ENDBRANCH   4  22
BRANCH   4  24
HETATM   24  O2  UNL     1      -2.238  -1.257  -2.876  1.00  0.00    -0.364 OA
ATOM     25  H2  UNL     1      -1.295  -1.350  -2.937  1.00  0.00     0.213 HD
ENDBRANCH   4  24
TORSDOF 9
