REMARK  1 active torsions:
REMARK  status: ('A' for Active; 'I' for Inactive)
REMARK    1  A    between atoms: C8_16  and  C9_17 
ROOT
HETATM    1  C1  UNL     1       4.233   0.499   1.729  1.00  0.00     0.160 C 
HETATM    2  N1  UNL     1       3.481  -0.067   0.630  1.00  0.00    -0.312 N 
HETATM    3  C2  UNL     1       4.107  -0.817  -0.294  1.00  0.00     0.180 A 
HETATM    4  S1  UNL     1       5.709  -1.129  -0.240  1.00  0.00    -0.040 SA
HETATM    5  N2  UNL     1       3.379  -1.334  -1.311  1.00  0.00    -0.322 N 
ATOM      6  H2  UNL     1       3.859  -1.902  -2.010  1.00  0.00     0.169 HD
HETATM    7  C3  UNL     1       2.078  -1.141  -1.445  1.00  0.00     0.134 A 
HETATM    8  S2  UNL     1       1.194  -1.768  -2.679  1.00  0.00    -0.058 SA
HETATM    9  C4  UNL     1       1.401  -0.374  -0.512  1.00  0.00     0.120 A 
HETATM   10  C5  UNL     1       2.139   0.153   0.523  1.00  0.00     0.142 A 
HETATM   11  N3  UNL     1       1.255   0.839   1.266  1.00  0.00    -0.312 N 
ATOM     12  H3  UNL     1       1.488   1.353   2.116  1.00  0.00     0.170 HD
HETATM   13  C6  UNL     1       0.019   0.757   0.738  1.00  0.00     0.184 A 
HETATM   14  N4  UNL     1       0.121   0.004  -0.362  1.00  0.00    -0.311 N 
HETATM   15  C7  UNL     1      -1.195  -0.113  -0.973  1.00  0.00     0.158 C 
HETATM   16  C8  UNL     1      -2.097   0.112   0.221  1.00  0.00     0.107 C 
HETATM   17  N5  UNL     1      -1.358   1.166   0.906  1.00  0.00    -0.355 N 
ATOM     18  H5  UNL     1      -1.723   1.989   1.386  1.00  0.00     0.163 HD
ENDROOT
BRANCH  16  19
HETATM   19  C9  UNL     1      -3.472   0.550  -0.174  1.00  0.00     0.010 A 
HETATM   20  C10 UNL     1      -4.500   0.821   0.833  1.00  0.00     0.007 A 
HETATM   21  C11 UNL     1      -4.554  -0.482   0.088  1.00  0.00     0.007 A 
ENDBRANCH  16  19
TORSDOF 1
