REMARK  10 active torsions:
REMARK  status: ('A' for Active; 'I' for Inactive)
REMARK    1  A    between atoms: S1_2  and  C2_5 
REMARK    2  A    between atoms: C2_5  and  C3_6 
REMARK    3  A    between atoms: C2_5  and  C10_13 
REMARK    4  A    between atoms: C3_6  and  C4_7 
REMARK       I    between atoms: C10_13  and  N1_15 
REMARK    5  A    between atoms: N1_15  and  C11_17 
REMARK    6  A    between atoms: C11_17  and  C12_18 
REMARK    7  A    between atoms: C11_17  and  C13_21 
REMARK    8  A    between atoms: C11_17  and  C25_35 
REMARK       I    between atoms: C13_21  and  N2_23 
REMARK    9  A    between atoms: N2_23  and  C14_24 
REMARK   10  A    between atoms: C14_24  and  C15_25 
ROOT
HETATM    1  C11 UNL     1      -0.146  -1.277  -0.536  1.00  0.00     0.245 C 
ENDROOT
BRANCH   1   2
HETATM    2  N1  UNL     1      -1.393  -0.566  -0.292  1.00  0.00    -0.327 N 
HETATM    3  C10 UNL     1      -2.469  -0.456  -1.162  1.00  0.00     0.260 C 
HETATM    4  O3  UNL     1      -2.447  -1.072  -2.242  1.00  0.00    -0.267 OA
ATOM      5  H1  UNL     1      -1.485  -0.101   0.611  1.00  0.00     0.164 HD
BRANCH   3   6
HETATM    6  C2  UNL     1      -3.689   0.408  -0.903  1.00  0.00     0.104 C 
BRANCH   6   7
HETATM    7  S1  UNL     1      -4.622   0.598  -2.350  1.00  0.00     0.173 S 
HETATM    8  C1  UNL     1      -5.672  -0.740  -2.778  1.00  0.00     0.166 C 
HETATM    9  O1  UNL     1      -3.509   0.560  -3.507  1.00  0.00    -0.223 OA
HETATM   10  O2  UNL     1      -5.180   1.947  -2.550  1.00  0.00    -0.223 OA
ENDBRANCH   6   7
BRANCH   6  11
HETATM   11  C3  UNL     1      -4.353   0.181   0.363  1.00  0.00     0.061 C 
BRANCH  11  12
HETATM   12  C4  UNL     1      -5.279   1.167   0.942  1.00  0.00    -0.010 C 
HETATM   13  C5  UNL     1      -6.558   1.511   0.291  1.00  0.00     0.005 C 
HETATM   14  C6  UNL     1      -6.780   3.028   0.474  1.00  0.00     0.000 C 
HETATM   15  C7  UNL     1      -6.356   3.319   1.907  1.00  0.00     0.000 C 
HETATM   16  C8  UNL     1      -6.491   2.131   2.812  1.00  0.00     0.000 C 
HETATM   17  C9  UNL     1      -5.570   0.976   2.446  1.00  0.00     0.005 C 
ENDBRANCH  11  12
ENDBRANCH   6  11
ENDBRANCH   3   6
ENDBRANCH   1   2
BRANCH   1  18
HETATM   18  C12 UNL     1       0.291  -0.722  -1.915  1.00  0.00     0.216 C 
HETATM   19  O4  UNL     1      -0.023   0.469  -2.179  1.00  0.00    -0.646 OA
HETATM   20  O5  UNL     1       0.980  -1.474  -2.824  1.00  0.00    -0.646 OA
ENDBRANCH   1  18
BRANCH   1  21
HETATM   21  C13 UNL     1       0.829  -0.495   0.387  1.00  0.00     0.333 C 
HETATM   22  O6  UNL     1       0.400  -0.449   1.545  1.00  0.00    -0.254 OA
HETATM   23  N2  UNL     1       1.945   0.056  -0.167  1.00  0.00    -0.384 NA
BRANCH  23  24
HETATM   24  C14 UNL     1       3.067   0.613  -0.714  1.00  0.00     0.168 C 
BRANCH  24  25
HETATM   25  C15 UNL     1       4.355   0.811  -0.011  1.00  0.00     0.005 C 
HETATM   26  C16 UNL     1       5.263   1.377  -1.120  1.00  0.00     0.020 C 
HETATM   27  C17 UNL     1       6.566   1.879  -0.639  1.00  0.00    -0.013 C 
HETATM   28  C18 UNL     1       6.299   3.030   0.268  1.00  0.00     0.009 C 
HETATM   29  C22 UNL     1       7.298   0.726   0.011  1.00  0.00     0.009 C 
HETATM   30  C19 UNL     1       5.482   2.468   1.436  1.00  0.00    -0.013 C 
HETATM   31  C20 UNL     1       6.316   1.391   2.092  1.00  0.00     0.009 C 
HETATM   32  C24 UNL     1       4.159   1.951   1.022  1.00  0.00     0.020 C 
HETATM   33  C21 UNL     1       6.408   0.202   1.139  1.00  0.00    -0.013 C 
HETATM   34  C23 UNL     1       5.069  -0.276   0.666  1.00  0.00     0.020 C 
ENDBRANCH  24  25
ENDBRANCH  23  24
ENDBRANCH   1  21
BRANCH   1  35
HETATM   35  C25 UNL     1      -0.009  -2.670  -0.556  1.00  0.00     0.235 C 
HETATM   36  C26 UNL     1      -0.391  -3.538   0.625  1.00  0.00     0.037 C 
HETATM   37  C27 UNL     1       0.527  -4.744   0.781  1.00  0.00     0.004 C 
HETATM   38  C28 UNL     1       0.768  -5.350  -0.587  1.00  0.00     0.027 C 
HETATM   39  C29 UNL     1       1.395  -4.364  -1.534  1.00  0.00     0.233 C 
HETATM   40  N3  UNL     1       1.385  -3.079  -0.875  1.00  0.00    -0.067 N 
ATOM     41  H32 UNL     1       1.874  -2.369  -1.420  1.00  0.00     0.277 HD
ATOM     42  H31 UNL     1       1.982  -3.072  -0.048  1.00  0.00     0.277 HD
ENDBRANCH   1  35
TORSDOF 10
