REMARK  4 active torsions:
REMARK  status: ('A' for Active; 'I' for Inactive)
REMARK    1  A    between atoms: C2_2  and  C3_3 
REMARK    2  A    between atoms: C6_6  and  N1_7 
REMARK    3  A    between atoms: C6_6  and  C7_11 
REMARK    4  A    between atoms: C7_11  and  N2_12 
ROOT
HETATM    1  C3  UNL     1      -1.426  -0.392  -0.313  1.00  0.00    -0.012 C 
HETATM    2  C4  UNL     1      -0.526  -1.386   0.346  1.00  0.00     0.007 C 
HETATM    3  C5  UNL     1       0.901  -1.269  -0.110  1.00  0.00     0.044 C 
HETATM    4  C6  UNL     1       1.476   0.099   0.044  1.00  0.00     0.177 C 
HETATM    5  C8  UNL     1       0.402   1.019   0.550  1.00  0.00     0.208 C 
HETATM    6  F1  UNL     1       0.808   2.341   0.580  1.00  0.00    -0.247 F 
HETATM    7  C9  UNL     1      -0.795   0.957  -0.381  1.00  0.00     0.044 C 
ENDROOT
BRANCH   4   8
HETATM    8  N1  UNL     1       1.949   0.562  -1.231  1.00  0.00    -0.066 N 
ATOM      9  H13 UNL     1       2.608  -0.089  -1.658  1.00  0.00     0.275 HD
ATOM     10  H12 UNL     1       1.225   0.526  -1.948  1.00  0.00     0.275 HD
ATOM     11  H11 UNL     1       2.342   1.497  -1.126  1.00  0.00     0.275 HD
ENDBRANCH   4   8
BRANCH   4  12
HETATM   12  C7  UNL     1       2.645   0.092   1.012  1.00  0.00     0.271 C 
BRANCH  12  13
HETATM   13  N2  UNL     1       3.705  -0.767   0.578  1.00  0.00    -0.077 N 
ATOM     14  H23 UNL     1       3.365  -1.713   0.405  1.00  0.00     0.274 HD
ATOM     15  H22 UNL     1       4.010  -0.528  -0.366  1.00  0.00     0.274 HD
ATOM     16  H21 UNL     1       4.491  -0.772   1.229  1.00  0.00     0.274 HD
ENDBRANCH  12  13
ENDBRANCH   4  12
BRANCH   1  17
HETATM   17  C2  UNL     1      -2.756  -0.330   0.401  1.00  0.00     0.000 C 
HETATM   18  C1  UNL     1      -3.648   0.675  -0.276  1.00  0.00     0.005 C 
ENDBRANCH   1  17
TORSDOF 4
