REMARK  3 active torsions:
REMARK  status: ('A' for Active; 'I' for Inactive)
REMARK    1  A    between atoms: C3_6  and  C5_8 
REMARK    2  A    between atoms: C5_8  and  C6_9 
REMARK    3  A    between atoms: C6_9  and  O1_10 
ROOT
HETATM    1  C1  UNL     1      -2.522  -1.460   0.137  1.00  0.00     0.041 C 
HETATM    2  C2  UNL     1      -1.926  -0.109   0.388  1.00  0.00     0.201 C 
HETATM    3  N1  UNL     1      -0.828  -0.101   1.298  1.00  0.00    -0.061 N 
ATOM      4  H11 UNL     1      -0.670  -1.012   1.728  1.00  0.00     0.278 HD
ATOM      5  H12 UNL     1      -1.029   0.423   2.150  1.00  0.00     0.278 HD
HETATM    6  C3  UNL     1       0.338   0.395   0.605  1.00  0.00     0.126 C 
HETATM    7  C4  UNL     1       1.186   1.267   1.472  1.00  0.00     0.046 C 
HETATM    8  C7  UNL     1      -0.247   1.275  -0.481  1.00  0.00     0.060 C 
HETATM    9  C8  UNL     1      -1.428   0.450  -0.933  1.00  0.00     0.114 C 
HETATM   10 CL1  UNL     1      -2.691   1.534  -1.548  1.00  0.00    -0.123 Cl
ENDROOT
BRANCH   6  11
HETATM   11  C5  UNL     1       1.067  -0.788   0.031  1.00  0.00     0.064 C 
BRANCH  11  12
HETATM   12  C6  UNL     1       2.305  -0.429  -0.719  1.00  0.00     0.166 C 
BRANCH  12  13
HETATM   13  O1  UNL     1       3.236   0.229   0.063  1.00  0.00    -0.401 OA
ATOM     14  H1  UNL     1       4.025   0.458  -0.415  1.00  0.00     0.209 HD
ENDBRANCH  12  13
ENDBRANCH  11  12
ENDBRANCH   6  11
TORSDOF 3
