REMARK  5 active torsions:
REMARK  status: ('A' for Active; 'I' for Inactive)
REMARK    1  A    between atoms: C2_2  and  C3_3 
REMARK    2  A    between atoms: C2_2  and  N3_12 
REMARK    3  A    between atoms: C3_3  and  N1_4 
REMARK    4  A    between atoms: C3_3  and  N2_8 
REMARK    5  A    between atoms: C5_16  and  N5_17 
ROOT
HETATM    1  C1  UNL     1      -0.652  -1.594  -1.022  1.00  0.00     0.038 C 
HETATM    2  C2  UNL     1      -0.682  -0.587   0.100  1.00  0.00     0.163 C 
ENDROOT
BRANCH   2   3
HETATM    3  C3  UNL     1      -1.356   0.691  -0.413  1.00  0.00     0.402 C 
BRANCH   3   4
HETATM    4  N1  UNL     1      -1.378   1.646   0.666  1.00  0.00    -0.048 N 
ATOM      5  H13 UNL     1      -1.819   1.279   1.509  1.00  0.00     0.276 HD
ATOM      6  H12 UNL     1      -0.453   1.818   1.060  1.00  0.00     0.276 HD
ATOM      7  H11 UNL     1      -1.826   2.496   0.325  1.00  0.00     0.276 HD
ENDBRANCH   3   4
BRANCH   3   8
HETATM    8  N2  UNL     1      -2.650   0.335  -0.893  1.00  0.00    -0.048 N 
ATOM      9  H23 UNL     1      -2.623  -0.407  -1.592  1.00  0.00     0.276 HD
ATOM     10  H22 UNL     1      -3.210  -0.156  -0.196  1.00  0.00     0.276 HD
ATOM     11  H21 UNL     1      -3.098   1.185  -1.234  1.00  0.00     0.276 HD
ENDBRANCH   3   8
ENDBRANCH   2   3
BRANCH   2  12
HETATM   12  N3  UNL     1       0.656  -0.291   0.571  1.00  0.00    -0.265 N 
HETATM   13  C4  UNL     1       1.165  -0.433   1.803  1.00  0.00     0.219 A 
HETATM   14  N4  UNL     1       2.445  -0.041   1.806  1.00  0.00    -0.185 N 
HETATM   15  C5  UNL     1       2.717   0.341   0.570  1.00  0.00     0.691 A 
ATOM     16  H4  UNL     1       3.083  -0.038   2.602  1.00  0.00     0.185 HD
HETATM   17  N6  UNL     1       1.622   0.187  -0.182  1.00  0.00    -0.129 N 
ATOM     18  H6  UNL     1       1.548   0.404  -1.176  1.00  0.00     0.206 HD
BRANCH  15  19
HETATM   19  N5  UNL     1       3.873   0.787   0.188  1.00  0.00    -0.233 N 
ATOM     20  H52 UNL     1       4.708   0.904   0.762  1.00  0.00     0.174 HD
ATOM     21  H51 UNL     1       4.083   1.082  -0.766  1.00  0.00     0.174 HD
ENDBRANCH  15  19
ENDBRANCH   2  12
TORSDOF 5
