REMARK  5 active torsions:
REMARK  status: ('A' for Active; 'I' for Inactive)
REMARK    1  A    between atoms: C2_2  and  O1_3 
REMARK    2  A    between atoms: C2_2  and  N1_5 
REMARK    3  A    between atoms: N1_5  and  C3_7 
REMARK    4  A    between atoms: C4_10  and  N3_11 
REMARK       I    between atoms: N3_11  and  C5_13 
REMARK       I    between atoms: C5_13  and  N4_14 
REMARK       I    between atoms: C5_13  and  N5_18 
REMARK    5  A    between atoms: N7_25  and  N8_27 
ROOT
HETATM    1  C3  UNL     1       1.301  -0.446  -0.608  1.00  0.00     0.697 C 
HETATM    2  N2  UNL     1       0.053  -0.992  -0.685  1.00  0.00    -0.022 N 
ATOM      3  H2  UNL     1       0.014  -1.895  -1.157  1.00  0.00     0.203 HD
HETATM    4  C4  UNL     1      -1.132  -0.541  -0.244  1.00  0.00     0.697 C 
HETATM    5  N6  UNL     1      -1.454   0.708   0.102  1.00  0.00    -0.169 N 
ATOM      6  H6  UNL     1      -2.430   0.975  -0.023  1.00  0.00     0.186 HD
HETATM    7  C6  UNL     1      -0.623   1.669   0.605  1.00  0.00     0.205 C 
HETATM    8  N7  UNL     1      -1.186   2.663   1.204  1.00  0.00    -0.266 N 
ATOM      9  H7  UNL     1      -2.200   2.721   1.294  1.00  0.00     0.190 HD
HETATM   10  C7  UNL     1       0.770   1.659   0.522  1.00  0.00     0.305 C 
HETATM   11  O2  UNL     1       1.346   2.613   1.119  1.00  0.00    -0.263 OA
HETATM   12  N10 UNL     1       1.563   0.762  -0.112  1.00  0.00    -0.152 N 
ATOM     13  H10 UNL     1       2.530   1.065  -0.230  1.00  0.00     0.187 HD
ENDROOT
BRANCH   4  14
HETATM   14  N3  UNL     1      -2.097  -1.386  -0.128  1.00  0.00    -0.173 N 
HETATM   15  C5  UNL     1      -3.414  -1.095   0.320  1.00  0.00     0.494 C 
HETATM   16  N4  UNL     1      -4.003  -2.354   0.788  1.00  0.00    -0.032 N 
HETATM   17  N5  UNL     1      -4.208  -0.695  -0.830  1.00  0.00    -0.032 N 
ATOM     18  H43 UNL     1      -3.975  -3.093   0.086  1.00  0.00     0.278 HD
ATOM     19  H42 UNL     1      -3.435  -2.822   1.495  1.00  0.00     0.278 HD
ATOM     20  H41 UNL     1      -4.948  -2.145   1.110  1.00  0.00     0.278 HD
ATOM     21  H53 UNL     1      -3.789   0.078  -1.347  1.00  0.00     0.278 HD
ATOM     22  H52 UNL     1      -4.192  -1.387  -1.579  1.00  0.00     0.278 HD
ATOM     23  H51 UNL     1      -5.153  -0.486  -0.508  1.00  0.00     0.278 HD
ATOM     24  H3  UNL     1      -1.898  -2.354  -0.381  1.00  0.00     0.181 HD
ENDBRANCH   4  14
BRANCH   1  25
HETATM   25  N1  UNL     1       2.211  -1.200  -1.057  1.00  0.00    -0.200 N 
ATOM     26  H1  UNL     1       1.902  -2.105  -1.413  1.00  0.00     0.180 HD
BRANCH  25  27
HETATM   27  C2  UNL     1       3.605  -0.952  -1.130  1.00  0.00     0.230 C 
HETATM   28  C1  UNL     1       4.293  -1.007   0.234  1.00  0.00     0.063 C 
BRANCH  27  29
HETATM   29  O1  UNL     1       4.190  -1.986  -1.884  1.00  0.00    -0.377 OA
ATOM     30  H1  UNL     1       3.762  -1.952  -2.732  1.00  0.00     0.212 HD
ENDBRANCH  27  29
ENDBRANCH  25  27
ENDBRANCH   1  25
BRANCH   8  31
HETATM   31  N8  UNL     1      -0.358   3.653   1.723  1.00  0.00    -0.248 N 
HETATM   32  N9  UNL     1      -0.602   4.901   1.573  1.00  0.00    -0.331 N 
ATOM     33  H92 UNL     1      -1.439   5.162   1.051  1.00  0.00     0.178 HD
ATOM     34  H91 UNL     1       0.005   5.627   1.954  1.00  0.00     0.178 HD
ATOM     35  H8  UNL     1       0.474   3.374   2.242  1.00  0.00     0.207 HD
ENDBRANCH   8  31
TORSDOF 5
