REMARK  11 active torsions:
REMARK  status: ('A' for Active; 'I' for Inactive)
REMARK    1  A    between atoms: O1_1  and  C1_3 
REMARK    2  A    between atoms: C1_3  and  C2_4 
REMARK    3  A    between atoms: N1_7  and  C5_8 
REMARK    4  A    between atoms: C5_8  and  C6_9 
REMARK    5  A    between atoms: C6_9  and  C7_10 
REMARK    6  A    between atoms: C7_10  and  C8_11 
REMARK    7  A    between atoms: C8_11  and  O2_12 
REMARK    8  A    between atoms: N2_17  and  C12_18 
REMARK    9  A    between atoms: C12_18  and  C13_19 
REMARK   10  A    between atoms: C21_27  and  O3_28 
REMARK   11  A    between atoms: C31_39  and  O4_40 
ROOT
HETATM    1  C8  UNL     1      -0.492   1.013  -0.190  1.00  0.00     0.100 C 
HETATM    2  C9  UNL     1      -1.054   0.082  -1.198  1.00  0.00     0.011 C 
HETATM    3  C10 UNL     1      -1.717   1.087  -2.205  1.00  0.00     0.058 C 
HETATM    4  C11 UNL     1      -2.978   1.701  -1.685  1.00  0.00     0.064 C 
HETATM    5  N2  UNL     1      -2.998   2.230  -0.401  1.00  0.00    -0.366 N 
HETATM    6  C16 UNL     1      -2.854   1.471   0.745  1.00  0.00     0.126 C 
HETATM    7  C17 UNL     1      -4.065   0.569   1.091  1.00  0.00     0.034 C 
HETATM    8  C18 UNL     1      -3.731  -0.649   1.824  1.00  0.00    -0.005 A 
HETATM    9  C19 UNL     1      -4.430  -1.927   1.928  1.00  0.00     0.013 A 
HETATM   10  C20 UNL     1      -3.690  -1.794   0.790  1.00  0.00     0.025 A 
HETATM   11  C21 UNL     1      -2.226  -1.746   0.350  1.00  0.00     0.073 C 
HETATM   12  C22 UNL     1      -2.204  -2.952  -0.607  1.00  0.00     0.077 C 
HETATM   13  C23 UNL     1      -0.953  -3.145  -1.301  1.00  0.00    -0.049 A 
HETATM   14  C24 UNL     1      -0.628  -4.506  -1.310  1.00  0.00     0.007 A 
HETATM   15  C25 UNL     1       0.528  -4.905  -1.929  1.00  0.00     0.001 A 
HETATM   16  C26 UNL     1       1.358  -3.988  -2.534  1.00  0.00     0.001 A 
HETATM   17  C27 UNL     1       0.999  -2.662  -2.500  1.00  0.00     0.007 A 
HETATM   18  C28 UNL     1      -0.169  -2.198  -1.882  1.00  0.00    -0.051 A 
HETATM   19  C29 UNL     1      -0.204  -0.752  -2.049  1.00  0.00     0.052 C 
HETATM   20  C30 UNL     1      -2.040  -0.460  -0.308  1.00  0.00     0.072 C 
HETATM   21  C31 UNL     1      -1.642   0.577   0.682  1.00  0.00     0.117 C 
ENDROOT
BRANCH   1  22
HETATM   22  C7  UNL     1       0.862   0.958   0.341  1.00  0.00     0.043 C 
BRANCH  22  23
HETATM   23  C6  UNL     1       1.593  -0.191   0.811  1.00  0.00     0.033 C 
BRANCH  23  24
HETATM   24  C5  UNL     1       2.970   0.218   1.342  1.00  0.00     0.272 C 
BRANCH  24  25
HETATM   25  N1  UNL     1       3.821   0.872   0.439  1.00  0.00     0.088 N 
HETATM   26  C4  UNL     1       5.067   1.250   1.085  1.00  0.00     0.273 C 
HETATM   27  C3  UNL     1       5.999   0.079   1.209  1.00  0.00     0.037 C 
HETATM   28  C2  UNL     1       6.280  -0.436  -0.180  1.00  0.00     0.012 C 
HETATM   29  C33 UNL     1       4.978  -0.970  -0.718  1.00  0.00     0.037 C 
HETATM   30  C32 UNL     1       4.026   0.205  -0.801  1.00  0.00     0.273 C 
BRANCH  28  31
HETATM   31  C1  UNL     1       7.371  -1.473  -0.213  1.00  0.00     0.168 C 
BRANCH  31  32
HETATM   32  O1  UNL     1       7.049  -2.592   0.562  1.00  0.00    -0.400 OA
ATOM     33  H1  UNL     1       7.737  -3.246   0.541  1.00  0.00     0.209 HD
ENDBRANCH  31  32
ENDBRANCH  28  31
ENDBRANCH  24  25
ENDBRANCH  23  24
ENDBRANCH  22  23
ENDBRANCH   1  22
BRANCH   1  34
HETATM   34  O2  UNL     1      -0.649   2.412  -0.468  1.00  0.00    -0.386 OA
ATOM     35  H2  UNL     1      -1.533   2.448  -0.815  1.00  0.00     0.210 HD
ENDBRANCH   1  34
BRANCH  21  36
HETATM   36  O4  UNL     1      -1.052   0.255   1.861  1.00  0.00    -0.384 OA
ATOM     37  H4  UNL     1      -1.777  -0.020   2.410  1.00  0.00     0.210 HD
ENDBRANCH  21  36
BRANCH  11  38
HETATM   38  O3  UNL     1      -1.477  -2.046   1.443  1.00  0.00    -0.389 OA
ATOM     39  H3  UNL     1      -0.568  -2.016   1.170  1.00  0.00     0.210 HD
ENDBRANCH  11  38
BRANCH   5  40
HETATM   40  C12 UNL     1      -3.677   3.463  -0.330  1.00  0.00     0.068 C 
BRANCH  40  41
HETATM   41  C13 UNL     1      -3.550   4.113   1.004  1.00  0.00     0.024 A 
HETATM   42  C14 UNL     1      -4.223   5.433   1.208  1.00  0.00     0.010 A 
HETATM   43  C15 UNL     1      -4.756   4.235   1.849  1.00  0.00     0.010 A 
ENDBRANCH  40  41
ENDBRANCH   5  40
TORSDOF 11
