REMARK  7 active torsions:
REMARK  status: ('A' for Active; 'I' for Inactive)
REMARK    1  A    between atoms: C1_2  and  C2_4 
REMARK    2  A    between atoms: C2_4  and  C3_5 
REMARK    3  A    between atoms: C7_11  and  C8_12 
REMARK    4  A    between atoms: N2_18  and  C14_19 
REMARK    5  A    between atoms: C14_19  and  C15_20 
REMARK    6  A    between atoms: C18_23  and  C19_24 
REMARK    7  A    between atoms: C19_24  and  N3_25 
ROOT
HETATM    1  C15 UNL     1      -0.390  -0.218  -1.533  1.00  0.00    -0.040 A 
HETATM    2  C16 UNL     1       0.286   0.964  -1.323  1.00  0.00     0.009 A 
HETATM    3  C17 UNL     1       1.346   1.071  -0.451  1.00  0.00     0.009 A 
HETATM    4  C18 UNL     1       1.780  -0.023   0.259  1.00  0.00    -0.030 A 
HETATM    5  C28 UNL     1       1.122  -1.214   0.067  1.00  0.00     0.009 A 
HETATM    6  C29 UNL     1       0.060  -1.301  -0.813  1.00  0.00     0.009 A 
ENDROOT
BRANCH   1   7
HETATM    7  C14 UNL     1      -1.512  -0.287  -2.480  1.00  0.00     0.164 C 
BRANCH   7   8
HETATM    8  N2  UNL     1      -2.779   0.210  -1.912  1.00  0.00    -0.346 N 
HETATM    9  C13 UNL     1      -3.640  -0.771  -1.295  1.00  0.00     0.126 C 
HETATM   10  C12 UNL     1      -3.318  -1.121   0.111  1.00  0.00     0.025 C 
HETATM   11  C7  UNL     1      -4.530  -1.265   1.012  1.00  0.00    -0.009 C 
HETATM   12  C6  UNL     1      -5.036   0.044   1.531  1.00  0.00     0.006 C 
HETATM   13  C5  UNL     1      -6.057   0.745   0.721  1.00  0.00     0.020 C 
HETATM   14  C4  UNL     1      -5.572   2.058   0.091  1.00  0.00     0.114 C 
HETATM   15  N1  UNL     1      -4.157   2.060   0.089  1.00  0.00    -0.409 N 
HETATM   16  C3  UNL     1      -3.468   2.553  -1.028  1.00  0.00     0.179 C 
ATOM     17  H1  UNL     1      -3.642   1.705   0.895  1.00  0.00     0.154 HD
HETATM   18  C30 UNL     1      -3.024   1.592  -2.049  1.00  0.00     0.243 C 
HETATM   19  O3  UNL     1      -2.840   2.107  -3.216  1.00  0.00    -0.271 OA
BRANCH  11  20
HETATM   20  C8  UNL     1      -5.562  -2.194   0.482  1.00  0.00    -0.010 C 
HETATM   21  C9  UNL     1      -4.901  -3.499   0.014  1.00  0.00     0.005 C 
HETATM   22  C10 UNL     1      -6.027  -4.270   0.702  1.00  0.00     0.001 C 
HETATM   23  C11 UNL     1      -6.239  -3.013   1.558  1.00  0.00     0.005 C 
ENDBRANCH  11  20
BRANCH  16  24
HETATM   24  C2  UNL     1      -4.200   3.710  -1.711  1.00  0.00     0.147 C 
BRANCH  24  25
HETATM   25  C1  UNL     1      -4.385   4.856  -0.806  1.00  0.00     0.175 C 
HETATM   26  O1  UNL     1      -5.051   5.873  -1.201  1.00  0.00    -0.648 OA
HETATM   27  O2  UNL     1      -3.850   4.858   0.466  1.00  0.00    -0.648 OA
ENDBRANCH  24  25
ENDBRANCH  16  24
ENDBRANCH   7   8
ENDBRANCH   1   7
BRANCH   4  28
HETATM   28  C19 UNL     1       2.923   0.048   1.210  1.00  0.00     0.311 C 
BRANCH  28  29
HETATM   29  N3  UNL     1       4.176  -0.304   0.629  1.00  0.00     0.094 N 
HETATM   30  C20 UNL     1       4.594   0.505  -0.470  1.00  0.00     0.274 C 
HETATM   31  C21 UNL     1       5.020   1.892  -0.063  1.00  0.00     0.057 C 
HETATM   32  C22 UNL     1       6.239   1.909   0.811  1.00  0.00     0.234 C 
HETATM   33  N4  UNL     1       7.223   0.965   0.313  1.00  0.00    -0.075 N 
HETATM   34  C23 UNL     1       8.093   0.490   1.353  1.00  0.00     0.233 C 
ATOM     35  H42 UNL     1       6.776   0.190  -0.177  1.00  0.00     0.277 HD
ATOM     36  H41 UNL     1       7.755   1.361  -0.462  1.00  0.00     0.277 HD
HETATM   37  C24 UNL     1       8.943  -0.627   0.787  1.00  0.00     0.055 C 
HETATM   38  C25 UNL     1       8.008  -1.640   0.162  1.00  0.00     0.234 C 
HETATM   39  N5  UNL     1       6.713  -1.525   0.805  1.00  0.00    -0.073 N 
HETATM   40  C26 UNL     1       5.678  -2.146   0.005  1.00  0.00     0.262 C 
ATOM     41  H52 UNL     1       6.730  -1.899   1.754  1.00  0.00     0.277 HD
ATOM     42  H51 UNL     1       6.487  -0.555   1.024  1.00  0.00     0.277 HD
HETATM   43  C27 UNL     1       4.298  -1.726   0.377  1.00  0.00     0.300 C 
ENDBRANCH  28  29
ENDBRANCH   4  28
TORSDOF 7
