REMARK  9 active torsions:
REMARK  status: ('A' for Active; 'I' for Inactive)
REMARK    1  A    between atoms: C2_2  and  C3_3 
REMARK    2  A    between atoms: C3_3  and  C4_4 
REMARK    3  A    between atoms: C4_4  and  C5_5 
REMARK    4  A    between atoms: C7_10  and  C8_11 
REMARK    5  A    between atoms: C8_11  and  O2_12 
REMARK    6  A    between atoms: O2_12  and  C9_13 
REMARK    7  A    between atoms: C9_13  and  C10_14 
REMARK    8  A    between atoms: C18_29  and  C19_30 
REMARK    9  A    between atoms: C19_30  and  C20_31 
ROOT
HETATM    1  C5  UNL     1       2.669  -1.731  -0.522  1.00  0.00     0.176 C 
HETATM    2  N1  UNL     1       3.405  -0.786  -1.326  1.00  0.00    -0.346 N 
ATOM      3  H1  UNL     1       3.966  -1.184  -2.079  1.00  0.00     0.163 HD
HETATM    4  C6  UNL     1       3.447   0.605  -1.205  1.00  0.00     0.243 C 
HETATM    5  O1  UNL     1       4.610   1.146  -1.174  1.00  0.00    -0.271 OA
HETATM    6  C7  UNL     1       2.250   1.518  -1.110  1.00  0.00     0.200 C 
HETATM    7  N2  UNL     1       1.292   1.222  -2.147  1.00  0.00    -0.344 N 
ATOM      8  H2  UNL     1       1.644   1.289  -3.102  1.00  0.00     0.163 HD
HETATM    9  C14 UNL     1      -0.056   0.855  -2.024  1.00  0.00     0.240 C 
HETATM   10  O3  UNL     1      -0.424  -0.266  -2.544  1.00  0.00    -0.271 OA
HETATM   11  C15 UNL     1      -1.150   1.601  -1.360  1.00  0.00     0.172 C 
HETATM   12  C16 UNL     1      -1.068   3.098  -1.536  1.00  0.00     0.042 C 
HETATM   13  N3  UNL     1      -1.292   1.314   0.044  1.00  0.00    -0.348 N 
ATOM     14  H3  UNL     1      -0.447   1.106   0.576  1.00  0.00     0.163 HD
HETATM   15  C17 UNL     1      -2.528   1.301   0.735  1.00  0.00     0.222 C 
HETATM   16  O4  UNL     1      -2.591   1.842   1.894  1.00  0.00    -0.273 OA
HETATM   17  C18 UNL     1      -3.778   0.701   0.221  1.00  0.00     0.078 C 
HETATM   18  C23 UNL     1      -4.086  -0.597   0.985  1.00  0.00     0.018 C 
HETATM   19  C24 UNL     1      -2.998  -1.593   0.641  1.00  0.00    -0.018 C 
HETATM   20  C25 UNL     1      -3.415  -2.236  -0.689  1.00  0.00     0.010 C 
HETATM   21  C26 UNL     1      -2.835  -2.687   1.640  1.00  0.00     0.004 C 
HETATM   22  C27 UNL     1      -1.809  -2.452   2.696  1.00  0.00     0.002 C 
HETATM   23  C28 UNL     1      -0.414  -2.886   2.301  1.00  0.00     0.020 C 
HETATM   24  C29 UNL     1       0.340  -1.772   1.605  1.00  0.00     0.122 C 
HETATM   25  N4  UNL     1       1.747  -1.771   1.879  1.00  0.00    -0.359 N 
ATOM     26  H4  UNL     1       2.055  -2.014   2.820  1.00  0.00     0.162 HD
HETATM   27  C30 UNL     1       2.727  -1.452   0.918  1.00  0.00     0.240 C 
HETATM   28  O5  UNL     1       3.776  -0.859   1.341  1.00  0.00    -0.271 OA
ENDROOT
BRANCH   6  29
HETATM   29  C8  UNL     1       2.769   2.951  -1.326  1.00  0.00     0.202 C 
BRANCH  29  30
HETATM   30  O2  UNL     1       3.705   3.268  -0.331  1.00  0.00    -0.384 OA
BRANCH  30  31
HETATM   31  C9  UNL     1       4.148   4.547  -0.554  1.00  0.00     0.213 C 
BRANCH  31  32
HETATM   32  C10 UNL     1       5.153   4.883   0.521  1.00  0.00     0.006 A 
HETATM   33  C11 UNL     1       5.552   4.100   1.569  1.00  0.00     0.017 A 
HETATM   34  C12 UNL     1       6.464   4.610   2.406  1.00  0.00     0.008 A 
HETATM   35  C13 UNL     1       6.923   5.872   2.145  1.00  0.00     0.050 A 
HETATM   36  S1  UNL     1       6.064   6.306   0.737  1.00  0.00    -0.104 SA
ENDBRANCH  31  32
ENDBRANCH  30  31
ENDBRANCH  29  30
ENDBRANCH   6  29
BRANCH   1  37
HETATM   37  C4  UNL     1       3.257  -3.130  -0.731  1.00  0.00     0.035 C 
BRANCH  37  38
HETATM   38  C3  UNL     1       2.575  -4.190   0.053  1.00  0.00     0.002 C 
BRANCH  38  39
HETATM   39  C2  UNL     1       3.267  -5.502  -0.263  1.00  0.00    -0.004 C 
HETATM   40  C1  UNL     1       3.195  -5.842  -1.724  1.00  0.00     0.005 C 
ENDBRANCH  38  39
ENDBRANCH  37  38
ENDBRANCH   1  37
BRANCH  17  41
HETATM   41  C19 UNL     1      -4.921   1.657   0.517  1.00  0.00     0.018 C 
BRANCH  41  42
HETATM   42  C20 UNL     1      -6.252   1.177   0.047  1.00  0.00    -0.022 C 
HETATM   43  C21 UNL     1      -6.225   0.970  -1.448  1.00  0.00     0.009 C 
HETATM   44  C22 UNL     1      -7.253   2.310   0.325  1.00  0.00     0.009 C 
ENDBRANCH  41  42
ENDBRANCH  17  41
TORSDOF 9
