REMARK  12 active torsions:
REMARK  status: ('A' for Active; 'I' for Inactive)
REMARK    1  A    between atoms: C2_2  and  C4_4 
REMARK    2  A    between atoms: C4_4  and  N1_5 
REMARK    3  A    between atoms: C4_4  and  C29_45 
REMARK       I    between atoms: N1_5  and  C5_7 
REMARK       I    between atoms: C5_7  and  N2_9 
REMARK    4  A    between atoms: C8_12  and  C9_13 
REMARK    5  A    between atoms: C9_13  and  S1_14 
REMARK    6  A    between atoms: S1_14  and  N3_17 
REMARK    7  A    between atoms: N3_17  and  C10_19 
REMARK    8  A    between atoms: N4_24  and  C15_25 
REMARK    9  A    between atoms: C15_25  and  O4_26 
REMARK   10  A    between atoms: C15_25  and  C16_28 
REMARK   11  A    between atoms: C16_28  and  N5_29 
REMARK   12  A    between atoms: C16_28  and  C17_33 
ROOT
HETATM    1  C10 UNL     1      -1.570   0.659   0.710  1.00  0.00     0.121 C 
HETATM    2  C11 UNL     1      -1.671   1.062  -0.738  1.00  0.00     0.026 C 
HETATM    3  C12 UNL     1      -2.426   2.377  -0.741  1.00  0.00     0.006 C 
HETATM    4  C13 UNL     1      -1.417   3.490  -0.580  1.00  0.00     0.012 C 
HETATM    5  C14 UNL     1      -3.354   2.415   0.444  1.00  0.00     0.130 C 
HETATM    6  N4  UNL     1      -3.921   1.062   0.692  1.00  0.00    -0.356 N 
HETATM    7  C23 UNL     1      -2.964   0.008   0.520  1.00  0.00     0.118 C 
HETATM    8  C24 UNL     1      -2.566  -0.146  -0.950  1.00  0.00    -0.019 C 
HETATM    9  C25 UNL     1      -1.826  -1.406  -1.253  1.00  0.00     0.017 C 
HETATM   10  C26 UNL     1      -3.711   0.054  -1.907  1.00  0.00     0.017 C 
ENDROOT
BRANCH   1  11
HETATM   11  N3  UNL     1      -0.527  -0.303   1.034  1.00  0.00    -0.312 N 
ATOM     12  H3  UNL     1      -0.302  -1.119   0.464  1.00  0.00     0.172 HD
BRANCH  11  13
HETATM   13  S1  UNL     1       0.276   0.106   2.493  1.00  0.00     0.227 S 
HETATM   14  O2  UNL     1       0.108  -1.029   3.480  1.00  0.00    -0.206 OA
HETATM   15  O3  UNL     1      -0.492   1.264   3.131  1.00  0.00    -0.206 OA
BRANCH  13  16
HETATM   16  C9  UNL     1       1.931   0.608   2.329  1.00  0.00     0.167 C 
BRANCH  16  17
HETATM   17  C8  UNL     1       2.911  -0.353   1.781  1.00  0.00     0.004 C 
HETATM   18  C7  UNL     1       2.692  -0.871   0.410  1.00  0.00     0.025 C 
HETATM   19  C6  UNL     1       3.982  -1.540  -0.094  1.00  0.00     0.128 C 
HETATM   20  N2  UNL     1       5.091  -0.611  -0.125  1.00  0.00    -0.334 N 
HETATM   21  C5  UNL     1       6.323  -0.941  -0.713  1.00  0.00     0.319 C 
HETATM   22  C28 UNL     1       4.810   0.686   0.510  1.00  0.00     0.128 C 
HETATM   23  N1  UNL     1       7.442  -0.085  -0.772  1.00  0.00    -0.328 N 
HETATM   24  O1  UNL     1       6.418  -2.108  -1.227  1.00  0.00    -0.247 OA
ATOM     25  H1  UNL     1       7.386   0.850  -0.368  1.00  0.00     0.165 HD
HETATM   26  C27 UNL     1       4.290   0.306   1.904  1.00  0.00     0.025 C 
BRANCH  23  27
HETATM   27  C4  UNL     1       8.662  -0.520  -1.397  1.00  0.00     0.190 C 
BRANCH  27  28
HETATM   28  C2  UNL     1       9.806  -0.582  -0.385  1.00  0.00     0.011 C 
HETATM   29  C1  UNL     1       9.483  -1.543   0.724  1.00  0.00     0.012 C 
HETATM   30  C3  UNL     1      10.104   0.797   0.153  1.00  0.00     0.012 C 
ENDBRANCH  27  28
BRANCH  27  31
HETATM   31  C29 UNL     1       9.103   0.394  -2.477  1.00  0.00     0.197 C 
HETATM   32  O5  UNL     1       8.383   1.398  -2.707  1.00  0.00    -0.646 OA
HETATM   33  O6  UNL     1      10.237   0.187  -3.211  1.00  0.00    -0.646 OA
ENDBRANCH  27  31
ENDBRANCH  23  27
ENDBRANCH  16  17
ENDBRANCH  13  16
ENDBRANCH  11  13
ENDBRANCH   1  11
BRANCH   6  34
HETATM   34  C15 UNL     1      -5.278   0.979   1.054  1.00  0.00     0.145 C 
BRANCH  34  35
HETATM   35  O4  UNL     1      -5.865   2.136   1.164  1.00  0.00    -0.348 OA
ATOM     36  H4  UNL     1      -6.781   2.080   1.408  1.00  0.00     0.219 HD
ENDBRANCH  34  35
BRANCH  34  37
HETATM   37  C16 UNL     1      -6.092  -0.206   1.314  1.00  0.00     0.261 C 
BRANCH  37  38
HETATM   38  N5  UNL     1      -5.371  -1.449   1.454  1.00  0.00    -0.067 N 
ATOM     39  H53 UNL     1      -4.785  -1.604   0.634  1.00  0.00     0.275 HD
ATOM     40  H52 UNL     1      -4.655  -1.355   2.175  1.00  0.00     0.275 HD
ATOM     41  H51 UNL     1      -5.939  -2.276   1.636  1.00  0.00     0.275 HD
ENDBRANCH  37  38
BRANCH  37  42
HETATM   42  C17 UNL     1      -7.108  -0.447   0.205  1.00  0.00     0.024 C 
HETATM   43  C18 UNL     1      -7.915  -1.699   0.526  1.00  0.00     0.007 C 
HETATM   44  C19 UNL     1      -8.643  -2.097  -0.734  1.00  0.00     0.000 C 
HETATM   45  C20 UNL     1      -9.610  -0.975  -1.098  1.00  0.00     0.000 C 
HETATM   46  C21 UNL     1      -8.891   0.322  -1.278  1.00  0.00     0.000 C 
HETATM   47  C22 UNL     1      -8.043   0.680  -0.046  1.00  0.00     0.007 C 
ENDBRANCH  37  42
ENDBRANCH  34  37
ENDBRANCH   6  34
TORSDOF 12
