REMARK  10 active torsions:
REMARK  status: ('A' for Active; 'I' for Inactive)
REMARK    1  A    between atoms: C7_7  and  N1_8 
REMARK       I    between atoms: N1_8  and  C8_10 
REMARK    2  A    between atoms: C8_10  and  C9_12 
REMARK    3  A    between atoms: C13_16  and  C14_17 
REMARK    4  A    between atoms: C14_17  and  N4_25 
REMARK    5  A    between atoms: N2_18  and  C15_20 
REMARK    6  A    between atoms: C15_20  and  C16_21 
REMARK    7  A    between atoms: C16_21  and  N3_22 
REMARK    8  A    between atoms: C22_29  and  C23_30 
REMARK       I    between atoms: C23_30  and  N5_32 
REMARK    9  A    between atoms: N5_32  and  C24_34 
REMARK   10  A    between atoms: C24_34  and  C25_35 
REMARK       I    between atoms: N6_38  and  C28_39 
ROOT
HETATM    1  C14 UNL     1      -0.202  -1.119  -0.167  1.00  0.00     0.081 C 
HETATM    2  N2  UNL     1      -0.777  -1.897   0.600  1.00  0.00    -0.378 N 
ATOM      3  H2  UNL     1      -0.171  -1.966   1.418  1.00  0.00     0.160 HD
ENDROOT
BRANCH   1   4
HETATM    4  C13 UNL     1       1.120  -0.578   0.355  1.00  0.00     0.066 C 
HETATM    5  C9  UNL     1       2.288  -1.149  -0.408  1.00  0.00     0.089 C 
HETATM    6  C10 UNL     1       2.514  -2.514   0.237  1.00  0.00     0.015 C 
HETATM    7  C11 UNL     1       2.365  -2.201   1.687  1.00  0.00     0.002 C 
HETATM    8  C12 UNL     1       1.374  -1.098   1.775  1.00  0.00     0.013 C 
BRANCH   5   9
HETATM    9  C8  UNL     1       3.502  -0.285  -0.268  1.00  0.00     0.227 C 
HETATM   10  N1  UNL     1       3.541   1.041  -0.689  1.00  0.00    -0.327 N 
ATOM     11  H1  UNL     1       2.693   1.424  -1.107  1.00  0.00     0.169 HD
HETATM   12  O1  UNL     1       4.490  -0.838   0.258  1.00  0.00    -0.273 OA
BRANCH  10  13
HETATM   13  C7  UNL     1       4.648   1.892  -0.586  1.00  0.00     0.035 A 
HETATM   14  C6  UNL     1       5.963   1.498  -0.402  1.00  0.00     0.039 A 
HETATM   15  C5  UNL     1       7.022   2.390  -0.277  1.00  0.00    -0.029 A 
HETATM   16  C4  UNL     1       8.405   1.929  -0.081  1.00  0.00     0.043 C 
HETATM   17  C33 UNL     1       6.744   3.733  -0.342  1.00  0.00     0.034 A 
HETATM   18  C3  UNL     1       9.325   2.832  -0.868  1.00  0.00     0.029 C 
HETATM   19  C2  UNL     1       9.218   4.229  -0.305  1.00  0.00     0.078 C 
HETATM   20  C1  UNL     1       9.902   4.201   1.054  1.00  0.00     0.032 C 
HETATM   21  N9  UNL     1       7.834   4.640  -0.211  1.00  0.00    -0.385 N 
ATOM     22  H9  UNL     1       7.630   5.625  -0.043  1.00  0.00     0.160 HD
HETATM   23  C32 UNL     1       5.450   4.157  -0.525  1.00  0.00     0.032 A 
HETATM   24  C31 UNL     1       4.417   3.267  -0.646  1.00  0.00     0.032 A 
ENDBRANCH  10  13
ENDBRANCH   5   9
ENDBRANCH   1   4
BRANCH   1  25
HETATM   25  N4  UNL     1      -0.686  -0.735  -1.449  1.00  0.00    -0.357 N 
HETATM   26  C19 UNL     1      -0.204   0.342  -2.289  1.00  0.00     0.125 C 
HETATM   27  C20 UNL     1      -0.560  -0.035  -3.728  1.00  0.00     0.022 C 
HETATM   28  C21 UNL     1      -1.239  -1.358  -3.616  1.00  0.00     0.037 C 
HETATM   29  C22 UNL     1      -1.752  -1.333  -2.188  1.00  0.00     0.177 C 
BRANCH  29  30
HETATM   30  C23 UNL     1      -3.060  -0.654  -2.075  1.00  0.00     0.240 C 
HETATM   31  O2  UNL     1      -4.048  -1.086  -2.750  1.00  0.00    -0.271 OA
HETATM   32  N5  UNL     1      -3.297   0.466  -1.251  1.00  0.00    -0.359 N 
ATOM     33  H5  UNL     1      -2.505   0.817  -0.712  1.00  0.00     0.162 HD
BRANCH  32  34
HETATM   34  C24 UNL     1      -4.550   1.163  -1.097  1.00  0.00     0.127 C 
BRANCH  34  35
HETATM   35  C25 UNL     1      -5.661   0.320  -0.530  1.00  0.00     0.006 C 
HETATM   36  C26 UNL     1      -5.333  -0.221   0.833  1.00  0.00     0.026 C 
HETATM   37  C27 UNL     1      -5.658   0.682   1.970  1.00  0.00     0.126 C 
HETATM   38  N6  UNL     1      -6.837   1.476   1.769  1.00  0.00    -0.356 N 
HETATM   39  C28 UNL     1      -7.854   1.577   2.737  1.00  0.00     0.183 C 
HETATM   40  C29 UNL     1      -6.962   2.187   0.523  1.00  0.00     0.126 C 
HETATM   41  N7  UNL     1      -7.590   1.529   4.016  1.00  0.00    -0.374 N 
HETATM   42  N8  UNL     1      -9.224   1.737   2.375  1.00  0.00    -0.064 NA
ATOM     43  H72 UNL     1      -6.610   1.415   4.275  1.00  0.00     0.158 HD
ATOM     44  H71 UNL     1      -8.327   1.602   4.717  1.00  0.00     0.158 HD
HETATM   45  C30 UNL     1      -6.924   1.136  -0.563  1.00  0.00     0.026 C 
ENDBRANCH  34  35
ENDBRANCH  32  34
ENDBRANCH  29  30
ENDBRANCH   1  25
BRANCH   2  46
HETATM   46  C15 UNL     1      -1.837  -2.706   0.870  1.00  0.00     0.140 C 
BRANCH  46  47
HETATM   47  C16 UNL     1      -1.401  -4.165   0.691  1.00  0.00     0.135 C 
BRANCH  47  48
HETATM   48  N3  UNL     1      -2.443  -5.086   0.951  1.00  0.00    -0.419 N 
HETATM   49  C17 UNL     1      -3.530  -5.103   0.035  1.00  0.00     0.142 C 
HETATM   50  C18 UNL     1      -2.092  -6.324   1.550  1.00  0.00     0.142 C 
ENDBRANCH  47  48
ENDBRANCH  46  47
ENDBRANCH   2  46
TORSDOF 10
