REMARK  4 active torsions:
REMARK  status: ('A' for Active; 'I' for Inactive)
REMARK       I    between atoms: C1_4  and  N3_6 
REMARK    1  A    between atoms: C4_9  and  C5_10 
REMARK    2  A    between atoms: C5_10  and  C6_11 
REMARK    3  A    between atoms: C6_11  and  O1_12 
REMARK    4  A    between atoms: C6_11  and  C7_14 
ROOT
HETATM    1  N1  UNL     1      -4.205   1.322  -0.898  1.00  0.00    -0.374 N 
ATOM      2  H11 UNL     1      -3.737   1.323  -1.804  1.00  0.00     0.158 HD
ATOM      3  H12 UNL     1      -5.118   1.763  -0.790  1.00  0.00     0.158 HD
HETATM    4  C1  UNL     1      -3.623   0.758   0.094  1.00  0.00     0.183 C 
HETATM    5  N2  UNL     1      -4.275   0.756   1.356  1.00  0.00    -0.064 NA
HETATM    6  N3  UNL     1      -2.346   0.141  -0.057  1.00  0.00    -0.356 N 
HETATM    7  C2  UNL     1      -1.358   0.390   0.974  1.00  0.00     0.126 C 
HETATM    8  C3  UNL     1      -0.581  -0.894   1.206  1.00  0.00     0.024 C 
HETATM    9  C4  UNL     1      -0.017  -1.452  -0.040  1.00  0.00    -0.009 C 
HETATM   10  C10 UNL     1      -1.130  -1.788  -1.041  1.00  0.00     0.024 C 
HETATM   11  C11 UNL     1      -2.103  -0.673  -1.191  1.00  0.00     0.126 C 
ENDROOT
BRANCH   9  12
HETATM   12  C5  UNL     1       1.026  -0.605  -0.682  1.00  0.00     0.037 C 
BRANCH  12  13
HETATM   13  C6  UNL     1       2.252  -0.328   0.112  1.00  0.00     0.122 C 
BRANCH  13  14
HETATM   14  O1  UNL     1       2.035   0.349   1.283  1.00  0.00    -0.395 OA
ATOM     15  H1  UNL     1       2.818   0.526   1.790  1.00  0.00     0.210 HD
ENDBRANCH  13  14
BRANCH  13  16
HETATM   16  C7  UNL     1       3.270   0.484  -0.684  1.00  0.00     0.014 A 
HETATM   17  C8  UNL     1       4.546   0.807   0.054  1.00  0.00     0.007 A 
HETATM   18  C9  UNL     1       3.566   1.880  -0.234  1.00  0.00     0.007 A 
ENDBRANCH  13  16
ENDBRANCH  12  13
ENDBRANCH   9  12
TORSDOF 4
