REMARK  4 active torsions:
REMARK  status: ('A' for Active; 'I' for Inactive)
REMARK    1  A    between atoms: C3_3  and  N1_4 
REMARK    2  A    between atoms: C3_3  and  C5_9 
REMARK       I    between atoms: C5_9  and  N4_11 
REMARK    3  A    between atoms: N4_11  and  C6_13 
REMARK    4  A    between atoms: C6_13  and  C7_14 
ROOT
HETATM    1  C1  UNL     1      -1.171  -3.603  -1.177  1.00  0.00     0.015 C 
HETATM    2  C2  UNL     1      -1.480  -2.513  -0.773  1.00  0.00    -0.082 C 
HETATM    3  C3  UNL     1      -1.862  -1.204  -0.267  1.00  0.00     0.255 C 
ENDROOT
BRANCH   3   4
HETATM    4  N1  UNL     1      -2.977  -0.637  -0.967  1.00  0.00    -0.344 N 
HETATM    5  C4  UNL     1      -3.701   0.304  -0.492  1.00  0.00     0.198 C 
HETATM    6  N2  UNL     1      -3.433   0.862   0.807  1.00  0.00    -0.067 NA
HETATM    7  N3  UNL     1      -4.796   0.844  -1.208  1.00  0.00    -0.067 NA
ATOM      8  H1  UNL     1      -3.205  -1.003  -1.891  1.00  0.00     0.163 HD
ENDBRANCH   3   4
BRANCH   3   9
HETATM    9  C5  UNL     1      -0.681  -0.288  -0.264  1.00  0.00     0.253 C 
HETATM   10  O1  UNL     1      -0.856   0.816  -0.868  1.00  0.00    -0.270 OA
HETATM   11  N4  UNL     1       0.520  -0.640   0.365  1.00  0.00    -0.339 N 
ATOM     12  H4  UNL     1       0.540  -1.553   0.819  1.00  0.00     0.164 HD
BRANCH  11  13
HETATM   13  C6  UNL     1       1.725   0.133   0.446  1.00  0.00     0.130 C 
HETATM   14  C8  UNL     1       2.268   0.361  -0.944  1.00  0.00     0.053 C 
HETATM   15  C9  UNL     1       3.498   1.197  -0.870  1.00  0.00     0.077 C 
HETATM   16  S1  UNL     1       3.191   2.191   0.647  1.00  0.00    -0.166 SA
HETATM   17  C10 UNL     1       1.507   1.520   0.981  1.00  0.00     0.116 C 
BRANCH  13  18
HETATM   18  C7  UNL     1       2.775  -0.588   1.213  1.00  0.00     0.203 C 
HETATM   19  O2  UNL     1       2.494  -1.728   1.656  1.00  0.00    -0.646 OA
HETATM   20  O3  UNL     1       4.038  -0.100   1.476  1.00  0.00    -0.646 OA
ENDBRANCH  13  18
ENDBRANCH  11  13
ENDBRANCH   3   9
TORSDOF 4
