REMARK  7 active torsions:
REMARK  status: ('A' for Active; 'I' for Inactive)
REMARK    1  A    between atoms: C2_2  and  N1_3 
REMARK    2  A    between atoms: N1_3  and  C3_5 
REMARK    3  A    between atoms: C3_5  and  O1_6 
REMARK    4  A    between atoms: C3_5  and  N2_8 
REMARK       I    between atoms: N2_8  and  C4_10 
REMARK    5  A    between atoms: C4_10  and  C5_12 
REMARK    6  A    between atoms: C5_12  and  S1_13 
REMARK    7  A    between atoms: S1_13  and  C6_14 
ROOT
HETATM    1  C6  UNL     1      -0.195  -0.778   0.220  1.00  0.00     0.148 A 
HETATM    2  N3  UNL     1      -1.155   0.146   0.389  1.00  0.00    -0.334 N 
ATOM      3  H3  UNL     1      -0.996   1.113   0.672  1.00  0.00     0.168 HD
HETATM    4  C7  UNL     1      -2.392  -0.411   0.121  1.00  0.00     0.076 A 
HETATM    5  C8  UNL     1      -3.698  -0.044   0.103  1.00  0.00    -0.015 A 
HETATM    6  C9  UNL     1      -4.606  -1.000  -0.246  1.00  0.00    -0.007 A 
HETATM    7  S2  UNL     1      -3.634  -2.368  -0.537  1.00  0.00    -0.074 SA
HETATM    8  C10 UNL     1      -2.100  -1.700  -0.211  1.00  0.00     0.106 A 
HETATM    9  N4  UNL     1      -0.749  -1.928  -0.151  1.00  0.00    -0.324 N 
HETATM   10  C11 UNL     1      -0.117  -3.176  -0.440  1.00  0.00     0.159 C 
HETATM   11  C12 UNL     1      -6.096  -0.968  -0.373  1.00  0.00     0.047 C 
HETATM   12  C13 UNL     1      -6.551   0.447  -0.507  1.00  0.00     0.005 C 
HETATM   13  C14 UNL     1      -6.597   1.138   0.837  1.00  0.00     0.001 C 
HETATM   14  C15 UNL     1      -5.228   1.265   1.459  1.00  0.00     0.005 C 
HETATM   15  C16 UNL     1      -4.132   1.372   0.454  1.00  0.00     0.042 C 
ENDROOT
BRANCH   1  16
HETATM   16  S1  UNL     1       1.559  -0.534   0.448  1.00  0.00    -0.084 SA
BRANCH  16  17
HETATM   17  C5  UNL     1       2.233   0.013  -1.148  1.00  0.00     0.185 C 
BRANCH  17  18
HETATM   18  C4  UNL     1       3.722   0.244  -1.046  1.00  0.00     0.234 C 
HETATM   19  N2  UNL     1       4.334   0.016   0.189  1.00  0.00    -0.292 N 
ATOM     20  H2  UNL     1       3.746  -0.295   0.962  1.00  0.00     0.172 HD
HETATM   21  O2  UNL     1       4.300   0.623  -2.076  1.00  0.00    -0.272 OA
BRANCH  19  22
HETATM   22  C3  UNL     1       5.706   0.188   0.434  1.00  0.00     0.219 C 
BRANCH  22  23
HETATM   23  N1  UNL     1       6.649   0.609  -0.514  1.00  0.00    -0.357 N 
ATOM     24  H1  UNL     1       6.381   0.822  -1.475  1.00  0.00     0.163 HD
BRANCH  23  25
HETATM   25  C2  UNL     1       8.044   0.729  -0.059  1.00  0.00     0.118 C 
HETATM   26  C1  UNL     1       8.075   1.741   1.062  1.00  0.00     0.026 C 
ENDBRANCH  23  25
ENDBRANCH  22  23
BRANCH  22  27
HETATM   27  O1  UNL     1       6.088  -0.074   1.649  1.00  0.00    -0.332 OA
ATOM     28  H1  UNL     1       5.449  -0.359   2.291  1.00  0.00     0.220 HD
ENDBRANCH  22  27
ENDBRANCH  19  22
ENDBRANCH  17  18
ENDBRANCH  16  17
ENDBRANCH   1  16
TORSDOF 7
