REMARK  13 active torsions:
REMARK  status: ('A' for Active; 'I' for Inactive)
REMARK    1  A    between atoms: N1_1  and  N2_4 
REMARK    2  A    between atoms: N2_4  and  O1_5 
REMARK    3  A    between atoms: O1_5  and  C1_6 
REMARK    4  A    between atoms: C1_6  and  O2_7 
REMARK    5  A    between atoms: C1_6  and  C2_9 
REMARK    6  A    between atoms: N3_10  and  O3_11 
REMARK    7  A    between atoms: C3_13  and  N4_14 
REMARK       I    between atoms: N4_14  and  C4_16 
REMARK    8  A    between atoms: C5_19  and  O5_20 
REMARK    9  A    between atoms: C7_23  and  O6_24 
REMARK   10  A    between atoms: C7_23  and  C8_26 
REMARK       I    between atoms: C8_26  and  N6_28 
REMARK   11  A    between atoms: N6_28  and  C9_30 
REMARK   12  A    between atoms: C12_35  and  O10_36 
REMARK   13  A    between atoms: C13_38  and  O11_39 
ROOT
HETATM    1  C2  UNL     1      -0.955   0.018   0.633  1.00  0.00     0.189 C 
HETATM    2  N3  UNL     1      -2.300  -0.325   0.307  1.00  0.00    -0.161 NA
HETATM    3  C3  UNL     1      -2.474  -1.513  -0.481  1.00  0.00     0.216 C 
HETATM    4  C5  UNL     1      -1.246  -2.034  -1.141  1.00  0.00     0.160 C 
HETATM    5  C6  UNL     1      -0.452  -0.856  -1.649  1.00  0.00     0.085 C 
HETATM    6  C7  UNL     1      -0.085   0.109  -0.572  1.00  0.00     0.163 C 
ENDROOT
BRANCH   6   7
HETATM    7  O6  UNL     1      -0.255   1.407  -1.108  1.00  0.00    -0.378 OA
ATOM      8  H6  UNL     1       0.300   1.465  -1.877  1.00  0.00     0.211 HD
ENDBRANCH   6   7
BRANCH   6   9
HETATM    9  C8  UNL     1       1.350  -0.035  -0.287  1.00  0.00     0.260 C 
HETATM   10  O7  UNL     1       1.742  -1.126   0.201  1.00  0.00    -0.270 OA
HETATM   11  N6  UNL     1       2.326   0.960  -0.518  1.00  0.00    -0.302 N 
ATOM     12  H6  UNL     1       2.034   1.854  -0.913  1.00  0.00     0.171 HD
BRANCH  11  13
HETATM   13  C9  UNL     1       3.700   0.759  -0.219  1.00  0.00     0.190 A 
HETATM   14  O8  UNL     1       4.108  -0.402   0.298  1.00  0.00    -0.255 OA
HETATM   15  C10 UNL     1       5.365  -0.566   0.564  1.00  0.00     0.292 A 
HETATM   16  O9  UNL     1       5.825  -1.649   1.060  1.00  0.00    -0.260 OA
HETATM   17  C11 UNL     1       6.306   0.414   0.334  1.00  0.00     0.122 A 
HETATM   18  C12 UNL     1       5.907   1.623  -0.201  1.00  0.00     0.109 A 
HETATM   19  C13 UNL     1       4.590   1.781  -0.474  1.00  0.00     0.151 A 
BRANCH  18  20
HETATM   20  O10 UNL     1       6.841   2.619  -0.440  1.00  0.00    -0.358 OA
ATOM     21  H10 UNL     1       6.567   3.451  -0.808  1.00  0.00     0.217 HD
ENDBRANCH  18  20
BRANCH  19  22
HETATM   22  O11 UNL     1       4.114   2.989  -1.021  1.00  0.00    -0.355 OA
ATOM     23  H11 UNL     1       4.727   3.693  -1.197  1.00  0.00     0.218 HD
ENDBRANCH  19  22
ENDBRANCH  11  13
ENDBRANCH   6   9
BRANCH   1  24
HETATM   24  C1  UNL     1      -1.011   1.347   1.367  1.00  0.00     0.306 C 
BRANCH  24  25
HETATM   25  O1  UNL     1      -1.556   2.369   0.632  1.00  0.00    -0.233 OA
BRANCH  25  26
HETATM   26  N2  UNL     1      -2.635   2.895   1.245  1.00  0.00     0.016 NA
BRANCH  26  27
HETATM   27  N1  UNL     1      -3.662   3.009   0.316  1.00  0.00    -0.323 N 
ATOM     28  H12 UNL     1      -3.595   2.735  -0.664  1.00  0.00     0.174 HD
ATOM     29  H11 UNL     1      -4.479   3.407   0.780  1.00  0.00     0.174 HD
ENDBRANCH  26  27
ENDBRANCH  25  26
ENDBRANCH  24  25
BRANCH  24  30
HETATM   30  O2  UNL     1       0.240   1.717   1.852  1.00  0.00    -0.368 OA
ATOM     31  H2  UNL     1       0.617   1.009   2.361  1.00  0.00     0.212 HD
ENDBRANCH  24  30
ENDBRANCH   1  24
BRANCH   2  32
HETATM   32  O3  UNL     1      -3.101  -0.393   1.402  1.00  0.00    -0.310 OA
ATOM     33  H3  UNL     1      -3.997  -0.622   1.185  1.00  0.00     0.237 HD
ENDBRANCH   2  32
BRANCH   4  34
HETATM   34  O5  UNL     1      -1.657  -2.780  -2.263  1.00  0.00    -0.392 OA
ATOM     35  H5  UNL     1      -0.873  -3.113  -2.684  1.00  0.00     0.210 HD
ENDBRANCH   4  34
BRANCH   3  36
HETATM   36  N4  UNL     1      -3.071  -2.543   0.338  1.00  0.00    -0.324 N 
HETATM   37  C4  UNL     1      -4.363  -3.065   0.063  1.00  0.00     0.330 C 
HETATM   38  N5  UNL     1      -4.929  -4.078   0.882  1.00  0.00    -0.040 NA
HETATM   39  O4  UNL     1      -5.007  -2.621  -0.921  1.00  0.00    -0.251 OA
ATOM     40  H4  UNL     1      -2.550  -2.905   1.136  1.00  0.00     0.165 HD
ENDBRANCH   3  36
TORSDOF 13
