REMARK  8 active torsions:
REMARK  status: ('A' for Active; 'I' for Inactive)
REMARK    1  A    between atoms: C2_2  and  C4_4 
REMARK    2  A    between atoms: C4_4  and  N1_5 
REMARK    3  A    between atoms: N1_5  and  C5_8 
REMARK    4  A    between atoms: C5_8  and  C6_9 
REMARK    5  A    between atoms: C6_9  and  C7_10 
REMARK    6  A    between atoms: C7_10  and  N2_11 
REMARK    7  A    between atoms: N2_11  and  O1_12 
REMARK       I    between atoms: N2_11  and  C8_14 
REMARK    8  A    between atoms: C8_14  and  C9_16 
ROOT
HETATM    1  C9  UNL     1       0.654   0.989   0.451  1.00  0.00     0.002 C 
HETATM    2  C10 UNL     1       0.289   1.012  -0.996  1.00  0.00     0.044 C 
HETATM    3  C11 UNL     1       0.399  -0.250  -1.774  1.00  0.00    -0.021 C 
HETATM    4  C12 UNL     1      -0.649  -1.039  -1.552  1.00  0.00    -0.020 C 
HETATM    5  C13 UNL     1      -1.481  -0.292  -0.588  1.00  0.00    -0.014 C 
HETATM    6  C14 UNL     1      -1.234   1.069  -1.059  1.00  0.00     0.027 C 
HETATM    7  C15 UNL     1      -0.900  -0.754   0.727  1.00  0.00     0.023 C 
HETATM    8  C16 UNL     1      -0.367   0.510   1.410  1.00  0.00     0.022 C 
HETATM    9  C17 UNL     1      -1.520   1.277   1.834  1.00  0.00     0.010 C 
HETATM   10  C18 UNL     1      -2.854   0.516   1.808  1.00  0.00     0.007 C 
HETATM   11  C19 UNL     1      -3.504   0.297   0.516  1.00  0.00     0.002 C 
HETATM   12  C20 UNL     1      -5.000   0.059   0.725  1.00  0.00    -0.043 C 
HETATM   13  C21 UNL     1      -5.303  -0.465   2.119  1.00  0.00     0.015 C 
HETATM   14  C22 UNL     1      -5.785   1.382   0.657  1.00  0.00     0.015 C 
HETATM   15  C23 UNL     1      -5.596  -0.870  -0.257  1.00  0.00     0.009 C 
HETATM   16  C24 UNL     1      -5.072  -0.840  -1.640  1.00  0.00     0.002 C 
HETATM   17  C25 UNL     1      -3.651  -0.389  -1.798  1.00  0.00     0.010 C 
HETATM   18  C26 UNL     1      -2.927  -0.657  -0.474  1.00  0.00    -0.029 C 
HETATM   19  C27 UNL     1      -3.009  -2.106  -0.156  1.00  0.00     0.016 C 
ENDROOT
BRANCH   1  20
HETATM   20  C8  UNL     1       1.365   2.206   0.849  1.00  0.00     0.270 C 
HETATM   21  N2  UNL     1       2.760   2.433   0.798  1.00  0.00    -0.225 N 
HETATM   22  O2  UNL     1       0.645   3.157   1.284  1.00  0.00    -0.266 OA
BRANCH  21  23
HETATM   23  C7  UNL     1       3.768   1.498   0.378  1.00  0.00     0.161 C 
BRANCH  23  24
HETATM   24  C6  UNL     1       4.133   1.518  -1.062  1.00  0.00     0.050 C 
BRANCH  24  25
HETATM   25  C5  UNL     1       5.233   0.502  -1.386  1.00  0.00     0.234 C 
BRANCH  25  26
HETATM   26  N1  UNL     1       4.855  -0.851  -1.112  1.00  0.00    -0.072 N 
ATOM     27  H12 UNL     1       4.017  -1.140  -1.616  1.00  0.00     0.277 HD
ATOM     28  H11 UNL     1       4.493  -0.979  -0.167  1.00  0.00     0.277 HD
BRANCH  26  29
HETATM   29  C4  UNL     1       6.010  -1.695  -1.398  1.00  0.00     0.265 C 
BRANCH  29  30
HETATM   30  C2  UNL     1       7.019  -1.389  -0.367  1.00  0.00    -0.068 C 
HETATM   31  C1  UNL     1       8.217  -0.922  -0.662  1.00  0.00     0.015 C 
HETATM   32  C3  UNL     1       6.682  -1.615   1.065  1.00  0.00     0.044 C 
ENDBRANCH  29  30
ENDBRANCH  26  29
ENDBRANCH  25  26
ENDBRANCH  24  25
ENDBRANCH  23  24
ENDBRANCH  21  23
BRANCH  21  33
HETATM   33  O1  UNL     1       3.276   3.662   1.177  1.00  0.00    -0.285 OA
ATOM     34  H1  UNL     1       2.610   4.280   1.455  1.00  0.00     0.245 HD
ENDBRANCH  21  33
ENDBRANCH   1  20
TORSDOF 8
