REMARK  6 active torsions:
REMARK  status: ('A' for Active; 'I' for Inactive)
REMARK    1  A    between atoms: C5_8  and  C6_9 
REMARK    2  A    between atoms: C6_9  and  C7_10 
REMARK    3  A    between atoms: C7_10  and  C8_11 
REMARK    4  A    between atoms: C12_17  and  C13_18 
REMARK    5  A    between atoms: C13_18  and  O2_19 
REMARK    6  A    between atoms: C13_18  and  C14_21 
ROOT
HETATM    1  O1  UNL     1       5.178  -2.165   1.070  1.00  0.00    -0.270 OA
HETATM    2  C1  UNL     1       4.300  -1.327   1.350  1.00  0.00     0.259 C 
HETATM    3  N1  UNL     1       3.391  -1.518   2.405  1.00  0.00    -0.354 N 
ATOM      4  H1  UNL     1       3.491  -2.319   3.029  1.00  0.00     0.162 HD
HETATM    5  C2  UNL     1       2.321  -0.580   2.601  1.00  0.00     0.163 C 
HETATM    6  C3  UNL     1       1.858   0.013   1.306  1.00  0.00    -0.012 A 
HETATM    7  C4  UNL     1       0.643   0.422   0.802  1.00  0.00     0.035 A 
HETATM    8  C5  UNL     1       0.795   0.898  -0.464  1.00  0.00     0.010 A 
HETATM    9  N3  UNL     1       2.131   0.781  -0.744  1.00  0.00    -0.360 N 
ATOM     10  H3  UNL     1       2.572   1.055  -1.622  1.00  0.00     0.165 HD
HETATM   11  C15 UNL     1       2.769   0.255   0.304  1.00  0.00     0.062 A 
HETATM   12  C16 UNL     1       4.208  -0.091   0.550  1.00  0.00     0.183 C 
HETATM   13  C17 UNL     1       4.987  -0.223  -0.726  1.00  0.00     0.057 C 
HETATM   14  C18 UNL     1       6.044   0.844  -0.590  1.00  0.00     0.030 C 
HETATM   15  C19 UNL     1       5.417   1.778   0.413  1.00  0.00     0.170 C 
HETATM   16  O3  UNL     1       4.795   0.927   1.293  1.00  0.00    -0.364 OA
ENDROOT
BRANCH   8  17
HETATM   17  C6  UNL     1      -0.163   1.434  -1.461  1.00  0.00     0.057 C 
BRANCH  17  18
HETATM   18  C7  UNL     1      -1.579   1.302  -1.111  1.00  0.00     0.013 C 
BRANCH  18  19
HETATM   19  C8  UNL     1      -2.174  -0.036  -0.963  1.00  0.00     0.011 C 
HETATM   20  C9  UNL     1      -2.116  -0.897  -2.197  1.00  0.00     0.008 C 
HETATM   21  C10 UNL     1      -2.446  -2.314  -1.740  1.00  0.00     0.020 C 
HETATM   22  C11 UNL     1      -3.862  -2.260  -1.196  1.00  0.00     0.114 C 
HETATM   23  N2  UNL     1      -4.414  -0.944  -1.261  1.00  0.00    -0.414 N 
HETATM   24  C12 UNL     1      -3.655   0.064  -0.594  1.00  0.00     0.110 C 
ATOM     25  H2  UNL     1      -5.286  -0.740  -1.748  1.00  0.00     0.153 HD
BRANCH  24  26
HETATM   26  C13 UNL     1      -3.853  -0.022   0.902  1.00  0.00     0.151 C 
BRANCH  26  27
HETATM   27  O2  UNL     1      -3.142   0.929   1.592  1.00  0.00    -0.393 OA
ATOM     28  H2  UNL     1      -3.266   0.875   2.532  1.00  0.00     0.210 HD
ENDBRANCH  26  27
BRANCH  26  29
HETATM   29  C14 UNL     1      -5.332   0.180   1.162  1.00  0.00     0.120 C 
HETATM   30  S1  UNL     1      -5.759   1.835   0.507  1.00  0.00    -0.095 SA
ENDBRANCH  26  29
ENDBRANCH  24  26
ENDBRANCH  18  19
ENDBRANCH  17  18
ENDBRANCH   8  17
TORSDOF 6
