REMARK  9 active torsions:
REMARK  status: ('A' for Active; 'I' for Inactive)
REMARK    1  A    between atoms: C2_2  and  C3_3 
REMARK    2  A    between atoms: C5_5  and  C6_6 
REMARK    3  A    between atoms: C6_6  and  C7_7 
REMARK    4  A    between atoms: C12_12  and  O1_13 
REMARK    5  A    between atoms: C13_15  and  C14_16 
REMARK    6  A    between atoms: N1_22  and  C18_23 
REMARK    7  A    between atoms: C18_23  and  C19_24 
REMARK    8  A    between atoms: C19_24  and  O4_25 
REMARK    9  A    between atoms: C21_28  and  O5_29 
ROOT
HETATM    1  C7  UNL     1      -1.559   1.148   0.654  1.00  0.00     0.019 C 
HETATM    2  C8  UNL     1      -0.721   0.642   1.818  1.00  0.00     0.015 C 
HETATM    3  C9  UNL     1       0.693   0.952   1.597  1.00  0.00     0.029 C 
HETATM    4  C10 UNL     1       1.055   1.190   0.121  1.00  0.00     0.026 C 
HETATM    5  C11 UNL     1       0.329   0.206  -0.700  1.00  0.00     0.036 C 
HETATM    6  C12 UNL     1      -1.156   0.596  -0.662  1.00  0.00     0.128 C 
HETATM    7  C13 UNL     1       0.402  -1.227  -0.232  1.00  0.00     0.101 C 
HETATM    8  C15 UNL     1       1.378  -1.374   0.870  1.00  0.00     0.042 C 
HETATM    9  C16 UNL     1       2.700  -1.999   0.474  1.00  0.00     0.053 C 
HETATM   10  C17 UNL     1       3.528  -1.140  -0.430  1.00  0.00     0.059 C 
HETATM   11  N1  UNL     1       3.346   0.244  -0.316  1.00  0.00    -0.383 N 
HETATM   12  C20 UNL     1       2.441   0.791   0.559  1.00  0.00     0.123 C 
HETATM   13  C21 UNL     1       1.742  -0.096   1.567  1.00  0.00     0.087 C 
ENDROOT
BRANCH   1  14
HETATM   14  C6  UNL     1      -3.031   0.852   0.985  1.00  0.00     0.034 C 
BRANCH  14  15
HETATM   15  C5  UNL     1      -3.920   1.309  -0.078  1.00  0.00    -0.024 C 
HETATM   16  C3  UNL     1      -4.765   0.712  -0.850  1.00  0.00    -0.088 C 
HETATM   17  C4  UNL     1      -5.492   1.654  -1.842  1.00  0.00     0.043 C 
BRANCH  16  18
HETATM   18  C2  UNL     1      -5.189  -0.674  -0.987  1.00  0.00     0.029 C 
HETATM   19  C1  UNL     1      -4.609  -1.718  -0.131  1.00  0.00     0.010 C 
ENDBRANCH  16  18
ENDBRANCH  14  15
ENDBRANCH   1  14
BRANCH   6  20
HETATM   20  O1  UNL     1      -1.395   1.466  -1.722  1.00  0.00    -0.395 OA
ATOM     21  H1  UNL     1      -1.137   1.112  -2.565  1.00  0.00     0.210 HD
ENDBRANCH   6  20
BRANCH  13  22
HETATM   22  O5  UNL     1       2.453  -0.329   2.725  1.00  0.00    -0.387 OA
ATOM     23  H5  UNL     1       3.125  -1.000   2.706  1.00  0.00     0.210 HD
ENDBRANCH  13  22
BRANCH   7  24
HETATM   24  C14 UNL     1       0.615  -2.119  -1.399  1.00  0.00     0.177 C 
HETATM   25  O2  UNL     1       0.736  -1.640  -2.553  1.00  0.00    -0.648 OA
HETATM   26  O3  UNL     1       0.683  -3.491  -1.240  1.00  0.00    -0.648 OA
ENDBRANCH   7  24
BRANCH  11  27
HETATM   27  C18 UNL     1       4.607   0.983  -0.418  1.00  0.00     0.148 C 
BRANCH  27  28
HETATM   28  C19 UNL     1       5.512   0.763   0.747  1.00  0.00     0.183 C 
BRANCH  28  29
HETATM   29  O4  UNL     1       6.680   1.512   0.544  1.00  0.00    -0.399 OA
ATOM     30  H4  UNL     1       7.256   1.372   1.286  1.00  0.00     0.209 HD
ENDBRANCH  28  29
ENDBRANCH  27  28
ENDBRANCH  11  27
TORSDOF 9
