REMARK  6 active torsions:
REMARK  status: ('A' for Active; 'I' for Inactive)
REMARK    1  A    between atoms: C2_2  and  C3_3 
REMARK    2  A    between atoms: C3_3  and  N1_4 
REMARK    3  A    between atoms: C7_8  and  C8_9 
REMARK    4  A    between atoms: C8_9  and  N2_10 
REMARK    5  A    between atoms: N2_10  and  C9_12 
REMARK    6  A    between atoms: C13_17  and  O2_18 
ROOT
HETATM    1  C8  UNL     1       0.556  -0.221  -0.237  1.00  0.00     0.062 C 
ENDROOT
BRANCH   1   2
HETATM    2  C7  UNL     1      -0.798  -0.548   0.369  1.00  0.00     0.052 C 
HETATM    3  C6  UNL     1      -0.684  -1.638   1.413  1.00  0.00     0.013 C 
HETATM    4  C5  UNL     1      -2.039  -1.894   1.977  1.00  0.00     0.031 C 
HETATM    5  C4  UNL     1      -3.125  -2.095   0.951  1.00  0.00     0.272 C 
HETATM    6  N1  UNL     1      -3.025  -1.155  -0.146  1.00  0.00     0.089 N 
HETATM    7  C14 UNL     1      -1.721  -1.090  -0.710  1.00  0.00     0.282 C 
BRANCH   6   8
HETATM    8  C3  UNL     1      -3.616   0.106   0.134  1.00  0.00     0.272 C 
BRANCH   8   9
HETATM    9  C2  UNL     1      -3.433   1.028  -1.049  1.00  0.00     0.026 C 
HETATM   10  C1  UNL     1      -4.113   2.341  -0.661  1.00  0.00     0.007 C 
ENDBRANCH   8   9
ENDBRANCH   6   8
ENDBRANCH   1   2
BRANCH   1  11
HETATM   11  N2  UNL     1       1.436   0.220   0.772  1.00  0.00    -0.395 N 
ATOM     12  H2  UNL     1       1.125   0.277   1.742  1.00  0.00     0.159 HD
BRANCH  11  13
HETATM   13  C9  UNL     1       2.754   0.582   0.419  1.00  0.00     0.113 C 
HETATM   14  C10 UNL     1       2.845   1.750  -0.541  1.00  0.00     0.054 C 
HETATM   15  C11 UNL     1       4.247   1.902  -1.086  1.00  0.00     0.169 C 
HETATM   16  O1  UNL     1       5.134   1.015  -0.476  1.00  0.00    -0.388 OA
HETATM   17  C12 UNL     1       4.740  -0.268  -0.849  1.00  0.00     0.201 C 
HETATM   18  C13 UNL     1       3.514  -0.623  -0.047  1.00  0.00     0.164 C 
BRANCH  18  19
HETATM   19  O2  UNL     1       3.896  -1.394   1.057  1.00  0.00    -0.391 OA
ATOM     20  H2  UNL     1       4.378  -2.158   0.762  1.00  0.00     0.210 HD
ENDBRANCH  18  19
ENDBRANCH  11  13
ENDBRANCH   1  11
TORSDOF 6
