REMARK  14 active torsions:
REMARK  status: ('A' for Active; 'I' for Inactive)
REMARK    1  A    between atoms: C2_2  and  C3_3 
REMARK    2  A    between atoms: C3_3  and  C4_5 
REMARK    3  A    between atoms: C4_5  and  O3_7 
REMARK    4  A    between atoms: O3_7  and  C5_8 
REMARK    5  A    between atoms: C15_19  and  C17_21 
REMARK    6  A    between atoms: C17_21  and  C18_22 
REMARK    7  A    between atoms: C18_22  and  C19_24 
REMARK    8  A    between atoms: C20_25  and  C21_26 
REMARK    9  A    between atoms: C21_26  and  O6_27 
REMARK   10  A    between atoms: C21_26  and  C22_29 
REMARK   11  A    between atoms: C22_29  and  C23_30 
REMARK   12  A    between atoms: C22_29  and  C24_33 
REMARK   13  A    between atoms: C23_30  and  O7_31 
REMARK   14  A    between atoms: C24_33  and  O8_35 
ROOT
HETATM    1  C5  UNL     1       3.514   0.448  -0.528  1.00  0.00     0.177 C 
HETATM    2  C6  UNL     1       3.519   0.010  -1.972  1.00  0.00     0.021 C 
HETATM    3  C7  UNL     1       2.396  -0.119  -2.654  1.00  0.00    -0.059 C 
HETATM    4  C8  UNL     1       2.642  -0.560  -4.050  1.00  0.00     0.043 C 
HETATM    5  C9  UNL     1       4.048  -1.054  -4.053  1.00  0.00     0.088 C 
HETATM    6  C10 UNL     1       4.613  -0.348  -2.889  1.00  0.00     0.158 C 
HETATM    7  O4  UNL     1       5.828  -0.084  -2.691  1.00  0.00    -0.293 OA
HETATM    8  C11 UNL     1       1.082   0.184  -1.953  1.00  0.00    -0.018 C 
HETATM    9  C12 UNL     1       0.579  -1.062  -1.399  1.00  0.00     0.020 C 
HETATM   10  C13 UNL     1       0.120   0.525  -3.118  1.00  0.00     0.020 C 
HETATM   11  C14 UNL     1       1.271   1.409  -1.206  1.00  0.00     0.017 C 
HETATM   12  C15 UNL     1       0.441   1.848  -0.062  1.00  0.00    -0.031 C 
HETATM   13  C16 UNL     1       0.222   3.376  -0.127  1.00  0.00     0.016 C 
HETATM   14  C26 UNL     1       1.604   1.495   0.844  1.00  0.00     0.022 C 
HETATM   15  C27 UNL     1       2.513   1.529  -0.342  1.00  0.00    -0.007 C 
HETATM   16  C28 UNL     1       3.204   2.891  -0.393  1.00  0.00     0.018 C 
ENDROOT
BRANCH  12  17
HETATM   17  C17 UNL     1      -0.837   1.242   0.265  1.00  0.00     0.092 C 
BRANCH  17  18
HETATM   18  C18 UNL     1      -1.431   1.870   1.475  1.00  0.00     0.149 C 
HETATM   19  O5  UNL     1      -0.815   2.758   2.113  1.00  0.00    -0.293 OA
BRANCH  18  20
HETATM   20  C19 UNL     1      -2.749   1.486   1.976  1.00  0.00     0.048 C 
HETATM   21  C20 UNL     1      -3.498   0.546   1.385  1.00  0.00     0.009 C 
BRANCH  21  22
HETATM   22  C21 UNL     1      -4.802   0.240   1.968  1.00  0.00     0.149 C 
BRANCH  22  23
HETATM   23  O6  UNL     1      -4.631   0.155   3.353  1.00  0.00    -0.391 OA
ATOM     24  H6  UNL     1      -5.479  -0.044   3.732  1.00  0.00     0.210 HD
ENDBRANCH  22  23
BRANCH  22  25
HETATM   25  C22 UNL     1      -5.453  -1.012   1.520  1.00  0.00     0.070 C 
BRANCH  25  26
HETATM   26  C23 UNL     1      -6.783  -1.123   2.282  1.00  0.00     0.174 C 
BRANCH  26  27
HETATM   27  O7  UNL     1      -6.604  -1.164   3.642  1.00  0.00    -0.400 OA
ATOM     28  H7  UNL     1      -7.426  -1.233   4.113  1.00  0.00     0.209 HD
ENDBRANCH  26  27
ENDBRANCH  25  26
BRANCH  25  29
HETATM   29  C24 UNL     1      -5.862  -1.007   0.047  1.00  0.00     0.123 C 
HETATM   30  C25 UNL     1      -6.523  -2.355  -0.261  1.00  0.00     0.040 C 
BRANCH  29  31
HETATM   31  O8  UNL     1      -4.816  -0.775  -0.814  1.00  0.00    -0.395 OA
ATOM     32  H8  UNL     1      -5.070  -0.772  -1.729  1.00  0.00     0.210 HD
ENDBRANCH  29  31
ENDBRANCH  25  29
ENDBRANCH  22  25
ENDBRANCH  21  22
ENDBRANCH  18  20
ENDBRANCH  17  18
ENDBRANCH  12  17
BRANCH   1  33
HETATM   33  O3  UNL     1       3.416  -0.622   0.345  1.00  0.00    -0.304 OA
BRANCH  33  34
HETATM   34  C4  UNL     1       4.449  -0.993   1.172  1.00  0.00     0.330 C 
HETATM   35  O2  UNL     1       5.513  -0.304   1.102  1.00  0.00    -0.256 OA
BRANCH  34  36
HETATM   36  C3  UNL     1       4.367  -2.116   2.100  1.00  0.00     0.223 C 
HETATM   37  O1  UNL     1       3.332  -2.812   2.194  1.00  0.00    -0.287 OA
BRANCH  36  38
HETATM   38  C2  UNL     1       5.532  -2.444   2.950  1.00  0.00     0.085 C 
HETATM   39  C1  UNL     1       5.356  -1.958   4.377  1.00  0.00     0.013 C 
ENDBRANCH  36  38
ENDBRANCH  34  36
ENDBRANCH  33  34
ENDBRANCH   1  33
TORSDOF 14
