REMARK  15 active torsions:
REMARK  status: ('A' for Active; 'I' for Inactive)
REMARK    1  A    between atoms: C2_2  and  C3_3 
REMARK    2  A    between atoms: C3_3  and  C5_5 
REMARK    3  A    between atoms: C5_5  and  C7_7 
REMARK    4  A    between atoms: C7_7  and  C8_8 
REMARK    5  A    between atoms: C8_8  and  C9_9 
REMARK    6  A    between atoms: C9_9  and  O2_11 
REMARK    7  A    between atoms: O2_11  and  C10_12 
REMARK    8  A    between atoms: C10_12  and  C11_13 
REMARK    9  A    between atoms: C13_16  and  O4_17 
REMARK   10  A    between atoms: C14_19  and  C15_20 
REMARK   11  A    between atoms: C16_21  and  C17_22 
REMARK   12  A    between atoms: C17_22  and  O5_23 
REMARK   13  A    between atoms: O5_23  and  C18_24 
REMARK   14  A    between atoms: C26_34  and  O7_35 
REMARK   15  A    between atoms: C27_37  and  O8_38 
ROOT
HETATM    1  C11 UNL     1       0.561  -2.182  -0.752  1.00  0.00     0.177 C 
HETATM    2  O3  UNL     1       0.452  -1.435   0.445  1.00  0.00    -0.370 OA
HETATM    3  C12 UNL     1      -0.556  -0.538   0.236  1.00  0.00     0.190 C 
HETATM    4  C13 UNL     1      -0.805   0.434   1.336  1.00  0.00     0.182 C 
HETATM    5  C14 UNL     1      -2.353   0.545   1.321  1.00  0.00     0.177 C 
HETATM    6  O6  UNL     1      -2.743  -0.182   0.210  1.00  0.00    -0.363 OA
HETATM    7  C24 UNL     1      -1.881  -1.283   0.237  1.00  0.00     0.115 C 
HETATM    8  C25 UNL     1      -2.035  -2.146   1.459  1.00  0.00     0.052 C 
HETATM    9  C26 UNL     1      -1.928  -2.153  -0.968  1.00  0.00     0.186 C 
HETATM   10  C27 UNL     1      -0.680  -3.030  -0.952  1.00  0.00     0.181 C 
ENDROOT
BRANCH   1  11
HETATM   11  C10 UNL     1       1.744  -3.107  -0.680  1.00  0.00     0.213 C 
BRANCH  11  12
HETATM   12  O2  UNL     1       2.984  -2.459  -0.531  1.00  0.00    -0.319 OA
BRANCH  12  13
HETATM   13  C9  UNL     1       3.541  -1.580  -1.409  1.00  0.00     0.258 C 
HETATM   14  O1  UNL     1       2.896  -1.303  -2.478  1.00  0.00    -0.265 OA
BRANCH  13  15
HETATM   15  C8  UNL     1       4.842  -0.885  -1.275  1.00  0.00     0.111 C 
BRANCH  15  16
HETATM   16  C7  UNL     1       4.664   0.607  -1.136  1.00  0.00     0.014 C 
BRANCH  16  17
HETATM   17  C5  UNL     1       6.014   1.320  -1.035  1.00  0.00    -0.014 C 
HETATM   18  C6  UNL     1       6.701   1.297  -2.335  1.00  0.00     0.010 C 
BRANCH  17  19
HETATM   19  C3  UNL     1       6.810   0.869   0.121  1.00  0.00    -0.015 C 
HETATM   20  C4  UNL     1       5.927   1.003   1.411  1.00  0.00     0.010 C 
BRANCH  19  21
HETATM   21  C2  UNL     1       8.014   1.695   0.397  1.00  0.00    -0.000 C 
HETATM   22  C1  UNL     1       9.097   1.753  -0.621  1.00  0.00     0.005 C 
ENDBRANCH  19  21
ENDBRANCH  17  19
ENDBRANCH  16  17
ENDBRANCH  15  16
ENDBRANCH  13  15
ENDBRANCH  12  13
ENDBRANCH  11  12
ENDBRANCH   1  11
BRANCH  10  23
HETATM   23  O8  UNL     1      -0.534  -3.715  -2.150  1.00  0.00    -0.390 OA
ATOM     24  H8  UNL     1      -1.312  -4.246  -2.275  1.00  0.00     0.210 HD
ENDBRANCH  10  23
BRANCH   9  25
HETATM   25  O7  UNL     1      -3.028  -3.023  -0.937  1.00  0.00    -0.390 OA
ATOM     26  H7  UNL     1      -3.058  -3.579  -1.707  1.00  0.00     0.210 HD
ENDBRANCH   9  25
BRANCH   4  27
HETATM   27  O4  UNL     1      -0.320   0.092   2.569  1.00  0.00    -0.390 OA
ATOM     28  H4  UNL     1      -0.479   0.712   3.271  1.00  0.00     0.210 HD
ENDBRANCH   4  27
BRANCH   5  29
HETATM   29  C15 UNL     1      -2.767   1.934   1.367  1.00  0.00     0.010 C 
HETATM   30  C16 UNL     1      -3.781   2.626   1.029  1.00  0.00     0.038 C 
BRANCH  30  31
HETATM   31  C17 UNL     1      -5.066   2.351   0.416  1.00  0.00     0.103 C 
HETATM   32  C22 UNL     1      -5.829   3.394   0.189  1.00  0.00     0.123 C 
HETATM   33  C23 UNL     1      -7.154   3.512  -0.406  1.00  0.00     0.085 C 
HETATM   34  F1  UNL     1      -5.274   4.625   0.593  1.00  0.00    -0.208 F 
BRANCH  31  35
HETATM   35  O5  UNL     1      -5.460   1.091   0.100  1.00  0.00    -0.339 OA
BRANCH  35  36
HETATM   36  C18 UNL     1      -6.301   0.167   0.643  1.00  0.00     0.057 C 
HETATM   37  C19 UNL     1      -6.221  -1.087  -0.268  1.00  0.00     0.045 C 
HETATM   38  C20 UNL     1      -5.892  -0.314   2.028  1.00  0.00     0.045 C 
HETATM   39  C21 UNL     1      -7.795   0.471   0.663  1.00  0.00     0.045 C 
ENDBRANCH  35  36
ENDBRANCH  31  35
ENDBRANCH  30  31
ENDBRANCH   5  29
TORSDOF 15
