REMARK  6 active torsions:
REMARK  status: ('A' for Active; 'I' for Inactive)
REMARK    1  A    between atoms: C3_3  and  C4_4 
REMARK    2  A    between atoms: C4_4  and  C5_5 
REMARK    3  A    between atoms: C5_5  and  N1_6 
REMARK    4  A    between atoms: N1_6  and  C6_8 
REMARK    5  A    between atoms: C7_11  and  N3_12 
REMARK    6  A    between atoms: C11_17  and  N5_18 
ROOT
HETATM    1  C1  UNL     1       5.311   0.838  -3.002  1.00  0.00     0.012 C 
HETATM    2  C2  UNL     1       4.186   0.570  -2.632  1.00  0.00    -0.117 C 
HETATM    3  C3  UNL     1       2.827   0.264  -2.185  1.00  0.00     0.094 C 
ENDROOT
BRANCH   3   4
HETATM    4  C4  UNL     1       2.794  -1.232  -1.851  1.00  0.00     0.032 C 
BRANCH   4   5
HETATM    5  C5  UNL     1       1.360  -1.514  -1.388  1.00  0.00     0.139 C 
BRANCH   5   6
HETATM    6  N1  UNL     1       1.087  -0.694  -0.227  1.00  0.00    -0.226 N 
ATOM      7  H1  UNL     1       1.862  -0.259   0.274  1.00  0.00     0.177 HD
BRANCH   6   8
HETATM    8  C6  UNL     1      -0.141  -0.502   0.190  1.00  0.00     0.681 A 
HETATM    9  N2  UNL     1      -0.395   0.259   1.267  1.00  0.00    -0.176 N 
HETATM   10  C7  UNL     1      -1.629   0.486   1.734  1.00  0.00     0.135 A 
ATOM     11  H2  UNL     1       0.393   0.686   1.754  1.00  0.00     0.186 HD
HETATM   12  C10 UNL     1      -2.703  -0.084   1.087  1.00  0.00     0.098 A 
HETATM   13  C11 UNL     1      -2.465  -0.861  -0.011  1.00  0.00     0.118 A 
HETATM   14  N6  UNL     1      -1.185  -1.059  -0.444  1.00  0.00    -0.177 N 
ATOM     15  H6  UNL     1      -1.019  -1.641  -1.265  1.00  0.00     0.185 HD
BRANCH  10  16
HETATM   16  N3  UNL     1      -1.840   1.305   2.886  1.00  0.00    -0.274 N 
HETATM   17  C8  UNL     1      -3.189   1.531   3.366  1.00  0.00     0.170 C 
HETATM   18  C9  UNL     1      -0.735   1.870   3.523  1.00  0.00     0.185 C 
HETATM   19  N4  UNL     1       0.181   2.343   4.070  1.00  0.00    -0.172 NA
ENDBRANCH  10  16
BRANCH  13  20
HETATM   20  N5  UNL     1      -3.451  -1.404  -0.632  1.00  0.00    -0.385 N 
ATOM     21  H52 UNL     1      -4.407  -1.256  -0.309  1.00  0.00     0.157 HD
ATOM     22  H51 UNL     1      -3.273  -1.984  -1.452  1.00  0.00     0.157 HD
ENDBRANCH  13  20
ENDBRANCH   6   8
ENDBRANCH   5   6
ENDBRANCH   4   5
ENDBRANCH   3   4
TORSDOF 6
