REMARK  8 active torsions:
REMARK  status: ('A' for Active; 'I' for Inactive)
REMARK    1  A    between atoms: N1_4  and  C4_5 
REMARK    2  A    between atoms: C7_8  and  C8_9 
REMARK    3  A    between atoms: C8_9  and  C9_10 
REMARK    4  A    between atoms: C9_10  and  N2_11 
REMARK       I    between atoms: N2_11  and  C10_13 
REMARK    5  A    between atoms: C10_13  and  C11_15 
REMARK    6  A    between atoms: C11_15  and  C12_16 
REMARK    7  A    between atoms: C20_24  and  C21_25 
REMARK    8  A    between atoms: C21_25  and  C22_26 
ROOT
HETATM    1  C1  UNL     1      -4.054  -0.841  -0.034  1.00  0.00     0.012 C 
HETATM    2  C2  UNL     1      -3.271   0.128   0.850  1.00  0.00     0.014 C 
HETATM    3  C3  UNL     1      -1.850   0.179   0.243  1.00  0.00     0.277 C 
HETATM    4  N1  UNL     1      -1.767   1.245  -0.680  1.00  0.00     0.093 N 
HETATM    5  C18 UNL     1      -1.863   2.558  -0.073  1.00  0.00     0.273 C 
HETATM    6  C19 UNL     1      -2.803   2.520   1.089  1.00  0.00     0.035 C 
HETATM    7  C20 UNL     1      -3.894   1.462   0.882  1.00  0.00    -0.003 C 
ENDROOT
BRANCH   4   8
HETATM    8  C4  UNL     1      -0.579   1.174  -1.549  1.00  0.00     0.223 C 
HETATM    9  C5  UNL     1      -0.705  -0.068  -2.355  1.00  0.00     0.036 C 
HETATM   10  C6  UNL     1       0.411  -1.055  -2.109  1.00  0.00     0.007 C 
HETATM   11  C7  UNL     1       1.712  -0.243  -2.428  1.00  0.00    -0.013 C 
HETATM   12  C16 UNL     1       1.888   0.568  -1.214  1.00  0.00     0.007 C 
HETATM   13  C17 UNL     1       0.680   1.341  -0.789  1.00  0.00     0.036 C 
BRANCH  11  14
HETATM   14  C8  UNL     1       2.750  -1.212  -2.827  1.00  0.00     0.024 C 
BRANCH  14  15
HETATM   15  C9  UNL     1       4.056  -0.632  -3.190  1.00  0.00     0.123 C 
BRANCH  15  16
HETATM   16  N2  UNL     1       4.735   0.020  -2.127  1.00  0.00    -0.361 N 
HETATM   17  C10 UNL     1       5.147  -0.698  -0.977  1.00  0.00     0.218 C 
HETATM   18  O1  UNL     1       4.925  -1.910  -0.883  1.00  0.00    -0.274 OA
ATOM     19  H2  UNL     1       4.929   1.019  -2.192  1.00  0.00     0.162 HD
BRANCH  17  20
HETATM   20  C11 UNL     1       5.848   0.030   0.107  1.00  0.00     0.111 C 
BRANCH  20  21
HETATM   21  C12 UNL     1       6.193  -0.900   1.247  1.00  0.00    -0.043 C 
HETATM   22  C13 UNL     1       6.906  -0.076   2.311  1.00  0.00     0.015 C 
HETATM   23  C14 UNL     1       7.081  -2.030   0.845  1.00  0.00     0.015 C 
HETATM   24  C15 UNL     1       4.908  -1.427   1.865  1.00  0.00     0.015 C 
ENDBRANCH  20  21
ENDBRANCH  17  20
ENDBRANCH  15  16
ENDBRANCH  14  15
ENDBRANCH  11  14
ENDBRANCH   4   8
BRANCH   7  25
HETATM   25  C21 UNL     1      -4.959   1.728   1.867  1.00  0.00     0.050 C 
BRANCH  25  26
HETATM   26  C22 UNL     1      -6.182   0.921   1.815  1.00  0.00     0.023 A 
HETATM   27  C23 UNL     1      -6.356  -0.273   2.454  1.00  0.00     0.128 A 
HETATM   28  F1  UNL     1      -5.414  -0.797   3.310  1.00  0.00    -0.205 F 
HETATM   29  C24 UNL     1      -7.549  -0.961   2.272  1.00  0.00     0.088 A 
HETATM   30  C25 UNL     1      -8.556  -0.484   1.478  1.00  0.00     0.161 A 
HETATM   31  F2  UNL     1      -9.734  -1.161   1.297  1.00  0.00    -0.203 F 
HETATM   32  C26 UNL     1      -8.408   0.717   0.823  1.00  0.00     0.194 A 
HETATM   33  F3  UNL     1      -9.413   1.179   0.041  1.00  0.00    -0.200 F 
HETATM   34  C27 UNL     1      -7.232   1.392   1.003  1.00  0.00     0.167 A 
HETATM   35  F4  UNL     1      -7.101   2.591   0.342  1.00  0.00    -0.202 F 
ENDBRANCH  25  26
ENDBRANCH   7  25
TORSDOF 8
