REMARK  2 active torsions:
REMARK  status: ('A' for Active; 'I' for Inactive)
REMARK    1  A    between atoms: C7_9  and  C8_10 
REMARK       I    between atoms: C8_10  and  N2_12 
REMARK    2  A    between atoms: N2_12  and  C9_14 
ROOT
HETATM    1  C1  UNL     1      -4.063   0.424  -3.813  1.00  0.00     0.050 C 
HETATM    2  C2  UNL     1      -3.492   0.257  -2.482  1.00  0.00    -0.033 A 
HETATM    3  C3  UNL     1      -4.369   0.176  -1.393  1.00  0.00     0.052 A 
HETATM    4  C4  UNL     1      -3.815   0.018  -0.143  1.00  0.00     0.059 A 
HETATM    5  N1  UNL     1      -2.482  -0.058   0.043  1.00  0.00    -0.354 N 
ATOM      6  H1  UNL     1      -2.113  -0.176   0.987  1.00  0.00     0.166 HD
HETATM    7  C5  UNL     1      -1.631   0.019  -0.996  1.00  0.00     0.044 A 
HETATM    8  C6  UNL     1      -0.253  -0.061  -0.781  1.00  0.00     0.047 A 
HETATM    9  C7  UNL     1       0.655   0.012  -1.798  1.00  0.00     0.034 A 
HETATM   10  C19 UNL     1       0.151   0.170  -3.066  1.00  0.00     0.018 A 
HETATM   11  C20 UNL     1      -1.213   0.254  -3.325  1.00  0.00     0.015 A 
HETATM   12  C21 UNL     1      -2.111   0.178  -2.281  1.00  0.00    -0.002 A 
HETATM   13  C22 UNL     1      -4.729  -0.069   1.009  1.00  0.00     0.006 A 
HETATM   14  C23 UNL     1      -4.188  -0.229   2.278  1.00  0.00     0.014 A 
HETATM   15  C24 UNL     1      -4.991  -0.317   3.405  1.00  0.00     0.001 A 
HETATM   16  C25 UNL     1      -6.378  -0.246   3.286  1.00  0.00     0.001 A 
HETATM   17  C26 UNL     1      -6.913  -0.088   2.034  1.00  0.00     0.016 A 
HETATM   18  C27 UNL     1      -6.100  -0.001   0.910  1.00  0.00     0.031 A 
HETATM   19  C28 UNL     1      -6.717   0.167  -0.398  1.00  0.00     0.233 A 
HETATM   20  O2  UNL     1      -7.965   0.226  -0.467  1.00  0.00    -0.283 OA
HETATM   21  C29 UNL     1      -5.819   0.253  -1.543  1.00  0.00     0.235 A 
HETATM   22  O3  UNL     1      -6.344   0.396  -2.660  1.00  0.00    -0.283 OA
ENDROOT
BRANCH   9  23
HETATM   23  C8  UNL     1       2.121  -0.074  -1.578  1.00  0.00     0.256 C 
HETATM   24  O1  UNL     1       2.859   0.029  -2.597  1.00  0.00    -0.267 OA
HETATM   25  N2  UNL     1       2.674  -0.257  -0.317  1.00  0.00    -0.323 N 
ATOM     26  H2  UNL     1       2.014  -0.325   0.458  1.00  0.00     0.169 HD
BRANCH  25  27
HETATM   27  C9  UNL     1       4.033  -0.359   0.018  1.00  0.00     0.035 A 
HETATM   28  C10 UNL     1       5.058  -0.564  -0.874  1.00  0.00     0.030 A 
HETATM   29  C11 UNL     1       6.394  -0.635  -0.457  1.00  0.00     0.014 A 
HETATM   30  C12 UNL     1       6.730  -0.502   0.865  1.00  0.00    -0.026 A 
HETATM   31  C13 UNL     1       8.054  -0.572   1.273  1.00  0.00     0.012 A 
HETATM   32  C17 UNL     1       5.729  -0.297   1.782  1.00  0.00    -0.024 A 
HETATM   33  C14 UNL     1       8.378  -0.438   2.603  1.00  0.00     0.001 A 
HETATM   34  C15 UNL     1       7.359  -0.232   3.514  1.00  0.00     0.001 A 
HETATM   35  C16 UNL     1       6.050  -0.158   3.142  1.00  0.00     0.012 A 
HETATM   36  C18 UNL     1       4.442  -0.232   1.351  1.00  0.00     0.042 A 
ENDBRANCH  25  27
ENDBRANCH   9  23
TORSDOF 2
