REMARK  14 active torsions:
REMARK  status: ('A' for Active; 'I' for Inactive)
REMARK    1  A    between atoms: N1_1  and  C1_4 
REMARK    2  A    between atoms: C1_4  and  O1_6 
REMARK    3  A    between atoms: O1_6  and  C2_7 
REMARK    4  A    between atoms: C2_7  and  N3_8 
REMARK    5  A    between atoms: C3_12  and  C4_13 
REMARK    6  A    between atoms: C4_13  and  N4_14 
REMARK    7  A    between atoms: C5_19  and  N5_20 
REMARK       I    between atoms: N7_24  and  C7_26 
REMARK    8  A    between atoms: C7_26  and  C8_28 
REMARK    9  A    between atoms: C8_28  and  N8_29 
REMARK   10  A    between atoms: C8_28  and  C9_33 
REMARK   11  A    between atoms: C9_33  and  C10_34 
REMARK   12  A    between atoms: C14_42  and  N11_43 
REMARK   13  A    between atoms: C17_52  and  O4_53 
REMARK   14  A    between atoms: C18_55  and  O5_56 
ROOT
HETATM    1  N5  UNL     1      -0.625   0.527   0.823  1.00  0.00    -0.241 N 
HETATM    2  N6  UNL     1       0.415   0.645   0.029  1.00  0.00    -0.278 N 
ATOM      3  H6  UNL     1       0.411   0.386  -0.957  1.00  0.00     0.189 HD
HETATM    4  C6  UNL     1       1.477   1.144   0.665  1.00  0.00     0.140 A 
HETATM    5  N7  UNL     1       2.654   1.406   0.252  1.00  0.00    -0.309 N 
ATOM      6  H7  UNL     1       3.311   1.789   0.932  1.00  0.00     0.170 HD
HETATM    7  C7  UNL     1       3.129   1.212  -1.066  1.00  0.00     0.254 C 
HETATM    8  O3  UNL     1       2.387   1.388  -2.063  1.00  0.00    -0.271 OA
HETATM    9  C13 UNL     1       1.086   1.368   1.991  1.00  0.00     0.099 A 
HETATM   10  C14 UNL     1       1.752   1.864   3.092  1.00  0.00     0.117 A 
HETATM   11  N12 UNL     1       1.033   1.942   4.255  1.00  0.00    -0.338 N 
ATOM     12  H12 UNL     1       1.479   2.301   5.099  1.00  0.00     0.168 HD
HETATM   13  C15 UNL     1      -0.247   1.554   4.299  1.00  0.00     0.183 A 
HETATM   14  N13 UNL     1      -0.890   1.072   3.225  1.00  0.00    -0.336 N 
ATOM     15  H13 UNL     1      -1.866   0.786   3.298  1.00  0.00     0.168 HD
HETATM   16  C16 UNL     1      -0.234   0.967   2.038  1.00  0.00     0.143 A 
ENDROOT
BRANCH   1  17
HETATM   17  C5  UNL     1      -1.966   0.039   0.565  1.00  0.00     0.278 C 
HETATM   18  O2  UNL     1      -2.278  -0.900   1.503  1.00  0.00    -0.350 OA
HETATM   19  C3  UNL     1      -3.432  -1.604   1.267  1.00  0.00     0.216 C 
HETATM   20  C2  UNL     1      -4.521  -0.772   0.571  1.00  0.00     0.287 C 
HETATM   21  C18 UNL     1      -4.287   0.634   1.054  1.00  0.00     0.217 C 
HETATM   22  C17 UNL     1      -2.985   1.113   0.452  1.00  0.00     0.202 C 
BRANCH  19  23
HETATM   23  C4  UNL     1      -3.235  -2.937   0.643  1.00  0.00     0.266 C 
BRANCH  23  24
HETATM   24  N4  UNL     1      -2.597  -2.958  -0.621  1.00  0.00    -0.077 N 
ATOM     25  H43 UNL     1      -3.097  -2.348  -1.267  1.00  0.00     0.274 HD
ATOM     26  H42 UNL     1      -1.702  -2.472  -0.561  1.00  0.00     0.274 HD
ATOM     27  H41 UNL     1      -2.462  -3.874  -1.050  1.00  0.00     0.274 HD
ENDBRANCH  23  24
ENDBRANCH  19  23
BRANCH  20  28
HETATM   28  O1  UNL     1      -4.442  -0.843  -0.784  1.00  0.00    -0.280 OA
BRANCH  28  29
HETATM   29  C1  UNL     1      -5.169  -0.237  -1.747  1.00  0.00     0.227 C 
HETATM   30  N2  UNL     1      -4.523   0.144  -3.004  1.00  0.00    -0.057 NA
BRANCH  29  31
HETATM   31  N1  UNL     1      -6.393   0.003  -1.578  1.00  0.00    -0.368 N 
ATOM     32  H12 UNL     1      -6.942   0.461  -2.305  1.00  0.00     0.159 HD
ATOM     33  H11 UNL     1      -6.843  -0.262  -0.702  1.00  0.00     0.159 HD
ENDBRANCH  29  31
ENDBRANCH  28  29
ENDBRANCH  20  28
BRANCH  20  34
HETATM   34  N3  UNL     1      -5.825  -1.207   1.068  1.00  0.00    -0.041 N 
ATOM     35  H33 UNL     1      -6.582  -0.686   0.626  1.00  0.00     0.278 HD
ATOM     36  H32 UNL     1      -6.055  -2.142   0.733  1.00  0.00     0.278 HD
ATOM     37  H31 UNL     1      -5.884  -1.154   2.085  1.00  0.00     0.278 HD
ENDBRANCH  20  34
BRANCH  21  38
HETATM   38  O5  UNL     1      -5.319   1.516   0.781  1.00  0.00    -0.388 OA
ATOM     39  H5  UNL     1      -5.171   2.404   1.086  1.00  0.00     0.210 HD
ENDBRANCH  21  38
BRANCH  22  40
HETATM   40  O4  UNL     1      -2.574   2.322   1.022  1.00  0.00    -0.388 OA
ATOM     41  H4  UNL     1      -3.226   3.009   0.950  1.00  0.00     0.210 HD
ENDBRANCH  22  40
ENDBRANCH   1  17
BRANCH  10  42
HETATM   42  N11 UNL     1       2.969   2.236   3.062  1.00  0.00    -0.385 N 
ATOM     43 2H11 UNL     1       3.504   2.178   2.196  1.00  0.00     0.157 HD
ATOM     44 1H11 UNL     1       3.462   2.603   3.876  1.00  0.00     0.157 HD
ENDBRANCH  10  42
BRANCH   7  45
HETATM   45  C8  UNL     1       4.520   0.797  -1.297  1.00  0.00     0.280 C 
BRANCH  45  46
HETATM   46  N8  UNL     1       4.820   0.667  -2.718  1.00  0.00    -0.066 N 
ATOM     47  H83 UNL     1       4.164   0.037  -3.179  1.00  0.00     0.275 HD
ATOM     48  H82 UNL     1       4.600   1.525  -3.223  1.00  0.00     0.275 HD
ATOM     49  H81 UNL     1       5.785   0.379  -2.878  1.00  0.00     0.275 HD
ENDBRANCH  45  46
BRANCH  45  50
HETATM   50  C9  UNL     1       4.848  -0.544  -0.674  1.00  0.00     0.101 C 
BRANCH  50  51
HETATM   51  C10 UNL     1       6.274  -0.810  -0.995  1.00  0.00     0.028 A 
HETATM   52  C11 UNL     1       6.829  -1.456  -2.079  1.00  0.00     0.114 A 
HETATM   53  N9  UNL     1       8.171  -1.453  -1.934  1.00  0.00    -0.360 N 
HETATM   54  C12 UNL     1       8.474  -0.832  -0.805  1.00  0.00     0.180 A 
ATOM     55  H9  UNL     1       8.840  -1.861  -2.586  1.00  0.00     0.166 HD
HETATM   56  N10 UNL     1       7.339  -0.439  -0.228  1.00  0.00    -0.355 N 
ATOM     57  H10 UNL     1       7.276   0.065   0.657  1.00  0.00     0.166 HD
ENDBRANCH  50  51
ENDBRANCH  45  50
ENDBRANCH   7  45
TORSDOF 14
