REMARK  8 active torsions:
REMARK  status: ('A' for Active; 'I' for Inactive)
REMARK    1  A    between atoms: C2_5  and  N2_6 
REMARK    2  A    between atoms: N2_6  and  C3_8 
REMARK    3  A    between atoms: C3_8  and  C4_9 
REMARK    4  A    between atoms: N3_14  and  N4_15 
REMARK    5  A    between atoms: C8_19  and  O3_20 
REMARK    6  A    between atoms: C11_30  and  O5_31 
REMARK    7  A    between atoms: N9_33  and  C12_34 
REMARK    8  A    between atoms: C14_37  and  C15_38 
ROOT
HETATM    1  N4  UNL     1       0.417  -0.589   0.044  1.00  0.00    -0.192 NA
HETATM    2  C7  UNL     1       0.515  -2.018  -0.060  1.00  0.00     0.235 C 
HETATM    3  N5  UNL     1      -0.685  -2.633  -0.546  1.00  0.00    -0.365 N 
ATOM      4  H5  UNL     1      -0.641  -3.342  -1.278  1.00  0.00     0.158 HD
HETATM    5  C8  UNL     1      -1.916  -2.251  -0.006  1.00  0.00     0.285 C 
HETATM    6  C9  UNL     1      -1.999  -1.979   1.424  1.00  0.00     0.287 C 
HETATM    7  O4  UNL     1      -1.052  -1.941   2.252  1.00  0.00    -0.267 OA
HETATM    8  N6  UNL     1      -3.299  -1.730   1.949  1.00  0.00    -0.297 N 
ATOM      9  H6  UNL     1      -3.535  -1.942   2.918  1.00  0.00     0.171 HD
HETATM   10  C10 UNL     1      -4.266  -1.162   1.041  1.00  0.00     0.194 C 
HETATM   11  N7  UNL     1      -5.599  -0.895   1.475  1.00  0.00    -0.063 NA
HETATM   12  N8  UNL     1      -3.878  -0.931  -0.145  1.00  0.00    -0.310 N 
ATOM     13  H8  UNL     1      -4.591  -0.529  -0.754  1.00  0.00     0.167 HD
HETATM   14  C11 UNL     1      -2.625  -1.137  -0.762  1.00  0.00     0.282 C 
HETATM   15  N9  UNL     1      -1.749  -0.025  -0.900  1.00  0.00    -0.299 N 
HETATM   16  C16 UNL     1      -0.313  -0.119  -1.126  1.00  0.00     0.246 C 
ENDROOT
BRANCH   1  17
HETATM   17  N3  UNL     1       1.663   0.050   0.060  1.00  0.00    -0.295 N 
HETATM   18  C1  UNL     1       2.951  -0.548   0.134  1.00  0.00     0.111 C 
HETATM   19  N1  UNL     1       3.250  -1.690   0.560  1.00  0.00    -0.386 N 
HETATM   20  C2  UNL     1       3.868   0.477  -0.409  1.00  0.00     0.151 C 
ATOM     21  H12 UNL     1       4.174  -2.119   0.613  1.00  0.00     0.157 HD
ATOM     22  H11 UNL     1       2.617  -2.397   0.935  1.00  0.00     0.157 HD
HETATM   23  C5  UNL     1       3.295   1.686   0.312  1.00  0.00     0.054 C 
HETATM   24  C6  UNL     1       1.824   1.514  -0.004  1.00  0.00     0.147 C 
BRANCH  20  25
HETATM   25  N2  UNL     1       5.229   0.285  -0.299  1.00  0.00    -0.382 N 
ATOM     26  H2  UNL     1       5.766   0.168  -1.158  1.00  0.00     0.160 HD
BRANCH  25  27
HETATM   27  C3  UNL     1       5.916   0.241   0.912  1.00  0.00     0.169 C 
BRANCH  27  28
HETATM   28  C4  UNL     1       7.368  -0.035   0.661  1.00  0.00     0.214 C 
HETATM   29  O1  UNL     1       7.732  -0.171  -0.529  1.00  0.00    -0.644 OA
HETATM   30  O2  UNL     1       8.290  -0.142   1.696  1.00  0.00    -0.644 OA
ENDBRANCH  27  28
ENDBRANCH  25  27
ENDBRANCH  20  25
ENDBRANCH   1  17
BRANCH  15  31
HETATM   31  C12 UNL     1      -2.284   1.336  -0.820  1.00  0.00     0.115 A 
HETATM   32  C13 UNL     1      -1.668   2.376  -1.484  1.00  0.00     0.100 A 
HETATM   33  S1  UNL     1      -2.653   3.701  -1.041  1.00  0.00    -0.075 SA
HETATM   34  C14 UNL     1      -3.774   2.874  -0.055  1.00  0.00     0.141 A 
HETATM   35  N11 UNL     1      -3.338   1.640  -0.116  1.00  0.00    -0.332 N 
ATOM     36  H11 UNL     1      -3.830   0.907   0.395  1.00  0.00     0.168 HD
BRANCH  34  37
HETATM   37  C15 UNL     1      -4.909   3.498   0.643  1.00  0.00     0.288 C 
HETATM   38  N10 UNL     1      -5.781   2.767   1.462  1.00  0.00    -0.055 NA
HETATM   39  O6  UNL     1      -5.114   4.741   0.507  1.00  0.00    -0.269 OA
ENDBRANCH  34  37
ENDBRANCH  15  31
BRANCH   5  40
HETATM   40  O3  UNL     1      -2.788  -3.378  -0.214  1.00  0.00    -0.358 OA
ATOM     41  H3  UNL     1      -3.625  -3.118   0.153  1.00  0.00     0.213 HD
ENDBRANCH   5  40
BRANCH  14  42
HETATM   42  O5  UNL     1      -2.801  -1.635  -2.091  1.00  0.00    -0.349 OA
ATOM     43  H5  UNL     1      -3.244  -0.939  -2.563  1.00  0.00     0.214 HD
ENDBRANCH  14  42
TORSDOF 8
