REMARK  4 active torsions:
REMARK  status: ('A' for Active; 'I' for Inactive)
REMARK    1  A    between atoms: C2_2  and  C3_3 
REMARK    2  A    between atoms: C3_3  and  C4_4 
REMARK    3  A    between atoms: C4_4  and  N1_5 
REMARK    4  A    between atoms: C21_23  and  O1_24 
ROOT
HETATM    1  N1  UNL     1       2.092   0.546   0.394  1.00  0.00    -0.396 N 
ATOM      2  H1  UNL     1       1.436   1.254   0.065  1.00  0.00     0.159 HD
HETATM    3  C5  UNL     1       1.668  -0.607   0.767  1.00  0.00    -0.013 C 
HETATM    4  C6  UNL     1       2.675  -1.599   1.237  1.00  0.00     0.052 C 
HETATM    5  C7  UNL     1       3.118  -2.535   0.132  1.00  0.00     0.006 C 
HETATM    6  C8  UNL     1       2.007  -3.574  -0.064  1.00  0.00     0.001 C 
HETATM    7  C9  UNL     1       0.858  -2.804  -0.720  1.00  0.00     0.005 C 
HETATM    8  C10 UNL     1      -0.047  -2.268   0.373  1.00  0.00    -0.005 C 
HETATM    9  C11 UNL     1      -1.467  -2.577  -0.045  1.00  0.00     0.006 C 
HETATM   10  C12 UNL     1      -1.728  -1.738  -1.278  1.00  0.00     0.006 C 
HETATM   11  C13 UNL     1      -1.750  -0.296  -0.837  1.00  0.00    -0.003 C 
HETATM   12  C14 UNL     1      -0.503   0.143  -0.180  1.00  0.00    -0.000 C 
HETATM   13  C15 UNL     1      -0.817   1.422   0.608  1.00  0.00     0.006 C 
HETATM   14  C16 UNL     1      -1.971   2.178  -0.053  1.00  0.00     0.010 C 
HETATM   15  C17 UNL     1      -3.238   1.434   0.199  1.00  0.00    -0.038 C 
HETATM   16  C18 UNL     1      -3.681   1.693   1.645  1.00  0.00     0.015 C 
HETATM   17  C19 UNL     1      -4.376   1.846  -0.682  1.00  0.00     0.012 C 
HETATM   18  C20 UNL     1      -5.239   0.578  -0.677  1.00  0.00     0.033 C 
HETATM   19  C21 UNL     1      -4.180  -0.482  -0.890  1.00  0.00     0.123 C 
HETATM   20  C22 UNL     1      -3.005  -0.041  -0.021  1.00  0.00     0.027 C 
HETATM   21  C23 UNL     1       0.179  -0.835   0.688  1.00  0.00     0.039 C 
ENDROOT
BRANCH   1  22
HETATM   22  C4  UNL     1       3.478   0.825   0.444  1.00  0.00     0.119 C 
BRANCH  22  23
HETATM   23  C3  UNL     1       3.868   2.017  -0.403  1.00  0.00     0.019 C 
BRANCH  23  24
HETATM   24  C2  UNL     1       5.356   2.200  -0.259  1.00  0.00    -0.003 C 
HETATM   25  C1  UNL     1       5.856   3.381  -1.075  1.00  0.00     0.005 C 
ENDBRANCH  23  24
ENDBRANCH  22  23
ENDBRANCH   1  22
BRANCH  19  26
HETATM   26  O1  UNL     1      -4.678  -1.699  -0.487  1.00  0.00    -0.395 OA
ATOM     27  H1  UNL     1      -4.013  -2.364  -0.621  1.00  0.00     0.210 HD
ENDBRANCH  19  26
TORSDOF 4
