REMARK  15 active torsions:
REMARK  status: ('A' for Active; 'I' for Inactive)
REMARK    1  A    between atoms: C2_2  and  C3_3 
REMARK    2  A    between atoms: C4_4  and  C5_5 
REMARK    3  A    between atoms: C5_5  and  C6_6 
REMARK    4  A    between atoms: C5_5  and  C8_8 
REMARK    5  A    between atoms: C5_5  and  C13_13 
REMARK    6  A    between atoms: C8_8  and  C9_9 
REMARK    7  A    between atoms: C13_13  and  C14_14 
REMARK    8  A    between atoms: C14_14  and  O2_16 
REMARK    9  A    between atoms: O2_16  and  C15_17 
REMARK   10  A    between atoms: C15_17  and  C16_18 
REMARK   11  A    between atoms: C18_20  and  N1_21 
REMARK       I    between atoms: N1_21  and  C19_23 
REMARK   12  A    between atoms: C21_26  and  O4_27 
REMARK   13  A    between atoms: C22_29  and  O5_30 
REMARK   14  A    between atoms: C23_32  and  O6_33 
REMARK   15  A    between atoms: C24_35  and  O7_36 
ROOT
HETATM    1  C16 UNL     1      -2.977   0.469  -0.211  1.00  0.00     0.043 C 
HETATM    2  C17 UNL     1      -3.855   1.613   0.162  1.00  0.00     0.037 C 
HETATM    3  C18 UNL     1      -5.310   1.293   0.349  1.00  0.00     0.116 C 
HETATM    4  C21 UNL     1      -6.032   1.289  -0.973  1.00  0.00     0.172 C 
HETATM    5  C22 UNL     1      -5.579   0.265  -1.944  1.00  0.00     0.180 C 
HETATM    6  C23 UNL     1      -4.168   0.472  -2.449  1.00  0.00     0.178 C 
HETATM    7  C24 UNL     1      -3.214  -0.181  -1.505  1.00  0.00     0.155 C 
ENDROOT
BRANCH   1   8
HETATM    8  C15 UNL     1      -1.549   0.924   0.020  1.00  0.00     0.185 C 
BRANCH   8   9
HETATM    9  O2  UNL     1      -0.610  -0.070  -0.300  1.00  0.00    -0.321 OA
BRANCH   9  10
HETATM   10  C14 UNL     1       0.764   0.228  -0.125  1.00  0.00     0.259 C 
HETATM   11  O1  UNL     1       0.957   1.386   0.310  1.00  0.00    -0.265 OA
BRANCH  10  12
HETATM   12  C13 UNL     1       1.797  -0.745  -0.434  1.00  0.00     0.124 C 
BRANCH  12  13
HETATM   13  C5  UNL     1       3.196  -0.491   0.048  1.00  0.00    -0.011 C 
BRANCH  13  14
HETATM   14  C4  UNL     1       3.951  -1.698  -0.563  1.00  0.00    -0.020 C 
HETATM   15  C3  UNL     1       4.610  -2.578   0.129  1.00  0.00    -0.030 C 
BRANCH  15  16
HETATM   16  C2  UNL     1       5.324  -3.731  -0.524  1.00  0.00     0.022 C 
HETATM   17  C1  UNL     1       4.770  -5.043  -0.017  1.00  0.00     0.009 C 
ENDBRANCH  15  16
ENDBRANCH  13  14
BRANCH  13  18
HETATM   18  C6  UNL     1       3.428  -0.590   1.501  1.00  0.00     0.010 C 
HETATM   19  C7  UNL     1       2.880   0.384   2.449  1.00  0.00     0.006 C 
ENDBRANCH  13  18
BRANCH  13  20
HETATM   20  C8  UNL     1       3.783   0.679  -0.670  1.00  0.00     0.041 C 
BRANCH  20  21
HETATM   21  C9  UNL     1       5.225   0.817  -0.487  1.00  0.00    -0.024 C 
HETATM   22  C10 UNL     1       5.768   1.932  -0.049  1.00  0.00    -0.091 C 
HETATM   23  C11 UNL     1       7.271   2.041   0.133  1.00  0.00     0.042 C 
HETATM   24  C12 UNL     1       4.947   3.125   0.261  1.00  0.00     0.042 C 
ENDBRANCH  20  21
ENDBRANCH  13  20
ENDBRANCH  12  13
ENDBRANCH  10  12
ENDBRANCH   9  10
ENDBRANCH   8   9
ENDBRANCH   1   8
BRANCH   7  25
HETATM   25  O7  UNL     1      -2.007  -0.377  -2.216  1.00  0.00    -0.392 OA
ATOM     26  H7  UNL     1      -2.160  -0.798  -3.054  1.00  0.00     0.210 HD
ENDBRANCH   7  25
BRANCH   3  27
HETATM   27  N1  UNL     1      -5.574   0.176   1.187  1.00  0.00    -0.354 N 
HETATM   28  C19 UNL     1      -6.245   0.305   2.409  1.00  0.00     0.214 C 
HETATM   29  C20 UNL     1      -6.555  -0.807   3.330  1.00  0.00     0.117 C 
HETATM   30  O3  UNL     1      -6.627   1.461   2.775  1.00  0.00    -0.274 OA
ATOM     31  H1  UNL     1      -5.265  -0.749   0.889  1.00  0.00     0.162 HD
ENDBRANCH   3  27
BRANCH   6  32
HETATM   32  O6  UNL     1      -3.873   1.756  -2.809  1.00  0.00    -0.390 OA
ATOM     33  H6  UNL     1      -2.987   1.886  -3.126  1.00  0.00     0.210 HD
ENDBRANCH   6  32
BRANCH   4  34
HETATM   34  O4  UNL     1      -7.404   1.143  -0.783  1.00  0.00    -0.391 OA
ATOM     35  H4  UNL     1      -7.859   1.140  -1.617  1.00  0.00     0.210 HD
ENDBRANCH   4  34
BRANCH   5  36
HETATM   36  O5  UNL     1      -5.732  -1.027  -1.505  1.00  0.00    -0.390 OA
ATOM     37  H5  UNL     1      -5.442  -1.683  -2.127  1.00  0.00     0.210 HD
ENDBRANCH   5  36
TORSDOF 15
