REMARK  15 active torsions:
REMARK  status: ('A' for Active; 'I' for Inactive)
REMARK    1  A    between atoms: C2_2  and  C3_3 
REMARK    2  A    between atoms: C3_3  and  C4_4 
REMARK    3  A    between atoms: C4_4  and  C5_5 
REMARK    4  A    between atoms: C5_5  and  C6_6 
REMARK    5  A    between atoms: C6_6  and  C7_7 
REMARK    6  A    between atoms: C7_7  and  C8_8 
REMARK    7  A    between atoms: C8_8  and  C9_9 
REMARK    8  A    between atoms: C9_9  and  C10_10 
REMARK    9  A    between atoms: C10_10  and  C11_11 
REMARK   10  A    between atoms: C11_11  and  C12_12 
REMARK   11  A    between atoms: C18_21  and  O3_22 
REMARK   12  A    between atoms: C19_24  and  O4_25 
REMARK   13  A    between atoms: C20_27  and  O5_28 
REMARK   14  A    between atoms: C21_30  and  O6_31 
REMARK   15  A    between atoms: C24_35  and  O7_36 
ROOT
HETATM    1  C5  UNL     1      -0.788  -0.655  -0.270  1.00  0.00     0.100 C 
HETATM    2  O1  UNL     1      -1.079  -0.818   1.134  1.00  0.00    -0.290 OA
HETATM    3  C16 UNL     1      -2.331  -0.462   1.583  1.00  0.00     0.364 C 
HETATM    4  O2  UNL     1      -2.642  -0.519   2.827  1.00  0.00    -0.238 OA
HETATM    5  N1  UNL     1      -3.295  -0.021   0.640  1.00  0.00    -0.318 N 
HETATM    6  C17 UNL     1      -4.540  -0.603   1.168  1.00  0.00     0.163 C 
HETATM    7  C18 UNL     1      -5.628  -0.265   0.173  1.00  0.00     0.167 C 
HETATM    8  C19 UNL     1      -6.342   1.017   0.542  1.00  0.00     0.179 C 
HETATM    9  C20 UNL     1      -5.625   2.233   0.058  1.00  0.00     0.178 C 
HETATM   10  C21 UNL     1      -4.297   2.477   0.720  1.00  0.00     0.151 C 
HETATM   11  C22 UNL     1      -3.193   2.217  -0.238  1.00  0.00     0.062 C 
HETATM   12  C23 UNL     1      -2.845   0.775  -0.465  1.00  0.00     0.123 C 
HETATM   13  C24 UNL     1      -1.361   0.632  -0.706  1.00  0.00     0.176 C 
ENDROOT
BRANCH   1  14
HETATM   14  C4  UNL     1      -1.416  -1.817  -0.946  1.00  0.00     0.041 C 
BRANCH  14  15
HETATM   15  C3  UNL     1      -1.111  -1.984  -2.412  1.00  0.00     0.003 C 
BRANCH  15  16
HETATM   16  C2  UNL     1      -1.874  -3.271  -2.809  1.00  0.00    -0.004 C 
HETATM   17  C1  UNL     1      -1.670  -3.580  -4.261  1.00  0.00     0.005 C 
ENDBRANCH  15  16
ENDBRANCH  14  15
ENDBRANCH   1  14
BRANCH   1  18
HETATM   18  C6  UNL     1       0.728  -0.697  -0.345  1.00  0.00     0.041 C 
BRANCH  18  19
HETATM   19  C7  UNL     1       1.357   0.483   0.342  1.00  0.00     0.003 C 
BRANCH  19  20
HETATM   20  C8  UNL     1       2.867   0.405   0.248  1.00  0.00     0.000 C 
BRANCH  20  21
HETATM   21  C9  UNL     1       3.444  -0.811   0.875  1.00  0.00     0.000 C 
BRANCH  21  22
HETATM   22  C10 UNL     1       4.942  -0.804   0.722  1.00  0.00     0.001 C 
BRANCH  22  23
HETATM   23  C11 UNL     1       5.547   0.389   1.374  1.00  0.00     0.008 C 
BRANCH  23  24
HETATM   24  C12 UNL     1       7.059   0.418   1.251  1.00  0.00    -0.051 C 
HETATM   25  C13 UNL     1       7.546   1.672   1.951  1.00  0.00     0.014 C 
HETATM   26  C14 UNL     1       7.464   0.523  -0.204  1.00  0.00     0.014 C 
HETATM   27  C15 UNL     1       7.704  -0.798   1.868  1.00  0.00     0.014 C 
ENDBRANCH  23  24
ENDBRANCH  22  23
ENDBRANCH  21  22
ENDBRANCH  20  21
ENDBRANCH  19  20
ENDBRANCH  18  19
ENDBRANCH   1  18
BRANCH  13  28
HETATM   28  O7  UNL     1      -1.015   0.903  -2.016  1.00  0.00    -0.390 OA
ATOM     29  H7  UNL     1      -1.384   1.732  -2.297  1.00  0.00     0.210 HD
ENDBRANCH  13  28
BRANCH  10  30
HETATM   30  O6  UNL     1      -4.234   3.857   1.030  1.00  0.00    -0.393 OA
ATOM     31  H6  UNL     1      -3.395   4.011   1.448  1.00  0.00     0.210 HD
ENDBRANCH  10  30
BRANCH   7  32
HETATM   32  O3  UNL     1      -6.560  -1.289   0.170  1.00  0.00    -0.391 OA
ATOM     33  H3  UNL     1      -7.243  -1.077  -0.455  1.00  0.00     0.210 HD
ENDBRANCH   7  32
BRANCH   9  34
HETATM   34  O5  UNL     1      -6.479   3.325   0.252  1.00  0.00    -0.390 OA
ATOM     35  H5  UNL     1      -6.023   4.099  -0.056  1.00  0.00     0.210 HD
ENDBRANCH   9  34
BRANCH   8  36
HETATM   36  O4  UNL     1      -6.558   1.092   1.910  1.00  0.00    -0.390 OA
ATOM     37  H4  UNL     1      -7.006   1.897   2.142  1.00  0.00     0.210 HD
ENDBRANCH   8  36
TORSDOF 15
