REMARK  16 active torsions:
REMARK  status: ('A' for Active; 'I' for Inactive)
REMARK    1  A    between atoms: C2_2  and  C3_3 
REMARK    2  A    between atoms: C3_3  and  C4_4 
REMARK    3  A    between atoms: C3_3  and  C23_35 
REMARK    4  A    between atoms: C4_4  and  O1_5 
REMARK    5  A    between atoms: C5_7  and  C6_8 
REMARK    6  A    between atoms: C6_8  and  C8_10 
REMARK    7  A    between atoms: C8_10  and  C9_11 
REMARK    8  A    between atoms: C9_11  and  C10_12 
REMARK    9  A    between atoms: C9_11  and  C12_15 
REMARK   10  A    between atoms: C10_12  and  O2_13 
REMARK   11  A    between atoms: C15_18  and  C17_20 
REMARK   12  A    between atoms: C17_20  and  C18_21 
REMARK   13  A    between atoms: C18_21  and  O3_22 
REMARK   14  A    between atoms: C19_24  and  O4_25 
REMARK   15  A    between atoms: C21_28  and  O5_29 
REMARK   16  A    between atoms: C22_31  and  O6_32 
ROOT
HETATM    1  C12 UNL     1      -1.363  -1.078   0.809  1.00  0.00     0.132 C 
HETATM    2  C13 UNL     1      -2.204  -1.192   2.021  1.00  0.00     0.036 C 
HETATM    3  C14 UNL     1      -3.432  -0.391   1.639  1.00  0.00     0.041 C 
HETATM    4  C15 UNL     1      -3.007   0.427   0.475  1.00  0.00     0.072 C 
HETATM    5  C16 UNL     1      -2.799   1.859   0.891  1.00  0.00     0.047 C 
HETATM    6  O7  UNL     1      -1.772  -0.037   0.044  1.00  0.00    -0.373 OA
ENDROOT
BRANCH   1   7
HETATM    7  C9  UNL     1       0.150  -1.118   1.070  1.00  0.00     0.061 C 
BRANCH   7   8
HETATM    8  C8  UNL     1       0.582  -0.034   1.942  1.00  0.00    -0.011 C 
BRANCH   8   9
HETATM    9  C6  UNL     1       1.994   0.238   2.235  1.00  0.00    -0.063 C 
HETATM   10  C7  UNL     1       2.614  -0.592   3.325  1.00  0.00     0.048 C 
BRANCH   9  11
HETATM   11  C5  UNL     1       2.861   0.532   1.083  1.00  0.00     0.038 C 
HETATM   12  C4  UNL     1       3.889  -0.166   0.749  1.00  0.00     0.048 C 
BRANCH  12  13
HETATM   13  C3  UNL     1       4.826   0.077  -0.426  1.00  0.00     0.045 C 
BRANCH  13  14
HETATM   14  C2  UNL     1       6.174   0.288   0.274  1.00  0.00     0.007 C 
HETATM   15  C1  UNL     1       7.335   0.525  -0.603  1.00  0.00     0.006 C 
ENDBRANCH  13  14
BRANCH  13  16
HETATM   16  C23 UNL     1       4.377   1.214  -1.253  1.00  0.00    -0.012 C 
HETATM   17  C24 UNL     1       3.036   0.819  -1.909  1.00  0.00     0.010 C 
HETATM   18  C25 UNL     1       5.258   1.613  -2.405  1.00  0.00     0.010 C 
ENDBRANCH  13  16
ENDBRANCH  12  13
BRANCH  12  19
HETATM   19  O1  UNL     1       4.276  -1.289   1.473  1.00  0.00    -0.365 OA
ATOM     20  H1  UNL     1       3.691  -1.441   2.206  1.00  0.00     0.217 HD
ENDBRANCH  12  19
ENDBRANCH   9  11
ENDBRANCH   8   9
ENDBRANCH   7   8
BRANCH   7  21
HETATM   21  C10 UNL     1       0.496  -2.517   1.397  1.00  0.00     0.178 C 
BRANCH  21  22
HETATM   22  O2  UNL     1       0.036  -3.478   0.507  1.00  0.00    -0.395 OA
HETATM   23  C11 UNL     1       0.518  -3.392  -0.766  1.00  0.00     0.201 C 
ENDBRANCH  21  22
ENDBRANCH   7  21
ENDBRANCH   1   7
BRANCH   4  24
HETATM   24  C17 UNL     1      -3.977   0.274  -0.660  1.00  0.00     0.066 C 
HETATM   25  C19 UNL     1      -3.601   1.062  -1.876  1.00  0.00     0.137 C 
HETATM   26  C20 UNL     1      -4.900   1.459  -2.490  1.00  0.00     0.067 C 
HETATM   27  C21 UNL     1      -5.852   1.602  -1.339  1.00  0.00     0.150 C 
HETATM   28  C22 UNL     1      -5.396   0.603  -0.289  1.00  0.00     0.163 C 
BRANCH  24  29
HETATM   29  C18 UNL     1      -3.977  -1.181  -1.091  1.00  0.00     0.181 C 
BRANCH  29  30
HETATM   30  O3  UNL     1      -4.902  -1.320  -2.161  1.00  0.00    -0.400 OA
ATOM     31  H3  UNL     1      -4.902  -2.231  -2.431  1.00  0.00     0.209 HD
ENDBRANCH  29  30
ENDBRANCH  24  29
BRANCH  25  32
HETATM   32  O4  UNL     1      -2.868   2.205  -1.638  1.00  0.00    -0.394 OA
ATOM     33  H4  UNL     1      -2.629   2.705  -2.410  1.00  0.00     0.210 HD
ENDBRANCH  25  32
BRANCH  27  34
HETATM   34  O5  UNL     1      -7.176   1.380  -1.717  1.00  0.00    -0.393 OA
ATOM     35  H5  UNL     1      -7.779   1.471  -0.988  1.00  0.00     0.210 HD
ENDBRANCH  27  34
BRANCH  28  36
HETATM   36  O6  UNL     1      -5.565   1.065   0.989  1.00  0.00    -0.392 OA
ATOM     37  H6  UNL     1      -6.462   1.273   1.223  1.00  0.00     0.210 HD
ENDBRANCH  28  36
ENDBRANCH   4  24
TORSDOF 16
