REMARK  5 active torsions:
REMARK  status: ('A' for Active; 'I' for Inactive)
REMARK    1  A    between atoms: C2_5  and  N3_6 
REMARK       I    between atoms: N3_6  and  C3_8 
REMARK    2  A    between atoms: C3_8  and  C4_10 
REMARK    3  A    between atoms: C5_17  and  C6_18 
REMARK    4  A    between atoms: C6_18  and  N7_19 
REMARK    5  A    between atoms: N7_19  and  S1_21 
ROOT
HETATM    1  C4  UNL     1       0.866  -0.938   0.725  1.00  0.00     0.143 A 
HETATM    2  N4  UNL     1       0.690  -1.952   1.620  1.00  0.00    -0.279 N 
ATOM      3  H4  UNL     1      -0.218  -2.328   1.893  1.00  0.00     0.189 HD
HETATM    4  N5  UNL     1       1.832  -2.378   2.082  1.00  0.00    -0.242 N 
ATOM      5  H5  UNL     1       1.973  -3.125   2.762  1.00  0.00     0.208 HD
HETATM    6  N6  UNL     1       2.767  -1.657   1.501  1.00  0.00    -0.286 N 
ATOM      7  H6  UNL     1       3.768  -1.765   1.667  1.00  0.00     0.188 HD
HETATM    8  C5  UNL     1       2.230  -0.764   0.664  1.00  0.00     0.079 A 
ENDROOT
BRANCH   1   9
HETATM    9  C3  UNL     1      -0.185  -0.235   0.021  1.00  0.00     0.274 C 
HETATM   10  N3  UNL     1      -1.529  -0.572   0.230  1.00  0.00    -0.318 N 
ATOM     11  H3  UNL     1      -1.759  -1.320   0.884  1.00  0.00     0.166 HD
HETATM   12  O1  UNL     1       0.120   0.678  -0.774  1.00  0.00    -0.266 OA
BRANCH  10  13
HETATM   13  C2  UNL     1      -2.608   0.122  -0.467  1.00  0.00     0.294 A 
HETATM   14  N2  UNL     1      -3.455   0.771   0.480  1.00  0.00    -0.327 N 
HETATM   15  C1  UNL     1      -4.699   0.660   0.624  1.00  0.00     0.192 A 
ATOM     16  H2  UNL     1      -2.990   1.409   1.125  1.00  0.00     0.166 HD
HETATM   17  N1  UNL     1      -5.426   1.378   1.626  1.00  0.00    -0.063 NA
HETATM   18  N9  UNL     1      -5.390  -0.225  -0.262  1.00  0.00    -0.327 N 
HETATM   19  C7  UNL     1      -4.600  -0.898  -1.226  1.00  0.00     0.181 A 
ATOM     20  H9  UNL     1      -6.399  -0.364  -0.203  1.00  0.00     0.169 HD
HETATM   21  N8  UNL     1      -3.339  -0.747  -1.325  1.00  0.00    -0.348 N 
ATOM     22  H8  UNL     1      -2.836  -1.267  -2.044  1.00  0.00     0.164 HD
ENDBRANCH  10  13
ENDBRANCH   1   9
BRANCH   8  23
HETATM   23  C6  UNL     1       2.935   0.214  -0.163  1.00  0.00     0.195 C 
BRANCH  23  24
HETATM   24  N7  UNL     1       4.383   0.078   0.060  1.00  0.00    -0.295 N 
ATOM     25  H7  UNL     1       4.814  -0.595   0.693  1.00  0.00     0.175 HD
BRANCH  24  26
HETATM   26  S1  UNL     1       5.248   1.220  -0.902  1.00  0.00     0.204 S 
HETATM   27  O2  UNL     1       6.517   1.622  -0.168  1.00  0.00    -0.578 OA
HETATM   28  O3  UNL     1       4.442   2.479  -1.131  1.00  0.00    -0.578 OA
HETATM   29  O4  UNL     1       5.644   0.608  -2.404  1.00  0.00    -0.578 OA
ENDBRANCH  24  26
ENDBRANCH  23  24
ENDBRANCH   8  23
TORSDOF 5
