REMARK  9 active torsions:
REMARK  status: ('A' for Active; 'I' for Inactive)
REMARK    1  A    between atoms: N1_2  and  C2_4 
REMARK    2  A    between atoms: C2_4  and  N2_6 
REMARK    3  A    between atoms: N2_6  and  N3_8 
REMARK    4  A    between atoms: N3_8  and  C3_10 
REMARK    5  A    between atoms: C3_10  and  N4_12 
REMARK    6  A    between atoms: N4_12  and  C4_14 
REMARK    7  A    between atoms: C4_14  and  C5_15 
REMARK    8  A    between atoms: C5_15  and  C6_16 
REMARK    9  A    between atoms: C6_16  and  C8_18 
ROOT
HETATM    1  N4  UNL     1       2.167  -0.009   1.827  1.00  0.00    -0.366 N 
ATOM      2  H4  UNL     1       1.418  -0.440   2.369  1.00  0.00     0.161 HD
ENDROOT
BRANCH   1   3
HETATM    3  C3  UNL     1       3.218   0.504   2.580  1.00  0.00     0.186 C 
HETATM    4  S2  UNL     1       3.084   0.340   4.242  1.00  0.00    -0.040 SA
BRANCH   3   5
HETATM    5  N3  UNL     1       4.357   1.132   2.120  1.00  0.00    -0.274 N 
ATOM      6  H3  UNL     1       5.037   1.454   2.808  1.00  0.00     0.189 HD
BRANCH   5   7
HETATM    7  N2  UNL     1       4.634   1.352   0.777  1.00  0.00    -0.274 N 
ATOM      8  H2  UNL     1       4.193   2.141   0.305  1.00  0.00     0.189 HD
BRANCH   7   9
HETATM    9  C2  UNL     1       5.513   0.511   0.039  1.00  0.00     0.186 C 
HETATM   10  S1  UNL     1       6.248  -0.765   0.754  1.00  0.00    -0.040 SA
BRANCH   9  11
HETATM   11  N1  UNL     1       5.752   0.787  -1.323  1.00  0.00    -0.370 N 
HETATM   12  C1  UNL     1       6.657  -0.073  -2.096  1.00  0.00     0.148 C 
ATOM     13  H1  UNL     1       5.297   1.583  -1.771  1.00  0.00     0.161 HD
ENDBRANCH   9  11
ENDBRANCH   7   9
ENDBRANCH   5   7
ENDBRANCH   3   5
ENDBRANCH   1   3
BRANCH   1  14
HETATM   14  C4  UNL     1       1.976  -0.025   0.410  1.00  0.00     0.122 C 
BRANCH  14  15
HETATM   15  C5  UNL     1       0.660  -0.485  -0.068  1.00  0.00     0.024 C 
BRANCH  15  16
HETATM   16  C6  UNL     1      -0.563   0.303   0.232  1.00  0.00    -0.012 C 
HETATM   17  C7  UNL     1      -0.884   0.470   1.656  1.00  0.00     0.010 C 
BRANCH  16  18
HETATM   18  C8  UNL     1      -1.655  -0.302  -0.607  1.00  0.00    -0.002 C 
HETATM   19  C9  UNL     1      -1.919  -1.765  -0.294  1.00  0.00     0.010 C 
HETATM   20  C10 UNL     1      -3.412  -1.836  -0.546  1.00  0.00    -0.010 C 
HETATM   21  C11 UNL     1      -3.633  -1.478  -1.979  1.00  0.00     0.006 C 
HETATM   22  C15 UNL     1      -3.842  -0.533   0.152  1.00  0.00    -0.006 C 
HETATM   23  C12 UNL     1      -3.559   0.039  -2.062  1.00  0.00     0.010 C 
HETATM   24  C13 UNL     1      -2.941   0.388  -0.688  1.00  0.00    -0.036 C 
HETATM   25  C14 UNL     1      -3.050   1.811  -0.373  1.00  0.00     0.016 C 
HETATM   26  C16 UNL     1      -5.292  -0.243  -0.060  1.00  0.00     0.011 C 
ENDBRANCH  16  18
ENDBRANCH  15  16
ENDBRANCH  14  15
ENDBRANCH   1  14
TORSDOF 9
