REMARK  4 active torsions:
REMARK  status: ('A' for Active; 'I' for Inactive)
REMARK    1  A    between atoms: C2_2  and  N1_3 
REMARK    2  A    between atoms: C2_2  and  C10_17 
REMARK       I    between atoms: N1_3  and  C3_5 
REMARK       I    between atoms: C3_5  and  N2_7 
REMARK    3  A    between atoms: N2_7  and  C4_9 
REMARK    4  A    between atoms: C4_9  and  C5_10 
ROOT
HETATM    1  N1  UNL     1       0.283  -0.054  -0.118  1.00  0.00    -0.313 N 
ATOM      2  H1  UNL     1      -0.089   0.646  -0.760  1.00  0.00     0.170 HD
HETATM    3  C3  UNL     1       1.673  -0.151  -0.083  1.00  0.00     0.321 C 
HETATM    4  O1  UNL     1       2.295  -0.938   0.630  1.00  0.00    -0.247 OA
HETATM    5  N2  UNL     1       2.453   0.711  -0.924  1.00  0.00    -0.323 N 
ATOM      6  H2  UNL     1       1.955   1.368  -1.524  1.00  0.00     0.165 HD
ENDROOT
BRANCH   1   7
HETATM    7  C2  UNL     1      -0.688  -0.787   0.609  1.00  0.00     0.013 C 
HETATM    8  C1  UNL     1      -0.369  -1.714   1.466  1.00  0.00     0.039 C 
BRANCH   7   9
HETATM    9  C10 UNL     1      -2.148  -0.483   0.383  1.00  0.00     0.003 C 
HETATM   10  C11 UNL     1      -2.985  -1.347   1.246  1.00  0.00     0.020 C 
HETATM   11  C12 UNL     1      -4.477  -1.011   1.039  1.00  0.00    -0.013 C 
HETATM   12  C13 UNL     1      -4.636   0.422   1.426  1.00  0.00     0.009 C 
HETATM   13  C17 UNL     1      -4.815  -1.327  -0.376  1.00  0.00     0.009 C 
HETATM   14  C14 UNL     1      -3.846   1.288   0.504  1.00  0.00    -0.013 C 
HETATM   15  C15 UNL     1      -4.268   0.982  -0.935  1.00  0.00     0.009 C 
HETATM   16  C19 UNL     1      -2.365   0.984   0.586  1.00  0.00     0.020 C 
HETATM   17  C16 UNL     1      -3.945  -0.437  -1.268  1.00  0.00    -0.013 C 
HETATM   18  C18 UNL     1      -2.500  -0.781  -1.080  1.00  0.00     0.020 C 
ENDBRANCH   7   9
ENDBRANCH   1   7
BRANCH   5  19
HETATM   19  C4  UNL     1       3.893   0.710  -0.977  1.00  0.00     0.122 C 
HETATM   20  C6  UNL     1       4.508  -0.591  -1.324  1.00  0.00     0.042 C 
HETATM   21  C7  UNL     1       5.495  -0.912  -0.263  1.00  0.00     0.003 C 
HETATM   22  C8  UNL     1       5.843   0.401   0.379  1.00  0.00     0.003 C 
HETATM   23  C9  UNL     1       4.512   1.111   0.372  1.00  0.00     0.042 C 
BRANCH  19  24
HETATM   24  C5  UNL     1       4.326   1.736  -1.982  1.00  0.00     0.202 C 
HETATM   25  O2  UNL     1       3.457   2.402  -2.582  1.00  0.00    -0.646 OA
HETATM   26  O3  UNL     1       5.664   1.940  -2.237  1.00  0.00    -0.646 OA
ENDBRANCH  19  24
ENDBRANCH   5  19
TORSDOF 4
