REMARK  8 active torsions:
REMARK  status: ('A' for Active; 'I' for Inactive)
REMARK    1  A    between atoms: N1_1  and  S1_4 
REMARK    2  A    between atoms: C4_10  and  C5_11 
REMARK    3  A    between atoms: C5_11  and  N2_12 
REMARK    4  A    between atoms: N2_12  and  C6_14 
REMARK    5  A    between atoms: C6_14  and  N3_16 
REMARK    6  A    between atoms: N3_16  and  C7_18 
REMARK    7  A    between atoms: C7_18  and  C8_19 
REMARK    8  A    between atoms: C8_19  and  C9_20 
ROOT
HETATM    1  N2  UNL     1      -1.087  -1.458  -0.795  1.00  0.00    -0.365 N 
ATOM      2  H2  UNL     1      -0.596  -0.658  -0.395  1.00  0.00     0.161 HD
ENDROOT
BRANCH   1   3
HETATM    3  C5  UNL     1      -2.485  -1.348  -1.136  1.00  0.00     0.147 C 
BRANCH   3   4
HETATM    4  C4  UNL     1      -3.019   0.047  -0.811  1.00  0.00     0.112 C 
HETATM    5  C3  UNL     1      -4.456   0.108  -1.178  1.00  0.00     0.065 C 
HETATM    6  C2  UNL     1      -5.391   0.119   0.005  1.00  0.00     0.186 C 
HETATM    7  C1  UNL     1      -5.300   1.401   0.792  1.00  0.00     0.176 C 
HETATM    8  F1  UNL     1      -6.680   0.027  -0.485  1.00  0.00    -0.248 F 
HETATM    9  S1  UNL     1      -3.585   1.675   1.155  1.00  0.00     0.103 S 
HETATM   10  O1  UNL     1      -3.350   1.811   2.634  1.00  0.00    -0.229 OA
HETATM   11  N4  UNL     1      -2.694   0.358   0.541  1.00  0.00    -0.330 N 
ATOM     12  H4  UNL     1      -2.000  -0.154   1.085  1.00  0.00     0.171 HD
BRANCH   9  13
HETATM   13  N1  UNL     1      -3.139   3.046   0.525  1.00  0.00    -0.345 N 
ATOM     14  H12 UNL     1      -2.769   3.852   1.029  1.00  0.00     0.167 HD
ATOM     15  H11 UNL     1      -3.298   2.954  -0.478  1.00  0.00     0.167 HD
ENDBRANCH   9  13
ENDBRANCH   3   4
ENDBRANCH   1   3
BRANCH   1  16
HETATM   16  C6  UNL     1      -0.405  -2.657  -1.011  1.00  0.00     0.167 C 
HETATM   17  S2  UNL     1      -1.257  -3.929  -1.658  1.00  0.00    -0.041 SA
BRANCH  16  18
HETATM   18  N3  UNL     1       0.960  -2.917  -0.737  1.00  0.00    -0.367 N 
ATOM     19  H3  UNL     1       1.312  -3.853  -0.936  1.00  0.00     0.161 HD
BRANCH  18  20
HETATM   20  C7  UNL     1       1.889  -1.953  -0.197  1.00  0.00     0.122 C 
BRANCH  20  21
HETATM   21  C8  UNL     1       2.208  -0.928  -1.233  1.00  0.00     0.024 C 
BRANCH  21  22
HETATM   22  C9  UNL     1       3.181   0.124  -0.733  1.00  0.00    -0.013 C 
HETATM   23  C10 UNL     1       2.625   0.853   0.445  1.00  0.00     0.005 C 
HETATM   24  C11 UNL     1       3.559   2.000   0.818  1.00  0.00     0.000 C 
HETATM   25  C12 UNL     1       4.996   1.549   0.860  1.00  0.00     0.000 C 
HETATM   26  C13 UNL     1       5.043   0.041   0.915  1.00  0.00     0.000 C 
HETATM   27  C14 UNL     1       4.535  -0.448  -0.447  1.00  0.00     0.005 C 
ENDBRANCH  21  22
ENDBRANCH  20  21
ENDBRANCH  18  20
ENDBRANCH  16  18
ENDBRANCH   1  16
TORSDOF 8
