REMARK  6 active torsions:
REMARK  status: ('A' for Active; 'I' for Inactive)
REMARK    1  A    between atoms: C2_2  and  C3_3 
REMARK    2  A    between atoms: C3_3  and  C4_4 
REMARK    3  A    between atoms: C4_4  and  N1_5 
REMARK       I    between atoms: N1_5  and  C5_7 
REMARK       I    between atoms: C5_7  and  N2_9 
REMARK    4  A    between atoms: N2_9  and  C6_11 
REMARK    5  A    between atoms: C12_17  and  N3_18 
REMARK    6  A    between atoms: N3_18  and  C13_20 
ROOT
HETATM    1  C6  UNL     1      -0.004  -1.100  -0.404  1.00  0.00     0.095 C 
HETATM    2  C7  UNL     1      -0.720  -2.132   0.429  1.00  0.00     0.011 C 
HETATM    3  C8  UNL     1      -0.880  -3.456  -0.267  1.00  0.00     0.011 C 
HETATM    4  C9  UNL     1      -1.320  -3.350  -1.685  1.00  0.00    -0.013 C 
HETATM    5  C10 UNL     1      -2.585  -2.589  -1.909  1.00  0.00     0.011 C 
HETATM    6  C11 UNL     1      -2.150  -1.142  -1.678  1.00  0.00     0.015 C 
HETATM    7  C12 UNL     1      -2.686  -0.764  -0.326  1.00  0.00     0.088 C 
HETATM    8  C17 UNL     1      -2.057  -1.525   0.807  1.00  0.00     0.032 C 
HETATM    9  C18 UNL     1      -0.647  -1.119  -1.768  1.00  0.00     0.015 C 
HETATM   10  C19 UNL     1      -0.319  -2.440  -2.415  1.00  0.00     0.011 C 
ENDROOT
BRANCH   7  11
HETATM   11  N3  UNL     1      -2.726   0.667  -0.105  1.00  0.00    -0.370 N 
ATOM     12  H3  UNL     1      -2.049   1.249  -0.599  1.00  0.00     0.161 HD
BRANCH  11  13
HETATM   13  C13 UNL     1      -3.558   1.240   0.671  1.00  0.00     0.125 A 
HETATM   14  N4  UNL     1      -4.512   0.646   1.397  1.00  0.00    -0.284 N 
HETATM   15  N5  UNL     1      -5.189   1.569   2.088  1.00  0.00    -0.288 N 
ATOM     16  H4  UNL     1      -4.695  -0.357   1.420  1.00  0.00     0.188 HD
HETATM   17  C14 UNL     1      -4.700   2.793   1.836  1.00  0.00     0.127 A 
ATOM     18  H5  UNL     1      -5.967   1.371   2.717  1.00  0.00     0.188 HD
HETATM   19 CL1  UNL     1      -5.253   4.302   2.498  1.00  0.00    -0.062 Cl
HETATM   20  C15 UNL     1      -3.656   2.584   0.928  1.00  0.00     0.023 A 
HETATM   21  C16 UNL     1      -2.838   3.684   0.382  1.00  0.00     0.056 C 
ENDBRANCH  11  13
ENDBRANCH   7  11
BRANCH   1  22
HETATM   22  N2  UNL     1       1.404  -1.325  -0.385  1.00  0.00    -0.338 N 
HETATM   23  C5  UNL     1       2.345  -0.364   0.066  1.00  0.00     0.316 C 
HETATM   24  N1  UNL     1       3.734  -0.607   0.076  1.00  0.00    -0.343 N 
HETATM   25  O1  UNL     1       1.914   0.738   0.468  1.00  0.00    -0.247 OA
ATOM     26  H1  UNL     1       4.048  -1.519  -0.256  1.00  0.00     0.164 HD
ATOM     27  H2  UNL     1       1.753  -2.225  -0.713  1.00  0.00     0.164 HD
BRANCH  24  28
HETATM   28  C4  UNL     1       4.742   0.310   0.510  1.00  0.00     0.124 C 
BRANCH  28  29
HETATM   29  C3  UNL     1       4.755   1.590  -0.298  1.00  0.00     0.019 C 
BRANCH  29  30
HETATM   30  C2  UNL     1       5.864   2.510   0.233  1.00  0.00    -0.003 C 
HETATM   31  C1  UNL     1       5.617   2.837   1.675  1.00  0.00     0.005 C 
ENDBRANCH  29  30
ENDBRANCH  28  29
ENDBRANCH  24  28
ENDBRANCH   1  22
TORSDOF 6
