REMARK  5 active torsions:
REMARK  status: ('A' for Active; 'I' for Inactive)
REMARK       I    between atoms: C2_4  and  N2_5 
REMARK       I    between atoms: C2_4  and  N8_27 
REMARK    1  A    between atoms: N2_5  and  C3_7 
REMARK    2  A    between atoms: C3_7  and  C4_8 
REMARK    3  A    between atoms: C4_8  and  C5_9 
REMARK    4  A    between atoms: C5_9  and  N3_10 
REMARK       I    between atoms: N3_10  and  C6_12 
REMARK       I    between atoms: N5_14  and  C7_16 
REMARK       I    between atoms: C7_16  and  N7_20 
REMARK    5  A    between atoms: N7_20  and  C8_22 
ROOT
HETATM    1  C5  UNL     1      -0.264   2.808  -0.372  1.00  0.00     0.124 C 
ENDROOT
BRANCH   1   2
HETATM    2  C4  UNL     1       1.076   2.922   0.295  1.00  0.00     0.040 C 
BRANCH   2   3
HETATM    3  C3  UNL     1       1.883   1.659   0.263  1.00  0.00     0.139 C 
BRANCH   3   4
HETATM    4  N2  UNL     1       2.123   1.270  -1.088  1.00  0.00    -0.226 N 
HETATM    5  C2  UNL     1       2.861   0.122  -1.441  1.00  0.00     0.672 C 
HETATM    6  N1  UNL     1       3.329   0.010  -2.660  1.00  0.00    -0.231 N 
HETATM    7  N8  UNL     1       3.147  -0.943  -0.576  1.00  0.00    -0.209 N 
HETATM    8  C1  UNL     1       3.081   1.067  -3.628  1.00  0.00     0.165 C 
ATOM      9  H1  UNL     1       3.865  -0.815  -2.929  1.00  0.00     0.177 HD
HETATM   10  C13 UNL     1       2.529  -2.199  -0.237  1.00  0.00     0.145 C 
HETATM   11  C15 UNL     1       4.191  -1.263   0.359  1.00  0.00     0.051 C 
HETATM   12  C14 UNL     1       3.963  -2.727  -0.053  1.00  0.00     0.052 C 
HETATM   13  C16 UNL     1       3.911  -1.030   1.814  1.00  0.00     0.032 C 
HETATM   14  C19 UNL     1       5.548  -0.723   0.060  1.00  0.00     0.032 C 
HETATM   15  C17 UNL     1       4.894  -0.003   2.284  1.00  0.00     0.002 C 
HETATM   16  C18 UNL     1       5.927   0.178   1.202  1.00  0.00     0.002 C 
ATOM     17  H2  UNL     1       1.742   1.851  -1.835  1.00  0.00     0.177 HD
ENDBRANCH   3   4
ENDBRANCH   2   3
ENDBRANCH   1   2
BRANCH   1  18
HETATM   18  N3  UNL     1      -1.111   1.819   0.216  1.00  0.00    -0.364 N 
HETATM   19  C6  UNL     1      -2.412   1.583  -0.295  1.00  0.00     0.202 C 
HETATM   20  N4  UNL     1      -2.632   1.650  -1.697  1.00  0.00    -0.063 NA
HETATM   21  N5  UNL     1      -3.404   1.309   0.492  1.00  0.00    -0.164 N 
HETATM   22  C7  UNL     1      -4.702   1.071   0.021  1.00  0.00     0.674 C 
ATOM     23  H5  UNL     1      -3.233   1.265   1.497  1.00  0.00     0.187 HD
HETATM   24  N6  UNL     1      -5.676   1.798   0.417  1.00  0.00    -0.235 N 
HETATM   25  N7  UNL     1      -4.984   0.024  -0.905  1.00  0.00    -0.222 N 
ATOM     26  H62 UNL     1      -5.474   2.547   1.079  1.00  0.00     0.174 HD
ATOM     27  H61 UNL     1      -6.621   1.625   0.074  1.00  0.00     0.174 HD
ATOM     28  H7  UNL     1      -4.916   0.228  -1.902  1.00  0.00     0.178 HD
ATOM     29  H3  UNL     1      -0.776   1.277   1.012  1.00  0.00     0.162 HD
BRANCH  25  30
HETATM   30  C8  UNL     1      -5.358  -1.301  -0.505  1.00  0.00     0.099 C 
HETATM   31  C9  UNL     1      -4.286  -1.958   0.343  1.00  0.00     0.026 C 
HETATM   32  C10 UNL     1      -5.002  -2.573   1.520  1.00  0.00     0.002 C 
HETATM   33  C11 UNL     1      -6.133  -1.595   1.761  1.00  0.00     0.002 C 
HETATM   34  C12 UNL     1      -6.621  -1.297   0.353  1.00  0.00     0.026 C 
ENDBRANCH  25  30
ENDBRANCH   1  18
TORSDOF 5
