REMARK  4 active torsions:
REMARK  status: ('A' for Active; 'I' for Inactive)
REMARK    1  A    between atoms: C3_3  and  N1_4 
REMARK       I    between atoms: N1_4  and  C4_6 
REMARK    2  A    between atoms: C4_6  and  C5_8 
REMARK    3  A    between atoms: C14_17  and  C15_18 
REMARK    4  A    between atoms: C17_22  and  N3_23 
ROOT
HETATM    1  C1  UNL     1       5.990   1.910   1.599  1.00  0.00     0.014 C 
HETATM    2  C2  UNL     1       5.479   1.599   0.548  1.00  0.00    -0.098 C 
HETATM    3  C3  UNL     1       4.820   1.180  -0.714  1.00  0.00     0.216 C 
ENDROOT
BRANCH   3   4
HETATM    4  N1  UNL     1       3.481   0.731  -0.468  1.00  0.00    -0.350 N 
HETATM    5  C4  UNL     1       2.588   0.240  -1.442  1.00  0.00     0.227 C 
HETATM    6  O1  UNL     1       2.944   0.183  -2.634  1.00  0.00    -0.273 OA
ATOM      7  H1  UNL     1       3.146   0.770   0.494  1.00  0.00     0.163 HD
BRANCH   5   8
HETATM    8  C5  UNL     1       1.271  -0.171  -0.901  1.00  0.00     0.043 C 
HETATM    9  C6  UNL     1       1.549  -1.209   0.143  1.00  0.00     0.024 C 
HETATM   10  C7  UNL     1       0.353  -1.570   1.009  1.00  0.00    -0.012 C 
HETATM   11  C8  UNL     1      -0.322  -2.785   0.561  1.00  0.00     0.009 C 
HETATM   12  C18 UNL     1      -0.476  -0.355   1.234  1.00  0.00     0.021 C 
HETATM   13  C9  UNL     1      -1.653  -2.681  -0.085  1.00  0.00    -0.018 C 
HETATM   14  C10 UNL     1      -2.687  -2.777   1.054  1.00  0.00     0.010 C 
HETATM   15  C11 UNL     1      -1.928  -1.588  -1.003  1.00  0.00     0.010 C 
HETATM   16  C12 UNL     1      -1.028  -0.452  -1.209  1.00  0.00     0.002 C 
HETATM   17  C13 UNL     1       0.292  -0.699  -1.896  1.00  0.00     0.025 C 
HETATM   18  C14 UNL     1      -0.781   0.420  -0.028  1.00  0.00     0.009 C 
HETATM   19  C19 UNL     1       0.561   1.054  -0.405  1.00  0.00     0.035 C 
BRANCH  18  20
HETATM   20  C15 UNL     1      -1.780   1.478   0.212  1.00  0.00     0.051 A 
HETATM   21  C16 UNL     1      -2.299   1.821   1.456  1.00  0.00     0.132 A 
HETATM   22  N2  UNL     1      -3.164   2.820   1.259  1.00  0.00    -0.200 N 
HETATM   23  C17 UNL     1      -3.174   3.078  -0.047  1.00  0.00     0.675 A 
ATOM     24  H2  UNL     1      -3.713   3.296   1.975  1.00  0.00     0.183 HD
HETATM   25  N4  UNL     1      -2.327   2.258  -0.701  1.00  0.00    -0.194 N 
ATOM     26  H4  UNL     1      -2.145   2.243  -1.704  1.00  0.00     0.184 HD
BRANCH  23  27
HETATM   27  N3  UNL     1      -3.874   3.977  -0.686  1.00  0.00    -0.234 N 
ATOM     28  H32 UNL     1      -4.515   4.597  -0.191  1.00  0.00     0.174 HD
ATOM     29  H31 UNL     1      -3.882   4.175  -1.687  1.00  0.00     0.174 HD
ENDBRANCH  23  27
ENDBRANCH  18  20
ENDBRANCH   5   8
ENDBRANCH   3   4
TORSDOF 4
