REMARK  5 active torsions:
REMARK  status: ('A' for Active; 'I' for Inactive)
REMARK    1  A    between atoms: N1_2  and  C3_4 
REMARK    2  A    between atoms: C3_4  and  C4_8 
REMARK    3  A    between atoms: C4_8  and  C5_9 
REMARK    4  A    between atoms: C5_9  and  C6_10 
REMARK    5  A    between atoms: C8_12  and  N3_13 
REMARK       I    between atoms: N3_13  and  C9_15 
REMARK       I    between atoms: C9_15  and  N4_17 
ROOT
HETATM    1  C6  UNL     1      -0.884  -1.013  -0.777  1.00  0.00     0.030 A 
HETATM    2  C7  UNL     1       0.229  -0.638  -0.064  1.00  0.00     0.076 A 
HETATM    3  C8  UNL     1       1.120  -1.684  -0.100  1.00  0.00     0.125 A 
HETATM    4  N6  UNL     1       0.541  -2.657  -0.822  1.00  0.00    -0.285 N 
ATOM      5  H6  UNL     1       0.956  -3.565  -1.028  1.00  0.00     0.188 HD
HETATM    6  N7  UNL     1      -0.649  -2.254  -1.223  1.00  0.00    -0.303 N 
ATOM      7  H7  UNL     1      -1.294  -2.805  -1.789  1.00  0.00     0.186 HD
ENDROOT
BRANCH   1   8
HETATM    8  C5  UNL     1      -2.077  -0.203  -0.994  1.00  0.00     0.076 C 
BRANCH   8   9
HETATM    9  C4  UNL     1      -3.161  -0.363   0.038  1.00  0.00     0.023 C 
HETATM   10  C14 UNL     1      -3.587  -1.741   0.391  1.00  0.00     0.018 C 
HETATM   11  C15 UNL     1      -2.775  -1.684   1.671  1.00  0.00     0.002 C 
HETATM   12  C16 UNL     1      -2.705  -0.179   1.468  1.00  0.00     0.018 C 
BRANCH   9  13
HETATM   13  C3  UNL     1      -4.308   0.515  -0.300  1.00  0.00     0.081 C 
HETATM   14  N2  UNL     1      -5.483   0.111  -0.632  1.00  0.00    -0.388 N 
ATOM     15  H22 UNL     1      -6.272   0.715  -0.864  1.00  0.00     0.157 HD
ATOM     16  H21 UNL     1      -5.583  -0.904  -0.642  1.00  0.00     0.157 HD
BRANCH  13  17
HETATM   17  N1  UNL     1      -4.166   1.953  -0.286  1.00  0.00    -0.379 N 
HETATM   18  C1  UNL     1      -3.835   2.674  -1.494  1.00  0.00     0.150 C 
HETATM   19  C2  UNL     1      -4.374   2.608   0.985  1.00  0.00     0.150 C 
ENDBRANCH  13  17
ENDBRANCH   9  13
ENDBRANCH   8   9
ENDBRANCH   1   8
BRANCH   3  20
HETATM   20  N3  UNL     1       2.299  -1.791   0.428  1.00  0.00    -0.293 N 
HETATM   21  C9  UNL     1       2.862  -0.748   1.176  1.00  0.00     0.324 C 
HETATM   22  O1  UNL     1       2.217  -0.180   2.087  1.00  0.00    -0.247 OA
HETATM   23  N4  UNL     1       4.185  -0.308   0.914  1.00  0.00    -0.331 N 
HETATM   24  C10 UNL     1       4.789   0.760   1.662  1.00  0.00     0.155 C 
HETATM   25  C13 UNL     1       4.970  -0.936  -0.132  1.00  0.00     0.155 C 
HETATM   26  C11 UNL     1       6.210   0.943   1.139  1.00  0.00     0.252 C 
HETATM   27  N5  UNL     1       6.167   1.211  -0.306  1.00  0.00    -0.072 N 
HETATM   28  C12 UNL     1       5.611   0.099  -1.019  1.00  0.00     0.252 C 
ATOM     29  H52 UNL     1       5.670   2.077  -0.513  1.00  0.00     0.277 HD
ATOM     30  H51 UNL     1       7.085   1.469  -0.668  1.00  0.00     0.277 HD
ATOM     31  H3  UNL     1       2.828  -2.653   0.296  1.00  0.00     0.172 HD
ENDBRANCH   3  20
TORSDOF 5
