REMARK  4 active torsions:
REMARK  status: ('A' for Active; 'I' for Inactive)
REMARK    1  A    between atoms: C2_2  and  N1_3 
REMARK    2  A    between atoms: N1_3  and  C3_5 
REMARK    3  A    between atoms: C6_10  and  N3_11 
REMARK    4  A    between atoms: N3_11  and  C7_13 
ROOT
HETATM    1  C3  UNL     1       2.072   0.270  -0.105  1.00  0.00     0.118 A 
HETATM    2  C4  UNL     1       1.976   0.934  -1.300  1.00  0.00     0.066 A 
HETATM    3  C5  UNL     1       0.777   0.994  -1.985  1.00  0.00     0.110 A 
HETATM    4  N2  UNL     1      -0.305   0.394  -1.474  1.00  0.00    -0.202 N 
ATOM      5  H2  UNL     1      -1.194   0.432  -1.973  1.00  0.00     0.183 HD
HETATM    6  C6  UNL     1      -0.220  -0.255  -0.309  1.00  0.00     0.681 A 
HETATM    7  N6  UNL     1       0.931  -0.323   0.366  1.00  0.00    -0.177 N 
ATOM      8  H6  UNL     1       0.961  -0.828   1.252  1.00  0.00     0.185 HD
ENDROOT
BRANCH   6   9
HETATM    9  N3  UNL     1      -1.235  -0.850   0.225  1.00  0.00    -0.205 N 
ATOM     10  H3  UNL     1      -1.074  -1.321   1.115  1.00  0.00     0.179 HD
BRANCH   9  11
HETATM   11  C7  UNL     1      -2.557  -0.914  -0.305  1.00  0.00     0.196 C 
HETATM   12  C8  UNL     1      -3.285   0.350   0.062  1.00  0.00     0.075 C 
HETATM   13  C9  UNL     1      -4.596   0.482  -0.687  1.00  0.00     0.240 C 
HETATM   14  N4  UNL     1      -5.706  -0.009   0.107  1.00  0.00    -0.073 N 
HETATM   15  C10 UNL     1      -5.837   0.651   1.372  1.00  0.00     0.272 C 
HETATM   16  C11 UNL     1      -6.915   0.269  -0.668  1.00  0.00     0.272 C 
HETATM   17  C12 UNL     1      -5.608  -1.437   0.226  1.00  0.00     0.255 C 
HETATM   18  C13 UNL     1      -4.373  -1.895   0.960  1.00  0.00     0.144 C 
HETATM   19  N5  UNL     1      -3.242  -2.110   0.120  1.00  0.00    -0.399 N 
ATOM     20  H5  UNL     1      -2.939  -3.043  -0.160  1.00  0.00     0.155 HD
ENDBRANCH   9  11
ENDBRANCH   6   9
BRANCH   1  21
HETATM   21  N1  UNL     1       3.126   0.175   0.573  1.00  0.00    -0.367 N 
ATOM     22  H1  UNL     1       3.020  -0.355   1.438  1.00  0.00     0.162 HD
BRANCH  21  23
HETATM   23  C2  UNL     1       4.447   0.675   0.351  1.00  0.00     0.028 C 
HETATM   24  C1  UNL     1       4.382   2.207   0.247  1.00  0.00     0.038 C 
HETATM   25  C14 UNL     1       5.230   0.398   1.600  1.00  0.00     0.033 C 
HETATM   26  C15 UNL     1       6.644  -0.018   1.395  1.00  0.00     0.039 C 
HETATM   27  C16 UNL     1       6.580  -1.235   0.458  1.00  0.00     0.170 C 
HETATM   28  F1  UNL     1       7.773  -1.882   0.440  1.00  0.00    -0.249 F 
HETATM   29  C17 UNL     1       6.247  -0.649  -0.874  1.00  0.00     0.039 C 
HETATM   30  C18 UNL     1       4.997   0.143  -0.907  1.00  0.00     0.033 C 
ENDBRANCH  21  23
ENDBRANCH   1  21
TORSDOF 4
