REMARK  9 active torsions:
REMARK  status: ('A' for Active; 'I' for Inactive)
REMARK    1  A    between atoms: C2_2  and  C3_3 
REMARK    2  A    between atoms: C2_2  and  N2_14 
REMARK    3  A    between atoms: C3_3  and  N1_4 
REMARK       I    between atoms: N1_4  and  C4_6 
REMARK    4  A    between atoms: C4_6  and  C5_8 
REMARK    5  A    between atoms: N2_14  and  C9_16 
REMARK    6  A    between atoms: C9_16  and  O2_17 
REMARK    7  A    between atoms: C9_16  and  N3_19 
REMARK    8  A    between atoms: N3_19  and  C10_21 
REMARK    9  A    between atoms: C12_23  and  C13_24 
ROOT
HETATM    1  C9  UNL     1       0.225  -0.775   0.614  1.00  0.00     0.218 C 
ENDROOT
BRANCH   1   2
HETATM    2  N2  UNL     1       0.732  -2.016   0.321  1.00  0.00    -0.350 N 
ATOM      3  H2  UNL     1       0.253  -2.871   0.606  1.00  0.00     0.163 HD
BRANCH   2   4
HETATM    4  C2  UNL     1       2.068  -2.055  -0.464  1.00  0.00     0.098 C 
HETATM    5  C1  UNL     1       1.895  -0.922  -1.486  1.00  0.00     0.034 C 
BRANCH   4   6
HETATM    6  C3  UNL     1       3.022  -1.624   0.605  1.00  0.00     0.147 C 
BRANCH   6   7
HETATM    7  N1  UNL     1       4.257  -1.022   0.098  1.00  0.00    -0.354 N 
HETATM    8  C4  UNL     1       5.162  -0.602   1.083  1.00  0.00     0.260 C 
HETATM    9  O1  UNL     1       4.969  -0.838   2.306  1.00  0.00    -0.267 OA
ATOM     10  H1  UNL     1       4.445  -0.916  -0.899  1.00  0.00     0.162 HD
BRANCH   8  11
HETATM   11  C5  UNL     1       6.386   0.163   0.700  1.00  0.00     0.094 A 
HETATM   12  S1  UNL     1       7.594   0.679   1.849  1.00  0.00    -0.095 SA
HETATM   13  C6  UNL     1       8.565   1.628   0.822  1.00  0.00     0.052 A 
HETATM   14  C7  UNL     1       7.927   1.517  -0.374  1.00  0.00     0.032 A 
HETATM   15  C8  UNL     1       6.802   0.760  -0.439  1.00  0.00     0.057 A 
HETATM   16 CL1  UNL     1       5.903   0.579  -1.991  1.00  0.00    -0.083 Cl
ENDBRANCH   8  11
ENDBRANCH   6   7
ENDBRANCH   4   6
ENDBRANCH   2   4
ENDBRANCH   1   2
BRANCH   1  17
HETATM   17  O2  UNL     1       0.817   0.332   0.255  1.00  0.00    -0.332 OA
ATOM     18  H2  UNL     1       0.466   1.191   0.458  1.00  0.00     0.220 HD
ENDBRANCH   1  17
BRANCH   1  19
HETATM   19  N3  UNL     1      -0.952  -0.459   1.323  1.00  0.00    -0.307 N 
ATOM     20  H3  UNL     1      -0.969  -0.453   2.343  1.00  0.00     0.171 HD
BRANCH  19  21
HETATM   21  C10 UNL     1      -2.006  -0.178   0.636  1.00  0.00     0.124 A 
HETATM   22  C11 UNL     1      -3.233   0.170   1.130  1.00  0.00     0.077 A 
HETATM   23  C12 UNL     1      -4.103   0.324   0.045  1.00  0.00     0.037 A 
HETATM   24  N4  UNL     1      -3.378   0.054  -1.050  1.00  0.00    -0.302 N 
HETATM   25  N5  UNL     1      -2.136  -0.242  -0.713  1.00  0.00    -0.285 N 
ATOM     26  H4  UNL     1      -3.734   0.074  -2.006  1.00  0.00     0.186 HD
ATOM     27  H5  UNL     1      -1.390  -0.482  -1.366  1.00  0.00     0.188 HD
BRANCH  23  28
HETATM   28  C13 UNL     1      -5.515   0.777   0.039  1.00  0.00    -0.007 C 
HETATM   29  C14 UNL     1      -5.948   1.342   1.364  1.00  0.00     0.021 C 
HETATM   30  C15 UNL     1      -5.594   1.910  -1.006  1.00  0.00     0.021 C 
HETATM   31  C16 UNL     1      -6.401  -0.328  -0.465  1.00  0.00     0.021 C 
ENDBRANCH  23  28
ENDBRANCH  19  21
ENDBRANCH   1  19
TORSDOF 9
