REMARK  9 active torsions:
REMARK  status: ('A' for Active; 'I' for Inactive)
REMARK    1  A    between atoms: N5_15  and  C6_16 
REMARK    2  A    between atoms: C6_16  and  C7_17 
REMARK    3  A    between atoms: C7_17  and  O1_18 
REMARK    4  A    between atoms: C7_17  and  C8_20 
REMARK    5  A    between atoms: C8_20  and  N6_21 
REMARK    6  A    between atoms: C10_23  and  O2_24 
REMARK    7  A    between atoms: C11_26  and  N7_27 
REMARK       I    between atoms: N7_27  and  C12_29 
REMARK       I    between atoms: C12_29  and  N8_30 
REMARK       I    between atoms: C12_29  and  N9_34 
REMARK    8  A    between atoms: C13_40  and  N11_41 
REMARK    9  A    between atoms: N11_41  and  N12_43 
REMARK       I    between atoms: N12_43  and  C14_44 
ROOT
HETATM    1  N6  UNL     1      -0.603   0.196  -0.714  1.00  0.00    -0.186 N 
HETATM    2  C9  UNL     1      -0.333  -1.061  -0.345  1.00  0.00     0.149 A 
HETATM    3  C10 UNL     1      -1.232  -1.849   0.338  1.00  0.00     0.126 A 
HETATM    4  C11 UNL     1      -2.495  -1.332   0.673  1.00  0.00     0.154 A 
HETATM    5  N10 UNL     1      -2.721  -0.063   0.281  1.00  0.00    -0.172 N 
ATOM      6  H10 UNL     1      -3.627   0.349   0.505  1.00  0.00     0.186 HD
HETATM    7  C13 UNL     1      -1.836   0.697  -0.385  1.00  0.00     0.711 A 
ENDROOT
BRANCH   1   8
HETATM    8  C8  UNL     1       0.299   1.014  -1.490  1.00  0.00     0.180 C 
BRANCH   8   9
HETATM    9  C7  UNL     1       1.096   2.021  -0.809  1.00  0.00     0.155 C 
BRANCH   9  10
HETATM   10  C6  UNL     1       2.087   1.766   0.226  1.00  0.00     0.164 C 
BRANCH  10  11
HETATM   11  N5  UNL     1       3.368   1.265  -0.143  1.00  0.00    -0.325 N 
HETATM   12  C3  UNL     1       3.818   0.014  -0.096  1.00  0.00     0.140 A 
HETATM   13  N3  UNL     1       3.352  -1.179   0.328  1.00  0.00    -0.336 N 
HETATM   14  C4  UNL     1       5.113   0.043  -0.615  1.00  0.00     0.122 A 
HETATM   15  C2  UNL     1       4.029  -2.323   0.289  1.00  0.00     0.183 A 
ATOM     16  H3  UNL     1       2.406  -1.206   0.708  1.00  0.00     0.168 HD
HETATM   17  N2  UNL     1       5.267  -2.305  -0.207  1.00  0.00    -0.337 N 
HETATM   18  C1  UNL     1       5.816  -1.138  -0.658  1.00  0.00     0.131 A 
ATOM     19  H2  UNL     1       5.808  -3.169  -0.250  1.00  0.00     0.168 HD
HETATM   20  N1  UNL     1       7.014  -1.160  -1.130  1.00  0.00    -0.383 N 
ATOM     21  H12 UNL     1       7.535  -2.036  -1.162  1.00  0.00     0.157 HD
ATOM     22  H11 UNL     1       7.424  -0.289  -1.467  1.00  0.00     0.157 HD
HETATM   23  N4  UNL     1       5.416   1.305  -0.963  1.00  0.00    -0.346 N 
HETATM   24  C5  UNL     1       4.352   2.061  -0.676  1.00  0.00     0.185 A 
ATOM     25  H4  UNL     1       6.294   1.626  -1.370  1.00  0.00     0.167 HD
ENDBRANCH  10  11
ENDBRANCH   9  10
BRANCH   9  26
HETATM   26  O1  UNL     1       1.599   2.971  -1.761  1.00  0.00    -0.392 OA
ATOM     27  H1  UNL     1       0.952   3.137  -2.437  1.00  0.00     0.210 HD
ENDBRANCH   9  26
ENDBRANCH   8   9
ENDBRANCH   1   8
BRANCH   7  28
HETATM   28  N11 UNL     1      -2.109   1.917  -0.750  1.00  0.00    -0.059 N 
ATOM     29  H11 UNL     1      -1.370   2.404  -1.257  1.00  0.00     0.221 HD
BRANCH  28  30
HETATM   30  N12 UNL     1      -3.211   2.601  -0.550  1.00  0.00    -0.241 NA
HETATM   31  C14 UNL     1      -4.340   3.302  -0.345  1.00  0.00     0.389 C 
HETATM   32  O3  UNL     1      -4.772   3.856   0.689  1.00  0.00    -0.617 OA
HETATM   33  O4  UNL     1      -5.240   3.481  -1.458  1.00  0.00    -0.617 OA
ENDBRANCH  28  30
ENDBRANCH   7  28
BRANCH   3  34
HETATM   34  O2  UNL     1      -0.925  -3.151   0.710  1.00  0.00    -0.356 OA
ATOM     35  H2  UNL     1      -1.545  -3.695   1.181  1.00  0.00     0.218 HD
ENDBRANCH   3  34
BRANCH   4  36
HETATM   36  N7  UNL     1      -3.344  -2.065   1.274  1.00  0.00    -0.324 N 
HETATM   37  C12 UNL     1      -4.656  -1.787   1.719  1.00  0.00     0.481 C 
HETATM   38  N8  UNL     1      -5.395  -3.035   1.798  1.00  0.00    -0.033 N 
HETATM   39  N9  UNL     1      -4.711  -1.054   2.967  1.00  0.00    -0.033 N 
ATOM     40  H83 UNL     1      -5.382  -3.552   0.919  1.00  0.00     0.278 HD
ATOM     41  H82 UNL     1      -4.925  -3.731   2.378  1.00  0.00     0.278 HD
ATOM     42  H81 UNL     1      -6.342  -2.834   2.119  1.00  0.00     0.278 HD
ATOM     43  H93 UNL     1      -4.182  -1.540   3.691  1.00  0.00     0.278 HD
ATOM     44  H92 UNL     1      -4.165  -0.195   2.902  1.00  0.00     0.278 HD
ATOM     45  H91 UNL     1      -5.658  -0.853   3.288  1.00  0.00     0.278 HD
ATOM     46  H7  UNL     1      -3.023  -3.014   1.467  1.00  0.00     0.165 HD
ENDBRANCH   4  36
TORSDOF 9
