REMARK  13 active torsions:
REMARK  status: ('A' for Active; 'I' for Inactive)
REMARK    1  A    between atoms: C2_2  and  C3_3 
REMARK       I    between atoms: C3_3  and  N1_5 
REMARK    2  A    between atoms: N1_5  and  C4_6 
REMARK    3  A    between atoms: C4_6  and  N2_7 
REMARK    4  A    between atoms: C4_6  and  C10_15 
REMARK    5  A    between atoms: N2_7  and  C5_9 
REMARK    6  A    between atoms: C5_9  and  C6_10 
REMARK    7  A    between atoms: C6_10  and  N3_11 
REMARK    8  A    between atoms: C10_15  and  N4_16 
REMARK    9  A    between atoms: C10_15  and  C19_29 
REMARK       I    between atoms: N4_16  and  C11_18 
REMARK   10  A    between atoms: C11_18  and  C12_20 
REMARK   11  A    between atoms: C13_21  and  C14_22 
REMARK   12  A    between atoms: C14_22  and  C15_23 
REMARK   13  A    between atoms: C17_25  and  C18_26 
ROOT
HETATM    1  C10 UNL     1      -0.302   0.585  -1.495  1.00  0.00     0.257 C 
ENDROOT
BRANCH   1   2
HETATM    2  C4  UNL     1      -1.402   0.100  -0.582  1.00  0.00     0.187 C 
BRANCH   2   3
HETATM    3  N1  UNL     1      -1.227  -0.851   0.109  1.00  0.00    -0.354 NA
HETATM    4  C3  UNL     1      -1.103  -1.892   0.897  1.00  0.00     0.292 C 
HETATM    5  O1  UNL     1      -0.316  -1.839   1.926  1.00  0.00    -0.257 OA
BRANCH   4   6
HETATM    6  C2  UNL     1      -1.780  -3.232   0.782  1.00  0.00     0.115 C 
HETATM    7  C1  UNL     1      -0.763  -4.218   0.266  1.00  0.00     0.016 C 
ENDBRANCH   4   6
ENDBRANCH   2   3
BRANCH   2   8
HETATM    8  N2  UNL     1      -2.649   0.838  -0.630  1.00  0.00    -0.365 N 
ATOM      9  H2  UNL     1      -3.129   1.017  -1.512  1.00  0.00     0.161 HD
BRANCH   8  10
HETATM   10  C5  UNL     1      -3.178   1.305   0.620  1.00  0.00     0.150 C 
BRANCH  10  11
HETATM   11  C6  UNL     1      -4.474   2.036   0.523  1.00  0.00     0.255 C 
BRANCH  11  12
HETATM   12  N3  UNL     1      -5.574   1.290  -0.016  1.00  0.00    -0.077 N 
HETATM   13  C7  UNL     1      -5.314  -0.081  -0.307  1.00  0.00     0.271 C 
HETATM   14  C8  UNL     1      -5.982   1.931  -1.269  1.00  0.00     0.271 C 
HETATM   15  C9  UNL     1      -6.732   1.390   0.889  1.00  0.00     0.271 C 
ENDBRANCH  11  12
ENDBRANCH  10  11
ENDBRANCH   8  10
ENDBRANCH   2   8
ENDBRANCH   1   2
BRANCH   1  16
HETATM   16  N4  UNL     1       0.880  -0.200  -1.341  1.00  0.00    -0.337 N 
HETATM   17  C11 UNL     1       1.883  -0.069  -0.369  1.00  0.00     0.241 C 
HETATM   18  O2  UNL     1       1.820   0.805   0.513  1.00  0.00    -0.269 OA
ATOM     19  H4  UNL     1       1.012  -0.948  -2.021  1.00  0.00     0.164 HD
BRANCH  17  20
HETATM   20  C12 UNL     1       3.031  -0.960  -0.366  1.00  0.00     0.070 C 
HETATM   21  C13 UNL     1       4.001  -0.869   0.528  1.00  0.00    -0.017 C 
BRANCH  21  22
HETATM   22  C14 UNL     1       5.128  -1.791   0.480  1.00  0.00     0.061 C 
BRANCH  22  23
HETATM   23  C15 UNL     1       6.439  -1.092   0.295  1.00  0.00    -0.075 C 
HETATM   24  C16 UNL     1       7.651  -1.928   0.236  1.00  0.00     0.044 C 
HETATM   25  C17 UNL     1       6.502   0.221   0.189  1.00  0.00     0.073 C 
BRANCH  25  26
HETATM   26  C18 UNL     1       7.699   1.008   0.008  1.00  0.00     0.254 C 
HETATM   27  N5  UNL     1       7.688   2.422  -0.099  1.00  0.00    -0.058 NA
HETATM   28  O3  UNL     1       8.810   0.434  -0.060  1.00  0.00    -0.272 OA
ENDBRANCH  25  26
ENDBRANCH  22  23
ENDBRANCH  21  22
ENDBRANCH  17  20
ENDBRANCH   1  16
BRANCH   1  29
HETATM   29  C19 UNL     1      -0.120   2.032  -1.497  1.00  0.00     0.262 C 
HETATM   30  N6  UNL     1      -1.291   2.864  -1.636  1.00  0.00    -0.060 NA
HETATM   31  O4  UNL     1       0.985   2.649  -1.389  1.00  0.00    -0.274 OA
ENDBRANCH   1  29
TORSDOF 13
