REMARK  11 active torsions:
REMARK  status: ('A' for Active; 'I' for Inactive)
REMARK    1  A    between atoms: C2_2  and  S1_4 
REMARK    2  A    between atoms: S1_4  and  C4_5 
REMARK    3  A    between atoms: C5_7  and  O2_8 
REMARK    4  A    between atoms: O2_8  and  C6_9 
REMARK    5  A    between atoms: C7_11  and  C8_12 
REMARK    6  A    between atoms: C8_12  and  O4_13 
REMARK    7  A    between atoms: C10_16  and  N1_17 
REMARK       I    between atoms: N1_17  and  C11_19 
REMARK       I    between atoms: C11_19  and  N2_21 
REMARK    8  A    between atoms: N2_21  and  C12_23 
REMARK    9  A    between atoms: C16_28  and  O7_29 
REMARK   10  A    between atoms: C17_31  and  O8_32 
REMARK   11  A    between atoms: C18_34  and  O9_35 
ROOT
HETATM    1  C6  UNL     1      -0.432   1.281   2.550  1.00  0.00     0.286 C 
HETATM    2  O3  UNL     1      -0.589   2.270   3.490  1.00  0.00    -0.352 OA
HETATM    3  C7  UNL     1       0.399   2.052   4.453  1.00  0.00     0.150 C 
HETATM    4  C9  UNL     1       1.607   1.619   3.659  1.00  0.00     0.064 C 
HETATM    5  C10 UNL     1       0.966   0.731   2.625  1.00  0.00     0.144 C 
ENDROOT
BRANCH   1   6
HETATM    6  O2  UNL     1      -0.577   1.858   1.277  1.00  0.00    -0.327 OA
BRANCH   6   7
HETATM    7  C5  UNL     1      -1.612   1.288   0.570  1.00  0.00     0.295 C 
HETATM    8  O1  UNL     1      -1.033   0.641  -0.557  1.00  0.00    -0.340 OA
HETATM    9  C4  UNL     1      -1.940  -0.282  -1.077  1.00  0.00     0.217 C 
HETATM   10  C18 UNL     1      -3.265   0.277  -1.393  1.00  0.00     0.188 C 
HETATM   11  C17 UNL     1      -3.522   1.680  -0.958  1.00  0.00     0.183 C 
HETATM   12  C16 UNL     1      -2.540   2.303  -0.046  1.00  0.00     0.204 C 
BRANCH   9  13
HETATM   13  S1  UNL     1      -1.114  -1.107  -2.447  1.00  0.00    -0.131 SA
BRANCH  13  14
HETATM   14  C2  UNL     1      -2.073  -2.380  -3.250  1.00  0.00     0.041 C 
HETATM   15  C1  UNL     1      -2.387  -3.546  -2.347  1.00  0.00     0.021 C 
HETATM   16  C3  UNL     1      -3.271  -1.884  -4.023  1.00  0.00     0.021 C 
ENDBRANCH  13  14
ENDBRANCH   9  13
BRANCH  10  17
HETATM   17  O9  UNL     1      -4.261  -0.580  -0.858  1.00  0.00    -0.389 OA
ATOM     18  H9  UNL     1      -5.116  -0.219  -1.062  1.00  0.00     0.210 HD
ENDBRANCH  10  17
BRANCH  11  19
HETATM   19  O8  UNL     1      -3.713   2.552  -2.056  1.00  0.00    -0.390 OA
ATOM     20  H8  UNL     1      -4.344   2.152  -2.642  1.00  0.00     0.210 HD
ENDBRANCH  11  19
BRANCH  12  21
HETATM   21  O7  UNL     1      -1.705   3.164  -0.799  1.00  0.00    -0.388 OA
ATOM     22  H7  UNL     1      -2.290   3.804  -1.187  1.00  0.00     0.210 HD
ENDBRANCH  12  21
ENDBRANCH   6   7
ENDBRANCH   1   6
BRANCH   5  23
HETATM   23  N1  UNL     1       1.648   0.772   1.362  1.00  0.00    -0.334 N 
HETATM   24  C11 UNL     1       2.212  -0.420   0.842  1.00  0.00     0.317 C 
HETATM   25  O5  UNL     1       2.111  -1.512   1.493  1.00  0.00    -0.247 OA
HETATM   26  N2  UNL     1       2.902  -0.451  -0.401  1.00  0.00    -0.336 N 
ATOM     27  H2  UNL     1       2.997   0.407  -0.945  1.00  0.00     0.164 HD
ATOM     28  H1  UNL     1       1.726   1.648   0.845  1.00  0.00     0.164 HD
BRANCH  26  29
HETATM   29  C12 UNL     1       3.460  -1.659  -0.895  1.00  0.00     0.112 C 
HETATM   30  C13 UNL     1       4.980  -1.548  -1.096  1.00  0.00     0.053 C 
HETATM   31  C14 UNL     1       5.204  -2.608  -2.131  1.00  0.00     0.169 C 
HETATM   32  O6  UNL     1       4.071  -2.701  -2.899  1.00  0.00    -0.389 OA
HETATM   33  C15 UNL     1       3.058  -1.972  -2.332  1.00  0.00     0.192 C 
ENDBRANCH  26  29
ENDBRANCH   5  23
BRANCH   3  34
HETATM   34  C8  UNL     1       0.670   3.271   5.290  1.00  0.00     0.196 C 
BRANCH  34  35
HETATM   35  O4  UNL     1       1.094   4.301   4.478  1.00  0.00    -0.398 OA
ATOM     36  H4  UNL     1       1.265   5.071   5.007  1.00  0.00     0.209 HD
ENDBRANCH  34  35
ENDBRANCH   3  34
TORSDOF 11
