REMARK  12 active torsions:
REMARK  status: ('A' for Active; 'I' for Inactive)
REMARK    1  A    between atoms: N1_1  and  C1_5 
REMARK    2  A    between atoms: C2_6  and  C3_7 
REMARK    3  A    between atoms: C3_7  and  O1_8 
REMARK    4  A    between atoms: O1_8  and  S1_9 
REMARK    5  A    between atoms: C5_15  and  O6_16 
REMARK    6  A    between atoms: O6_16  and  C6_17 
REMARK    7  A    between atoms: C7_19  and  C8_20 
REMARK    8  A    between atoms: C8_20  and  O8_21 
REMARK    9  A    between atoms: C9_23  and  O9_24 
REMARK   10  A    between atoms: C10_26  and  O10_27 
REMARK   11  A    between atoms: C11_29  and  N2_30 
REMARK   12  A    between atoms: N2_30  and  C12_32 
ROOT
HETATM    1  C6  UNL     1      -0.136   1.674   0.557  1.00  0.00     0.285 C 
HETATM    2  O7  UNL     1      -0.278   2.992   0.120  1.00  0.00    -0.349 OA
HETATM    3  C7  UNL     1      -0.226   3.127  -1.239  1.00  0.00     0.179 C 
HETATM    4  C9  UNL     1      -1.168   2.251  -2.002  1.00  0.00     0.180 C 
HETATM    5  C10 UNL     1      -1.085   0.818  -1.472  1.00  0.00     0.176 C 
HETATM    6  C11 UNL     1      -1.370   0.935   0.006  1.00  0.00     0.164 C 
ENDROOT
BRANCH   1   7
HETATM    7  O6  UNL     1       1.000   1.113   0.026  1.00  0.00    -0.349 OA
BRANCH   7   8
HETATM    8  C5  UNL     1       1.893   0.624   0.967  1.00  0.00     0.181 C 
HETATM    9  C1  UNL     1       2.372  -0.779   0.657  1.00  0.00     0.245 C 
HETATM   10  C2  UNL     1       3.436  -0.502  -0.350  1.00  0.00     0.179 C 
HETATM   11  O5  UNL     1       3.967   0.730  -0.095  1.00  0.00    -0.379 OA
HETATM   12  C4  UNL     1       3.236   1.358   0.874  1.00  0.00     0.202 C 
BRANCH   9  13
HETATM   13  N1  UNL     1       2.932  -1.316   1.898  1.00  0.00    -0.070 N 
ATOM     14  H13 UNL     1       3.503  -2.143   1.722  1.00  0.00     0.274 HD
ATOM     15  H12 UNL     1       3.654  -0.703   2.277  1.00  0.00     0.274 HD
ATOM     16  H11 UNL     1       2.204  -1.506   2.587  1.00  0.00     0.274 HD
ENDBRANCH   9  13
BRANCH  10  17
HETATM   17  C3  UNL     1       4.470  -1.584  -0.501  1.00  0.00     0.227 C 
BRANCH  17  18
HETATM   18  O1  UNL     1       5.266  -1.775   0.598  1.00  0.00    -0.254 OA
BRANCH  18  19
HETATM   19  S1  UNL     1       6.351  -3.016   0.234  1.00  0.00     0.251 S 
HETATM   20  O2  UNL     1       5.946  -3.710  -1.045  1.00  0.00    -0.572 OA
HETATM   21  O3  UNL     1       6.440  -4.021   1.332  1.00  0.00    -0.572 OA
HETATM   22  O4  UNL     1       7.881  -2.343  -0.059  1.00  0.00    -0.572 OA
ENDBRANCH  18  19
ENDBRANCH  17  18
ENDBRANCH  10  17
ENDBRANCH   7   8
ENDBRANCH   1   7
BRANCH   6  23
HETATM   23  N2  UNL     1      -1.558  -0.272   0.705  1.00  0.00    -0.406 N 
ATOM     24  H2  UNL     1      -0.856  -0.588   1.374  1.00  0.00     0.154 HD
BRANCH  23  25
HETATM   25  C12 UNL     1      -2.709  -1.040   0.483  1.00  0.00     0.077 C 
HETATM   26  C13 UNL     1      -2.751  -2.152   1.545  1.00  0.00     0.024 C 
HETATM   27  C14 UNL     1      -4.146  -2.589   1.835  1.00  0.00     0.002 C 
HETATM   28  C15 UNL     1      -5.058  -2.598   0.652  1.00  0.00     0.000 C 
HETATM   29  C16 UNL     1      -5.078  -1.258  -0.046  1.00  0.00     0.002 C 
HETATM   30  C17 UNL     1      -4.019  -0.326   0.554  1.00  0.00     0.024 C 
ENDBRANCH  23  25
ENDBRANCH   6  23
BRANCH   3  31
HETATM   31  C8  UNL     1      -0.628   4.577  -1.551  1.00  0.00     0.198 C 
BRANCH  31  32
HETATM   32  O8  UNL     1      -0.566   4.687  -2.943  1.00  0.00    -0.398 OA
ATOM     33  H8  UNL     1      -0.815   5.583  -3.136  1.00  0.00     0.209 HD
ENDBRANCH  31  32
ENDBRANCH   3  31
BRANCH   5  34
HETATM   34  O10 UNL     1      -1.878  -0.042  -2.167  1.00  0.00    -0.391 OA
ATOM     35  H10 UNL     1      -1.826  -0.932  -1.838  1.00  0.00     0.210 HD
ENDBRANCH   5  34
BRANCH   4  36
HETATM   36  O9  UNL     1      -2.481   2.667  -1.767  1.00  0.00    -0.390 OA
ATOM     37  H9  UNL     1      -3.079   2.111  -2.252  1.00  0.00     0.210 HD
ENDBRANCH   4  36
TORSDOF 12
