REMARK  10 active torsions:
REMARK  status: ('A' for Active; 'I' for Inactive)
REMARK    1  A    between atoms: C2_2  and  O1_3 
REMARK    2  A    between atoms: C2_2  and  C3_10 
REMARK    3  A    between atoms: O1_3  and  S1_4 
REMARK    4  A    between atoms: S1_4  and  N1_5 
REMARK    5  A    between atoms: C4_12  and  N2_13 
REMARK    6  A    between atoms: N2_13  and  S2_15 
REMARK    7  A    between atoms: S2_15  and  O7_18 
REMARK    8  A    between atoms: O7_18  and  C5_19 
REMARK    9  A    between atoms: C8_22  and  N3_24 
REMARK   10  A    between atoms: C12_33  and  O8_34 
ROOT
HETATM    1  S2  UNL     1      -0.381  -2.924  -1.403  1.00  0.00     0.360 S 
HETATM    2  O5  UNL     1      -0.829  -3.622  -2.651  1.00  0.00    -0.176 OA
HETATM    3  O6  UNL     1       0.392  -3.985  -0.628  1.00  0.00    -0.176 OA
ENDROOT
BRANCH   1   4
HETATM    4  N2  UNL     1       0.801  -1.772  -1.900  1.00  0.00    -0.269 N 
ATOM      5  H2  UNL     1       0.756  -1.206  -2.747  1.00  0.00     0.177 HD
BRANCH   4   6
HETATM    6  C4  UNL     1       1.862  -1.738  -0.927  1.00  0.00     0.244 C 
HETATM    7  O4  UNL     1       2.048  -0.529  -0.341  1.00  0.00    -0.347 OA
HETATM    8  C3  UNL     1       3.041  -0.497   0.548  1.00  0.00     0.215 C 
HETATM    9  S3  UNL     1       4.333  -1.529  -0.254  1.00  0.00    -0.130 SA
HETATM   10  C13 UNL     1       3.170  -2.252  -1.481  1.00  0.00     0.131 C 
BRANCH   8  11
HETATM   11  C2  UNL     1       3.645   0.839   0.852  1.00  0.00     0.179 C 
HETATM   12  C1  UNL     1       2.639   1.880   1.247  1.00  0.00     0.044 C 
BRANCH  11  13
HETATM   13  O1  UNL     1       4.642   0.656   1.783  1.00  0.00    -0.251 OA
BRANCH  13  14
HETATM   14  S1  UNL     1       6.166   1.019   1.281  1.00  0.00     0.356 S 
HETATM   15  O2  UNL     1       6.914  -0.287   1.043  1.00  0.00    -0.176 OA
HETATM   16  O3  UNL     1       6.976   1.775   2.287  1.00  0.00    -0.176 OA
BRANCH  14  17
HETATM   17  N1  UNL     1       6.208   1.908  -0.204  1.00  0.00    -0.306 N 
ATOM     18  H12 UNL     1       5.361   2.173  -0.707  1.00  0.00     0.171 HD
ATOM     19  H11 UNL     1       7.153   2.133  -0.515  1.00  0.00     0.171 HD
ENDBRANCH  14  17
ENDBRANCH  13  14
ENDBRANCH  11  13
ENDBRANCH   8  11
ENDBRANCH   4   6
ENDBRANCH   1   4
BRANCH   1  20
HETATM   20  O7  UNL     1      -1.521  -2.296  -0.461  1.00  0.00    -0.251 OA
BRANCH  20  21
HETATM   21  C5  UNL     1      -1.735  -0.919  -0.487  1.00  0.00     0.178 C 
HETATM   22  C6  UNL     1      -3.015  -0.661  -1.161  1.00  0.00     0.039 C 
HETATM   23  C7  UNL     1      -4.173  -0.253  -0.336  1.00  0.00     0.041 C 
HETATM   24  C8  UNL     1      -4.207   1.168   0.099  1.00  0.00     0.125 C 
HETATM   25  C9  UNL     1      -5.669   1.476   0.470  1.00  0.00     0.046 C 
HETATM   26  C10 UNL     1      -3.399   1.414   1.350  1.00  0.00     0.093 C 
HETATM   27  C11 UNL     1      -2.580   0.200   1.601  1.00  0.00     0.014 C 
HETATM   28  N4  UNL     1      -2.916  -0.511   2.633  1.00  0.00    -0.403 N 
HETATM   29  C12 UNL     1      -1.442  -0.242   0.787  1.00  0.00     0.193 C 
ATOM     30  H42 UNL     1      -3.707  -0.204   3.199  1.00  0.00     0.155 HD
ATOM     31  H41 UNL     1      -2.354  -1.344   2.805  1.00  0.00     0.155 HD
BRANCH  24  32
HETATM   32  N3  UNL     1      -3.867   2.110  -0.939  1.00  0.00    -0.070 N 
ATOM     33  H33 UNL     1      -2.960   1.882  -1.345  1.00  0.00     0.275 HD
ATOM     34  H32 UNL     1      -4.462   1.972  -1.756  1.00  0.00     0.275 HD
ATOM     35  H31 UNL     1      -3.890   3.085  -0.641  1.00  0.00     0.275 HD
ENDBRANCH  24  32
BRANCH  29  36
HETATM   36  O8  UNL     1      -0.641  -1.022   1.660  1.00  0.00    -0.387 OA
ATOM     37  H8  UNL     1      -0.452  -0.585   2.482  1.00  0.00     0.210 HD
ENDBRANCH  29  36
ENDBRANCH  20  21
ENDBRANCH   1  20
TORSDOF 10
