REMARK  6 active torsions:
REMARK  status: ('A' for Active; 'I' for Inactive)
REMARK    1  A    between atoms: C2_2  and  C4_10 
REMARK    2  A    between atoms: N1_3  and  N2_5 
REMARK    3  A    between atoms: C6_15  and  N7_16 
REMARK    4  A    between atoms: C7_18  and  C8_19 
REMARK    5  A    between atoms: C7_18  and  C9_22 
REMARK       I    between atoms: C9_22  and  N8_24 
REMARK    6  A    between atoms: N8_24  and  N9_26 
ROOT
HETATM    1  C4  UNL     1       1.229  -1.464  -0.198  1.00  0.00     0.160 A 
HETATM    2  N5  UNL     1       0.138  -2.203   0.105  1.00  0.00    -0.267 N 
ATOM      3  H5  UNL     1       0.137  -3.222   0.149  1.00  0.00     0.189 HD
HETATM    4  N6  UNL     1      -0.925  -1.457   0.338  1.00  0.00    -0.126 N 
HETATM    5  C5  UNL     1      -2.258  -1.999   0.694  1.00  0.00     0.197 C 
HETATM    6  C6  UNL     1      -0.555  -0.179   0.190  1.00  0.00     0.701 A 
HETATM    7  N10 UNL     1       0.797  -0.214  -0.145  1.00  0.00    -0.172 N 
ATOM      8  H10 UNL     1       1.373   0.608  -0.324  1.00  0.00     0.186 HD
ENDROOT
BRANCH   6   9
HETATM    9  N7  UNL     1      -1.195   0.876   0.303  1.00  0.00    -0.178 N 
HETATM   10  C7  UNL     1      -2.376   1.485   0.568  1.00  0.00     0.194 C 
ATOM     11  H7  UNL     1      -0.532   1.626   0.108  1.00  0.00     0.185 HD
BRANCH  10  12
HETATM   12  C8  UNL     1      -2.931   1.364   1.966  1.00  0.00     0.233 C 
HETATM   13  O1  UNL     1      -2.309   0.863   2.921  1.00  0.00    -0.643 OA
HETATM   14  O2  UNL     1      -4.217   1.832   2.245  1.00  0.00    -0.643 OA
ENDBRANCH  10  12
BRANCH  10  15
HETATM   15  C9  UNL     1      -3.487   1.355  -0.419  1.00  0.00     0.293 C 
HETATM   16  O3  UNL     1      -4.621   1.809  -0.097  1.00  0.00    -0.264 OA
HETATM   17  N8  UNL     1      -3.370   0.765  -1.689  1.00  0.00    -0.271 N 
ATOM     18  H8  UNL     1      -2.460   0.394  -1.963  1.00  0.00     0.189 HD
BRANCH  17  19
HETATM   19  N9  UNL     1      -4.421   0.656  -2.597  1.00  0.00    -0.342 N 
ATOM     20  H92 UNL     1      -5.323   1.032  -2.307  1.00  0.00     0.176 HD
ATOM     21  H91 UNL     1      -4.336   0.228  -3.519  1.00  0.00     0.176 HD
ENDBRANCH  17  19
ENDBRANCH  10  15
ENDBRANCH   6   9
BRANCH   1  22
HETATM   22  C2  UNL     1       2.558  -1.966  -0.507  1.00  0.00     0.068 C 
HETATM   23  C1  UNL     1       2.772  -3.440  -0.498  1.00  0.00     0.074 C 
HETATM   24  N1  UNL     1       3.520  -1.222  -0.779  1.00  0.00    -0.299 N 
ATOM     25  H1  UNL     1       4.373  -1.748  -0.970  1.00  0.00     0.186 HD
BRANCH  24  26
HETATM   26  N2  UNL     1       3.708   0.111  -0.882  1.00  0.00    -0.276 N 
HETATM   27  C3  UNL     1       4.503   0.830  -0.196  1.00  0.00     0.215 C 
HETATM   28  N3  UNL     1       5.305   0.219   0.802  1.00  0.00    -0.065 NA
HETATM   29  N4  UNL     1       4.602   2.230  -0.410  1.00  0.00    -0.065 NA
ATOM     30  H2  UNL     1       3.152   0.595  -1.587  1.00  0.00     0.189 HD
ENDBRANCH  24  26
ENDBRANCH   1  22
TORSDOF 6
