REMARK  5 active torsions:
REMARK  status: ('A' for Active; 'I' for Inactive)
REMARK    1  A    between atoms: C2_2  and  O1_4 
REMARK    2  A    between atoms: C2_2  and  N1_6 
REMARK    3  A    between atoms: C7_14  and  O3_15 
REMARK    4  A    between atoms: C7_14  and  C8_17 
REMARK    5  A    between atoms: N4_18  and  O4_20 
ROOT
HETATM    1  N1  UNL     1      -1.726  -0.145   0.136  1.00  0.00    -0.206 N 
HETATM    2  N2  UNL     1      -1.152   0.337  -0.951  1.00  0.00    -0.278 N 
ATOM      3  H2  UNL     1      -1.641   0.688  -1.774  1.00  0.00     0.189 HD
HETATM    4  C4  UNL     1       0.179   0.289  -0.796  1.00  0.00     0.120 A 
HETATM    5  N3  UNL     1       0.430  -0.233   0.410  1.00  0.00    -0.280 N 
HETATM    6  C5  UNL     1      -0.756  -0.502   0.987  1.00  0.00     0.347 A 
HETATM    7  O2  UNL     1      -0.888  -1.003   2.133  1.00  0.00    -0.245 OA
HETATM    8  C6  UNL     1       1.818  -0.407   0.857  1.00  0.00     0.202 C 
HETATM    9  C7  UNL     1       2.608   0.759   0.284  1.00  0.00     0.180 C 
HETATM   10  N5  UNL     1       2.554   0.785  -1.144  1.00  0.00    -0.379 N 
ATOM     11  H5  UNL     1       3.398   0.853  -1.712  1.00  0.00     0.157 HD
HETATM   12  C9  UNL     1       1.261   0.711  -1.730  1.00  0.00     0.195 C 
ENDROOT
BRANCH   9  13
HETATM   13  O3  UNL     1       2.134   1.935   0.865  1.00  0.00    -0.365 OA
ATOM     14  H3  UNL     1       2.628   2.664   0.507  1.00  0.00     0.213 HD
ENDBRANCH   9  13
BRANCH   9  15
HETATM   15  C8  UNL     1       4.033   0.610   0.685  1.00  0.00     0.148 C 
HETATM   16  N4  UNL     1       4.748  -0.302   0.140  1.00  0.00    -0.280 N 
ATOM     17  H4  UNL     1       5.722  -0.387   0.430  1.00  0.00     0.193 HD
BRANCH  16  18
HETATM   18  O4  UNL     1       4.282  -1.164  -0.803  1.00  0.00    -0.290 OA
ATOM     19  H4  UNL     1       4.812  -1.841  -1.207  1.00  0.00     0.244 HD
ENDBRANCH  16  18
ENDBRANCH   9  15
BRANCH   1  20
HETATM   20  C2  UNL     1      -3.163  -0.269   0.373  1.00  0.00     0.149 C 
HETATM   21  C1  UNL     1      -3.898   0.439  -0.762  1.00  0.00     0.072 C 
HETATM   22  C3  UNL     1      -3.597  -1.719   0.338  1.00  0.00     0.072 C 
BRANCH  20  23
HETATM   23  O1  UNL     1      -3.552   0.357   1.546  1.00  0.00    -0.370 OA
ATOM     24  H1  UNL     1      -3.095  -0.084   2.252  1.00  0.00     0.212 HD
ENDBRANCH  20  23
ENDBRANCH   1  20
TORSDOF 5
