REMARK  7 active torsions:
REMARK  status: ('A' for Active; 'I' for Inactive)
REMARK    1  A    between atoms: O1_2  and  C2_3 
REMARK    2  A    between atoms: C3_5  and  O3_6 
REMARK    3  A    between atoms: C3_5  and  O4_8 
REMARK    4  A    between atoms: C5_10  and  O5_12 
REMARK    5  A    between atoms: C8_15  and  O6_16 
REMARK    6  A    between atoms: C10_19  and  O7_20 
REMARK    7  A    between atoms: C11_22  and  O8_23 
ROOT
HETATM    1  C2  UNL     1       0.079   0.994  -0.611  1.00  0.00     0.282 C 
HETATM    2  O2  UNL     1       1.365   0.457  -0.928  1.00  0.00    -0.299 OA
HETATM    3  C3  UNL     1       1.846   0.024   0.305  1.00  0.00     0.315 C 
HETATM    4  C5  UNL     1       0.677  -0.403   1.115  1.00  0.00     0.155 C 
HETATM    5  C6  UNL     1       0.742  -1.732   1.731  1.00  0.00     0.056 C 
HETATM    6  C7  UNL     1      -0.484  -0.164   0.175  1.00  0.00     0.102 C 
HETATM    7  C8  UNL     1      -1.754   0.119   0.905  1.00  0.00     0.140 C 
HETATM    8  C9  UNL     1      -2.860  -0.453   0.004  1.00  0.00     0.067 C 
HETATM    9  C10 UNL     1      -2.194  -1.724  -0.547  1.00  0.00     0.150 C 
HETATM   10  C11 UNL     1      -0.784  -1.290  -0.737  1.00  0.00     0.166 C 
ENDROOT
BRANCH   1  11
HETATM   11  O1  UNL     1      -0.595   1.291  -1.779  1.00  0.00    -0.365 OA
HETATM   12  C1  UNL     1      -0.793   2.662  -1.833  1.00  0.00     0.204 C 
ENDBRANCH   1  11
BRANCH   4  13
HETATM   13  O5  UNL     1       0.517   0.561   2.140  1.00  0.00    -0.381 OA
ATOM     14  H5  UNL     1      -0.231   0.288   2.658  1.00  0.00     0.211 HD
ENDBRANCH   4  13
BRANCH   7  15
HETATM   15  O6  UNL     1      -1.978   1.414   1.271  1.00  0.00    -0.394 OA
ATOM     16  H6  UNL     1      -2.787   1.594   1.736  1.00  0.00     0.210 HD
ENDBRANCH   7  15
BRANCH  10  17
HETATM   17  O8  UNL     1       0.132  -2.329  -0.702  1.00  0.00    -0.392 OA
ATOM     18  H8  UNL     1      -0.061  -3.052  -1.288  1.00  0.00     0.210 HD
ENDBRANCH  10  17
BRANCH   3  19
HETATM   19  O3  UNL     1       2.782  -0.993   0.145  1.00  0.00    -0.341 OA
ATOM     20  H3  UNL     1       3.110  -1.288   0.986  1.00  0.00     0.215 HD
ENDBRANCH   3  19
BRANCH   3  21
HETATM   21  O4  UNL     1       2.537   1.112   0.864  1.00  0.00    -0.335 OA
HETATM   22  C4  UNL     1       3.576   1.446  -0.012  1.00  0.00     0.208 C 
ENDBRANCH   3  21
BRANCH   9  23
HETATM   23  O7  UNL     1      -2.830  -2.093  -1.736  1.00  0.00    -0.393 OA
ATOM     24  H7  UNL     1      -2.418  -2.879  -2.077  1.00  0.00     0.210 HD
ENDBRANCH   9  23
TORSDOF 7
