REMARK  10 active torsions:
REMARK  status: ('A' for Active; 'I' for Inactive)
REMARK    1  A    between atoms: N1_1  and  C1_4 
REMARK    2  A    between atoms: C2_10  and  N4_11 
REMARK    3  A    between atoms: C3_12  and  S1_13 
REMARK    4  A    between atoms: S1_13  and  C4_14 
REMARK    5  A    between atoms: C4_14  and  C5_15 
REMARK    6  A    between atoms: C7_21  and  C8_22 
REMARK       I    between atoms: C8_22  and  N7_24 
REMARK    7  A    between atoms: N7_24  and  C9_26 
REMARK    8  A    between atoms: C9_26  and  C10_27 
REMARK    9  A    between atoms: C10_27  and  N8_28 
REMARK   10  A    between atoms: C20_40  and  N10_41 
ROOT
HETATM    1  N4  UNL     1       3.705  -1.278  -0.234  1.00  0.00    -0.257 N 
HETATM    2  C3  UNL     1       4.071  -0.475   0.776  1.00  0.00     0.154 A 
HETATM    3  N6  UNL     1       3.322   0.626   1.097  1.00  0.00    -0.345 N 
ATOM      4  H6  UNL     1       3.623   1.221   1.869  1.00  0.00     0.167 HD
HETATM    5  C6  UNL     1       2.214   0.943   0.432  1.00  0.00     0.111 A 
HETATM    6  C7  UNL     1       1.817   0.129  -0.614  1.00  0.00     0.091 A 
HETATM    7  C20 UNL     1       2.568  -0.964  -0.927  1.00  0.00     0.126 A 
ENDROOT
BRANCH   6   8
HETATM    8  C8  UNL     1       0.597   0.496  -1.315  1.00  0.00     0.256 C 
HETATM    9  O3  UNL     1       0.673   0.720  -2.566  1.00  0.00    -0.267 OA
HETATM   10  N7  UNL     1      -0.639   0.602  -0.609  1.00  0.00    -0.354 N 
ATOM     11  H7  UNL     1      -0.699   0.422   0.393  1.00  0.00     0.162 HD
BRANCH  10  12
HETATM   12  C9  UNL     1      -1.804   0.977  -1.383  1.00  0.00     0.154 C 
BRANCH  12  13
HETATM   13  C10 UNL     1      -3.006   1.064  -0.456  1.00  0.00     0.050 C 
HETATM   14  C16 UNL     1      -4.214   1.622  -1.233  1.00  0.00     0.052 C 
HETATM   15  C17 UNL     1      -3.763   2.835  -2.047  1.00  0.00     0.116 C 
HETATM   16  N9  UNL     1      -3.215   3.829  -1.210  1.00  0.00    -0.421 N 
HETATM   17  C18 UNL     1      -2.301   3.448  -0.200  1.00  0.00     0.116 C 
ATOM     18  H9  UNL     1      -3.474   4.808  -1.331  1.00  0.00     0.153 HD
HETATM   19  C19 UNL     1      -2.684   2.173   0.523  1.00  0.00     0.052 C 
BRANCH  13  20
HETATM   20  N8  UNL     1      -3.241  -0.147   0.162  1.00  0.00    -0.382 N 
HETATM   21  C11 UNL     1      -3.568  -1.288  -0.575  1.00  0.00     0.059 C 
HETATM   22  C12 UNL     1      -5.016  -1.741  -0.504  1.00  0.00     0.044 C 
HETATM   23  C13 UNL     1      -5.470  -1.648   0.920  1.00  0.00     0.007 C 
HETATM   24  C14 UNL     1      -4.307  -1.512   1.890  1.00  0.00     0.020 C 
HETATM   25  C15 UNL     1      -3.475  -0.269   1.533  1.00  0.00     0.123 C 
ENDBRANCH  13  20
ENDBRANCH  12  13
ENDBRANCH  10  12
ENDBRANCH   6   8
BRANCH   7  26
HETATM   26  N10 UNL     1       2.259  -1.743  -1.869  1.00  0.00    -0.384 N 
ATOM     27 2H10 UNL     1       2.821  -2.561  -2.103  1.00  0.00     0.157 HD
ATOM     28 1H10 UNL     1       1.411  -1.509  -2.386  1.00  0.00     0.157 HD
ENDBRANCH   7  26
BRANCH   1  29
HETATM   29  C2  UNL     1       4.462  -2.420  -0.600  1.00  0.00     0.183 A 
HETATM   30  C1  UNL     1       4.268  -3.678  -0.090  1.00  0.00     0.168 A 
HETATM   31  N2  UNL     1       5.186  -4.460  -0.692  1.00  0.00    -0.222 N 
HETATM   32  O1  UNL     1       5.877  -3.716  -1.504  1.00  0.00    -0.153 OA
ATOM     33  H2  UNL     1       5.316  -5.460  -0.538  1.00  0.00     0.198 HD
HETATM   34  N3  UNL     1       5.486  -2.485  -1.490  1.00  0.00    -0.221 N 
ATOM     35  H3  UNL     1       5.870  -1.715  -2.038  1.00  0.00     0.198 HD
BRANCH  30  36
HETATM   36  N1  UNL     1       3.388  -4.072   0.796  1.00  0.00    -0.381 N 
ATOM     37  H12 UNL     1       3.244  -5.008   1.175  1.00  0.00     0.157 HD
ATOM     38  H11 UNL     1       2.693  -3.480   1.252  1.00  0.00     0.157 HD
ENDBRANCH  30  36
ENDBRANCH   1  29
BRANCH   2  39
HETATM   39  S1  UNL     1       5.534  -0.796   1.733  1.00  0.00    -0.084 SA
BRANCH  39  40
HETATM   40  C4  UNL     1       6.997   0.027   1.033  1.00  0.00     0.181 C 
BRANCH  40  41
HETATM   41  C5  UNL     1       6.854   1.502   1.119  1.00  0.00     0.240 C 
HETATM   42  N5  UNL     1       7.276   2.168   2.288  1.00  0.00    -0.061 NA
HETATM   43  O2  UNL     1       6.366   2.165   0.180  1.00  0.00    -0.276 OA
ENDBRANCH  40  41
ENDBRANCH  39  40
ENDBRANCH   2  39
TORSDOF 10
