REMARK  12 active torsions:
REMARK  status: ('A' for Active; 'I' for Inactive)
REMARK    1  A    between atoms: N1_2  and  C2_3 
REMARK    2  A    between atoms: N1_2  and  C4_7 
REMARK    3  A    between atoms: C2_3  and  C3_4 
REMARK    4  A    between atoms: C3_4  and  O1_5 
REMARK    5  A    between atoms: C5_10  and  N3_11 
REMARK    6  A    between atoms: N3_11  and  C6_13 
REMARK    7  A    between atoms: C9_16  and  C10_17 
REMARK    8  A    between atoms: C15_26  and  N6_27 
REMARK    9  A    between atoms: N6_27  and  C16_28 
REMARK   10  A    between atoms: C16_28  and  C17_29 
REMARK   11  A    between atoms: C20_39  and  C21_40 
REMARK   12  A    between atoms: C21_40  and  N10_41 
ROOT
HETATM    1  C6  UNL     1      -0.687   1.189   0.671  1.00  0.00     0.120 A 
HETATM    2  C7  UNL     1       0.258   1.064  -0.352  1.00  0.00     0.050 A 
HETATM    3  C8  UNL     1       1.524   0.700  -0.008  1.00  0.00     0.019 A 
HETATM    4  C9  UNL     1       1.881   0.455   1.311  1.00  0.00     0.007 A 
HETATM    5  C19 UNL     1       0.950   0.582   2.286  1.00  0.00     0.103 A 
HETATM    6  N8  UNL     1      -0.320   0.948   1.938  1.00  0.00    -0.351 N 
ATOM      7  H8  UNL     1      -1.019   1.042   2.674  1.00  0.00     0.166 HD
ENDROOT
BRANCH   1   8
HETATM    8  N3  UNL     1      -2.005   1.575   0.316  1.00  0.00    -0.176 N 
ATOM      9  H3  UNL     1      -2.201   2.523  -0.006  1.00  0.00     0.186 HD
BRANCH   8  10
HETATM   10  C5  UNL     1      -2.943   0.711   0.408  1.00  0.00     0.699 A 
HETATM   11  N2  UNL     1      -4.191   1.057   0.077  1.00  0.00    -0.022 N 
HETATM   12  C4  UNL     1      -5.243   0.218   0.139  1.00  0.00     0.696 A 
ATOM     13  H2  UNL     1      -4.356   2.012  -0.241  1.00  0.00     0.203 HD
HETATM   14  N11 UNL     1      -5.004  -1.045   0.566  1.00  0.00    -0.178 N 
HETATM   15  C20 UNL     1      -3.760  -1.425   0.908  1.00  0.00     0.138 A 
ATOM     16  H11 UNL     1      -5.773  -1.712   0.629  1.00  0.00     0.185 HD
HETATM   17  N9  UNL     1      -2.738  -0.555   0.830  1.00  0.00    -0.178 N 
ATOM     18  H9  UNL     1      -1.799  -0.854   1.092  1.00  0.00     0.185 HD
BRANCH  12  19
HETATM   19  N1  UNL     1      -6.555   0.616  -0.225  1.00  0.00    -0.219 N 
HETATM   20  C1  UNL     1      -7.619  -0.363  -0.132  1.00  0.00     0.168 C 
BRANCH  19  21
HETATM   21  C2  UNL     1      -6.784   1.965  -0.674  1.00  0.00     0.166 C 
BRANCH  21  22
HETATM   22  C3  UNL     1      -7.138   2.042  -2.144  1.00  0.00     0.184 C 
BRANCH  22  23
HETATM   23  O1  UNL     1      -7.327   3.412  -2.424  1.00  0.00    -0.399 OA
ATOM     24  H1  UNL     1      -7.549   3.460  -3.346  1.00  0.00     0.209 HD
ENDBRANCH  22  23
ENDBRANCH  21  22
ENDBRANCH  19  21
ENDBRANCH  12  19
BRANCH  15  25
HETATM   25  C21 UNL     1      -3.472  -2.791   1.378  1.00  0.00     0.306 C 
BRANCH  25  26
HETATM   26  N10 UNL     1      -4.654  -3.623   1.420  1.00  0.00    -0.073 N 
ATOM     27 3H10 UNL     1      -5.388  -3.189   1.980  1.00  0.00     0.274 HD
ATOM     28 2H10 UNL     1      -5.125  -3.638   0.515  1.00  0.00     0.274 HD
ATOM     29 1H10 UNL     1      -4.455  -4.569   1.745  1.00  0.00     0.274 HD
ENDBRANCH  25  26
ENDBRANCH  15  25
ENDBRANCH   8  10
ENDBRANCH   1   8
BRANCH   4  30
HETATM   30  C10 UNL     1       3.269   0.071   1.612  1.00  0.00     0.060 A 
HETATM   31  C11 UNL     1       3.705  -0.182   2.874  1.00  0.00     0.120 A 
HETATM   32  N4  UNL     1       5.010  -0.530   3.093  1.00  0.00    -0.348 N 
HETATM   33  C12 UNL     1       5.863  -0.622   2.061  1.00  0.00     0.135 A 
ATOM     34  H4  UNL     1       5.335  -0.720   4.041  1.00  0.00     0.167 HD
HETATM   35  N5  UNL     1       7.147  -0.963   2.290  1.00  0.00    -0.350 N 
HETATM   36  C18 UNL     1       5.447  -0.371   0.776  1.00  0.00     0.118 A 
HETATM   37  C13 UNL     1       8.047  -1.070   1.316  1.00  0.00     0.093 A 
ATOM     38  H5  UNL     1       7.441  -1.147   3.249  1.00  0.00     0.166 HD
HETATM   39  C14 UNL     1       7.653  -0.823   0.021  1.00  0.00     0.063 A 
HETATM   40  C15 UNL     1       6.335  -0.463  -0.305  1.00  0.00     0.131 A 
HETATM   41  N7  UNL     1       4.161  -0.032   0.593  1.00  0.00    -0.349 N 
ATOM     42  H7  UNL     1       3.839   0.157  -0.356  1.00  0.00     0.166 HD
BRANCH  40  43
HETATM   43  N6  UNL     1       6.022  -0.255  -1.431  1.00  0.00    -0.445 NA
BRANCH  43  44
HETATM   44  C16 UNL     1       5.892  -0.068  -2.751  1.00  0.00     0.229 C 
BRANCH  44  45
HETATM   45  C17 UNL     1       6.187   1.385  -3.145  1.00  0.00     0.119 C 
HETATM   46  S1  UNL     1       7.880   1.840  -2.682  1.00  0.00    -0.095 SA
ENDBRANCH  44  45
ENDBRANCH  43  44
ENDBRANCH  40  43
ENDBRANCH   4  30
TORSDOF 12
