REMARK  13 active torsions:
REMARK  status: ('A' for Active; 'I' for Inactive)
REMARK    1  A    between atoms: C2_2  and  C3_3 
REMARK    2  A    between atoms: C3_3  and  C4_4 
REMARK    3  A    between atoms: C4_4  and  C5_5 
REMARK    4  A    between atoms: C5_5  and  C6_6 
REMARK    5  A    between atoms: C9_15  and  C10_16 
REMARK    6  A    between atoms: C10_16  and  C11_17 
REMARK    7  A    between atoms: C11_17  and  C12_18 
REMARK    8  A    between atoms: C12_18  and  O3_19 
REMARK    9  A    between atoms: C12_18  and  N3_21 
REMARK   10  A    between atoms: N3_21  and  C13_23 
REMARK   11  A    between atoms: C13_23  and  C14_24 
REMARK   12  A    between atoms: C14_24  and  N4_25 
REMARK   13  A    between atoms: C15_29  and  N5_30 
ROOT
HETATM    1  C6  UNL     1       2.120  -0.085  -1.791  1.00  0.00     0.060 C 
HETATM    2  N1  UNL     1       2.032  -0.365  -3.137  1.00  0.00    -0.317 N 
ATOM      3  H1  UNL     1       2.903  -0.284  -3.662  1.00  0.00     0.169 HD
HETATM    4  C7  UNL     1       0.942  -0.735  -3.861  1.00  0.00     0.314 C 
HETATM    5  O1  UNL     1       1.085  -1.035  -5.052  1.00  0.00    -0.262 OA
HETATM    6  C8  UNL     1      -0.377  -0.821  -3.405  1.00  0.00     0.314 C 
HETATM    7  O2  UNL     1      -1.298  -0.844  -4.259  1.00  0.00    -0.262 OA
HETATM    8  N2  UNL     1      -0.805  -0.885  -2.108  1.00  0.00    -0.317 N 
ATOM      9  H2  UNL     1      -1.807  -1.038  -1.998  1.00  0.00     0.169 HD
HETATM   10  C9  UNL     1      -0.121  -0.779  -0.947  1.00  0.00     0.060 C 
HETATM   11  C15 UNL     1       1.275  -0.660  -0.879  1.00  0.00     0.079 C 
ENDROOT
BRANCH  10  12
HETATM   12  C10 UNL     1      -0.787  -0.791   0.191  1.00  0.00     0.009 C 
BRANCH  12  13
HETATM   13  C11 UNL     1      -2.279  -0.922   0.140  1.00  0.00     0.082 C 
BRANCH  13  14
HETATM   14  C12 UNL     1      -2.881  -0.827   1.515  1.00  0.00     0.216 C 
BRANCH  14  15
HETATM   15  O3  UNL     1      -2.601   0.393   2.131  1.00  0.00    -0.377 OA
ATOM     16  H3  UNL     1      -2.981   0.453   3.000  1.00  0.00     0.212 HD
ENDBRANCH  14  15
BRANCH  14  17
HETATM   17  N3  UNL     1      -4.299  -0.987   1.432  1.00  0.00    -0.395 N 
ATOM     18  H3  UNL     1      -4.785  -1.763   1.880  1.00  0.00     0.155 HD
BRANCH  17  19
HETATM   19  C13 UNL     1      -4.991   0.013   0.679  1.00  0.00     0.143 C 
BRANCH  19  20
HETATM   20  C14 UNL     1      -6.502  -0.248   0.677  1.00  0.00     0.248 C 
BRANCH  20  21
HETATM   21  N4  UNL     1      -7.057  -0.243   2.001  1.00  0.00    -0.078 N 
ATOM     22  H43 UNL     1      -6.570  -0.903   2.607  1.00  0.00     0.274 HD
ATOM     23  H42 UNL     1      -6.833   0.623   2.491  1.00  0.00     0.274 HD
ATOM     24  H41 UNL     1      -8.062  -0.417   2.000  1.00  0.00     0.274 HD
ENDBRANCH  20  21
ENDBRANCH  19  20
ENDBRANCH  17  19
ENDBRANCH  14  17
ENDBRANCH  13  14
ENDBRANCH  12  13
ENDBRANCH  10  12
BRANCH  11  25
HETATM   25  N5  UNL     1       1.787  -1.178   0.141  1.00  0.00    -0.395 N 
ATOM     26  H52 UNL     1       2.802  -1.091   0.190  1.00  0.00     0.156 HD
ATOM     27  H51 UNL     1       1.158  -1.606   0.820  1.00  0.00     0.156 HD
ENDBRANCH  11  25
BRANCH   1  28
HETATM   28  C5  UNL     1       3.048   0.755  -1.432  1.00  0.00     0.005 C 
BRANCH  28  29
HETATM   29  C4  UNL     1       3.426   1.282  -0.131  1.00  0.00     0.029 C 
BRANCH  29  30
HETATM   30  C3  UNL     1       4.892   1.013   0.144  1.00  0.00     0.003 C 
BRANCH  30  31
HETATM   31  C2  UNL     1       5.222   1.581   1.506  1.00  0.00    -0.004 C 
HETATM   32  C1  UNL     1       6.675   1.313   1.776  1.00  0.00     0.005 C 
ENDBRANCH  30  31
ENDBRANCH  29  30
ENDBRANCH  28  29
ENDBRANCH   1  28
TORSDOF 13
