REMARK  12 active torsions:
REMARK  status: ('A' for Active; 'I' for Inactive)
REMARK    1  A    between atoms: C2_2  and  N1_3 
REMARK       I    between atoms: N1_3  and  C3_5 
REMARK    2  A    between atoms: C3_5  and  C4_7 
REMARK    3  A    between atoms: C6_10  and  N3_11 
REMARK    4  A    between atoms: C6_10  and  C7_15 
REMARK       I    between atoms: C7_15  and  N4_17 
REMARK    5  A    between atoms: N4_17  and  N5_18 
REMARK    6  A    between atoms: N5_18  and  N6_20 
REMARK    7  A    between atoms: C9_25  and  S2_26 
REMARK    8  A    between atoms: N7_30  and  N8_31 
REMARK       I    between atoms: N8_31  and  C10_33 
REMARK    9  A    between atoms: C10_33  and  C11_35 
REMARK       I    between atoms: N9_36  and  C12_38 
REMARK   10  A    between atoms: C12_38  and  C13_40 
REMARK   11  A    between atoms: C13_40  and  N10_41 
REMARK   12  A    between atoms: C19_51  and  O10_52 
ROOT
HETATM    1  C4  UNL     1      -3.674  -1.353   0.743  1.00  0.00     0.172 C 
HETATM    2  C5  UNL     1      -3.646  -0.197  -0.318  1.00  0.00     0.147 C 
HETATM    3  N2  UNL     1      -3.205   0.951   0.460  1.00  0.00    -0.320 N 
HETATM    4  C6  UNL     1      -3.666   2.182   0.190  1.00  0.00     0.343 C 
HETATM    5  S1  UNL     1      -2.362   2.904  -0.892  1.00  0.00    -0.092 SA
HETATM    6  C8  UNL     1      -1.038   1.813  -0.126  1.00  0.00     0.154 C 
HETATM    7  C9  UNL     1      -1.764   0.997   0.788  1.00  0.00     0.260 C 
HETATM    8  N7  UNL     1      -1.316  -0.483   0.681  1.00  0.00    -0.223 N 
HETATM    9  C19 UNL     1      -2.333  -1.297   1.081  1.00  0.00     0.151 C 
ENDROOT
BRANCH   8  10
HETATM   10  N8  UNL     1      -0.164  -0.805   0.103  1.00  0.00    -0.258 N 
HETATM   11  C10 UNL     1       1.201  -0.470   0.027  1.00  0.00     0.275 C 
HETATM   12  O6  UNL     1       1.868   0.295   0.623  1.00  0.00    -0.265 OA
ATOM     13  H8  UNL     1      -0.332  -1.593  -0.522  1.00  0.00     0.190 HD
BRANCH  11  14
HETATM   14  C11 UNL     1       1.957  -1.255  -1.056  1.00  0.00     0.166 C 
HETATM   15  N9  UNL     1       3.282  -1.479  -1.030  1.00  0.00    -0.330 N 
HETATM   16  C12 UNL     1       4.532  -0.928  -0.986  1.00  0.00     0.240 C 
ATOM     17  H9  UNL     1       3.409  -2.491  -1.053  1.00  0.00     0.168 HD
HETATM   18  O7  UNL     1       4.883   0.268  -0.919  1.00  0.00    -0.271 OA
BRANCH  16  19
HETATM   19  C13 UNL     1       5.760  -1.931  -1.045  1.00  0.00     0.236 C 
BRANCH  19  20
HETATM   20  N10 UNL     1       6.842  -1.291  -0.423  1.00  0.00    -0.300 N 
HETATM   21  C14 UNL     1       7.604  -0.332  -0.983  1.00  0.00     0.108 A 
HETATM   22  C15 UNL     1       8.541   0.384  -0.232  1.00  0.00     0.022 A 
HETATM   23  C16 UNL     1       9.301   1.500  -0.898  1.00  0.00     0.056 C 
HETATM   24  C17 UNL     1       8.698   0.085   1.081  1.00  0.00     0.256 A 
HETATM   25  O8  UNL     1       9.577   0.691   1.775  1.00  0.00    -0.267 OA
HETATM   26  N11 UNL     1       7.945  -0.868   1.628  1.00  0.00    -0.275 N 
HETATM   27  C18 UNL     1       7.033  -1.538   0.896  1.00  0.00     0.329 A 
ATOM     28  H11 UNL     1       8.060  -1.094   2.616  1.00  0.00     0.173 HD
HETATM   29  O9  UNL     1       6.380  -2.414   1.466  1.00  0.00    -0.246 OA
ENDBRANCH  19  20
ENDBRANCH  16  19
ENDBRANCH  11  14
ENDBRANCH   8  10
BRANCH   7  30
HETATM   30  S2  UNL     1      -1.558   1.358   2.481  1.00  0.00     0.155 S 
HETATM   31  O3  UNL     1      -2.531   0.607   3.389  1.00  0.00    -0.592 OA
HETATM   32  O4  UNL     1      -1.543   2.842   2.758  1.00  0.00    -0.592 OA
HETATM   33  O5  UNL     1       0.014   0.896   3.046  1.00  0.00    -0.592 OA
ENDBRANCH   7  30
BRANCH   9  34
HETATM   34  O10 UNL     1      -1.976  -2.248   2.059  1.00  0.00    -0.347 OA
ATOM     35  H10 UNL     1      -1.056  -2.210   2.291  1.00  0.00     0.219 HD
ENDBRANCH   9  34
BRANCH   1  36
HETATM   36  C3  UNL     1      -4.451  -2.461   0.376  1.00  0.00     0.234 C 
HETATM   37  N1  UNL     1      -3.888  -3.552  -0.436  1.00  0.00    -0.340 N 
ATOM     38  H1  UNL     1      -2.921  -3.503  -0.757  1.00  0.00     0.167 HD
HETATM   39  O1  UNL     1      -5.618  -2.615   0.697  1.00  0.00    -0.272 OA
BRANCH  37  40
HETATM   40  C2  UNL     1      -4.685  -4.662  -0.769  1.00  0.00     0.059 C 
HETATM   41  C1  UNL     1      -5.883  -4.426  -1.642  1.00  0.00     0.055 C 
ENDBRANCH  37  40
ENDBRANCH   1  36
BRANCH   4  42
HETATM   42  N3  UNL     1      -3.788   3.090   1.372  1.00  0.00    -0.032 N 
ATOM     43  H33 UNL     1      -4.360   2.652   2.094  1.00  0.00     0.279 HD
ATOM     44  H32 UNL     1      -2.896   3.149   1.862  1.00  0.00     0.279 HD
ATOM     45  H31 UNL     1      -4.138   4.026   1.167  1.00  0.00     0.279 HD
ENDBRANCH   4  42
BRANCH   4  46
HETATM   46  C7  UNL     1      -5.024   2.404  -0.420  1.00  0.00     0.381 C 
HETATM   47  O2  UNL     1      -5.960   1.934  -0.647  1.00  0.00    -0.249 OA
HETATM   48  N4  UNL     1      -4.873   3.888  -0.791  1.00  0.00    -0.266 NA
BRANCH  48  49
HETATM   49  N5  UNL     1      -4.761   5.073  -1.092  1.00  0.00    -0.179 N 
ATOM     50  H5  UNL     1      -4.393   5.294  -2.017  1.00  0.00     0.223 HD
BRANCH  49  51
HETATM   51  N6  UNL     1      -5.107   6.157  -0.246  1.00  0.00    -0.320 N 
ATOM     52  H62 UNL     1      -5.474   5.918   0.675  1.00  0.00     0.179 HD
ATOM     53  H61 UNL     1      -5.014   7.141  -0.496  1.00  0.00     0.179 HD
ENDBRANCH  49  51
ENDBRANCH  48  49
ENDBRANCH   4  46
TORSDOF 12
