REMARK  0 active torsions:
REMARK  status: ('A' for Active; 'I' for Inactive)
ROOT
HETATM    1  C1  UNL     1      -2.351   2.699  -0.945  1.00  0.00     0.010 C 
HETATM    2  C2  UNL     1      -1.959   1.223  -1.089  1.00  0.00    -0.017 C 
HETATM    3  C3  UNL     1      -0.481   1.173  -1.251  1.00  0.00     0.010 C 
HETATM    4  C4  UNL     1       0.231   0.449  -0.129  1.00  0.00     0.003 C 
HETATM    5  C5  UNL     1      -0.400  -0.903   0.064  1.00  0.00    -0.002 C 
HETATM    6  C6  UNL     1       0.366  -1.824   0.950  1.00  0.00     0.008 C 
HETATM    7  C7  UNL     1       1.812  -1.636   1.058  1.00  0.00     0.032 C 
HETATM    8  C8  UNL     1       2.369  -0.301   0.669  1.00  0.00     0.036 C 
HETATM    9  C9  UNL     1       2.321   0.656   1.843  1.00  0.00     0.039 C 
HETATM   10  N1  UNL     1       3.770  -0.421   0.290  1.00  0.00    -0.377 N 
ATOM     11  H1  UNL     1       4.504  -0.112   0.927  1.00  0.00     0.161 HD
HETATM   12  C10 UNL     1       4.073  -0.919  -0.853  1.00  0.00     0.172 C 
HETATM   13  N2  UNL     1       3.369  -0.680  -1.855  1.00  0.00    -0.386 N 
ATOM     14  H2  UNL     1       3.803  -0.569  -2.771  1.00  0.00     0.160 HD
HETATM   15  C11 UNL     1       1.908  -0.559  -1.710  1.00  0.00     0.132 C 
HETATM   16  C12 UNL     1       1.660   0.301  -0.521  1.00  0.00     0.001 C 
HETATM   17  C13 UNL     1       2.241   1.666  -0.785  1.00  0.00     0.020 C 
HETATM   18  C14 UNL     1      -1.860  -0.807   0.394  1.00  0.00    -0.043 C 
HETATM   19  C15 UNL     1      -2.150  -1.076   1.874  1.00  0.00     0.015 C 
HETATM   20  C16 UNL     1      -2.656  -1.883  -0.361  1.00  0.00     0.015 C 
HETATM   21  C17 UNL     1      -2.492   0.501   0.082  1.00  0.00     0.013 C 
ENDROOT
TORSDOF 0
