REMARK  2 active torsions:
REMARK  status: ('A' for Active; 'I' for Inactive)
REMARK    1  A    between atoms: N1_1  and  N2_4 
REMARK       I    between atoms: N2_4  and  C1_6 
REMARK    2  A    between atoms: C1_6  and  C2_8 
REMARK       I    between atoms: C2_8  and  N3_10 
ROOT
HETATM    1  N2  UNL     1      -2.365  -0.631  -0.859  1.00  0.00    -0.268 N 
ATOM      2  H2  UNL     1      -1.980  -0.935  -1.753  1.00  0.00     0.190 HD
HETATM    3  C1  UNL     1      -1.504   0.064   0.003  1.00  0.00     0.327 C 
HETATM    4  O1  UNL     1      -1.947   0.451   1.109  1.00  0.00    -0.261 OA
ENDROOT
BRANCH   3   5
HETATM    5  C2  UNL     1      -0.123   0.356  -0.328  1.00  0.00     0.317 C 
HETATM    6  O2  UNL     1       0.390  -0.010  -1.438  1.00  0.00    -0.262 OA
HETATM    7  N3  UNL     1       0.699   1.063   0.585  1.00  0.00    -0.295 N 
HETATM    8  C3  UNL     1       1.923   0.706   0.740  1.00  0.00     0.203 C 
ATOM      9  H3  UNL     1       0.322   1.849   1.115  1.00  0.00     0.171 HD
HETATM   10  N4  UNL     1       2.786   1.405   1.661  1.00  0.00    -0.066 NA
HETATM   11  N5  UNL     1       2.453  -0.392   0.003  1.00  0.00    -0.066 NA
ENDBRANCH   3   5
BRANCH   1  12
HETATM   12  N1  UNL     1      -3.682  -0.940  -0.607  1.00  0.00    -0.342 N 
ATOM     13  H12 UNL     1      -4.049  -0.628   0.292  1.00  0.00     0.176 HD
ATOM     14  H11 UNL     1      -4.308  -1.445  -1.234  1.00  0.00     0.176 HD
ENDBRANCH   1  12
TORSDOF 2
