REMARK  5 active torsions:
REMARK  status: ('A' for Active; 'I' for Inactive)
REMARK    1  A    between atoms: C4_4  and  C5_5 
REMARK    2  A    between atoms: C5_5  and  S1_6 
REMARK    3  A    between atoms: S1_6  and  C6_7 
REMARK    4  A    between atoms: C6_7  and  C7_8 
REMARK    5  A    between atoms: C12_13  and  C13_14 
ROOT
HETATM    1  C7  UNL     1      -0.997   0.098  -0.805  1.00  0.00    -0.038 A 
HETATM    2  C8  UNL     1      -0.176  -0.437  -1.775  1.00  0.00     0.009 A 
HETATM    3  C9  UNL     1      -0.721  -1.220  -2.759  1.00  0.00     0.001 A 
HETATM    4  C10 UNL     1      -2.067  -1.492  -2.814  1.00  0.00     0.001 A 
HETATM    5  C11 UNL     1      -2.854  -0.947  -1.840  1.00  0.00     0.013 A 
HETATM    6  C12 UNL     1      -2.351  -0.139  -0.811  1.00  0.00    -0.019 A 
ENDROOT
BRANCH   1   7
HETATM    7  C6  UNL     1      -0.423   0.961   0.287  1.00  0.00     0.113 C 
BRANCH   7   8
HETATM    8  S1  UNL     1       1.379   1.088   0.180  1.00  0.00    -0.160 SA
BRANCH   8   9
HETATM    9  C5  UNL     1       2.167  -0.467   0.620  1.00  0.00     0.112 C 
BRANCH   9  10
HETATM   10  C4  UNL     1       3.645  -0.356   0.499  1.00  0.00    -0.049 A 
HETATM   11  C3  UNL     1       4.450   0.046   1.542  1.00  0.00     0.008 A 
HETATM   12  C2  UNL     1       5.824   0.132   1.373  1.00  0.00     0.001 A 
HETATM   13  C1  UNL     1       6.390  -0.189   0.147  1.00  0.00     0.000 A 
HETATM   14  C20 UNL     1       5.591  -0.591  -0.898  1.00  0.00     0.001 A 
HETATM   15  C19 UNL     1       4.227  -0.672  -0.717  1.00  0.00     0.008 A 
ENDBRANCH   9  10
ENDBRANCH   8   9
ENDBRANCH   7   8
ENDBRANCH   1   7
BRANCH   6  16
HETATM   16  C13 UNL     1      -3.293   0.413   0.167  1.00  0.00    -0.025 A 
HETATM   17  C14 UNL     1      -4.034  -0.488   0.922  1.00  0.00     0.012 A 
HETATM   18  C15 UNL     1      -4.963  -0.072   1.847  1.00  0.00     0.001 A 
HETATM   19  C16 UNL     1      -5.189   1.270   2.054  1.00  0.00     0.000 A 
HETATM   20  C17 UNL     1      -4.462   2.193   1.313  1.00  0.00     0.001 A 
HETATM   21  C18 UNL     1      -3.531   1.738   0.386  1.00  0.00     0.012 A 
ENDBRANCH   6  16
TORSDOF 5
