REMARK  6 active torsions:
REMARK  status: ('A' for Active; 'I' for Inactive)
REMARK    1  A    between atoms: C1_2  and  C2_4 
REMARK    2  A    between atoms: C2_4  and  N2_5 
REMARK    3  A    between atoms: C2_4  and  C3_9 
REMARK    4  A    between atoms: C4_12  and  N4_13 
REMARK    5  A    between atoms: C4_12  and  C16_33 
REMARK       I    between atoms: N4_13  and  C5_15 
REMARK    6  A    between atoms: C5_15  and  C6_17 
ROOT
HETATM    1  C3  UNL     1      -3.806  -0.089   0.362  1.00  0.00     0.211 C 
HETATM    2  N3  UNL     1      -2.468  -0.278   0.015  1.00  0.00    -0.374 N 
ATOM      3  H3  UNL     1      -1.984   0.491  -0.448  1.00  0.00     0.157 HD
HETATM    4  C4  UNL     1      -1.752  -1.441   0.257  1.00  0.00     0.183 C 
HETATM    5  C17 UNL     1      -2.111  -2.518  -0.773  1.00  0.00     0.065 C 
HETATM    6  C18 UNL     1      -1.619  -2.058  -2.105  1.00  0.00     0.024 C 
HETATM    7  C19 UNL     1      -2.615  -2.218  -3.222  1.00  0.00     0.114 C 
HETATM    8  N8  UNL     1      -2.564  -1.093  -4.116  1.00  0.00    -0.420 N 
ATOM      9  H8  UNL     1      -1.755  -0.900  -4.706  1.00  0.00     0.153 HD
HETATM   10  C20 UNL     1      -3.729  -0.263  -4.119  1.00  0.00     0.133 C 
HETATM   11  C21 UNL     1      -3.889   0.459  -2.780  1.00  0.00     0.141 C 
HETATM   12  N9  UNL     1      -4.874  -0.199  -1.974  1.00  0.00    -0.358 N 
ATOM     13  H9  UNL     1      -5.745  -0.434  -2.451  1.00  0.00     0.162 HD
HETATM   14  C22 UNL     1      -4.809  -0.565  -0.623  1.00  0.00     0.242 C 
HETATM   15  O5  UNL     1      -5.698  -1.392  -0.181  1.00  0.00    -0.271 OA
ENDROOT
BRANCH   4  16
HETATM   16  N4  UNL     1      -0.324  -1.139  -0.042  1.00  0.00    -0.325 N 
HETATM   17  C5  UNL     1       0.436  -0.279   0.794  1.00  0.00     0.250 C 
HETATM   18  O2  UNL     1      -0.122   0.218   1.794  1.00  0.00    -0.271 OA
ATOM     19  H4  UNL     1       0.115  -1.557  -0.862  1.00  0.00     0.165 HD
BRANCH  17  20
HETATM   20  C6  UNL     1       1.855   0.042   0.524  1.00  0.00     0.277 C 
HETATM   21  C7  UNL     1       2.697  -1.216   0.454  1.00  0.00     0.043 C 
HETATM   22  C8  UNL     1       3.926  -1.136   1.325  1.00  0.00     0.004 C 
HETATM   23  C9  UNL     1       5.103  -1.572   0.470  1.00  0.00     0.020 C 
HETATM   24  C10 UNL     1       6.373  -0.894   0.860  1.00  0.00     0.122 C 
HETATM   25  N5  UNL     1       6.159   0.356   1.552  1.00  0.00    -0.361 N 
HETATM   26  C11 UNL     1       6.089   1.629   0.924  1.00  0.00     0.217 C 
ATOM     27  H5  UNL     1       6.050   0.322   2.566  1.00  0.00     0.162 HD
HETATM   28  O3  UNL     1       6.664   2.614   1.457  1.00  0.00    -0.274 OA
HETATM   29  C12 UNL     1       5.367   1.887  -0.349  1.00  0.00     0.103 C 
HETATM   30  C13 UNL     1       4.411   3.049  -0.073  1.00  0.00     0.011 C 
HETATM   31  C14 UNL     1       3.692   2.894   1.226  1.00  0.00     0.028 C 
HETATM   32  C15 UNL     1       2.311   2.314   1.084  1.00  0.00     0.233 C 
HETATM   33  N6  UNL     1       2.331   0.943   1.552  1.00  0.00    -0.062 N 
ATOM     34  H62 UNL     1       1.809   0.833   2.421  1.00  0.00     0.278 HD
ATOM     35  H61 UNL     1       3.254   0.674   1.892  1.00  0.00     0.278 HD
ENDBRANCH  17  20
ENDBRANCH   4  16
BRANCH   4  36
HETATM   36  C16 UNL     1      -1.801  -2.061   1.586  1.00  0.00     0.280 C 
HETATM   37  N7  UNL     1      -1.101  -3.295   1.862  1.00  0.00    -0.058 NA
HETATM   38  O4  UNL     1      -2.430  -1.576   2.530  1.00  0.00    -0.272 OA
ENDBRANCH   4  36
BRANCH   1  39
HETATM   39  C2  UNL     1      -4.040   1.445   0.446  1.00  0.00     0.303 C 
BRANCH  39  40
HETATM   40  C1  UNL     1      -5.449   1.686   0.810  1.00  0.00     0.264 C 
HETATM   41  N1  UNL     1      -5.757   2.272   2.060  1.00  0.00    -0.060 NA
HETATM   42  O1  UNL     1      -6.405   1.394   0.057  1.00  0.00    -0.274 OA
ENDBRANCH  39  40
BRANCH  39  43
HETATM   43  N2  UNL     1      -3.185   1.922   1.524  1.00  0.00    -0.064 N 
ATOM     44  H23 UNL     1      -3.364   2.898   1.759  1.00  0.00     0.275 HD
ATOM     45  H22 UNL     1      -3.430   1.511   2.425  1.00  0.00     0.275 HD
ATOM     46  H21 UNL     1      -2.211   1.755   1.272  1.00  0.00     0.275 HD
ENDBRANCH  39  43
ENDBRANCH   1  39
TORSDOF 6
