REMARK  6 active torsions:
REMARK  status: ('A' for Active; 'I' for Inactive)
REMARK       I    between atoms: C1_2  and  N1_3 
REMARK       I    between atoms: C1_2  and  N4_23 
REMARK    1  A    between atoms: N1_3  and  C2_4 
REMARK    2  A    between atoms: C5_7  and  C6_8 
REMARK    3  A    between atoms: C8_11  and  C9_12 
REMARK    4  A    between atoms: N4_23  and  C16_25 
REMARK    5  A    between atoms: C21_30  and  O2_31 
REMARK    6  A    between atoms: O2_31  and  C22_32 
ROOT
HETATM    1  O1  UNL     1      -1.896   3.749  -1.535  1.00  0.00    -0.230 OA
HETATM    2  C1  UNL     1      -1.421   2.614  -1.631  1.00  0.00     0.398 C 
HETATM    3  N1  UNL     1      -0.272   2.123  -1.076  1.00  0.00    -0.352 NA
HETATM    4  N4  UNL     1      -2.211   1.684  -2.457  1.00  0.00    -0.294 N 
ATOM      5  H4  UNL     1      -1.840   0.737  -2.530  1.00  0.00     0.172 HD
ENDROOT
BRANCH   3   6
HETATM    6  C2  UNL     1       0.859   1.639  -0.529  1.00  0.00     0.112 A 
HETATM    7  C3  UNL     1       1.040   1.336   0.807  1.00  0.00     0.045 A 
HETATM    8  C4  UNL     1       2.206   0.740   1.223  1.00  0.00     0.017 A 
HETATM    9  C5  UNL     1       3.219   0.425   0.369  1.00  0.00    -0.009 A 
HETATM   10  C14 UNL     1       3.050   0.730  -0.960  1.00  0.00     0.017 A 
HETATM   11  C15 UNL     1       1.902   1.324  -1.418  1.00  0.00     0.045 A 
BRANCH   9  12
HETATM   12  C6  UNL     1       4.424  -0.316   0.800  1.00  0.00     0.050 A 
HETATM   13  C7  UNL     1       5.493  -0.555  -0.067  1.00  0.00     0.082 A 
HETATM   14  S1  UNL     1       6.545  -1.458   0.904  1.00  0.00    -0.081 SA
HETATM   15  C8  UNL     1       5.604  -1.499   2.355  1.00  0.00     0.085 A 
HETATM   16  N3  UNL     1       4.551  -0.820   2.002  1.00  0.00    -0.349 N 
ATOM     17  H3  UNL     1       3.803  -0.676   2.681  1.00  0.00     0.166 HD
BRANCH  15  18
HETATM   18  C9  UNL     1       5.927  -2.181   3.607  1.00  0.00     0.000 A 
HETATM   19  C10 UNL     1       7.054  -2.968   3.649  1.00  0.00     0.031 A 
HETATM   20  C11 UNL     1       7.364  -3.612   4.829  1.00  0.00     0.088 A 
HETATM   21  N2  UNL     1       6.563  -3.455   5.890  1.00  0.00    -0.375 N 
HETATM   22  C12 UNL     1       5.455  -2.692   5.877  1.00  0.00     0.088 A 
ATOM     23  H2  UNL     1       6.806  -3.940   6.754  1.00  0.00     0.164 HD
HETATM   24  C13 UNL     1       5.142  -2.045   4.696  1.00  0.00     0.031 A 
ENDBRANCH  15  18
ENDBRANCH   9  12
ENDBRANCH   3   6
BRANCH   4  25
HETATM   25  C16 UNL     1      -3.374   1.917  -3.139  1.00  0.00     0.071 A 
HETATM   26  C17 UNL     1      -3.838   3.161  -3.537  1.00  0.00     0.032 A 
HETATM   27  C18 UNL     1      -4.936   3.314  -4.324  1.00  0.00     0.002 A 
HETATM   28  C19 UNL     1      -5.622   2.184  -4.747  1.00  0.00     0.003 A 
HETATM   29  C20 UNL     1      -5.178   0.926  -4.360  1.00  0.00     0.039 A 
HETATM   30  C21 UNL     1      -4.092   0.777  -3.580  1.00  0.00     0.102 A 
BRANCH  30  31
HETATM   31  O2  UNL     1      -3.627  -0.489  -3.171  1.00  0.00    -0.308 OA
BRANCH  31  32
HETATM   32  C22 UNL     1      -3.725  -0.731  -1.787  1.00  0.00     0.078 A 
HETATM   33  C23 UNL     1      -3.029  -1.772  -1.244  1.00  0.00     0.038 A 
HETATM   34  C24 UNL     1      -3.068  -2.086   0.104  1.00  0.00     0.018 A 
HETATM   35  C25 UNL     1      -3.869  -1.277   0.921  1.00  0.00     0.009 A 
HETATM   36  C26 UNL     1      -4.118  -1.327   2.292  1.00  0.00     0.120 A 
HETATM   37  C27 UNL     1      -4.581  -0.221   0.396  1.00  0.00     0.062 A 
HETATM   38  N5  UNL     1      -4.963  -0.312   2.554  1.00  0.00    -0.311 N 
HETATM   39  N6  UNL     1      -5.234   0.337   1.440  1.00  0.00    -0.300 N 
ATOM     40  H5  UNL     1      -5.336  -0.081   3.475  1.00  0.00     0.186 HD
ATOM     41  H6  UNL     1      -5.850   1.147   1.374  1.00  0.00     0.187 HD
HETATM   42  C28 UNL     1      -4.513   0.059  -0.966  1.00  0.00     0.069 A 
ENDBRANCH  31  32
ENDBRANCH  30  31
ENDBRANCH   4  25
TORSDOF 6
