REMARK  6 active torsions:
REMARK  status: ('A' for Active; 'I' for Inactive)
REMARK    1  A    between atoms: C1_2  and  C2_4 
REMARK    2  A    between atoms: C4_7  and  C5_8 
REMARK    3  A    between atoms: C6_9  and  C7_10 
REMARK    4  A    between atoms: C9_16  and  C10_17 
REMARK    5  A    between atoms: C13_20  and  N3_21 
REMARK    6  A    between atoms: N3_21  and  C14_23 
ROOT
HETATM    1  C7  UNL     1      -1.352  -0.276   2.585  1.00  0.00     0.021 A 
HETATM    2  C8  UNL     1      -1.781   0.224   3.825  1.00  0.00     0.121 A 
HETATM    3  N1  UNL     1      -0.717   0.703   4.495  1.00  0.00    -0.310 N 
ATOM      4  H1  UNL     1      -0.730   1.126   5.423  1.00  0.00     0.186 HD
HETATM    5  N2  UNL     1       0.348   0.526   3.734  1.00  0.00    -0.299 N 
ATOM      6  H2  UNL     1       1.297   0.798   3.992  1.00  0.00     0.187 HD
HETATM    7  C9  UNL     1       0.008  -0.067   2.561  1.00  0.00     0.070 A 
ENDROOT
BRANCH   1   8
HETATM    8  C6  UNL     1      -2.200  -0.911   1.604  1.00  0.00    -0.008 A 
HETATM    9  C5  UNL     1      -2.592  -0.279   0.452  1.00  0.00     0.020 A 
HETATM   10  C28 UNL     1      -3.369  -0.948  -0.492  1.00  0.00    -0.012 A 
HETATM   11  C23 UNL     1      -3.758  -2.276  -0.272  1.00  0.00    -0.025 A 
HETATM   12  C27 UNL     1      -3.797  -0.350  -1.649  1.00  0.00     0.013 A 
HETATM   13  C22 UNL     1      -3.354  -2.893   0.894  1.00  0.00     0.013 A 
HETATM   14  C24 UNL     1      -4.541  -2.986  -1.168  1.00  0.00     0.012 A 
HETATM   15  C21 UNL     1      -2.596  -2.250   1.823  1.00  0.00     0.014 A 
HETATM   16  C25 UNL     1      -4.967  -2.381  -2.329  1.00  0.00     0.001 A 
HETATM   17  C26 UNL     1      -4.595  -1.081  -2.557  1.00  0.00     0.001 A 
BRANCH   9  18
HETATM   18  C4  UNL     1      -2.234   1.128   0.297  1.00  0.00     0.086 A 
HETATM   19  S1  UNL     1      -2.144   2.124  -1.069  1.00  0.00    -0.081 SA
HETATM   20  C3  UNL     1      -1.750   3.610  -0.346  1.00  0.00     0.088 A 
HETATM   21  C2  UNL     1      -1.705   3.243   0.991  1.00  0.00     0.117 A 
HETATM   22  N5  UNL     1      -1.950   2.007   1.257  1.00  0.00    -0.344 N 
ATOM     23  H5  UNL     1      -1.926   1.693   2.227  1.00  0.00     0.167 HD
BRANCH  21  24
HETATM   24  C1  UNL     1      -1.394   4.241   2.042  1.00  0.00     0.227 C 
HETATM   25  O1  UNL     1      -1.360   3.911   3.239  1.00  0.00    -0.643 OA
HETATM   26  O2  UNL     1      -1.142   5.537   1.684  1.00  0.00    -0.643 OA
ENDBRANCH  21  24
ENDBRANCH   9  18
ENDBRANCH   1   8
BRANCH   7  27
HETATM   27  C10 UNL     1       0.878  -0.441   1.464  1.00  0.00    -0.007 A 
HETATM   28  C11 UNL     1       1.080  -1.727   1.013  1.00  0.00     0.016 A 
HETATM   29  C12 UNL     1       1.925  -2.009  -0.030  1.00  0.00     0.030 A 
HETATM   30  C13 UNL     1       2.622  -0.983  -0.682  1.00  0.00     0.032 A 
HETATM   31  C19 UNL     1       2.430   0.305  -0.244  1.00  0.00     0.030 A 
HETATM   32  C20 UNL     1       1.575   0.546   0.804  1.00  0.00     0.016 A 
BRANCH  30  33
HETATM   33  N3  UNL     1       3.463  -1.285  -1.780  1.00  0.00    -0.355 N 
ATOM     34  H3  UNL     1       3.259  -2.117  -2.333  1.00  0.00     0.166 HD
BRANCH  33  35
HETATM   35  C14 UNL     1       4.556  -0.501  -2.141  1.00  0.00     0.048 A 
HETATM   36  C15 UNL     1       4.952  -0.548  -3.478  1.00  0.00     0.032 A 
HETATM   37  C16 UNL     1       6.041   0.176  -3.889  1.00  0.00     0.019 A 
HETATM   38  C17 UNL     1       6.762   0.955  -3.013  1.00  0.00     0.088 A 
HETATM   39  N4  UNL     1       6.379   0.997  -1.727  1.00  0.00    -0.373 N 
HETATM   40  C18 UNL     1       5.314   0.293  -1.310  1.00  0.00     0.117 A 
ATOM     41  H4  UNL     1       6.901   1.568  -1.062  1.00  0.00     0.164 HD
ENDBRANCH  33  35
ENDBRANCH  30  33
ENDBRANCH   7  27
TORSDOF 6
