REMARK  1 active torsions:
REMARK  status: ('A' for Active; 'I' for Inactive)
REMARK    1  A    between atoms: N2_4  and  C1_6 
ROOT
HETATM    1  C1  UNL     1       1.020   0.288  -0.016  1.00  0.00     0.103 C 
HETATM    2  C2  UNL     1       0.176   0.017  -1.278  1.00  0.00     0.031 C 
HETATM    3  C3  UNL     1      -1.192   0.079  -0.660  1.00  0.00    -0.012 C 
HETATM    4  C4  UNL     1      -1.015  -0.891   0.518  1.00  0.00     0.011 C 
HETATM    5  C5  UNL     1      -0.063   0.176   1.012  1.00  0.00     0.010 C 
HETATM    6  C6  UNL     1      -1.097   1.153   0.415  1.00  0.00     0.011 C 
ENDROOT
BRANCH   1   7
HETATM    7  N2  UNL     1       2.094  -0.595   0.127  1.00  0.00    -0.338 N 
HETATM    8  N1  UNL     1       2.007  -1.821   0.260  1.00  0.00    -0.349 N 
ATOM      9  H12 UNL     1       1.062  -2.205   0.264  1.00  0.00     0.176 HD
ATOM     10  H11 UNL     1       2.791  -2.465   0.364  1.00  0.00     0.176 HD
ATOM     11  H2  UNL     1       3.031  -0.193   0.121  1.00  0.00     0.180 HD
ENDBRANCH   1   7
TORSDOF 1
