REMARK  3 active torsions:
REMARK  status: ('A' for Active; 'I' for Inactive)
REMARK    1  A    between atoms: C4_5  and  N2_6 
REMARK       I    between atoms: N2_6  and  C5_8 
REMARK       I    between atoms: C5_8  and  N4_12 
REMARK    2  A    between atoms: N4_12  and  C6_14 
REMARK    3  A    between atoms: C6_14  and  C7_15 
ROOT
HETATM    1  C1  UNL     1      -2.554   3.453   1.381  1.00  0.00     0.228 C 
HETATM    2  N1  UNL     1      -2.320   2.216   1.238  1.00  0.00    -0.438 NA
HETATM    3  C2  UNL     1      -2.088   1.003   1.028  1.00  0.00     0.067 C 
HETATM    4  C3  UNL     1      -0.716   0.790   0.599  1.00  0.00     0.100 C 
HETATM    5  C4  UNL     1      -0.730  -0.432  -0.332  1.00  0.00     0.054 C 
HETATM    6  C10 UNL     1      -1.802  -0.237  -1.342  1.00  0.00     0.036 C 
HETATM    7  C11 UNL     1      -3.138  -0.798  -1.001  1.00  0.00    -0.011 C 
HETATM    8  C12 UNL     1      -3.072  -2.188  -0.406  1.00  0.00     0.009 C 
HETATM    9  C13 UNL     1      -2.243  -2.049   0.870  1.00  0.00    -0.011 C 
HETATM   10  C14 UNL     1      -2.857  -1.118   1.857  1.00  0.00     0.016 C 
HETATM   11  C15 UNL     1      -3.290   0.209   1.285  1.00  0.00     0.046 C 
HETATM   12  C16 UNL     1      -3.968   0.041  -0.070  1.00  0.00     0.016 C 
HETATM   13  C17 UNL     1      -0.844  -1.706   0.461  1.00  0.00     0.036 C 
ENDROOT
BRANCH   5  14
HETATM   14  N2  UNL     1       0.570  -0.455  -0.973  1.00  0.00    -0.217 N 
HETATM   15  C5  UNL     1       1.785  -0.591  -0.275  1.00  0.00     0.668 C 
HETATM   16  N3  UNL     1       2.238  -1.782  -0.087  1.00  0.00    -0.235 N 
HETATM   17  N4  UNL     1       2.539   0.494   0.232  1.00  0.00    -0.226 N 
ATOM     18  H32 UNL     1       1.695  -2.564  -0.452  1.00  0.00     0.174 HD
ATOM     19  H31 UNL     1       3.118  -1.881   0.419  1.00  0.00     0.174 HD
ATOM     20  H4  UNL     1       2.040   1.330   0.536  1.00  0.00     0.177 HD
ATOM     21  H2  UNL     1       0.607  -0.368  -1.989  1.00  0.00     0.178 HD
BRANCH  17  22
HETATM   22  C6  UNL     1       3.979   0.479   0.341  1.00  0.00     0.142 C 
BRANCH  22  23
HETATM   23  C7  UNL     1       4.676   0.488  -1.006  1.00  0.00     0.004 A 
HETATM   24  C8  UNL     1       6.195   0.473  -0.889  1.00  0.00     0.007 A 
HETATM   25  C9  UNL     1       5.498   1.675  -1.397  1.00  0.00     0.007 A 
ENDBRANCH  22  23
ENDBRANCH  17  22
ENDBRANCH   5  14
TORSDOF 3
