REMARK  3 active torsions:
REMARK  status: ('A' for Active; 'I' for Inactive)
REMARK    1  A    between atoms: C3_3  and  N1_4 
REMARK       I    between atoms: N2_9  and  C8_10 
REMARK       I    between atoms: C8_10  and  N3_12 
REMARK       I    between atoms: N3_12  and  C9_14 
REMARK       I    between atoms: C9_14  and  N5_18 
REMARK    2  A    between atoms: N5_18  and  C10_20 
REMARK    3  A    between atoms: C10_20  and  C11_21 
ROOT
HETATM    1  C1  UNL     1      -2.525   2.091  -0.140  1.00  0.00     0.034 C 
HETATM    2  C2  UNL     1      -2.714   0.615  -0.415  1.00  0.00     0.117 C 
HETATM    3  C3  UNL     1      -3.544  -0.122   0.571  1.00  0.00     0.229 C 
HETATM    4  C7  UNL     1      -2.501  -1.165   0.540  1.00  0.00     0.163 C 
HETATM    5  N2  UNL     1      -1.590  -0.237  -0.098  1.00  0.00    -0.325 N 
HETATM    6  C8  UNL     1      -0.198  -0.132  -0.352  1.00  0.00     0.337 C 
HETATM    7  O1  UNL     1       0.565  -1.066   0.068  1.00  0.00    -0.246 OA
HETATM    8  N3  UNL     1       0.399   0.950  -1.046  1.00  0.00    -0.142 N 
ATOM      9  H3  UNL     1      -0.193   1.706  -1.390  1.00  0.00     0.189 HD
HETATM   10  C9  UNL     1       1.796   1.009  -1.274  1.00  0.00     0.675 C 
HETATM   11  N4  UNL     1       2.310   2.000  -1.905  1.00  0.00    -0.235 N 
ATOM     12  H41 UNL     1       3.316   2.042  -2.069  1.00  0.00     0.174 HD
ATOM     13  H42 UNL     1       1.690   2.739  -2.236  1.00  0.00     0.174 HD
HETATM   14  N5  UNL     1       2.659  -0.019  -0.814  1.00  0.00    -0.226 N 
ATOM     15  H5  UNL     1       2.643  -0.946  -1.239  1.00  0.00     0.177 HD
ENDROOT
BRANCH  14  16
HETATM   16  C10 UNL     1       3.558   0.282   0.270  1.00  0.00     0.142 C 
BRANCH  16  17
HETATM   17  C11 UNL     1       4.425  -0.857   0.684  1.00  0.00     0.004 C 
HETATM   18  C12 UNL     1       5.272  -1.285  -0.494  1.00  0.00     0.006 C 
HETATM   19  C13 UNL     1       6.200  -0.098  -0.649  1.00  0.00     0.000 C 
HETATM   20  C14 UNL     1       6.343   0.502   0.730  1.00  0.00     0.000 C 
HETATM   21  C15 UNL     1       5.474  -0.332   1.646  1.00  0.00     0.006 C 
ENDBRANCH  16  17
ENDBRANCH  14  16
BRANCH   3  22
HETATM   22  N1  UNL     1      -4.874  -0.485   0.154  1.00  0.00    -0.071 N 
HETATM   23  C4  UNL     1      -5.743   0.644   0.437  1.00  0.00     0.272 C 
HETATM   24  C5  UNL     1      -4.952  -0.861  -1.237  1.00  0.00     0.272 C 
HETATM   25  C6  UNL     1      -5.330  -1.588   0.974  1.00  0.00     0.272 C 
ENDBRANCH   3  22
TORSDOF 3
