REMARK  15 active torsions:
REMARK  status: ('A' for Active; 'I' for Inactive)
REMARK    1  A    between atoms: C2_2  and  C3_3 
REMARK    2  A    between atoms: C3_3  and  C4_4 
REMARK    3  A    between atoms: C4_4  and  N1_5 
REMARK    4  A    between atoms: N1_5  and  C5_6 
REMARK    5  A    between atoms: N1_5  and  C20_25 
REMARK    6  A    between atoms: C5_6  and  C6_7 
REMARK    7  A    between atoms: C5_6  and  C7_10 
REMARK    8  A    between atoms: C6_7  and  O1_8 
REMARK    9  A    between atoms: C7_10  and  O2_11 
REMARK   10  A    between atoms: O2_11  and  C8_12 
REMARK   11  A    between atoms: C8_12  and  C9_14 
REMARK   12  A    between atoms: C20_25  and  C21_26 
REMARK   13  A    between atoms: C20_25  and  C26_38 
REMARK       I    between atoms: C21_26  and  N2_28 
REMARK   14  A    between atoms: N2_28  and  C22_30 
REMARK   15  A    between atoms: C25_35  and  O7_36 
ROOT
HETATM    1  N1  UNL     1       1.723  -1.576  -0.031  1.00  0.00    -0.391 N 
ENDROOT
BRANCH   1   2
HETATM    2  C4  UNL     1       1.741  -2.812   0.677  1.00  0.00     0.118 C 
BRANCH   2   3
HETATM    3  C3  UNL     1       2.884  -3.140   1.568  1.00  0.00     0.019 C 
BRANCH   3   4
HETATM    4  C2  UNL     1       3.050  -2.260   2.775  1.00  0.00    -0.003 C 
HETATM    5  C1  UNL     1       4.264  -2.675   3.578  1.00  0.00     0.005 C 
ENDBRANCH   3   4
ENDBRANCH   2   3
ENDBRANCH   1   2
BRANCH   1   6
HETATM    6  C5  UNL     1       0.499  -1.162  -0.517  1.00  0.00     0.128 C 
BRANCH   6   7
HETATM    7  C6  UNL     1      -0.252  -2.067  -1.493  1.00  0.00     0.191 C 
BRANCH   7   8
HETATM    8  O1  UNL     1      -0.530  -3.316  -0.996  1.00  0.00    -0.399 OA
ATOM      9  H1  UNL     1      -0.997  -3.879  -1.603  1.00  0.00     0.209 HD
ENDBRANCH   7   8
ENDBRANCH   6   7
BRANCH   6  10
HETATM   10  C7  UNL     1      -0.530  -0.976   0.634  1.00  0.00     0.205 C 
BRANCH  10  11
HETATM   11  O2  UNL     1      -1.752  -0.485   0.060  1.00  0.00    -0.319 OA
BRANCH  11  12
HETATM   12  C8  UNL     1      -2.807  -0.267   0.929  1.00  0.00     0.267 C 
HETATM   13  O3  UNL     1      -2.631  -0.521   2.144  1.00  0.00    -0.264 OA
BRANCH  12  14
HETATM   14  C9  UNL     1      -4.130   0.265   0.426  1.00  0.00     0.049 C 
HETATM   15  C10 UNL     1      -4.702  -0.761  -0.504  1.00  0.00     0.020 C 
HETATM   16  C11 UNL     1      -5.789  -0.317  -1.397  1.00  0.00     0.006 C 
HETATM   17  C12 UNL     1      -6.611   0.841  -0.980  1.00  0.00    -0.014 C 
HETATM   18  C13 UNL     1      -5.923   2.126  -1.326  1.00  0.00     0.009 C 
HETATM   19  C17 UNL     1      -7.122   0.807   0.435  1.00  0.00     0.009 C 
HETATM   20  C14 UNL     1      -4.912   2.538  -0.313  1.00  0.00    -0.013 C 
HETATM   21  C15 UNL     1      -5.588   2.698   1.018  1.00  0.00     0.009 C 
HETATM   22  C19 UNL     1      -3.772   1.556  -0.269  1.00  0.00     0.024 C 
HETATM   23  C16 UNL     1      -6.163   1.384   1.424  1.00  0.00    -0.013 C 
HETATM   24  C18 UNL     1      -5.032   0.411   1.598  1.00  0.00     0.024 C 
ENDBRANCH  12  14
ENDBRANCH  11  12
ENDBRANCH  10  11
ENDBRANCH   6  10
ENDBRANCH   1   6
BRANCH   1  25
HETATM   25  C20 UNL     1       2.977  -1.015  -0.365  1.00  0.00     0.175 C 
BRANCH  25  26
HETATM   26  C21 UNL     1       3.092   0.457  -0.277  1.00  0.00     0.241 C 
HETATM   27  O4  UNL     1       2.064   1.245  -0.317  1.00  0.00    -0.271 OA
HETATM   28  N2  UNL     1       4.291   1.195  -0.140  1.00  0.00    -0.349 N 
ATOM     29  H2  UNL     1       5.183   0.703  -0.085  1.00  0.00     0.163 HD
BRANCH  28  30
HETATM   30  C22 UNL     1       4.267   2.666  -0.076  1.00  0.00     0.149 C 
HETATM   31  C23 UNL     1       5.157   3.174   1.009  1.00  0.00     0.141 C 
HETATM   32  C24 UNL     1       5.575   4.521   0.469  1.00  0.00     0.263 C 
HETATM   33  O5  UNL     1       6.126   5.466   1.106  1.00  0.00    -0.265 OA
HETATM   34  O6  UNL     1       5.254   4.582  -0.886  1.00  0.00    -0.288 OA
HETATM   35  C25 UNL     1       4.849   3.292  -1.336  1.00  0.00     0.289 C 
BRANCH  35  36
HETATM   36  O7  UNL     1       5.900   2.562  -1.866  1.00  0.00    -0.369 OA
ATOM     37  H7  UNL     1       6.263   2.953  -2.652  1.00  0.00     0.212 HD
ENDBRANCH  35  36
ENDBRANCH  28  30
ENDBRANCH  25  26
BRANCH  25  38
HETATM   38  C26 UNL     1       3.594  -1.520  -1.623  1.00  0.00     0.009 C 
HETATM   39  C27 UNL     1       2.956  -1.287  -2.925  1.00  0.00     0.012 C 
HETATM   40  C28 UNL     1       5.061  -1.246  -1.704  1.00  0.00     0.012 C 
ENDBRANCH  25  38
ENDBRANCH   1  25
TORSDOF 15
