REMARK  18 active torsions:
REMARK  status: ('A' for Active; 'I' for Inactive)
REMARK    1  A    between atoms: C7_7  and  O1_8 
REMARK    2  A    between atoms: O1_8  and  C8_9 
REMARK    3  A    between atoms: C8_9  and  C9_10 
REMARK    4  A    between atoms: C9_10  and  O2_11 
REMARK    5  A    between atoms: O2_11  and  C10_12 
REMARK    6  A    between atoms: C10_12  and  C11_13 
REMARK    7  A    between atoms: C11_13  and  O3_14 
REMARK    8  A    between atoms: O3_14  and  C12_15 
REMARK    9  A    between atoms: C12_15  and  C13_16 
REMARK   10  A    between atoms: C13_16  and  O4_17 
REMARK   11  A    between atoms: O4_17  and  C14_18 
REMARK   12  A    between atoms: C14_18  and  C15_19 
REMARK   13  A    between atoms: C15_19  and  O5_20 
REMARK   14  A    between atoms: O5_20  and  C16_21 
REMARK   15  A    between atoms: C16_21  and  C17_22 
REMARK   16  A    between atoms: C17_22  and  N1_23 
REMARK   17  A    between atoms: N2_26  and  C20_27 
REMARK   18  A    between atoms: C20_27  and  C21_28 
ROOT
HETATM    1  C13 UNL     1      -0.264  -0.612   2.721  1.00  0.00     0.193 C 
ENDROOT
BRANCH   1   2
HETATM    2  C12 UNL     1      -0.887  -1.944   2.605  1.00  0.00     0.193 C 
BRANCH   2   3
HETATM    3  O3  UNL     1      -1.196  -2.244   1.295  1.00  0.00    -0.387 OA
BRANCH   3   4
HETATM    4  C11 UNL     1      -2.083  -1.372   0.678  1.00  0.00     0.193 C 
BRANCH   4   5
HETATM    5  C10 UNL     1      -2.272  -1.906  -0.728  1.00  0.00     0.193 C 
BRANCH   5   6
HETATM    6  O2  UNL     1      -3.122  -1.167  -1.517  1.00  0.00    -0.387 OA
BRANCH   6   7
HETATM    7  C9  UNL     1      -4.379  -1.124  -0.950  1.00  0.00     0.194 C 
BRANCH   7   8
HETATM    8  C8  UNL     1      -5.355  -0.340  -1.818  1.00  0.00     0.201 C 
BRANCH   8   9
HETATM    9  O1  UNL     1      -6.599  -0.376  -1.121  1.00  0.00    -0.349 OA
BRANCH   9  10
HETATM   10  C7  UNL     1      -7.742   0.238  -1.605  1.00  0.00     0.074 A 
HETATM   11  C2  UNL     1      -8.895   0.146  -0.858  1.00  0.00    -0.029 A 
HETATM   12  C1  UNL     1      -8.950  -0.584   0.436  1.00  0.00     0.051 C 
HETATM   13  C3  UNL     1     -10.027   0.759  -1.345  1.00  0.00     0.009 A 
HETATM   14  C4  UNL     1     -10.047   1.447  -2.530  1.00  0.00     0.001 A 
HETATM   15  C5  UNL     1      -8.886   1.548  -3.298  1.00  0.00     0.003 A 
HETATM   16  C6  UNL     1      -7.758   0.928  -2.796  1.00  0.00     0.037 A 
ENDBRANCH   9  10
ENDBRANCH   8   9
ENDBRANCH   7   8
ENDBRANCH   6   7
ENDBRANCH   5   6
ENDBRANCH   4   5
ENDBRANCH   3   4
ENDBRANCH   2   3
ENDBRANCH   1   2
BRANCH   1  17
HETATM   17  O4  UNL     1       0.095  -0.201   3.964  1.00  0.00    -0.387 OA
BRANCH  17  18
HETATM   18  C14 UNL     1       0.983  -0.911   4.687  1.00  0.00     0.193 C 
BRANCH  18  19
HETATM   19  C15 UNL     1       2.305  -0.968   3.859  1.00  0.00     0.193 C 
BRANCH  19  20
HETATM   20  O5  UNL     1       2.846   0.107   3.577  1.00  0.00    -0.387 OA
BRANCH  20  21
HETATM   21  C16 UNL     1       3.362   1.198   3.276  1.00  0.00     0.187 C 
BRANCH  21  22
HETATM   22  C17 UNL     1       3.499   1.518   1.765  1.00  0.00     0.143 C 
BRANCH  22  23
HETATM   23  N1  UNL     1       4.303   0.514   1.189  1.00  0.00    -0.407 N 
HETATM   24  C18 UNL     1       5.676   0.466   1.537  1.00  0.00     0.147 C 
HETATM   25  C19 UNL     1       6.400  -0.160   0.337  1.00  0.00     0.291 C 
HETATM   26  N2  UNL     1       6.063   0.741  -0.790  1.00  0.00     0.091 N 
HETATM   27  C24 UNL     1       4.774   0.370  -1.237  1.00  0.00     0.291 C 
HETATM   28  C25 UNL     1       3.921  -0.044  -0.050  1.00  0.00     0.147 C 
BRANCH  26  29
HETATM   29  C20 UNL     1       7.148   0.687  -1.701  1.00  0.00     0.277 C 
BRANCH  29  30
HETATM   30  C21 UNL     1       7.065   1.554  -2.901  1.00  0.00     0.014 A 
HETATM   31  C22 UNL     1       6.023   1.453  -3.930  1.00  0.00     0.007 A 
HETATM   32  C23 UNL     1       7.387   0.916  -4.243  1.00  0.00     0.007 A 
ENDBRANCH  29  30
ENDBRANCH  26  29
ENDBRANCH  22  23
ENDBRANCH  21  22
ENDBRANCH  20  21
ENDBRANCH  19  20
ENDBRANCH  18  19
ENDBRANCH  17  18
ENDBRANCH   1  17
TORSDOF 18
