REMARK  2 active torsions:
REMARK  status: ('A' for Active; 'I' for Inactive)
REMARK    1  A    between atoms: N1_1  and  N2_4 
REMARK    2  A    between atoms: N3_6  and  N4_8 
ROOT
HETATM    1  N4  UNL     1       0.002   0.101  -0.470  1.00  0.00    -0.269 N 
HETATM    2  C1  UNL     1      -1.141  -0.632  -0.188  1.00  0.00     0.183 A 
HETATM    3  C2  UNL     1      -1.900  -0.650   1.119  1.00  0.00     0.265 C 
HETATM    4  N5  UNL     1      -2.180   0.739   0.674  1.00  0.00    -0.049 N 
ATOM      5  H51 UNL     1      -2.688   1.432   1.223  1.00  0.00     0.279 HD
ATOM      6  H52 UNL     1      -2.837   0.990  -0.065  1.00  0.00     0.279 HD
HETATM    7  C3  UNL     1      -0.745   0.705   0.520  1.00  0.00     0.329 A 
ENDROOT
BRANCH   1   8
HETATM    8  N3  UNL     1       1.161   0.181  -1.249  1.00  0.00    -0.228 N 
HETATM    9  N2  UNL     1       2.267  -0.005  -0.653  1.00  0.00    -0.235 N 
ATOM     10  H2  UNL     1       2.296  -0.203   0.347  1.00  0.00     0.209 HD
ATOM     11  H3  UNL     1       1.120   0.379  -2.249  1.00  0.00     0.209 HD
BRANCH   9  12
HETATM   12  N1  UNL     1       3.427   0.067  -1.393  1.00  0.00    -0.330 N 
ATOM     13  H12 UNL     1       3.381   0.265  -2.392  1.00  0.00     0.178 HD
ATOM     14  H11 UNL     1       4.315  -0.082  -0.914  1.00  0.00     0.178 HD
ENDBRANCH   9  12
ENDBRANCH   1   8
TORSDOF 2
