REMARK  2 active torsions:
REMARK  status: ('A' for Active; 'I' for Inactive)
REMARK    1  A    between atoms: N4_6  and  N5_7 
REMARK    2  A    between atoms: N5_7  and  N6_9 
ROOT
HETATM    1  C1  UNL     1       2.239  -0.244   0.056  1.00  0.00     0.205 C 
HETATM    2  N1  UNL     1       1.057   0.628   0.117  1.00  0.00    -0.189 N 
HETATM    3  N2  UNL     1       0.813   1.906   0.263  1.00  0.00    -0.204 N 
ATOM      4  H2  UNL     1       1.379   2.745   0.386  1.00  0.00     0.207 HD
HETATM    5  N3  UNL     1      -0.481   1.645   0.183  1.00  0.00     0.038 NA
HETATM    6  N4  UNL     1      -0.230   0.345   0.035  1.00  0.00    -0.082 N 
ENDROOT
BRANCH   6   7
HETATM    7  N5  UNL     1      -1.027  -0.811  -0.136  1.00  0.00    -0.213 N 
ATOM      8  H5  UNL     1      -0.555  -1.710  -0.229  1.00  0.00     0.211 HD
BRANCH   7   9
HETATM    9  N6  UNL     1      -2.382  -0.794  -0.184  1.00  0.00    -0.328 N 
ATOM     10  H62 UNL     1      -2.837   0.114  -0.090  1.00  0.00     0.178 HD
ATOM     11  H61 UNL     1      -2.957  -1.628  -0.307  1.00  0.00     0.178 HD
ENDBRANCH   7   9
ENDBRANCH   6   7
TORSDOF 2
