REMARK  13 active torsions:
REMARK  status: ('A' for Active; 'I' for Inactive)
REMARK    1  A    between atoms: N1_1  and  C1_4 
REMARK    2  A    between atoms: C3_6  and  O1_7 
REMARK    3  A    between atoms: O1_7  and  C4_8 
REMARK    4  A    between atoms: C4_8  and  C5_9 
REMARK    5  A    between atoms: C5_9  and  C6_10 
REMARK    6  A    between atoms: C6_10  and  C7_11 
REMARK    7  A    between atoms: C7_11  and  N2_12 
REMARK    8  A    between atoms: C9_20  and  C10_21 
REMARK       I    between atoms: C10_21  and  N6_23 
REMARK    9  A    between atoms: N6_23  and  C11_25 
REMARK   10  A    between atoms: C11_25  and  C12_26 
REMARK   11  A    between atoms: C12_26  and  N7_27 
REMARK   12  A    between atoms: N7_27  and  C13_29 
REMARK   13  A    between atoms: C15_41  and  N14_42 
ROOT
HETATM    1  N2  UNL     1      -1.653  -1.597  -0.192  1.00  0.00    -0.258 N 
HETATM    2  N3  UNL     1      -1.211  -1.118   0.954  1.00  0.00    -0.224 N 
ATOM      3  H3  UNL     1      -1.878  -0.957   1.709  1.00  0.00     0.210 HD
HETATM    4  N4  UNL     1       0.070  -0.837   1.163  1.00  0.00    -0.216 N 
ATOM      5  H4  UNL     1       0.359  -0.468   2.069  1.00  0.00     0.210 HD
HETATM    6  N5  UNL     1       0.977  -1.025   0.223  1.00  0.00    -0.181 N 
HETATM    7  C8  UNL     1       2.284  -0.733   0.450  1.00  0.00     0.303 A 
HETATM    8  O2  UNL     1       2.616  -0.281   1.573  1.00  0.00    -0.263 OA
HETATM    9  C9  UNL     1       3.200  -0.934  -0.531  1.00  0.00     0.186 A 
HETATM   10  N12 UNL     1       2.754  -1.428  -1.721  1.00  0.00    -0.289 N 
ATOM     11  H12 UNL     1       3.433  -1.583  -2.466  1.00  0.00     0.187 HD
HETATM   12  N13 UNL     1       1.493  -1.715  -1.957  1.00  0.00    -0.280 N 
ATOM     13  H13 UNL     1       1.200  -2.083  -2.862  1.00  0.00     0.188 HD
HETATM   14  C14 UNL     1       0.595  -1.508  -0.966  1.00  0.00     0.192 A 
HETATM   15  C15 UNL     1      -0.761  -1.800  -1.173  1.00  0.00     0.165 A 
ENDROOT
BRANCH   1  16
HETATM   16  C7  UNL     1      -3.050  -1.901  -0.397  1.00  0.00     0.152 C 
BRANCH  16  17
HETATM   17  C6  UNL     1      -3.710  -0.659  -0.957  1.00  0.00     0.024 C 
BRANCH  17  18
HETATM   18  C5  UNL     1      -5.185  -0.953  -1.183  1.00  0.00     0.028 C 
BRANCH  18  19
HETATM   19  C4  UNL     1      -5.893   0.242  -1.738  1.00  0.00     0.175 C 
BRANCH  19  20
HETATM   20  O1  UNL     1      -5.889   1.393  -1.015  1.00  0.00    -0.351 OA
BRANCH  20  21
HETATM   21  C3  UNL     1      -6.413   1.669   0.209  1.00  0.00     0.073 A 
HETATM   22  C2  UNL     1      -7.113   0.779   0.991  1.00  0.00     0.084 A 
HETATM   23  C1  UNL     1      -7.595   1.185   2.228  1.00  0.00     0.101 A 
HETATM   24  N15 UNL     1      -7.417   2.420   2.721  1.00  0.00    -0.353 N 
HETATM   25  C17 UNL     1      -6.740   3.321   1.990  1.00  0.00     0.092 A 
ATOM     26  H15 UNL     1      -7.790   2.671   3.637  1.00  0.00     0.166 HD
HETATM   27  C16 UNL     1      -6.252   2.955   0.769  1.00  0.00     0.054 A 
BRANCH  23  28
HETATM   28  N1  UNL     1      -8.246   0.347   2.951  1.00  0.00    -0.385 N 
ATOM     29  H12 UNL     1      -8.381  -0.592   2.576  1.00  0.00     0.157 HD
ATOM     30  H11 UNL     1      -8.600   0.645   3.860  1.00  0.00     0.157 HD
ENDBRANCH  23  28
ENDBRANCH  20  21
ENDBRANCH  19  20
ENDBRANCH  18  19
ENDBRANCH  17  18
ENDBRANCH  16  17
ENDBRANCH   1  16
BRANCH  15  31
HETATM   31  N14 UNL     1      -1.076  -2.256  -2.328  1.00  0.00    -0.381 N 
ATOM     32 2H14 UNL     1      -2.062  -2.468  -2.479  1.00  0.00     0.157 HD
ATOM     33 1H14 UNL     1      -0.398  -2.410  -3.074  1.00  0.00     0.157 HD
ENDBRANCH  15  31
BRANCH   9  34
HETATM   34  C10 UNL     1       4.630  -0.638  -0.343  1.00  0.00     0.275 C 
HETATM   35  O3  UNL     1       4.966  -0.185   0.781  1.00  0.00    -0.266 OA
HETATM   36  N6  UNL     1       5.549  -0.864  -1.397  1.00  0.00    -0.354 N 
ATOM     37  H6  UNL     1       5.208  -1.233  -2.285  1.00  0.00     0.162 HD
BRANCH  36  38
HETATM   38  C11 UNL     1       6.943  -0.587  -1.245  1.00  0.00     0.143 C 
BRANCH  38  39
HETATM   39  C12 UNL     1       7.622  -1.369  -0.147  1.00  0.00     0.157 C 
BRANCH  39  40
HETATM   40  N7  UNL     1       9.021  -0.956  -0.149  1.00  0.00    -0.223 N 
ATOM     41  H7  UNL     1       9.721  -1.533  -0.616  1.00  0.00     0.177 HD
BRANCH  40  42
HETATM   42  C13 UNL     1       9.376   0.137   0.438  1.00  0.00     0.703 A 
HETATM   43  N8  UNL     1      10.662   0.579   0.472  1.00  0.00    -0.117 N 
HETATM   44  N9  UNL     1      10.682   1.717   1.146  1.00  0.00     0.006 NA
ATOM     45  H8  UNL     1      11.468   0.115   0.052  1.00  0.00     0.202 HD
HETATM   46  N10 UNL     1       9.462   2.033   1.549  1.00  0.00     0.006 NA
HETATM   47  N11 UNL     1       8.676   1.049   1.104  1.00  0.00    -0.117 N 
ATOM     48  H11 UNL     1       7.668   1.004   1.256  1.00  0.00     0.202 HD
ENDBRANCH  40  42
ENDBRANCH  39  40
ENDBRANCH  38  39
ENDBRANCH  36  38
ENDBRANCH   9  34
TORSDOF 13
