REMARK  4 active torsions:
REMARK  status: ('A' for Active; 'I' for Inactive)
REMARK    1  A    between atoms: N1_1  and  C1_4 
REMARK    2  A    between atoms: C2_9  and  C3_10 
REMARK       I    between atoms: C3_10  and  N4_12 
REMARK       I    between atoms: C4_14  and  N5_15 
REMARK       I    between atoms: C4_14  and  N6_19 
REMARK    3  A    between atoms: N5_15  and  O2_17 
REMARK    4  A    between atoms: N6_19  and  N7_21 
ROOT
HETATM    1  C3  UNL     1      -0.058   0.322  -0.749  1.00  0.00     0.305 C 
HETATM    2  O1  UNL     1      -0.026   1.123  -1.715  1.00  0.00    -0.263 OA
HETATM    3  N4  UNL     1       1.164  -0.124  -0.225  1.00  0.00    -0.150 N 
ATOM      4  H4  UNL     1       1.330  -1.130  -0.185  1.00  0.00     0.188 HD
HETATM    5  C4  UNL     1       2.091   0.661   0.210  1.00  0.00     0.719 C 
HETATM    6  N5  UNL     1       1.873   2.065   0.161  1.00  0.00    -0.097 N 
ATOM      7  H5  UNL     1       1.309   2.471  -0.586  1.00  0.00     0.213 HD
HETATM    8  N6  UNL     1       3.270   0.066   0.711  1.00  0.00    -0.137 N 
ATOM      9  H6  UNL     1       3.458   0.052   1.713  1.00  0.00     0.205 HD
ENDROOT
BRANCH   1  10
HETATM   10  C2  UNL     1      -1.311  -0.151  -0.167  1.00  0.00     0.205 A 
HETATM   11  N3  UNL     1      -1.443  -1.004   0.862  1.00  0.00    -0.266 N 
HETATM   12  N2  UNL     1      -2.746  -1.191   1.102  1.00  0.00    -0.131 N 
ATOM     13  H3  UNL     1      -0.676  -1.438   1.376  1.00  0.00     0.189 HD
HETATM   14  C1  UNL     1      -3.460  -0.462   0.230  1.00  0.00     0.692 A 
ATOM     15  H2  UNL     1      -3.134  -1.791   1.830  1.00  0.00     0.205 HD
HETATM   16  N8  UNL     1      -2.578   0.174  -0.544  1.00  0.00    -0.169 N 
ATOM     17  H8  UNL     1      -2.818   0.809  -1.305  1.00  0.00     0.186 HD
BRANCH  14  18
HETATM   18  N1  UNL     1      -4.741  -0.394   0.162  1.00  0.00    -0.233 N 
ATOM     19  H12 UNL     1      -5.415  -0.880   0.753  1.00  0.00     0.174 HD
ATOM     20  H11 UNL     1      -5.284   0.160  -0.501  1.00  0.00     0.174 HD
ENDBRANCH  14  18
ENDBRANCH   1  10
BRANCH   6  21
HETATM   21  O2  UNL     1       2.381   2.806   1.047  1.00  0.00    -0.276 OA
ATOM     22  H2  UNL     1       2.235   3.744   1.014  1.00  0.00     0.245 HD
ENDBRANCH   6  21
BRANCH   8  23
HETATM   23  N7  UNL     1       4.168  -0.499  -0.183  1.00  0.00    -0.331 N 
ATOM     24  H72 UNL     1       3.965  -0.477  -1.182  1.00  0.00     0.177 HD
ATOM     25  H71 UNL     1       5.019  -0.929   0.179  1.00  0.00     0.177 HD
ENDBRANCH   8  23
TORSDOF 4
