REMARK  9 active torsions:
REMARK  status: ('A' for Active; 'I' for Inactive)
REMARK    1  A    between atoms: C1_4  and  C2_5 
REMARK    2  A    between atoms: C1_4  and  N2_8 
REMARK    3  A    between atoms: N2_8  and  C3_9 
REMARK    4  A    between atoms: N2_8  and  S1_27 
REMARK    5  A    between atoms: C3_9  and  C4_10 
REMARK       I    between atoms: C4_10  and  N3_12 
REMARK    6  A    between atoms: N3_12  and  C5_14 
REMARK    7  A    between atoms: C10_19  and  O2_20 
REMARK    8  A    between atoms: O2_20  and  C11_21 
REMARK    9  A    between atoms: S1_27  and  C17_30 
ROOT
HETATM    1  C3  UNL     1      -0.448  -0.790  -0.452  1.00  0.00     0.246 C 
ENDROOT
BRANCH   1   2
HETATM    2  N2  UNL     1      -1.859  -0.529  -0.521  1.00  0.00    -0.250 N 
BRANCH   2   3
HETATM    3  C1  UNL     1      -2.629  -1.257  -1.497  1.00  0.00     0.121 C 
HETATM    4  N1  UNL     1      -2.787  -0.768  -2.691  1.00  0.00    -0.386 N 
ATOM      5  H12 UNL     1      -3.332  -1.283  -3.382  1.00  0.00     0.157 HD
ATOM      6  H11 UNL     1      -2.356   0.131  -2.904  1.00  0.00     0.157 HD
BRANCH   3   7
HETATM    7  C2  UNL     1      -3.254  -2.560  -1.189  1.00  0.00     0.245 C 
HETATM    8 CL1  UNL     1      -4.169  -3.125  -2.596  1.00  0.00    -0.100 Cl
HETATM    9 CL2  UNL     1      -1.949  -3.768  -0.926  1.00  0.00    -0.100 Cl
ENDBRANCH   3   7
ENDBRANCH   2   3
BRANCH   2  10
HETATM   10  S1  UNL     1      -2.586   0.626   0.523  1.00  0.00     0.266 S 
HETATM   11  O3  UNL     1      -3.190   1.699  -0.369  1.00  0.00    -0.200 OA
HETATM   12  O4  UNL     1      -1.505   1.324   1.315  1.00  0.00    -0.200 OA
BRANCH  10  13
HETATM   13  C17 UNL     1      -3.800  -0.049   1.570  1.00  0.00     0.080 A 
HETATM   14  C18 UNL     1      -5.145  -0.063   1.203  1.00  0.00     0.025 A 
HETATM   15  C19 UNL     1      -6.098  -0.601   2.042  1.00  0.00     0.002 A 
HETATM   16  C20 UNL     1      -5.774  -1.143   3.267  1.00  0.00     0.000 A 
HETATM   17  C21 UNL     1      -4.445  -1.132   3.635  1.00  0.00     0.002 A 
HETATM   18  C22 UNL     1      -3.496  -0.597   2.801  1.00  0.00     0.025 A 
ENDBRANCH  10  13
ENDBRANCH   2  10
ENDBRANCH   1   2
BRANCH   1  19
HETATM   19  C4  UNL     1       0.334   0.124  -1.376  1.00  0.00     0.241 C 
HETATM   20  O1  UNL     1      -0.314   0.932  -2.033  1.00  0.00    -0.271 OA
HETATM   21  N3  UNL     1       1.719  -0.032  -1.399  1.00  0.00    -0.323 N 
ATOM     22  H3  UNL     1       2.133  -0.741  -0.794  1.00  0.00     0.169 HD
BRANCH  21  23
HETATM   23  C5  UNL     1       2.587   0.741  -2.217  1.00  0.00     0.069 A 
HETATM   24  C6  UNL     1       2.162   1.468  -3.307  1.00  0.00     0.032 A 
HETATM   25  C7  UNL     1       3.126   2.108  -4.096  1.00  0.00     0.002 A 
HETATM   26  C8  UNL     1       4.473   2.035  -3.822  1.00  0.00     0.003 A 
HETATM   27  C9  UNL     1       4.899   1.310  -2.732  1.00  0.00     0.039 A 
HETATM   28  C10 UNL     1       3.955   0.664  -1.927  1.00  0.00     0.102 A 
BRANCH  28  29
HETATM   29  O2  UNL     1       4.378  -0.063  -0.829  1.00  0.00    -0.309 OA
BRANCH  29  30
HETATM   30  C11 UNL     1       4.106   0.254   0.489  1.00  0.00     0.076 A 
HETATM   31  C12 UNL     1       4.466  -0.601   1.508  1.00  0.00     0.037 A 
HETATM   32  C13 UNL     1       4.231  -0.351   2.827  1.00  0.00     0.003 A 
HETATM   33  C14 UNL     1       3.600   0.812   3.203  1.00  0.00     0.000 A 
HETATM   34  C15 UNL     1       3.223   1.695   2.213  1.00  0.00     0.003 A 
HETATM   35  C16 UNL     1       3.467   1.429   0.889  1.00  0.00     0.037 A 
ENDBRANCH  29  30
ENDBRANCH  28  29
ENDBRANCH  21  23
ENDBRANCH   1  19
TORSDOF 9
