REMARK  7 active torsions:
REMARK  status: ('A' for Active; 'I' for Inactive)
REMARK    1  A    between atoms: O1_2  and  C2_3 
REMARK    2  A    between atoms: C5_7  and  C6_8 
REMARK    3  A    between atoms: C6_8  and  C16_23 
REMARK    4  A    between atoms: C7_9  and  C8_10 
REMARK    5  A    between atoms: N1_11  and  N2_13 
REMARK       I    between atoms: N2_13  and  C9_15 
REMARK    6  A    between atoms: C9_15  and  C10_17 
REMARK    7  A    between atoms: C21_30  and  C22_31 
ROOT
HETATM    1  C6  UNL     1      -1.027  -2.025  -0.104  1.00  0.00     0.009 C 
HETATM    2  C7  UNL     1       0.234  -2.148  -0.302  1.00  0.00     0.034 C 
ENDROOT
BRANCH   1   3
HETATM    3  C5  UNL     1      -1.853  -0.860   0.162  1.00  0.00    -0.019 A 
HETATM    4  C4  UNL     1      -1.532   0.225   0.919  1.00  0.00     0.057 A 
HETATM    5  C3  UNL     1      -2.366   1.333   0.983  1.00  0.00     0.151 A 
HETATM    6  C2  UNL     1      -3.554   1.383   0.288  1.00  0.00     0.123 A 
HETATM    7  F1  UNL     1      -1.957   2.363   1.762  1.00  0.00    -0.203 F 
HETATM    8  C21 UNL     1      -3.914   0.307  -0.485  1.00  0.00     0.078 A 
HETATM    9  C20 UNL     1      -3.076  -0.786  -0.542  1.00  0.00     0.034 A 
BRANCH   6  10
HETATM   10  O1  UNL     1      -4.358   2.508   0.378  1.00  0.00    -0.352 OA
HETATM   11  C1  UNL     1      -4.222   3.626  -0.501  1.00  0.00     0.210 C 
ENDBRANCH   6  10
BRANCH   8  12
HETATM   12  C22 UNL     1      -5.155   0.263  -1.245  1.00  0.00     0.212 C 
HETATM   13  O4  UNL     1      -5.434  -0.742  -1.941  1.00  0.00    -0.644 OA
HETATM   14  O5  UNL     1      -6.070   1.297  -1.242  1.00  0.00    -0.644 OA
ENDBRANCH   8  12
ENDBRANCH   1   3
BRANCH   1  15
HETATM   15  C16 UNL     1      -1.830  -3.307  -0.080  1.00  0.00     0.087 A 
HETATM   16  C17 UNL     1      -1.331  -4.551  -0.323  1.00  0.00     0.059 A 
HETATM   17  C18 UNL     1      -2.385  -5.467  -0.201  1.00  0.00     0.036 A 
HETATM   18 BR1  UNL     1      -2.303  -7.361  -0.426  1.00  0.00    -0.049 Br
HETATM   19  C19 UNL     1      -3.479  -4.694   0.116  1.00  0.00     0.161 A 
HETATM   20  O3  UNL     1      -3.092  -3.446   0.172  1.00  0.00    -0.321 OA
ENDBRANCH   1  15
BRANCH   2  21
HETATM   21  C8  UNL     1       1.303  -1.226  -0.354  1.00  0.00     0.108 C 
HETATM   22  N1  UNL     1       1.374   0.029  -0.253  1.00  0.00    -0.309 N 
ATOM     23  H1  UNL     1       0.506   0.543  -0.101  1.00  0.00     0.186 HD
BRANCH  22  24
HETATM   24  N2  UNL     1       2.550   0.757  -0.334  1.00  0.00    -0.266 N 
HETATM   25  C9  UNL     1       3.617   0.586   0.579  1.00  0.00     0.270 C 
HETATM   26  O2  UNL     1       3.466  -0.266   1.492  1.00  0.00    -0.266 OA
ATOM     27  H2  UNL     1       2.650   1.444  -1.082  1.00  0.00     0.190 HD
BRANCH  25  28
HETATM   28  C10 UNL     1       4.863   1.350   0.502  1.00  0.00     0.033 A 
HETATM   29  C11 UNL     1       5.115   2.301  -0.461  1.00  0.00     0.017 A 
HETATM   30  C12 UNL     1       6.308   3.008  -0.507  1.00  0.00     0.001 A 
HETATM   31  C13 UNL     1       7.296   2.780   0.424  1.00  0.00     0.000 A 
HETATM   32  C14 UNL     1       7.065   1.833   1.397  1.00  0.00     0.001 A 
HETATM   33  C15 UNL     1       5.880   1.132   1.440  1.00  0.00     0.017 A 
ENDBRANCH  25  28
ENDBRANCH  22  24
ENDBRANCH   2  21
TORSDOF 7
