REMARK  9 active torsions:
REMARK  status: ('A' for Active; 'I' for Inactive)
REMARK    1  A    between atoms: C2_2  and  C3_3 
REMARK    2  A    between atoms: C3_3  and  C5_5 
REMARK    3  A    between atoms: C11_17  and  C12_18 
REMARK    4  A    between atoms: C12_18  and  N3_19 
REMARK    5  A    between atoms: N3_19  and  C13_20 
REMARK    6  A    between atoms: C18_25  and  C19_26 
REMARK       I    between atoms: N4_28  and  C20_29 
REMARK    7  A    between atoms: C22_32  and  C23_33 
REMARK    8  A    between atoms: C23_33  and  C25_35 
REMARK    9  A    between atoms: C27_37  and  O5_38 
ROOT
HETATM    1  C5  UNL     1       2.765   0.850   0.018  1.00  0.00     0.096 C 
HETATM    2  C6  UNL     1       3.300  -0.269   0.834  1.00  0.00     0.128 C 
HETATM    3  C7  UNL     1       3.353   0.007   2.291  1.00  0.00     0.220 C 
HETATM    4  O1  UNL     1       3.973  -0.917   2.941  1.00  0.00    -0.274 OA
HETATM    5  N1  UNL     1       2.850   1.076   3.016  1.00  0.00    -0.352 N 
ATOM      6  H1  UNL     1       3.550   1.576   3.564  1.00  0.00     0.162 HD
HETATM    7  C8  UNL     1       1.528   1.604   3.135  1.00  0.00     0.225 C 
HETATM    8  C9  UNL     1       0.544   0.718   3.807  1.00  0.00     0.235 C 
HETATM    9  O2  UNL     1       0.692   0.638   5.082  1.00  0.00    -0.272 OA
HETATM   10  N2  UNL     1      -0.500  -0.015   3.207  1.00  0.00    -0.358 N 
ATOM     11  H2  UNL     1      -1.433   0.169   3.577  1.00  0.00     0.162 HD
HETATM   12  C10 UNL     1      -0.437  -0.974   2.159  1.00  0.00     0.150 C 
HETATM   13  C11 UNL     1      -1.526  -0.864   1.081  1.00  0.00     0.137 C 
HETATM   14  N4  UNL     1      -1.024  -1.703   0.005  1.00  0.00    -0.306 N 
HETATM   15  C20 UNL     1      -1.614  -2.994   0.029  1.00  0.00     0.221 C 
HETATM   16  C21 UNL     1      -2.642  -3.419   1.054  1.00  0.00     0.117 C 
HETATM   17  O4  UNL     1      -1.348  -3.872  -0.770  1.00  0.00    -0.273 OA
HETATM   18  C22 UNL     1      -0.083  -1.443  -0.984  1.00  0.00     0.090 C 
HETATM   19  C27 UNL     1       0.650  -0.180  -1.155  1.00  0.00     0.164 C 
HETATM   20  N5  UNL     1       1.438   0.714  -0.494  1.00  0.00    -0.364 N 
ATOM     21  H5  UNL     1       0.907   1.564  -0.302  1.00  0.00     0.162 HD
ENDROOT
BRANCH  13  22
HETATM   22  C12 UNL     1      -2.062   0.463   0.871  1.00  0.00     0.265 C 
BRANCH  22  23
HETATM   23  N3  UNL     1      -3.086   0.814   0.000  1.00  0.00    -0.055 N 
HETATM   24  C15 UNL     1      -4.180  -0.100  -0.208  1.00  0.00     0.238 C 
HETATM   25  C16 UNL     1      -4.996  -0.199   1.033  1.00  0.00     0.030 C 
HETATM   26  C17 UNL     1      -4.791   1.184   1.624  1.00  0.00     0.042 C 
HETATM   27  C18 UNL     1      -3.885   1.903   0.641  1.00  0.00     0.251 C 
BRANCH  23  28
HETATM   28  C13 UNL     1      -2.787   1.337  -1.299  1.00  0.00     0.234 C 
HETATM   29  C14 UNL     1      -2.050   2.623  -1.367  1.00  0.00     0.035 C 
ENDBRANCH  23  28
BRANCH  27  30
HETATM   30  C19 UNL     1      -3.081   2.841   1.405  1.00  0.00     0.264 C 
HETATM   31  O3  UNL     1      -3.724   3.760   1.941  1.00  0.00    -0.305 OA
ENDBRANCH  27  30
ENDBRANCH  22  23
ENDBRANCH  13  22
BRANCH  18  32
HETATM   32  C23 UNL     1       0.711  -2.489  -1.688  1.00  0.00    -0.053 C 
HETATM   33  C24 UNL     1       1.519  -3.473  -0.960  1.00  0.00     0.046 C 
BRANCH  32  34
HETATM   34  C25 UNL     1       0.307  -2.956  -3.046  1.00  0.00     0.031 C 
HETATM   35  C26 UNL     1       1.272  -4.042  -3.562  1.00  0.00     0.010 C 
ENDBRANCH  32  34
ENDBRANCH  18  32
BRANCH  19  36
HETATM   36  O5  UNL     1       0.481   0.245  -2.428  1.00  0.00    -0.345 OA
ATOM     37  H5  UNL     1       0.955   1.061  -2.538  1.00  0.00     0.219 HD
ENDBRANCH  19  36
BRANCH   1  38
HETATM   38  C3  UNL     1       3.829   1.291  -1.003  1.00  0.00     0.004 C 
HETATM   39  C4  UNL     1       5.051   1.701  -0.202  1.00  0.00     0.012 C 
BRANCH  38  40
HETATM   40  C2  UNL     1       3.260   2.454  -1.769  1.00  0.00     0.002 C 
HETATM   41  C1  UNL     1       4.270   3.036  -2.744  1.00  0.00     0.005 C 
ENDBRANCH  38  40
ENDBRANCH   1  38
TORSDOF 9
