REMARK  12 active torsions:
REMARK  status: ('A' for Active; 'I' for Inactive)
REMARK    1  A    between atoms: C2_2  and  N1_3 
REMARK    2  A    between atoms: C2_2  and  C30_42 
REMARK       I    between atoms: N1_3  and  C3_5 
REMARK    3  A    between atoms: C3_5  and  C4_7 
REMARK       I    between atoms: N2_12  and  C9_13 
REMARK    4  A    between atoms: C9_13  and  C10_15 
REMARK    5  A    between atoms: C10_15  and  C11_16 
REMARK    6  A    between atoms: C10_15  and  N3_23 
REMARK    7  A    between atoms: C11_16  and  C12_17 
REMARK       I    between atoms: N3_23  and  C18_25 
REMARK    8  A    between atoms: C18_25  and  C19_27 
REMARK    9  A    between atoms: C19_27  and  N4_28 
REMARK   10  A    between atoms: C19_27  and  C25_37 
REMARK       I    between atoms: N4_28  and  C20_30 
REMARK   11  A    between atoms: C20_30  and  O5_32 
REMARK   12  A    between atoms: O5_32  and  C21_33 
ROOT
HETATM    1  C10 UNL     1      -0.110  -2.035  -0.524  1.00  0.00     0.177 C 
ENDROOT
BRANCH   1   2
HETATM    2  C9  UNL     1       0.191  -1.192   0.632  1.00  0.00     0.242 C 
HETATM    3  N2  UNL     1       1.417  -0.448   0.808  1.00  0.00    -0.349 N 
HETATM    4  C8  UNL     1       2.463  -0.551  -0.157  1.00  0.00     0.126 C 
HETATM    5  C29 UNL     1       1.478   0.421   1.978  1.00  0.00     0.144 C 
HETATM    6  C7  UNL     1       3.729   0.172   0.101  1.00  0.00     0.021 C 
HETATM    7  C6  UNL     1       3.830   0.945   1.366  1.00  0.00     0.022 C 
HETATM    8  C4  UNL     1       2.468   1.552   1.732  1.00  0.00     0.053 C 
HETATM    9  C5  UNL     1       2.084   2.406   0.547  1.00  0.00     0.027 C 
HETATM   10  O2  UNL     1      -0.685  -1.093   1.534  1.00  0.00    -0.271 OA
BRANCH   8  11
HETATM   11  C3  UNL     1       2.664   2.409   2.911  1.00  0.00     0.228 C 
HETATM   12  N1  UNL     1       2.859   1.902   4.240  1.00  0.00    -0.346 N 
ATOM     13  H1  UNL     1       2.860   0.893   4.391  1.00  0.00     0.163 HD
HETATM   14  O1  UNL     1       2.662   3.666   2.753  1.00  0.00    -0.273 OA
BRANCH  12  15
HETATM   15  C2  UNL     1       3.052   2.775   5.360  1.00  0.00     0.181 C 
HETATM   16  C1  UNL     1       2.153   2.503   6.531  1.00  0.00     0.043 C 
BRANCH  15  17
HETATM   17  C30 UNL     1       4.467   2.637   5.855  1.00  0.00     0.196 C 
HETATM   18  O6  UNL     1       5.277   1.854   5.318  1.00  0.00    -0.646 OA
HETATM   19  O7  UNL     1       4.857   3.406   6.930  1.00  0.00    -0.646 OA
ENDBRANCH  15  17
ENDBRANCH  12  15
ENDBRANCH   8  11
ENDBRANCH   1   2
BRANCH   1  20
HETATM   20  C11 UNL     1      -0.088  -3.482  -0.400  1.00  0.00     0.039 C 
BRANCH  20  21
HETATM   21  C12 UNL     1       1.098  -4.267  -0.026  1.00  0.00    -0.012 C 
HETATM   22  C13 UNL     1       0.722  -5.782  -0.050  1.00  0.00     0.005 C 
HETATM   23  C14 UNL     1       1.993  -6.608  -0.057  1.00  0.00     0.000 C 
HETATM   24  C15 UNL     1       3.001  -5.895   0.875  1.00  0.00     0.000 C 
HETATM   25  C16 UNL     1       2.205  -5.244   1.996  1.00  0.00     0.000 C 
HETATM   26  C17 UNL     1       1.506  -4.022   1.407  1.00  0.00     0.005 C 
ENDBRANCH  20  21
ENDBRANCH   1  20
BRANCH   1  27
HETATM   27  N3  UNL     1      -1.521  -1.706  -0.954  1.00  0.00    -0.346 N 
HETATM   28  C18 UNL     1      -1.698  -0.623  -1.801  1.00  0.00     0.242 C 
HETATM   29  O3  UNL     1      -0.634   0.033  -2.145  1.00  0.00    -0.271 OA
ATOM     30  H3  UNL     1      -2.314  -2.261  -0.633  1.00  0.00     0.163 HD
BRANCH  28  31
HETATM   31  C19 UNL     1      -2.931  -0.077  -2.389  1.00  0.00     0.186 C 
BRANCH  31  32
HETATM   32  N4  UNL     1      -2.956   1.368  -2.338  1.00  0.00    -0.323 N 
HETATM   33  C20 UNL     1      -2.819   2.218  -3.448  1.00  0.00     0.362 C 
HETATM   34  O4  UNL     1      -2.656   1.799  -4.627  1.00  0.00    -0.238 OA
ATOM     35  H4  UNL     1      -3.083   1.804  -1.425  1.00  0.00     0.165 HD
BRANCH  33  36
HETATM   36  O5  UNL     1      -2.860   3.575  -3.266  1.00  0.00    -0.294 OA
BRANCH  36  37
HETATM   37  C21 UNL     1      -2.729   4.546  -4.255  1.00  0.00     0.061 C 
HETATM   38  C22 UNL     1      -1.378   4.463  -4.958  1.00  0.00     0.046 C 
HETATM   39  C23 UNL     1      -2.757   5.887  -3.513  1.00  0.00     0.046 C 
HETATM   40  C24 UNL     1      -3.844   4.572  -5.258  1.00  0.00     0.046 C 
ENDBRANCH  36  37
ENDBRANCH  33  36
ENDBRANCH  31  32
BRANCH  31  41
HETATM   41  C25 UNL     1      -4.159  -0.776  -1.948  1.00  0.00    -0.022 C 
HETATM   42  C26 UNL     1      -4.412  -0.763  -0.472  1.00  0.00     0.017 C 
HETATM   43  C27 UNL     1      -4.140  -2.169  -2.529  1.00  0.00     0.017 C 
HETATM   44  C28 UNL     1      -5.409  -0.111  -2.566  1.00  0.00     0.017 C 
ENDBRANCH  31  41
ENDBRANCH  28  31
ENDBRANCH   1  27
TORSDOF 12
