REMARK  14 active torsions:
REMARK  status: ('A' for Active; 'I' for Inactive)
REMARK    1  A    between atoms: C6_6  and  C7_7 
REMARK    2  A    between atoms: C7_7  and  C9_9 
REMARK    3  A    between atoms: C7_7  and  O4_45 
REMARK    4  A    between atoms: C9_9  and  N1_10 
REMARK    5  A    between atoms: N1_10  and  C10_12 
REMARK    6  A    between atoms: C10_12  and  O1_13 
REMARK    7  A    between atoms: C11_15  and  N2_16 
REMARK    8  A    between atoms: C11_15  and  C17_27 
REMARK       I    between atoms: N2_16  and  C12_18 
REMARK    9  A    between atoms: C12_18  and  C13_20 
REMARK   10  A    between atoms: C17_27  and  C18_28 
REMARK   11  A    between atoms: C17_27  and  C25_39 
REMARK   12  A    between atoms: C18_28  and  O3_29 
REMARK   13  A    between atoms: N4_31  and  C19_33 
REMARK   14  A    between atoms: O4_45  and  C31_46 
ROOT
HETATM    1  C10 UNL     1      -0.520   0.936   1.031  1.00  0.00     0.163 C 
HETATM    2  C11 UNL     1       0.718   1.628   0.912  1.00  0.00     0.075 C 
ENDROOT
BRANCH   2   3
HETATM    3  N2  UNL     1       0.657   2.710  -0.066  1.00  0.00    -0.324 N 
HETATM    4  C12 UNL     1       1.423   3.882   0.072  1.00  0.00     0.253 C 
HETATM    5  O2  UNL     1       2.220   4.133   1.006  1.00  0.00    -0.271 OA
ATOM      6  H2  UNL     1       0.041   2.614  -0.873  1.00  0.00     0.169 HD
BRANCH   4   7
HETATM    7  C13 UNL     1       1.302   4.962  -0.993  1.00  0.00     0.277 C 
HETATM    8  C14 UNL     1       0.508   6.104  -0.345  1.00  0.00     0.044 C 
HETATM    9  C15 UNL     1       1.617   7.056   0.130  1.00  0.00     0.030 C 
HETATM   10  C16 UNL     1       2.649   6.876  -0.992  1.00  0.00     0.233 C 
HETATM   11  N3  UNL     1       2.527   5.534  -1.387  1.00  0.00    -0.062 N 
ATOM     12  H32 UNL     1       3.315   4.980  -1.051  1.00  0.00     0.278 HD
ATOM     13  H31 UNL     1       2.672   5.433  -2.392  1.00  0.00     0.278 HD
ENDBRANCH   4   7
ENDBRANCH   2   3
BRANCH   2  14
HETATM   14  C17 UNL     1       1.983   0.900   0.886  1.00  0.00     0.118 C 
BRANCH  14  15
HETATM   15  C18 UNL     1       2.283  -0.012  -0.157  1.00  0.00     0.122 C 
HETATM   16  N4  UNL     1       2.018  -1.247  -0.630  1.00  0.00    -0.369 N 
ATOM     17  H4  UNL     1       1.350  -1.826  -0.120  1.00  0.00     0.161 HD
BRANCH  15  18
HETATM   18  O3  UNL     1       3.213   0.608  -1.007  1.00  0.00    -0.349 OA
ATOM     19  H3  UNL     1       3.414  -0.003  -1.706  1.00  0.00     0.219 HD
ENDBRANCH  15  18
BRANCH  16  20
HETATM   20  C19 UNL     1       2.648  -1.812  -1.857  1.00  0.00     0.083 C 
HETATM   21  C20 UNL     1       1.919  -2.900  -2.470  1.00  0.00     0.025 C 
HETATM   22  C21 UNL     1       2.621  -4.169  -2.819  1.00  0.00     0.002 C 
HETATM   23  C22 UNL     1       3.907  -4.443  -2.142  1.00  0.00     0.000 C 
HETATM   24  C23 UNL     1       4.104  -3.549  -0.907  1.00  0.00     0.002 C 
HETATM   25  C24 UNL     1       4.085  -2.149  -1.457  1.00  0.00     0.025 C 
ENDBRANCH  16  20
ENDBRANCH  14  15
BRANCH  14  26
HETATM   26  C25 UNL     1       2.182   0.201   2.297  1.00  0.00     0.003 C 
HETATM   27  C26 UNL     1       3.474  -0.548   2.171  1.00  0.00     0.006 C 
HETATM   28  C27 UNL     1       3.883  -1.216   3.475  1.00  0.00     0.000 C 
HETATM   29  C28 UNL     1       4.071  -0.142   4.509  1.00  0.00     0.000 C 
HETATM   30  C29 UNL     1       2.790   0.652   4.639  1.00  0.00     0.000 C 
HETATM   31  C30 UNL     1       2.329   1.261   3.335  1.00  0.00     0.006 C 
ENDBRANCH  14  26
ENDBRANCH   2  14
BRANCH   1  32
HETATM   32  N1  UNL     1      -1.193   0.064   0.107  1.00  0.00    -0.346 N 
ATOM     33  H1  UNL     1      -0.779  -0.155  -0.799  1.00  0.00     0.167 HD
BRANCH  32  34
HETATM   34  C9  UNL     1      -2.475  -0.497   0.494  1.00  0.00     0.101 C 
BRANCH  34  35
HETATM   35  C7  UNL     1      -3.267  -1.221  -0.455  1.00  0.00     0.098 C 
HETATM   36  C8  UNL     1      -2.520  -2.269  -1.241  1.00  0.00     0.053 C 
BRANCH  35  37
HETATM   37  C6  UNL     1      -3.772  -0.261  -1.568  1.00  0.00     0.003 A 
HETATM   38  C2  UNL     1      -2.919   0.413  -2.525  1.00  0.00    -0.006 A 
HETATM   39  C1  UNL     1      -3.500   0.181  -3.956  1.00  0.00     0.011 C 
HETATM   40  C3  UNL     1      -3.465   1.762  -2.052  1.00  0.00     0.010 A 
HETATM   41  C4  UNL     1      -4.372   1.024  -1.142  1.00  0.00    -0.001 A 
HETATM   42  C5  UNL     1      -5.245  -0.029  -1.731  1.00  0.00     0.019 A 
ENDBRANCH  35  37
BRANCH  35  43
HETATM   43  O4  UNL     1      -4.424  -1.812  -0.072  1.00  0.00    -0.364 OA
BRANCH  43  44
HETATM   44  C31 UNL     1      -4.688  -2.671   0.862  1.00  0.00     0.051 C 
HETATM   45  C32 UNL     1      -4.472  -2.203   2.305  1.00  0.00     0.045 C 
HETATM   46  C33 UNL     1      -6.169  -3.027   0.775  1.00  0.00     0.045 C 
HETATM   47  C34 UNL     1      -3.995  -4.042   0.797  1.00  0.00     0.045 C 
ENDBRANCH  43  44
ENDBRANCH  35  43
ENDBRANCH  34  35
ENDBRANCH  32  34
ENDBRANCH   1  32
BRANCH   1  48
HETATM   48  O1  UNL     1      -1.231   1.096   2.142  1.00  0.00    -0.345 OA
ATOM     49  H1  UNL     1      -0.786   1.672   2.753  1.00  0.00     0.219 HD
ENDBRANCH   1  48
TORSDOF 14
