REMARK  1 active torsions:
REMARK  status: ('A' for Active; 'I' for Inactive)
REMARK    1  A    between atoms: C8_13  and  O2_14 
ROOT
HETATM    1  N1  UNL     1      -2.891  -2.100   0.200  1.00  0.00    -0.195 NA
HETATM    2  C1  UNL     1      -2.520  -1.104  -0.267  1.00  0.00     0.095 C 
HETATM    3  C2  UNL     1      -2.044   0.156  -0.850  1.00  0.00     0.323 C 
HETATM    4  N2  UNL     1      -0.836  -0.198  -1.616  1.00  0.00    -0.049 N 
ATOM      5  H21 UNL     1      -0.497   0.512  -2.265  1.00  0.00     0.279 HD
ATOM      6  H22 UNL     1      -0.958  -0.912  -2.334  1.00  0.00     0.279 HD
HETATM    7  C3  UNL     1       0.056  -0.539  -0.533  1.00  0.00     0.219 C 
HETATM    8  C4  UNL     1       1.476  -0.714  -0.947  1.00  0.00     0.038 C 
HETATM    9  C5  UNL     1       2.334   0.045   0.077  1.00  0.00     0.028 C 
HETATM   10  C6  UNL     1       1.723  -0.095   1.443  1.00  0.00     0.168 C 
HETATM   11  O1  UNL     1       0.461   0.430   1.553  1.00  0.00    -0.381 OA
HETATM   12  C7  UNL     1      -0.026   0.724   0.314  1.00  0.00     0.183 C 
HETATM   13  C8  UNL     1      -1.481   1.048   0.255  1.00  0.00     0.193 C 
ENDROOT
BRANCH  13  14
HETATM   14  O2  UNL     1      -2.149   0.909   1.443  1.00  0.00    -0.390 OA
ATOM     15  H2  UNL     1      -1.799   1.464   2.130  1.00  0.00     0.210 HD
ENDBRANCH  13  14
TORSDOF 1
