REMARK  3 active torsions:
REMARK  status: ('A' for Active; 'I' for Inactive)
REMARK    1  A    between atoms: N3_12  and  C8_14 
REMARK    2  A    between atoms: C8_14  and  C9_15 
REMARK    3  A    between atoms: C9_15  and  N4_16 
ROOT
HETATM    1  C1  UNL     1      -3.773   2.192   0.910  1.00  0.00     0.069 C 
HETATM    2  C2  UNL     1      -3.070   0.929   0.595  1.00  0.00     0.015 A 
HETATM    3  N1  UNL     1      -3.738  -0.222   0.573  1.00  0.00    -0.345 N 
ATOM      4  H1  UNL     1      -4.738  -0.233   0.772  1.00  0.00     0.167 HD
HETATM    5  C3  UNL     1      -3.098  -1.369   0.289  1.00  0.00     0.118 A 
HETATM    6  N2  UNL     1      -3.543  -2.644   0.206  1.00  0.00    -0.352 N 
ATOM      7  H2  UNL     1      -4.508  -2.936   0.361  1.00  0.00     0.166 HD
HETATM    8  C4  UNL     1      -2.530  -3.471  -0.111  1.00  0.00     0.090 A 
HETATM    9  C5  UNL     1      -1.413  -2.671  -0.227  1.00  0.00     0.034 A 
HETATM   10  C6  UNL     1      -1.751  -1.367   0.018  1.00  0.00     0.036 A 
HETATM   11  C7  UNL     1      -0.997  -0.178   0.027  1.00  0.00     0.050 A 
HETATM   12  N3  UNL     1       0.198  -0.263  -0.223  1.00  0.00    -0.387 N 
ATOM     13  H3  UNL     1       0.424  -1.242  -0.398  1.00  0.00     0.159 HD
HETATM   14  C12 UNL     1      -1.687   0.965   0.321  1.00  0.00    -0.012 A 
HETATM   15  C13 UNL     1      -0.951   2.233   0.343  1.00  0.00     0.052 C 
ENDROOT
BRANCH  12  16
HETATM   16  C8  UNL     1       1.351   0.483  -0.354  1.00  0.00     0.150 C 
BRANCH  16  17
HETATM   17  C9  UNL     1       2.549  -0.463  -0.142  1.00  0.00     0.290 C 
BRANCH  17  18
HETATM   18  N4  UNL     1       3.807   0.247  -0.265  1.00  0.00     0.081 N 
HETATM   19  C10 UNL     1       4.105   0.701  -1.589  1.00  0.00     0.309 C 
HETATM   20  C11 UNL     1       4.908  -0.497   0.294  1.00  0.00     0.309 C 
ENDBRANCH  17  18
ENDBRANCH  16  17
ENDBRANCH  12  16
TORSDOF 3
