REMARK  10 active torsions:
REMARK  status: ('A' for Active; 'I' for Inactive)
REMARK    1  A    between atoms: O1_2  and  C2_3 
REMARK    2  A    between atoms: C2_3  and  C3_5 
REMARK    3  A    between atoms: C3_5  and  C5_7 
REMARK    4  A    between atoms: C3_5  and  S2_22 
REMARK    5  A    between atoms: C5_7  and  S1_8 
REMARK    6  A    between atoms: S1_8  and  C6_9 
REMARK    7  A    between atoms: C8_16  and  N3_17 
REMARK    8  A    between atoms: S2_22  and  C9_25 
REMARK    9  A    between atoms: C9_25  and  C12_28 
REMARK   10  A    between atoms: C12_28  and  O6_29 
ROOT
HETATM    1  C3  UNL     1      -0.487  -0.130   0.580  1.00  0.00     0.157 C 
HETATM    2  C4  UNL     1      -0.693  -0.203   2.071  1.00  0.00     0.044 C 
ENDROOT
BRANCH   1   3
HETATM    3  C2  UNL     1      -0.765  -1.439  -0.049  1.00  0.00     0.282 C 
HETATM    4  O2  UNL     1      -1.120  -2.399   0.673  1.00  0.00    -0.263 OA
BRANCH   3   5
HETATM    5  O1  UNL     1      -0.654  -1.673  -1.406  1.00  0.00    -0.325 OA
HETATM    6  C1  UNL     1      -0.935  -2.960  -1.964  1.00  0.00     0.213 C 
ENDBRANCH   3   5
ENDBRANCH   1   3
BRANCH   1   7
HETATM    7  C5  UNL     1       0.992   0.246   0.395  1.00  0.00     0.118 C 
BRANCH   7   8
HETATM    8  S1  UNL     1       2.077  -0.982   1.150  1.00  0.00    -0.091 SA
BRANCH   8   9
HETATM    9  C6  UNL     1       3.758  -0.438   0.871  1.00  0.00     0.163 A 
HETATM   10  N1  UNL     1       4.422   0.359   1.726  1.00  0.00    -0.288 N 
HETATM   11  C7  UNL     1       5.686   0.770   1.520  1.00  0.00     0.340 A 
ATOM     12  H1  UNL     1       3.944   0.667   2.573  1.00  0.00     0.172 HD
HETATM   13  O3  UNL     1       6.254   1.516   2.358  1.00  0.00    -0.246 OA
HETATM   14  N2  UNL     1       6.347   0.384   0.414  1.00  0.00    -0.141 N 
HETATM   15  C8  UNL     1       5.706  -0.411  -0.454  1.00  0.00     0.681 A 
ATOM     16  H2  UNL     1       7.306   0.687   0.241  1.00  0.00     0.189 HD
HETATM   17  N4  UNL     1       4.444  -0.817  -0.241  1.00  0.00    -0.170 N 
ATOM     18  H4  UNL     1       3.991  -1.421  -0.926  1.00  0.00     0.186 HD
BRANCH  15  19
HETATM   19  N3  UNL     1       6.296  -0.807  -1.526  1.00  0.00    -0.234 N 
ATOM     20  H32 UNL     1       7.255  -0.499  -1.688  1.00  0.00     0.174 HD
ATOM     21  H31 UNL     1       5.808  -1.412  -2.187  1.00  0.00     0.174 HD
ENDBRANCH  15  19
ENDBRANCH   8   9
ENDBRANCH   7   8
ENDBRANCH   1   7
BRANCH   1  22
HETATM   22  S2  UNL     1      -1.367   1.202  -0.164  1.00  0.00     0.172 S 
HETATM   23  O4  UNL     1      -0.962   2.467   0.545  1.00  0.00    -0.226 OA
HETATM   24  O5  UNL     1      -0.920   1.327  -1.581  1.00  0.00    -0.226 OA
BRANCH  22  25
HETATM   25  C9  UNL     1      -3.098   1.062  -0.115  1.00  0.00     0.079 C 
HETATM   26  C10 UNL     1      -3.656   0.985   1.294  1.00  0.00     0.034 C 
HETATM   27  C11 UNL     1      -3.649   2.373  -0.703  1.00  0.00     0.034 C 
BRANCH  25  28
HETATM   28  C12 UNL     1      -3.661  -0.045  -0.957  1.00  0.00     0.189 C 
BRANCH  28  29
HETATM   29  O6  UNL     1      -5.069  -0.024  -0.809  1.00  0.00    -0.399 OA
ATOM     30  H6  UNL     1      -5.425  -0.725  -1.342  1.00  0.00     0.209 HD
ENDBRANCH  28  29
ENDBRANCH  25  28
ENDBRANCH  22  25
ENDBRANCH   1  22
TORSDOF 10
