REMARK  6 active torsions:
REMARK  status: ('A' for Active; 'I' for Inactive)
REMARK    1  A    between atoms: C2_2  and  C3_3 
REMARK    2  A    between atoms: C3_3  and  N1_4 
REMARK    3  A    between atoms: C10_11  and  C11_12 
REMARK       I    between atoms: C11_12  and  N2_14 
REMARK    4  A    between atoms: N2_14  and  C12_16 
REMARK    5  A    between atoms: C12_16  and  C13_17 
REMARK    6  A    between atoms: C17_23  and  C18_24 
ROOT
HETATM    1  N1  UNL     1      -0.298  -1.519   0.215  1.00  0.00    -0.053 N 
HETATM    2  C4  UNL     1      -0.750  -2.181   1.452  1.00  0.00     0.265 C 
HETATM    3  C5  UNL     1      -2.202  -2.482   1.462  1.00  0.00    -0.003 C 
HETATM    4  C6  UNL     1      -2.949  -2.775   0.244  1.00  0.00    -0.029 C 
HETATM    5  C7  UNL     1      -3.243  -1.772  -0.783  1.00  0.00     0.029 C 
HETATM    6  C8  UNL     1      -2.168  -0.806  -1.200  1.00  0.00     0.038 C 
HETATM    7  C9  UNL     1      -1.336  -0.551  -0.017  1.00  0.00     0.211 A 
HETATM    8  C10 UNL     1      -0.411   0.628   0.066  1.00  0.00     0.099 A 
HETATM    9  C14 UNL     1      -0.213   1.447  -1.137  1.00  0.00     0.028 C 
HETATM   10  C15 UNL     1       1.158   1.644  -1.646  1.00  0.00    -0.012 C 
HETATM   11  C16 UNL     1       2.102   2.473  -0.868  1.00  0.00     0.010 C 
HETATM   12  C17 UNL     1       3.276   1.698  -0.315  1.00  0.00     0.002 C 
HETATM   13  C20 UNL     1       2.905   0.416   0.329  1.00  0.00     0.012 C 
HETATM   14  C21 UNL     1       1.840  -0.358  -0.442  1.00  0.00     0.019 C 
HETATM   15  C22 UNL     1       1.756   0.249  -1.764  1.00  0.00     0.011 C 
HETATM   16  C23 UNL     1       0.609  -0.404   0.391  1.00  0.00     0.215 A 
ENDROOT
BRANCH   8  17
HETATM   17  C11 UNL     1      -0.751   1.554   1.221  1.00  0.00     0.231 C 
HETATM   18  O1  UNL     1       0.036   1.674   2.164  1.00  0.00    -0.273 OA
HETATM   19  N2  UNL     1      -1.967   2.266   1.200  1.00  0.00    -0.352 N 
ATOM     20  H2  UNL     1      -2.604   2.155   0.412  1.00  0.00     0.162 HD
BRANCH  19  21
HETATM   21  C12 UNL     1      -2.316   3.146   2.278  1.00  0.00     0.222 C 
BRANCH  21  22
HETATM   22  C13 UNL     1      -3.647   3.789   2.037  1.00  0.00     0.248 C 
HETATM   23  N3  UNL     1      -4.359   3.476   0.856  1.00  0.00    -0.061 NA
HETATM   24  O2  UNL     1      -4.138   4.589   2.851  1.00  0.00    -0.275 OA
ENDBRANCH  21  22
ENDBRANCH  19  21
ENDBRANCH   8  17
BRANCH   1  25
HETATM   25  C3  UNL     1      -0.016  -2.501  -0.747  1.00  0.00     0.238 C 
BRANCH  25  26
HETATM   26  C2  UNL     1       0.493  -3.835  -0.166  1.00  0.00     0.023 C 
HETATM   27  C1  UNL     1       0.727  -4.704  -1.416  1.00  0.00     0.007 C 
ENDBRANCH  25  26
ENDBRANCH   1  25
BRANCH  12  28
HETATM   28  C18 UNL     1       4.072   2.625   0.563  1.00  0.00     0.072 C 
HETATM   29  C19 UNL     1       5.304   1.981   1.191  1.00  0.00     0.102 C 
HETATM   30  S1  UNL     1       4.738   1.801   2.928  1.00  0.00    -0.096 SA
HETATM   31  S2  UNL     1       3.334   3.192   2.085  1.00  0.00    -0.092 SA
ENDBRANCH  12  28
TORSDOF 6
