REMARK  8 active torsions:
REMARK  status: ('A' for Active; 'I' for Inactive)
REMARK    1  A    between atoms: N1_1  and  C1_4 
REMARK    2  A    between atoms: C2_7  and  C3_8 
REMARK    3  A    between atoms: C3_8  and  C4_9 
REMARK    4  A    between atoms: C4_9  and  C5_10 
REMARK    5  A    between atoms: C5_10  and  O1_11 
REMARK    6  A    between atoms: O1_11  and  C6_12 
REMARK    7  A    between atoms: C9_15  and  N3_16 
REMARK    8  A    between atoms: N3_16  and  C10_18 
ROOT
HETATM    1  O1  UNL     1       1.176   0.102   0.229  1.00  0.00    -0.351 OA
ENDROOT
BRANCH   1   2
HETATM    2  C5  UNL     1       2.164  -0.850  -0.057  1.00  0.00     0.176 C 
BRANCH   2   3
HETATM    3  C4  UNL     1       3.522  -0.203   0.048  1.00  0.00     0.034 C 
BRANCH   3   4
HETATM    4  C3  UNL     1       4.637  -1.183  -0.251  1.00  0.00     0.080 C 
BRANCH   4   5
HETATM    5  C2  UNL     1       5.916  -0.450  -0.120  1.00  0.00     0.112 A 
HETATM    6  N2  UNL     1       6.535   0.198  -1.100  1.00  0.00    -0.178 N 
HETATM    7  C1  UNL     1       7.653   0.720  -0.563  1.00  0.00     0.691 A 
ATOM      8  H2  UNL     1       6.225   0.283  -2.068  1.00  0.00     0.185 HD
HETATM    9  N5  UNL     1       7.693   0.379   0.734  1.00  0.00    -0.131 N 
HETATM   10  N4  UNL     1       6.622  -0.342   1.004  1.00  0.00    -0.274 N 
ATOM     11  H5  UNL     1       8.425   0.633   1.397  1.00  0.00     0.205 HD
ATOM     12  H4  UNL     1       6.379  -0.744   1.909  1.00  0.00     0.189 HD
BRANCH   7  13
HETATM   13  N1  UNL     1       8.562   1.436  -1.166  1.00  0.00    -0.233 N 
ATOM     14  H12 UNL     1       8.532   1.695  -2.152  1.00  0.00     0.174 HD
ATOM     15  H11 UNL     1       9.409   1.832  -0.759  1.00  0.00     0.174 HD
ENDBRANCH   7  13
ENDBRANCH   4   5
ENDBRANCH   3   4
ENDBRANCH   2   3
ENDBRANCH   1   2
BRANCH   1  16
HETATM   16  C6  UNL     1      -0.184  -0.172   0.219  1.00  0.00     0.068 A 
HETATM   17  C7  UNL     1      -0.715  -1.406  -0.073  1.00  0.00     0.039 A 
HETATM   18  C8  UNL     1      -2.077  -1.612  -0.066  1.00  0.00     0.032 A 
HETATM   19  C9  UNL     1      -2.994  -0.595   0.233  1.00  0.00     0.032 A 
HETATM   20  C16 UNL     1      -2.456   0.633   0.524  1.00  0.00     0.032 A 
HETATM   21  C17 UNL     1      -1.067   0.840   0.516  1.00  0.00     0.039 A 
BRANCH  19  22
HETATM   22  N3  UNL     1      -4.382  -0.887   0.250  1.00  0.00    -0.356 N 
ATOM     23  H3  UNL     1      -4.627  -1.865   0.402  1.00  0.00     0.166 HD
BRANCH  22  24
HETATM   24  C10 UNL     1      -5.452  -0.016   0.087  1.00  0.00     0.032 A 
HETATM   25  C11 UNL     1      -6.708  -0.326   0.601  1.00  0.00     0.029 A 
HETATM   26  C12 UNL     1      -7.792   0.505   0.428  1.00  0.00     0.002 A 
HETATM   27  C13 UNL     1      -7.676   1.688  -0.268  1.00  0.00     0.000 A 
HETATM   28  C14 UNL     1      -6.445   2.011  -0.785  1.00  0.00     0.002 A 
HETATM   29  C15 UNL     1      -5.356   1.159  -0.601  1.00  0.00     0.029 A 
ENDBRANCH  22  24
ENDBRANCH  19  22
ENDBRANCH   1  16
TORSDOF 8
