REMARK  11 active torsions:
REMARK  status: ('A' for Active; 'I' for Inactive)
REMARK    1  A    between atoms: C2_2  and  C3_3 
REMARK    2  A    between atoms: C3_3  and  N1_4 
REMARK       I    between atoms: N1_4  and  C4_6 
REMARK    3  A    between atoms: C4_6  and  C5_8 
REMARK    4  A    between atoms: C5_8  and  C6_9 
REMARK    5  A    between atoms: C6_9  and  C7_10 
REMARK    6  A    between atoms: C7_10  and  C8_11 
REMARK    7  A    between atoms: C8_11  and  N2_12 
REMARK       I    between atoms: N2_12  and  C9_14 
REMARK       I    between atoms: C9_14  and  N3_16 
REMARK    8  A    between atoms: N3_16  and  N4_18 
REMARK    9  A    between atoms: N4_18  and  N5_19 
REMARK       I    between atoms: N6_22  and  C10_24 
REMARK   10  A    between atoms: C10_24  and  C11_26 
REMARK   11  A    between atoms: C11_26  and  C13_28 
REMARK       I    between atoms: C13_28  and  N7_30 
ROOT
HETATM    1  C5  UNL     1       0.369   0.211  -0.549  1.00  0.00     0.080 C 
HETATM    2  N6  UNL     1      -0.255   1.321  -0.674  1.00  0.00    -0.325 N 
ATOM      3  H6  UNL     1       0.033   2.073  -0.048  1.00  0.00     0.168 HD
HETATM    4  C10 UNL     1      -1.291   1.623  -1.574  1.00  0.00     0.234 C 
HETATM    5  O3  UNL     1      -1.059   2.011  -2.771  1.00  0.00    -0.272 OA
ENDROOT
BRANCH   1   6
HETATM    6  C4  UNL     1       0.056  -0.930  -1.375  1.00  0.00     0.264 C 
HETATM    7  N1  UNL     1       0.688  -2.198  -1.253  1.00  0.00    -0.353 N 
ATOM      8  H1  UNL     1       1.403  -2.342  -0.540  1.00  0.00     0.163 HD
HETATM    9  O1  UNL     1      -0.845  -0.802  -2.281  1.00  0.00    -0.266 OA
BRANCH   7  10
HETATM   10  C3  UNL     1       0.326  -3.274  -2.125  1.00  0.00     0.149 C 
BRANCH  10  11
HETATM   11  C2  UNL     1       1.039  -4.538  -1.913  1.00  0.00    -0.018 C 
HETATM   12  C1  UNL     1       1.967  -4.800  -1.024  1.00  0.00     0.008 C 
ENDBRANCH  10  11
ENDBRANCH   7  10
ENDBRANCH   1   6
BRANCH   1  13
HETATM   13  C6  UNL     1       1.469   0.139   0.429  1.00  0.00     0.064 C 
BRANCH  13  14
HETATM   14  C7  UNL     1       2.789   0.115  -0.260  1.00  0.00     0.026 C 
BRANCH  14  15
HETATM   15  C8  UNL     1       3.946   0.025   0.707  1.00  0.00     0.125 C 
BRANCH  15  16
HETATM   16  N2  UNL     1       3.996   1.129   1.620  1.00  0.00    -0.341 N 
HETATM   17  C9  UNL     1       5.028   1.179   2.586  1.00  0.00     0.346 C 
HETATM   18  O2  UNL     1       5.870   0.246   2.609  1.00  0.00    -0.245 OA
HETATM   19  N3  UNL     1       5.148   2.243   3.529  1.00  0.00    -0.165 N 
ATOM     20  H3  UNL     1       5.835   2.988   3.410  1.00  0.00     0.209 HD
ATOM     21  H2  UNL     1       3.296   1.869   1.574  1.00  0.00     0.164 HD
BRANCH  19  22
HETATM   22  N4  UNL     1       4.378   2.219   4.499  1.00  0.00    -0.239 NA
BRANCH  22  23
HETATM   23  N5  UNL     1       3.940   2.266   5.653  1.00  0.00    -0.260 N 
ATOM     24  H52 UNL     1       4.842   2.453   6.091  1.00  0.00     0.193 HD
ATOM     25  H51 UNL     1       3.306   2.246   6.452  1.00  0.00     0.193 HD
ENDBRANCH  22  23
ENDBRANCH  19  22
ENDBRANCH  15  16
ENDBRANCH  14  15
ENDBRANCH  13  14
ENDBRANCH   1  13
BRANCH   4  26
HETATM   26  C11 UNL     1      -2.718   1.508  -1.186  1.00  0.00     0.166 C 
HETATM   27  C12 UNL     1      -3.577   1.886  -2.364  1.00  0.00     0.030 C 
BRANCH  26  28
HETATM   28  C13 UNL     1      -3.009   2.438  -0.036  1.00  0.00     0.236 C 
HETATM   29  O4  UNL     1      -2.119   3.172   0.465  1.00  0.00    -0.272 OA
HETATM   30  N7  UNL     1      -4.335   2.463   0.476  1.00  0.00    -0.303 N 
HETATM   31  C14 UNL     1      -4.729   1.503   1.254  1.00  0.00     0.203 C 
ATOM     32  H7  UNL     1      -4.968   3.226   0.235  1.00  0.00     0.171 HD
HETATM   33  N8  UNL     1      -3.839   0.435   1.590  1.00  0.00    -0.066 NA
HETATM   34  N9  UNL     1      -6.028   1.454   1.802  1.00  0.00    -0.066 NA
ENDBRANCH  26  28
ENDBRANCH   4  26
TORSDOF 11
