REMARK  8 active torsions:
REMARK  status: ('A' for Active; 'I' for Inactive)
REMARK    1  A    between atoms: C3_5  and  N2_6 
REMARK    2  A    between atoms: C4_8  and  C5_9 
REMARK    3  A    between atoms: C5_9  and  C6_10 
REMARK    4  A    between atoms: C9_15  and  N4_16 
REMARK    5  A    between atoms: N4_16  and  C10_18 
REMARK    6  A    between atoms: C10_18  and  C11_19 
REMARK    7  A    between atoms: C14_22  and  N5_23 
REMARK    8  A    between atoms: C22_31  and  C23_32 
ROOT
HETATM    1  C1  UNL     1      -4.401  -1.226  -2.945  1.00  0.00     0.070 C 
HETATM    2  C2  UNL     1      -3.699  -0.886  -1.699  1.00  0.00     0.042 A 
HETATM    3  N1  UNL     1      -4.331  -0.866  -0.541  1.00  0.00    -0.195 N 
ATOM      4  H1  UNL     1      -5.326  -1.089  -0.518  1.00  0.00     0.184 HD
HETATM    5  C3  UNL     1      -3.701  -0.559   0.618  1.00  0.00     0.683 A 
HETATM    6  N3  UNL     1      -2.383  -0.264   0.581  1.00  0.00    -0.176 N 
ATOM      7  H3  UNL     1      -1.895  -0.029   1.445  1.00  0.00     0.186 HD
HETATM    8  C9  UNL     1      -1.699  -0.277  -0.597  1.00  0.00     0.134 A 
HETATM    9  C22 UNL     1      -2.331  -0.587  -1.769  1.00  0.00     0.096 A 
ENDROOT
BRANCH   8  10
HETATM   10  N4  UNL     1      -0.489   0.009  -0.525  1.00  0.00    -0.375 N 
ATOM     11  H4  UNL     1      -0.230   0.203   0.442  1.00  0.00     0.161 HD
BRANCH  10  12
HETATM   12  C10 UNL     1       0.594   0.143  -1.336  1.00  0.00     0.126 C 
BRANCH  12  13
HETATM   13  C11 UNL     1       1.787   0.823  -0.569  1.00  0.00     0.003 C 
HETATM   14  C12 UNL     1       2.071  -0.117   0.574  1.00  0.00     0.008 C 
HETATM   15  C13 UNL     1       3.450   0.210   1.114  1.00  0.00     0.036 C 
HETATM   16  C14 UNL     1       4.480  -0.106   0.015  1.00  0.00     0.223 C 
HETATM   17  C20 UNL     1       4.268   0.933  -1.071  1.00  0.00     0.036 C 
HETATM   18  C21 UNL     1       2.869   0.902  -1.603  1.00  0.00     0.008 C 
BRANCH  16  19
HETATM   19  N5  UNL     1       5.782  -0.006   0.584  1.00  0.00     0.093 N 
HETATM   20  C15 UNL     1       6.734   0.672  -0.242  1.00  0.00     0.273 C 
HETATM   21  C16 UNL     1       7.996   0.954   0.506  1.00  0.00     0.030 C 
HETATM   22  C17 UNL     1       8.585  -0.253   1.200  1.00  0.00     0.003 C 
HETATM   23  C18 UNL     1       7.498  -1.070   1.872  1.00  0.00     0.030 C 
HETATM   24  C19 UNL     1       6.322  -1.286   0.980  1.00  0.00     0.273 C 
ENDBRANCH  16  19
ENDBRANCH  12  13
ENDBRANCH  10  12
ENDBRANCH   8  10
BRANCH   9  25
HETATM   25  C23 UNL     1      -1.687  -0.592  -3.058  1.00  0.00     0.270 C 
HETATM   26  N6  UNL     1      -1.841   0.444  -4.034  1.00  0.00    -0.057 NA
HETATM   27  O1  UNL     1      -0.937  -1.547  -3.383  1.00  0.00    -0.271 OA
ENDBRANCH   9  25
BRANCH   5  28
HETATM   28  N2  UNL     1      -4.296  -0.543   1.681  1.00  0.00    -0.205 N 
HETATM   29  C4  UNL     1      -5.359  -0.667   2.495  1.00  0.00     0.079 C 
ATOM     30  H2  UNL     1      -3.557  -0.285   2.335  1.00  0.00     0.183 HD
BRANCH  29  31
HETATM   31  C5  UNL     1      -6.761  -0.610   1.979  1.00  0.00     0.049 C 
BRANCH  31  32
HETATM   32  C6  UNL     1      -7.147   0.656   1.294  1.00  0.00    -0.018 C 
HETATM   33  C7  UNL     1      -6.994   1.849   2.208  1.00  0.00     0.010 C 
HETATM   34  C8  UNL     1      -8.628   0.570   0.957  1.00  0.00     0.010 C 
ENDBRANCH  31  32
ENDBRANCH  29  31
ENDBRANCH   5  28
TORSDOF 8
