REMARK  11 active torsions:
REMARK  status: ('A' for Active; 'I' for Inactive)
REMARK    1  A    between atoms: S1_2  and  C2_3 
REMARK    2  A    between atoms: C2_3  and  C3_4 
REMARK    3  A    between atoms: C3_4  and  O1_5 
REMARK    4  A    between atoms: C5_9  and  O3_10 
REMARK    5  A    between atoms: C5_9  and  C6_12 
REMARK    6  A    between atoms: C6_12  and  O4_14 
REMARK    7  A    between atoms: C9_19  and  S2_20 
REMARK    8  A    between atoms: S2_20  and  C10_21 
REMARK    9  A    between atoms: C10_21  and  N3_25 
REMARK   10  A    between atoms: N3_25  and  N4_27 
REMARK   11  A    between atoms: N4_27  and  N5_28 
ROOT
HETATM    1  C3  UNL     1      -1.629   1.018  -0.890  1.00  0.00     0.276 C 
HETATM    2  O2  UNL     1      -2.537   0.078  -1.284  1.00  0.00    -0.333 OA
HETATM    3  C4  UNL     1      -2.773  -0.938  -0.399  1.00  0.00     0.222 C 
HETATM    4  C5  UNL     1      -1.489  -1.723  -0.237  1.00  0.00     0.164 C 
HETATM    5  C8  UNL     1      -0.487  -0.787   0.333  1.00  0.00     0.145 A 
HETATM    6  N1  UNL     1       0.565  -0.918   1.155  1.00  0.00    -0.321 N 
ATOM      7  H1  UNL     1       0.894  -1.786   1.577  1.00  0.00     0.169 HD
HETATM    8  C9  UNL     1       1.104   0.290   1.321  1.00  0.00     0.168 A 
HETATM    9  N6  UNL     1       0.366   1.145   0.592  1.00  0.00    -0.271 N 
ATOM     10  H6  UNL     1       0.538   2.148   0.520  1.00  0.00     0.189 HD
HETATM   11  N7  UNL     1      -0.603   0.508  -0.012  1.00  0.00    -0.214 N 
ENDROOT
BRANCH   8  12
HETATM   12  S2  UNL     1       2.538   0.721   2.319  1.00  0.00    -0.016 SA
BRANCH  12  13
HETATM   13  C10 UNL     1       4.035   0.600   1.360  1.00  0.00     0.158 C 
HETATM   14  N2  UNL     1       5.145   0.876   1.931  1.00  0.00    -0.379 N 
ATOM     15  H22 UNL     1       5.183   1.158   2.910  1.00  0.00     0.158 HD
ATOM     16  H21 UNL     1       6.002   0.807   1.382  1.00  0.00     0.158 HD
BRANCH  13  17
HETATM   17  N3  UNL     1       3.982   0.206  -0.007  1.00  0.00    -0.264 N 
ATOM     18  H3  UNL     1       3.209  -0.392  -0.300  1.00  0.00     0.186 HD
BRANCH  17  19
HETATM   19  N4  UNL     1       4.906   0.579  -0.964  1.00  0.00    -0.028 NA
BRANCH  19  20
HETATM   20  N5  UNL     1       5.844  -0.413  -1.243  1.00  0.00    -0.329 N 
ATOM     21  H52 UNL     1       5.836  -1.321  -0.778  1.00  0.00     0.174 HD
ATOM     22  H51 UNL     1       6.526  -0.138  -1.950  1.00  0.00     0.174 HD
ENDBRANCH  19  20
ENDBRANCH  17  19
ENDBRANCH  13  17
ENDBRANCH  12  13
ENDBRANCH   8  12
BRANCH   4  23
HETATM   23  O3  UNL     1      -1.060  -2.079  -1.510  1.00  0.00    -0.377 OA
ATOM     24  H3  UNL     1      -0.254  -2.572  -1.408  1.00  0.00     0.211 HD
ENDBRANCH   4  23
BRANCH   4  25
HETATM   25  C6  UNL     1      -1.685  -2.935   0.647  1.00  0.00     0.158 C 
HETATM   26  C7  UNL     1      -2.711  -3.882   0.084  1.00  0.00     0.043 C 
BRANCH  25  27
HETATM   27  O4  UNL     1      -0.480  -3.624   0.768  1.00  0.00    -0.392 OA
ATOM     28  H4  UNL     1      -0.603  -4.385   1.323  1.00  0.00     0.210 HD
ENDBRANCH  25  27
ENDBRANCH   4  25
BRANCH   1  29
HETATM   29  C2  UNL     1      -2.366   2.180  -0.247  1.00  0.00     0.169 C 
BRANCH  29  30
HETATM   30  S1  UNL     1      -1.201   3.527   0.150  1.00  0.00    -0.166 SA
HETATM   31  C1  UNL     1      -2.135   4.875   0.909  1.00  0.00     0.090 C 
ENDBRANCH  29  30
ENDBRANCH   1  29
BRANCH   1  32
HETATM   32  O1  UNL     1      -1.043   1.547  -2.065  1.00  0.00    -0.347 OA
ATOM     33  H1  UNL     1      -0.582   0.820  -2.467  1.00  0.00     0.215 HD
ENDBRANCH   1  32
TORSDOF 11
