REMARK  18 active torsions:
REMARK  status: ('A' for Active; 'I' for Inactive)
REMARK    1  A    between atoms: C2_2  and  C3_3 
REMARK    2  A    between atoms: C3_3  and  C4_4 
REMARK    3  A    between atoms: C4_4  and  C5_5 
REMARK    4  A    between atoms: C5_5  and  C6_6 
REMARK    5  A    between atoms: C6_6  and  N1_7 
REMARK    6  A    between atoms: N1_7  and  C7_8 
REMARK    7  A    between atoms: N1_7  and  C24_36 
REMARK    8  A    between atoms: C7_8  and  C8_9 
REMARK    9  A    between atoms: C10_11  and  O1_12 
REMARK   10  A    between atoms: O1_12  and  C11_13 
REMARK   11  A    between atoms: C14_17  and  O3_18 
REMARK   12  A    between atoms: C15_20  and  O4_21 
REMARK   13  A    between atoms: C16_23  and  O5_24 
REMARK   14  A    between atoms: C17_26  and  O6_27 
REMARK   15  A    between atoms: O6_27  and  C18_28 
REMARK   16  A    between atoms: C18_28  and  C19_29 
REMARK   17  A    between atoms: C22_32  and  C23_33 
REMARK   18  A    between atoms: C23_33  and  O7_34 
ROOT
HETATM    1  C8  UNL     1       0.345   0.531   0.291  1.00  0.00     0.022 C 
HETATM    2  C9  UNL     1      -0.852   0.286   1.250  1.00  0.00     0.041 C 
HETATM    3  C10 UNL     1      -2.145   0.503   0.464  1.00  0.00     0.154 C 
HETATM    4  C17 UNL     1      -1.934   1.603  -0.556  1.00  0.00     0.151 C 
HETATM    5  C21 UNL     1      -0.988   2.622   0.025  1.00  0.00     0.041 C 
HETATM    6  C22 UNL     1       0.410   1.990   0.104  1.00  0.00     0.017 C 
ENDROOT
BRANCH   1   7
HETATM    7  C7  UNL     1       1.484  -0.189   0.856  1.00  0.00     0.280 C 
BRANCH   7   8
HETATM    8  N1  UNL     1       2.755  -0.117   0.104  1.00  0.00     0.112 N 
BRANCH   8   9
HETATM    9  C6  UNL     1       3.701  -0.855   0.890  1.00  0.00     0.275 C 
BRANCH   9  10
HETATM   10  C5  UNL     1       5.137  -0.754   0.611  1.00  0.00     0.030 C 
BRANCH  10  11
HETATM   11  C4  UNL     1       5.694   0.651   0.746  1.00  0.00     0.002 C 
BRANCH  11  12
HETATM   12  C3  UNL     1       7.162   0.651   0.434  1.00  0.00    -0.000 C 
BRANCH  12  13
HETATM   13  C2  UNL     1       7.955  -0.237   1.347  1.00  0.00    -0.005 C 
HETATM   14  C1  UNL     1       9.437  -0.200   0.988  1.00  0.00     0.005 C 
ENDBRANCH  12  13
ENDBRANCH  11  12
ENDBRANCH  10  11
ENDBRANCH   9  10
ENDBRANCH   8   9
BRANCH   8  15
HETATM   15  C24 UNL     1       2.579  -0.536  -1.226  1.00  0.00     0.333 C 
HETATM   16  C25 UNL     1       3.648  -0.456  -2.257  1.00  0.00     0.160 C 
HETATM   17  C26 UNL     1       3.550  -1.924  -2.522  1.00  0.00     0.223 C 
HETATM   18  O8  UNL     1       4.000  -2.642  -3.427  1.00  0.00    -0.273 OA
HETATM   19  N2  UNL     1       2.774  -2.000  -1.331  1.00  0.00    -0.331 N 
ATOM     20  H2  UNL     1       2.463  -2.783  -0.756  1.00  0.00     0.164 HD
ENDBRANCH   8  15
ENDBRANCH   7   8
ENDBRANCH   1   7
BRANCH   6  21
HETATM   21  C23 UNL     1       1.128   2.791   1.150  1.00  0.00     0.169 C 
BRANCH  21  22
HETATM   22  O7  UNL     1       2.444   2.515   1.350  1.00  0.00    -0.400 OA
ATOM     23  H7  UNL     1       2.899   3.022   2.012  1.00  0.00     0.209 HD
ENDBRANCH  21  22
ENDBRANCH   6  21
BRANCH   3  24
HETATM   24  O1  UNL     1      -2.585  -0.683  -0.057  1.00  0.00    -0.351 OA
BRANCH  24  25
HETATM   25  C11 UNL     1      -3.783  -1.163   0.461  1.00  0.00     0.292 C 
HETATM   26  O2  UNL     1      -3.621  -2.352   1.146  1.00  0.00    -0.351 OA
HETATM   27  C12 UNL     1      -4.731  -3.002   1.557  1.00  0.00     0.152 C 
HETATM   28  C13 UNL     1      -4.985  -2.579   3.017  1.00  0.00     0.042 C 
HETATM   29  C14 UNL     1      -6.001  -2.794   0.829  1.00  0.00     0.178 C 
HETATM   30  C15 UNL     1      -6.146  -1.525   0.079  1.00  0.00     0.183 C 
HETATM   31  C16 UNL     1      -4.826  -1.233  -0.612  1.00  0.00     0.204 C 
BRANCH  29  32
HETATM   32  O3  UNL     1      -6.121  -3.843  -0.115  1.00  0.00    -0.390 OA
ATOM     33  H3  UNL     1      -6.937  -3.709  -0.583  1.00  0.00     0.210 HD
ENDBRANCH  29  32
BRANCH  30  34
HETATM   34  O4  UNL     1      -6.412  -0.491   0.966  1.00  0.00    -0.390 OA
ATOM     35  H4  UNL     1      -6.505   0.323   0.485  1.00  0.00     0.210 HD
ENDBRANCH  30  34
BRANCH  31  36
HETATM   36  O5  UNL     1      -4.603  -2.260  -1.520  1.00  0.00    -0.388 OA
ATOM     37  H5  UNL     1      -5.264  -2.304  -2.200  1.00  0.00     0.210 HD
ENDBRANCH  31  36
ENDBRANCH  24  25
ENDBRANCH   3  24
BRANCH   4  38
HETATM   38  O6  UNL     1      -3.145   2.248  -0.870  1.00  0.00    -0.383 OA
BRANCH  38  39
HETATM   39  C18 UNL     1      -3.298   2.186  -2.244  1.00  0.00     0.168 C 
BRANCH  39  40
HETATM   40  C19 UNL     1      -4.588   2.862  -2.674  1.00  0.00     0.022 C 
HETATM   41  C20 UNL     1      -4.709   2.770  -4.174  1.00  0.00     0.007 C 
ENDBRANCH  39  40
ENDBRANCH  38  39
ENDBRANCH   4  38
TORSDOF 18
