REMARK  12 active torsions:
REMARK  status: ('A' for Active; 'I' for Inactive)
REMARK    1  A    between atoms: C4_9  and  C5_10 
REMARK    2  A    between atoms: C5_10  and  O4_12 
REMARK    3  A    between atoms: O4_12  and  C6_13 
REMARK    4  A    between atoms: C6_13  and  C7_14 
REMARK    5  A    between atoms: C9_16  and  C10_17 
REMARK       I    between atoms: C10_17  and  N2_19 
REMARK    6  A    between atoms: N2_19  and  C11_21 
REMARK    7  A    between atoms: C11_21  and  O6_22 
REMARK    8  A    between atoms: C11_21  and  C12_24 
REMARK    9  A    between atoms: C12_24  and  C13_25 
REMARK   10  A    between atoms: C12_24  and  N3_27 
REMARK   11  A    between atoms: N3_27  and  C14_29 
REMARK   12  A    between atoms: C17_35  and  N6_36 
ROOT
HETATM    1  C10 UNL     1       0.170   0.458  -0.263  1.00  0.00     0.275 C 
HETATM    2  O5  UNL     1      -0.283  -0.364  -1.070  1.00  0.00    -0.266 OA
HETATM    3  N2  UNL     1      -0.599   1.311   0.525  1.00  0.00    -0.304 N 
ATOM      4  H2  UNL     1      -0.082   1.937   1.142  1.00  0.00     0.171 HD
ENDROOT
BRANCH   3   5
HETATM    5  C11 UNL     1      -1.988   1.415   0.574  1.00  0.00     0.142 C 
BRANCH   5   6
HETATM    6  O6  UNL     1      -2.534   2.211   1.446  1.00  0.00    -0.348 OA
ATOM      7  H6  UNL     1      -3.481   2.282   1.479  1.00  0.00     0.219 HD
ENDBRANCH   5   6
BRANCH   5   8
HETATM    8  C12 UNL     1      -2.994   0.706  -0.273  1.00  0.00     0.166 C 
BRANCH   8   9
HETATM    9  C13 UNL     1      -3.517   1.692  -1.343  1.00  0.00     0.119 C 
HETATM   10  S1  UNL     1      -2.214   2.321  -2.403  1.00  0.00    -0.095 SA
ENDBRANCH   8   9
BRANCH   8  11
HETATM   11  N3  UNL     1      -4.073   0.366   0.599  1.00  0.00    -0.372 N 
ATOM     12  H3  UNL     1      -3.995   0.795   1.521  1.00  0.00     0.160 HD
BRANCH  11  13
HETATM   13  C14 UNL     1      -5.092  -0.346   0.472  1.00  0.00     0.101 C 
HETATM   14  C15 UNL     1      -5.951  -0.440   1.588  1.00  0.00     0.080 C 
HETATM   15  C16 UNL     1      -7.301  -0.692   1.601  1.00  0.00     0.134 C 
HETATM   16  N4  UNL     1      -7.928  -0.659   2.884  1.00  0.00    -0.082 NA
HETATM   17  N5  UNL     1      -8.133  -0.969   0.579  1.00  0.00    -0.179 N 
HETATM   18  C17 UNL     1      -7.818  -1.067  -0.742  1.00  0.00     0.680 C 
ATOM     19  H5  UNL     1      -9.111  -1.123   0.822  1.00  0.00     0.185 HD
HETATM   20  N7  UNL     1      -6.589  -1.149  -1.282  1.00  0.00    -0.154 N 
HETATM   21  C18 UNL     1      -5.362  -1.008  -0.709  1.00  0.00     0.286 C 
ATOM     22  H7  UNL     1      -6.574  -1.349  -2.282  1.00  0.00     0.187 HD
HETATM   23  O7  UNL     1      -4.388  -1.525  -1.304  1.00  0.00    -0.265 OA
BRANCH  18  24
HETATM   24  N6  UNL     1      -8.829  -1.081  -1.547  1.00  0.00    -0.234 N 
ATOM     25  H62 UNL     1      -9.761  -1.019  -1.137  1.00  0.00     0.174 HD
ATOM     26  H61 UNL     1      -8.593  -1.154  -2.537  1.00  0.00     0.174 HD
ENDBRANCH  18  24
ENDBRANCH  11  13
ENDBRANCH   8  11
ENDBRANCH   5   8
ENDBRANCH   3   5
BRANCH   1  27
HETATM   27  C9  UNL     1       1.646   0.542  -0.123  1.00  0.00     0.125 A 
HETATM   28  C8  UNL     1       2.348   1.380   0.708  1.00  0.00     0.074 A 
HETATM   29  C7  UNL     1       3.709   1.122   0.515  1.00  0.00     0.103 A 
HETATM   30  O8  UNL     1       3.760   0.176  -0.391  1.00  0.00    -0.239 OA
HETATM   31  N8  UNL     1       2.570  -0.176  -0.776  1.00  0.00    -0.256 N 
ATOM     32  H8  UNL     1       2.369  -0.893  -1.473  1.00  0.00     0.195 HD
BRANCH  29  33
HETATM   33  C6  UNL     1       4.823   1.799   1.209  1.00  0.00     0.246 C 
BRANCH  33  34
HETATM   34  O4  UNL     1       6.058   1.291   0.819  1.00  0.00    -0.309 OA
BRANCH  34  35
HETATM   35  C5  UNL     1       6.483  -0.000   0.954  1.00  0.00     0.320 C 
HETATM   36  O3  UNL     1       5.707  -0.840   1.479  1.00  0.00    -0.257 OA
BRANCH  35  37
HETATM   37  C4  UNL     1       7.792  -0.481   0.526  1.00  0.00     0.184 A 
HETATM   38  C2  UNL     1       8.343  -1.719   0.596  1.00  0.00     0.093 A 
HETATM   39  C1  UNL     1       7.653  -2.906   1.170  1.00  0.00     0.080 C 
HETATM   40  O1  UNL     1       9.537  -1.626   0.078  1.00  0.00    -0.276 OA
HETATM   41  C3  UNL     1       9.782  -0.401  -0.320  1.00  0.00     0.268 A 
HETATM   42  N1  UNL     1      10.875   0.049  -0.883  1.00  0.00    -0.359 N 
HETATM   43  O2  UNL     1       8.699   0.289  -0.037  1.00  0.00    -0.265 OA
ATOM     44  H12 UNL     1      11.715  -0.486  -1.103  1.00  0.00     0.160 HD
ATOM     45  H11 UNL     1      11.066   1.002  -1.193  1.00  0.00     0.160 HD
ENDBRANCH  35  37
ENDBRANCH  34  35
ENDBRANCH  33  34
ENDBRANCH  29  33
ENDBRANCH   1  27
TORSDOF 12
