REMARK  12 active torsions:
REMARK  status: ('A' for Active; 'I' for Inactive)
REMARK    1  A    between atoms: N1_1  and  C1_4 
REMARK    2  A    between atoms: C3_8  and  C4_9 
REMARK    3  A    between atoms: N3_10  and  N4_12 
REMARK    4  A    between atoms: N4_12  and  C5_14 
REMARK    5  A    between atoms: C5_14  and  O1_15 
REMARK    6  A    between atoms: C5_14  and  C6_17 
REMARK       I    between atoms: C6_17  and  N5_19 
REMARK    7  A    between atoms: N5_19  and  S1_21 
REMARK    8  A    between atoms: S1_21  and  C7_24 
REMARK    9  A    between atoms: C7_24  and  C8_25 
REMARK   10  A    between atoms: C12_30  and  O5_31 
REMARK   11  A    between atoms: C13_33  and  N6_34 
REMARK   12  A    between atoms: N7_41  and  N8_42 
ROOT
HETATM    1  C1  UNL     1      -4.721  -0.515   2.424  1.00  0.00     0.700 A 
HETATM    2  N2  UNL     1      -3.854  -0.503   1.377  1.00  0.00    -0.188 N 
ATOM      3  H2  UNL     1      -2.855  -0.558   1.577  1.00  0.00     0.184 HD
HETATM    4  C2  UNL     1      -4.241  -0.423   0.098  1.00  0.00     0.079 A 
HETATM    5  C3  UNL     1      -3.341  -0.412  -0.980  1.00  0.00     0.045 A 
HETATM    6  C12 UNL     1      -3.817  -0.327  -2.281  1.00  0.00     0.112 A 
HETATM    7  C13 UNL     1      -5.209  -0.251  -2.528  1.00  0.00     0.138 A 
HETATM    8  C14 UNL     1      -6.038  -0.266  -1.444  1.00  0.00     0.058 A 
HETATM    9  C15 UNL     1      -5.592  -0.349  -0.147  1.00  0.00     0.065 A 
HETATM   10  C16 UNL     1      -6.468  -0.362   0.928  1.00  0.00     0.294 A 
HETATM   11  O8  UNL     1      -7.688  -0.295   0.685  1.00  0.00    -0.265 OA
HETATM   12  N7  UNL     1      -6.040  -0.444   2.197  1.00  0.00    -0.054 N 
ENDROOT
BRANCH   5  13
HETATM   13  C4  UNL     1      -1.925  -0.492  -0.688  1.00  0.00     0.123 C 
HETATM   14  N3  UNL     1      -0.963  -0.495  -1.533  1.00  0.00    -0.313 N 
ATOM     15  H3  UNL     1      -1.209  -0.434  -2.521  1.00  0.00     0.185 HD
BRANCH  14  16
HETATM   16  N4  UNL     1       0.382  -0.574  -1.220  1.00  0.00    -0.300 N 
ATOM     17  H4  UNL     1       0.979  -1.168  -1.795  1.00  0.00     0.183 HD
BRANCH  16  18
HETATM   18  C5  UNL     1       0.992   0.151  -0.106  1.00  0.00     0.327 C 
BRANCH  18  19
HETATM   19  O1  UNL     1       0.854   1.527  -0.242  1.00  0.00    -0.367 OA
ATOM     20  H1  UNL     1       1.250   1.998   0.482  1.00  0.00     0.212 HD
ENDBRANCH  18  19
BRANCH  18  21
HETATM   21  C6  UNL     1       2.444  -0.160  -0.066  1.00  0.00     0.281 C 
HETATM   22  O2  UNL     1       2.771  -1.367   0.056  1.00  0.00    -0.268 OA
HETATM   23  N5  UNL     1       3.458   0.826  -0.157  1.00  0.00    -0.250 N 
ATOM     24  H5  UNL     1       3.210   1.810  -0.257  1.00  0.00     0.181 HD
BRANCH  23  25
HETATM   25  S1  UNL     1       5.106   0.351  -0.098  1.00  0.00     0.237 S 
HETATM   26  O3  UNL     1       5.812   0.678  -1.388  1.00  0.00    -0.205 OA
HETATM   27  O4  UNL     1       5.214  -1.136   0.083  1.00  0.00    -0.205 OA
BRANCH  25  28
HETATM   28  C7  UNL     1       5.981   1.189   1.227  1.00  0.00     0.209 C 
BRANCH  28  29
HETATM   29  C8  UNL     1       7.400   0.673   1.155  1.00  0.00    -0.002 A 
HETATM   30  C9  UNL     1       8.442   1.193   0.433  1.00  0.00     0.016 A 
HETATM   31  C10 UNL     1       9.621   0.568   0.519  1.00  0.00     0.008 A 
HETATM   32  C11 UNL     1       9.692  -0.539   1.319  1.00  0.00     0.050 A 
HETATM   33  S2  UNL     1       8.105  -0.673   1.929  1.00  0.00    -0.105 SA
ENDBRANCH  28  29
ENDBRANCH  25  28
ENDBRANCH  23  25
ENDBRANCH  18  21
ENDBRANCH  16  18
ENDBRANCH  14  16
ENDBRANCH   5  13
BRANCH   6  34
HETATM   34  O5  UNL     1      -3.056  -0.307  -3.405  1.00  0.00    -0.357 OA
ATOM     35  H5  UNL     1      -3.382  -0.249  -4.295  1.00  0.00     0.217 HD
ENDBRANCH   6  34
BRANCH   7  36
HETATM   36  N6  UNL     1      -5.700  -0.164  -3.871  1.00  0.00    -0.113 N 
HETATM   37  O6  UNL     1      -6.792   0.397  -4.060  1.00  0.00    -0.532 OA
HETATM   38  O7  UNL     1      -5.025  -0.669  -4.949  1.00  0.00    -0.532 OA
ENDBRANCH   7  36
BRANCH   1  39
HETATM   39  N1  UNL     1      -4.296  -0.593   3.647  1.00  0.00    -0.233 N 
ATOM     40  H12 UNL     1      -3.292  -0.647   3.820  1.00  0.00     0.174 HD
ATOM     41  H11 UNL     1      -4.947  -0.602   4.433  1.00  0.00     0.174 HD
ENDBRANCH   1  39
BRANCH  12  42
HETATM   42  N8  UNL     1      -6.901  -0.458   3.291  1.00  0.00    -0.321 N 
ATOM     43  H82 UNL     1      -6.576  -0.520   4.256  1.00  0.00     0.178 HD
ATOM     44  H81 UNL     1      -7.905  -0.404   3.118  1.00  0.00     0.178 HD
ENDBRANCH  12  42
TORSDOF 12
