REMARK  9 active torsions:
REMARK  status: ('A' for Active; 'I' for Inactive)
REMARK       I    between atoms: N1_2  and  C2_4 
REMARK    1  A    between atoms: C2_4  and  C3_6 
REMARK       I    between atoms: N2_10  and  C7_11 
REMARK    2  A    between atoms: C7_11  and  C8_13 
REMARK    3  A    between atoms: C8_13  and  C9_14 
REMARK    4  A    between atoms: C8_13  and  N6_25 
REMARK    5  A    between atoms: C9_14  and  C10_15 
REMARK    6  A    between atoms: C10_15  and  C11_16 
REMARK    7  A    between atoms: C11_16  and  C12_17 
REMARK    8  A    between atoms: C12_17  and  N3_18 
REMARK       I    between atoms: N3_18  and  C13_20 
REMARK       I    between atoms: N6_25  and  C14_27 
REMARK    9  A    between atoms: C14_27  and  C15_29 
ROOT
HETATM    1  C8  UNL     1      -0.343  -0.492   0.546  1.00  0.00     0.176 C 
ENDROOT
BRANCH   1   2
HETATM    2  C7  UNL     1      -0.725  -1.498   1.543  1.00  0.00     0.243 C 
HETATM    3  N2  UNL     1      -1.932  -2.228   1.474  1.00  0.00    -0.337 N 
HETATM    4  C3  UNL     1      -2.996  -2.225   0.502  1.00  0.00     0.179 C 
HETATM    5  C6  UNL     1      -2.354  -3.215   2.486  1.00  0.00     0.127 C 
HETATM    6  C4  UNL     1      -4.251  -2.310   1.315  1.00  0.00     0.037 C 
HETATM    7  C5  UNL     1      -3.799  -2.878   2.622  1.00  0.00     0.022 C 
HETATM    8  O2  UNL     1       0.059  -1.727   2.504  1.00  0.00    -0.271 OA
BRANCH   4   9
HETATM    9  C2  UNL     1      -2.934  -3.417  -0.399  1.00  0.00     0.240 C 
HETATM   10  N1  UNL     1      -1.760  -4.208  -0.442  1.00  0.00    -0.364 N 
HETATM   11  C1  UNL     1      -1.647  -5.379  -1.302  1.00  0.00     0.149 C 
ATOM     12  H1  UNL     1      -0.969  -3.950   0.148  1.00  0.00     0.161 HD
HETATM   13  O1  UNL     1      -3.896  -3.748  -1.135  1.00  0.00    -0.271 OA
ENDBRANCH   4   9
ENDBRANCH   1   2
BRANCH   1  14
HETATM   14  C9  UNL     1      -1.136   0.817   0.716  1.00  0.00     0.035 C 
BRANCH  14  15
HETATM   15  C10 UNL     1      -0.729   1.811  -0.332  1.00  0.00     0.004 C 
BRANCH  15  16
HETATM   16  C11 UNL     1      -1.493   3.086  -0.154  1.00  0.00     0.020 C 
BRANCH  16  17
HETATM   17  C12 UNL     1      -2.976   2.899  -0.258  1.00  0.00     0.122 C 
BRANCH  17  18
HETATM   18  N3  UNL     1      -3.428   2.368  -1.511  1.00  0.00    -0.365 N 
HETATM   19  C13 UNL     1      -3.375   3.055  -2.744  1.00  0.00     0.181 C 
HETATM   20  N4  UNL     1      -3.341   2.362  -3.833  1.00  0.00    -0.374 N 
HETATM   21  N5  UNL     1      -3.358   4.461  -2.866  1.00  0.00    -0.064 NA
ATOM     22  H42 UNL     1      -3.353   1.346  -3.745  1.00  0.00     0.158 HD
ATOM     23  H41 UNL     1      -3.303   2.858  -4.723  1.00  0.00     0.158 HD
ATOM     24  H3  UNL     1      -3.816   1.425  -1.512  1.00  0.00     0.162 HD
ENDBRANCH  17  18
ENDBRANCH  16  17
ENDBRANCH  15  16
ENDBRANCH  14  15
ENDBRANCH   1  14
BRANCH   1  25
HETATM   25  N6  UNL     1       1.044  -0.051   0.774  1.00  0.00    -0.347 N 
HETATM   26  C14 UNL     1       2.094  -0.231  -0.129  1.00  0.00     0.222 C 
HETATM   27  O3  UNL     1       1.877  -0.804  -1.221  1.00  0.00    -0.273 OA
ATOM     28  H6  UNL     1       1.252   0.420   1.655  1.00  0.00     0.163 HD
BRANCH  26  29
HETATM   29  C15 UNL     1       3.455   0.247   0.193  1.00  0.00     0.078 C 
HETATM   30  C16 UNL     1       3.421   1.753   0.304  1.00  0.00     0.014 C 
HETATM   31  C17 UNL     1       4.761   2.383   0.498  1.00  0.00     0.001 C 
HETATM   32  C18 UNL     1       5.895   1.415   0.628  1.00  0.00     0.000 C 
HETATM   33  C19 UNL     1       6.408   1.104  -0.783  1.00  0.00     0.000 C 
HETATM   34  C20 UNL     1       5.160   0.757  -1.590  1.00  0.00     0.001 C 
HETATM   35  C21 UNL     1       4.414  -0.278  -0.820  1.00  0.00     0.014 C 
ENDBRANCH  26  29
ENDBRANCH   1  25
TORSDOF 9
