REMARK  3 active torsions:
REMARK  status: ('A' for Active; 'I' for Inactive)
REMARK    1  A    between atoms: N2_4  and  C1_6 
REMARK    2  A    between atoms: C1_6  and  C2_7 
REMARK    3  A    between atoms: C4_9  and  N3_10 
ROOT
HETATM    1  C2  UNL     1       0.183   0.087  -0.265  1.00  0.00     0.037 A 
HETATM    2  C3  UNL     1      -0.792  -1.080  -0.476  1.00  0.00     0.041 A 
HETATM    3  C4  UNL     1      -0.930  -0.119   0.657  1.00  0.00     0.189 A 
ENDROOT
BRANCH   1   4
HETATM    4  C1  UNL     1       1.588  -0.381   0.039  1.00  0.00     0.145 C 
BRANCH   4   5
HETATM    5  N2  UNL     1       2.490   0.716   0.234  1.00  0.00    -0.343 N 
HETATM    6  N1  UNL     1       2.303   1.852  -0.237  1.00  0.00    -0.349 N 
ATOM      7  H12 UNL     1       1.457   1.994  -0.789  1.00  0.00     0.176 HD
ATOM      8  H11 UNL     1       2.945   2.633  -0.098  1.00  0.00     0.176 HD
ATOM      9  H2  UNL     1       3.331   0.556   0.789  1.00  0.00     0.179 HD
ENDBRANCH   4   5
ENDBRANCH   1   4
BRANCH   3  10
HETATM   10  N3  UNL     1      -2.042   0.832   0.529  1.00  0.00    -0.075 N 
ATOM     11  H33 UNL     1      -1.695   1.788   0.609  1.00  0.00     0.274 HD
ATOM     12  H32 UNL     1      -2.383   0.843  -0.432  1.00  0.00     0.274 HD
ATOM     13  H31 UNL     1      -2.820   0.688   1.173  1.00  0.00     0.274 HD
ENDBRANCH   3  10
TORSDOF 3
