REMARK  1 active torsions:
REMARK  status: ('A' for Active; 'I' for Inactive)
REMARK    1  A    between atoms: C7_13  and  O1_14 
ROOT
HETATM    1  C1  UNL     1       2.259   1.285  -0.554  1.00  0.00     0.014 C 
HETATM    2  C2  UNL     1       1.562   0.259   0.263  1.00  0.00     0.032 C 
HETATM    3  C3  UNL     1       2.061  -1.122  -0.034  1.00  0.00     0.084 C 
HETATM    4  S1  UNL     1       0.787  -1.384  -1.309  1.00  0.00    -0.135 SA
HETATM    5  C4  UNL     1       0.161  -0.112  -0.164  1.00  0.00     0.107 C 
HETATM    6  N1  UNL     1      -0.517   0.937  -0.834  1.00  0.00    -0.380 N 
ATOM      7  H1  UNL     1      -0.019   1.718  -1.260  1.00  0.00     0.156 HD
HETATM    8  C5  UNL     1      -1.940   0.833  -0.876  1.00  0.00     0.351 C 
HETATM    9  N2  UNL     1      -2.451  -0.468  -0.540  1.00  0.00    -0.057 N 
ATOM     10  H21 UNL     1      -2.193  -1.161  -1.242  1.00  0.00     0.279 HD
ATOM     11  H22 UNL     1      -3.465  -0.507  -0.642  1.00  0.00     0.279 HD
HETATM   12  C6  UNL     1      -2.042  -0.877   0.773  1.00  0.00     0.269 C 
HETATM   13  C7  UNL     1      -0.575  -0.723   0.983  1.00  0.00     0.182 C 
ENDROOT
BRANCH  13  14
HETATM   14  O1  UNL     1      -0.264  -0.055   2.186  1.00  0.00    -0.391 OA
ATOM     15  H1  UNL     1      -0.732  -0.444   2.916  1.00  0.00     0.210 HD
ENDBRANCH  13  14
TORSDOF 1
