REMARK  2 active torsions:
REMARK  status: ('A' for Active; 'I' for Inactive)
REMARK    1  A    between atoms: C1_2  and  N1_3 
REMARK    2  A    between atoms: C2_5  and  C3_6 
ROOT
HETATM    1  C3  UNL     1      -0.115   0.662   0.396  1.00  0.00     0.024 C 
HETATM    2  C4  UNL     1      -0.781  -0.293   1.359  1.00  0.00     0.010 C 
HETATM    3  C5  UNL     1      -2.114  -0.658   0.733  1.00  0.00     0.001 C 
HETATM    4  C6  UNL     1      -2.147   0.085  -0.595  1.00  0.00     0.001 C 
HETATM    5  C7  UNL     1      -0.661   0.276  -0.935  1.00  0.00     0.010 C 
ENDROOT
BRANCH   1   6
HETATM    6  C2  UNL     1       1.358   0.602   0.495  1.00  0.00     0.068 C 
HETATM    7  N1  UNL     1       2.102  -0.149  -0.203  1.00  0.00    -0.348 N 
ATOM      8  H1  UNL     1       1.679  -0.770  -0.893  1.00  0.00     0.167 HD
BRANCH   7   9
HETATM    9  C1  UNL     1       3.514  -0.145  -0.045  1.00  0.00     0.352 C 
HETATM   10  O1  UNL     1       4.238  -1.160  -0.194  1.00  0.00    -0.283 OA
ENDBRANCH   7   9
ENDBRANCH   1   6
TORSDOF 2
