REMARK  2 active torsions:
REMARK  status: ('A' for Active; 'I' for Inactive)
REMARK    1  A    between atoms: C2_2  and  O1_3 
REMARK    2  A    between atoms: O1_3  and  C3_4 
ROOT
HETATM    1  C3  UNL     1      -0.471  -0.490   0.203  1.00  0.00     0.165 C 
HETATM    2  C4  UNL     1      -0.100   0.889  -0.299  1.00  0.00     0.039 C 
HETATM    3  C5  UNL     1       1.195   1.219   0.389  1.00  0.00     0.022 C 
HETATM    4  C6  UNL     1       2.265   0.248  -0.026  1.00  0.00     0.119 C 
HETATM    5  N1  UNL     1       1.924  -1.125   0.091  1.00  0.00    -0.400 N 
ATOM      6  H1  UNL     1       2.646  -1.825   0.262  1.00  0.00     0.158 HD
HETATM    7  C7  UNL     1       0.579  -1.506  -0.032  1.00  0.00     0.087 C 
ENDROOT
BRANCH   1   8
HETATM    8  O1  UNL     1      -1.670  -0.862  -0.446  1.00  0.00    -0.353 OA
BRANCH   8   9
HETATM    9  C2  UNL     1      -2.853  -0.193  -0.369  1.00  0.00     0.125 C 
HETATM   10  C1  UNL     1      -3.097   0.809  -1.185  1.00  0.00     0.037 C 
ENDBRANCH   8   9
ENDBRANCH   1   8
TORSDOF 2
