REMARK  11 active torsions:
REMARK  status: ('A' for Active; 'I' for Inactive)
REMARK    1  A    between atoms: C2_2  and  C3_3 
REMARK    2  A    between atoms: C3_3  and  C4_4 
REMARK    3  A    between atoms: C4_4  and  C5_5 
REMARK    4  A    between atoms: C7_10  and  C8_11 
REMARK    5  A    between atoms: C8_11  and  C9_12 
REMARK    6  A    between atoms: C10_13  and  C11_14 
REMARK    7  A    between atoms: C11_14  and  N2_15 
REMARK    8  A    between atoms: C15_22  and  C16_23 
REMARK    9  A    between atoms: C22_34  and  C23_35 
REMARK   10  A    between atoms: C27_42  and  C28_43 
REMARK   11  A    between atoms: C28_43  and  C29_44 
ROOT
HETATM    1  C5  UNL     1      -0.860  -1.489  -2.163  1.00  0.00     0.176 C 
HETATM    2  N1  UNL     1      -0.280  -0.470  -1.294  1.00  0.00    -0.346 N 
ATOM      3  H1  UNL     1      -0.818   0.395  -1.253  1.00  0.00     0.163 HD
HETATM    4  C6  UNL     1       0.856  -0.459  -0.521  1.00  0.00     0.241 C 
HETATM    5  O1  UNL     1       0.727  -0.550   0.768  1.00  0.00    -0.271 OA
HETATM    6  C7  UNL     1       2.295  -0.355  -0.866  1.00  0.00     0.180 C 
HETATM    7  N3  UNL     1       2.957   0.787  -0.231  1.00  0.00    -0.346 N 
ATOM      8  H3  UNL     1       3.959   0.667  -0.082  1.00  0.00     0.163 HD
HETATM    9  C14 UNL     1       2.450   2.007   0.203  1.00  0.00     0.241 C 
HETATM   10  O2  UNL     1       2.534   2.220   1.480  1.00  0.00    -0.271 OA
HETATM   11  C15 UNL     1       1.830   3.122  -0.521  1.00  0.00     0.180 C 
HETATM   12  N4  UNL     1       0.410   3.101  -0.676  1.00  0.00    -0.346 N 
ATOM     13  H4  UNL     1       0.096   2.607  -1.511  1.00  0.00     0.163 HD
HETATM   14  C19 UNL     1      -0.623   3.620   0.085  1.00  0.00     0.235 C 
HETATM   15  O3  UNL     1      -1.418   4.482  -0.450  1.00  0.00    -0.272 OA
HETATM   16  C20 UNL     1      -0.974   3.314   1.508  1.00  0.00     0.217 C 
HETATM   17  N5  UNL     1      -1.492   1.976   1.652  1.00  0.00    -0.411 N 
ATOM     18  H5  UNL     1      -0.909   1.155   1.491  1.00  0.00     0.153 HD
HETATM   19  C21 UNL     1      -2.869   1.860   2.033  1.00  0.00     0.139 C 
HETATM   20  C22 UNL     1      -3.815   1.836   0.899  1.00  0.00     0.105 C 
HETATM   21  N6  UNL     1      -4.270   0.586   0.389  1.00  0.00    -0.353 N 
ATOM     22  H6  UNL     1      -5.283   0.546   0.274  1.00  0.00     0.163 HD
HETATM   23  C26 UNL     1      -3.634  -0.587   0.015  1.00  0.00     0.240 C 
HETATM   24  O4  UNL     1      -3.779  -0.967  -1.206  1.00  0.00    -0.271 OA
HETATM   25  C27 UNL     1      -2.781  -1.531   0.798  1.00  0.00     0.177 C 
HETATM   26  N7  UNL     1      -1.999  -2.411  -0.017  1.00  0.00    -0.346 N 
ATOM     27  H7  UNL     1      -1.561  -3.173   0.501  1.00  0.00     0.163 HD
HETATM   28  C32 UNL     1      -1.720  -2.425  -1.393  1.00  0.00     0.241 C 
HETATM   29  O5  UNL     1      -2.276  -3.363  -2.070  1.00  0.00    -0.271 OA
ENDROOT
BRANCH   6  30
HETATM   30  C8  UNL     1       2.904  -1.641  -0.214  1.00  0.00     0.061 C 
BRANCH  30  31
HETATM   31  C9  UNL     1       4.342  -1.705  -0.472  1.00  0.00    -0.026 C 
HETATM   32  C10 UNL     1       5.264  -1.728   0.469  1.00  0.00    -0.001 C 
BRANCH  32  33
HETATM   33  C11 UNL     1       5.067  -1.696   1.926  1.00  0.00     0.298 C 
BRANCH  33  34
HETATM   34  N2  UNL     1       5.766  -0.500   2.426  1.00  0.00     0.083 N 
HETATM   35  C12 UNL     1       5.625  -0.383   3.858  1.00  0.00     0.309 C 
HETATM   36  C13 UNL     1       7.149  -0.656   2.030  1.00  0.00     0.309 C 
ENDBRANCH  33  34
ENDBRANCH  32  33
ENDBRANCH  30  31
ENDBRANCH   6  30
BRANCH   1  37
HETATM   37  C4  UNL     1       0.175  -2.109  -3.051  1.00  0.00     0.035 C 
BRANCH  37  38
HETATM   38  C3  UNL     1      -0.342  -3.157  -3.995  1.00  0.00     0.002 C 
BRANCH  38  39
HETATM   39  C2  UNL     1       0.851  -3.611  -4.852  1.00  0.00    -0.004 C 
HETATM   40  C1  UNL     1       1.331  -2.375  -5.568  1.00  0.00     0.005 C 
ENDBRANCH  38  39
ENDBRANCH  37  38
ENDBRANCH   1  37
BRANCH  11  41
HETATM   41  C16 UNL     1       2.459   3.297  -1.928  1.00  0.00     0.009 C 
HETATM   42  C17 UNL     1       1.706   4.486  -2.531  1.00  0.00     0.012 C 
HETATM   43  C18 UNL     1       3.886   3.754  -1.746  1.00  0.00     0.012 C 
ENDBRANCH  11  41
BRANCH  25  44
HETATM   44  C28 UNL     1      -3.703  -2.178   1.786  1.00  0.00     0.038 C 
BRANCH  44  45
HETATM   45  C29 UNL     1      -3.232  -3.180   2.744  1.00  0.00    -0.020 C 
HETATM   46  C30 UNL     1      -4.508  -3.503   3.612  1.00  0.00     0.009 C 
HETATM   47  C31 UNL     1      -2.941  -4.558   2.146  1.00  0.00     0.009 C 
ENDBRANCH  44  45
ENDBRANCH  25  44
BRANCH  20  48
HETATM   48  C23 UNL     1      -5.028   2.664   1.330  1.00  0.00     0.002 C 
HETATM   49  C24 UNL     1      -4.701   4.081   1.654  1.00  0.00     0.011 C 
HETATM   50  C25 UNL     1      -6.104   2.649   0.273  1.00  0.00     0.011 C 
ENDBRANCH  20  48
TORSDOF 11
