REMARK  8 active torsions:
REMARK  status: ('A' for Active; 'I' for Inactive)
REMARK    1  A    between atoms: C2_7  and  C3_8 
REMARK    2  A    between atoms: C3_8  and  N3_9 
REMARK    3  A    between atoms: C5_14  and  N4_15 
REMARK    4  A    between atoms: N4_15  and  C6_17 
REMARK    5  A    between atoms: C6_17  and  C7_18 
REMARK    6  A    between atoms: C7_18  and  C8_19 
REMARK    7  A    between atoms: C8_19  and  N5_20 
REMARK    8  A    between atoms: N5_20  and  C9_23 
ROOT
HETATM    1  N1  UNL     1       3.699   1.648   1.768  1.00  0.00    -0.234 N 
ATOM      2  H11 UNL     1       3.052   2.013   2.467  1.00  0.00     0.174 HD
ATOM      3  H12 UNL     1       4.626   2.042   1.609  1.00  0.00     0.174 HD
HETATM    4  C1  UNL     1       3.254   0.630   1.091  1.00  0.00     0.677 A 
HETATM    5  N2  UNL     1       4.121   0.141   0.154  1.00  0.00    -0.194 N 
ATOM      6  H2  UNL     1       5.043   0.553   0.014  1.00  0.00     0.184 HD
HETATM    7  C2  UNL     1       3.701  -0.910  -0.576  1.00  0.00     0.055 A 
HETATM    8  C4  UNL     1       2.463  -1.450  -0.374  1.00  0.00     0.076 A 
HETATM    9  C5  UNL     1       1.616  -0.934   0.575  1.00  0.00     0.118 A 
HETATM   10  N7  UNL     1       2.034   0.111   1.300  1.00  0.00    -0.177 N 
ATOM     11  H7  UNL     1       1.425   0.513   2.012  1.00  0.00     0.185 HD
ENDROOT
BRANCH   9  12
HETATM   12  N4  UNL     1       0.477  -1.476   0.702  1.00  0.00    -0.376 N 
ATOM     13  H4  UNL     1       0.294  -2.259   0.075  1.00  0.00     0.161 HD
BRANCH  12  14
HETATM   14  C6  UNL     1      -0.583  -1.149   1.593  1.00  0.00     0.123 C 
BRANCH  14  15
HETATM   15  C7  UNL     1      -1.304   0.080   1.082  1.00  0.00     0.047 C 
BRANCH  15  16
HETATM   16  C8  UNL     1      -1.834  -0.230  -0.304  1.00  0.00     0.234 C 
BRANCH  16  17
HETATM   17  N5  UNL     1      -2.532   0.924  -0.840  1.00  0.00    -0.068 N 
ATOM     18  H52 UNL     1      -1.942   1.756  -0.844  1.00  0.00     0.277 HD
ATOM     19  H51 UNL     1      -2.685   0.842  -1.845  1.00  0.00     0.277 HD
BRANCH  17  20
HETATM   20  C9  UNL     1      -3.750   1.141  -0.134  1.00  0.00     0.236 C 
HETATM   21  C10 UNL     1      -4.720  -0.004  -0.337  1.00  0.00     0.267 C 
HETATM   22  N6  UNL     1      -5.798   0.984  -0.401  1.00  0.00    -0.071 N 
HETATM   23  C11 UNL     1      -4.796   1.956  -0.824  1.00  0.00     0.267 C 
ATOM     24  H62 UNL     1      -6.635   0.814  -0.958  1.00  0.00     0.277 HD
ATOM     25  H61 UNL     1      -6.398   1.162   0.405  1.00  0.00     0.277 HD
ENDBRANCH  17  20
ENDBRANCH  16  17
ENDBRANCH  15  16
ENDBRANCH  14  15
ENDBRANCH  12  14
ENDBRANCH   9  12
BRANCH   7  26
HETATM   26  C3  UNL     1       4.574  -1.494  -1.629  1.00  0.00     0.287 C 
BRANCH  26  27
HETATM   27  N3  UNL     1       5.830  -0.791  -1.619  1.00  0.00    -0.074 N 
ATOM     28  H33 UNL     1       5.716   0.218  -1.719  1.00  0.00     0.274 HD
ATOM     29  H32 UNL     1       6.272  -0.790  -0.700  1.00  0.00     0.274 HD
ATOM     30  H31 UNL     1       6.429  -1.192  -2.341  1.00  0.00     0.274 HD
ENDBRANCH  26  27
ENDBRANCH   7  26
TORSDOF 8
