REMARK  0 active torsions:
REMARK  status: ('A' for Active; 'I' for Inactive)
ROOT
HETATM    1  N1  UNL     1       1.860  -1.205  -0.031  1.00  0.00    -0.100 NA
HETATM    2  C1  UNL     1       0.559  -0.654  -0.003  1.00  0.00     0.070 A 
HETATM    3  C2  UNL     1      -0.580  -1.438   0.047  1.00  0.00     0.028 A 
HETATM    4  C3  UNL     1      -1.853  -0.913   0.075  1.00  0.00     0.002 A 
HETATM    5  C4  UNL     1      -2.042   0.452   0.052  1.00  0.00     0.002 A 
HETATM    6  C5  UNL     1      -0.923   1.251   0.003  1.00  0.00     0.028 A 
HETATM    7  C6  UNL     1       0.354   0.732  -0.025  1.00  0.00     0.070 A 
HETATM    8  N2  UNL     1       1.488   1.587  -0.077  1.00  0.00    -0.100 NA
ENDROOT
TORSDOF 0
