REMARK  8 active torsions:
REMARK  status: ('A' for Active; 'I' for Inactive)
REMARK    1  A    between atoms: C2_2  and  O1_3 
REMARK    2  A    between atoms: O1_3  and  C3_4 
REMARK    3  A    between atoms: C3_4  and  C4_6 
REMARK    4  A    between atoms: C5_7  and  N1_8 
REMARK       I    between atoms: N1_8  and  C6_10 
REMARK    5  A    between atoms: C6_10  and  C7_12 
REMARK    6  A    between atoms: C7_12  and  O4_13 
REMARK    7  A    between atoms: O4_13  and  C8_14 
REMARK       I    between atoms: C8_14  and  N2_16 
REMARK    8  A    between atoms: N2_16  and  C9_18 
ROOT
HETATM    1  N1  UNL     1       0.004  -0.130  -0.164  1.00  0.00    -0.319 N 
ATOM      2  H1  UNL     1      -0.289  -1.091  -0.339  1.00  0.00     0.169 HD
HETATM    3  C6  UNL     1       1.366   0.254  -0.150  1.00  0.00     0.246 C 
HETATM    4  O3  UNL     1       1.709   1.412   0.069  1.00  0.00    -0.271 OA
ENDROOT
BRANCH   1   5
HETATM    5  C5  UNL     1      -0.951   0.939   0.088  1.00  0.00     0.094 A 
HETATM    6  C4  UNL     1      -2.310   0.923   0.198  1.00  0.00     0.080 A 
HETATM    7  C12 UNL     1      -2.922   2.118   0.418  1.00  0.00    -0.030 A 
HETATM    8  C10 UNL     1      -2.120   3.215   0.507  1.00  0.00    -0.012 A 
HETATM    9  C13 UNL     1      -4.429   2.265   0.585  1.00  0.00     0.050 C 
HETATM   10  S1  UNL     1      -0.555   2.610   0.295  1.00  0.00    -0.076 SA
HETATM   11  C11 UNL     1      -2.539   4.653   0.734  1.00  0.00     0.057 C 
BRANCH   6  12
HETATM   12  C3  UNL     1      -3.084  -0.368   0.090  1.00  0.00     0.296 C 
HETATM   13  O2  UNL     1      -4.349  -0.367   0.186  1.00  0.00    -0.259 OA
BRANCH  12  14
HETATM   14  O1  UNL     1      -2.492  -1.565  -0.106  1.00  0.00    -0.318 OA
BRANCH  14  15
HETATM   15  C2  UNL     1      -3.132  -2.805  -0.217  1.00  0.00     0.174 C 
HETATM   16  C1  UNL     1      -2.143  -3.937  -0.394  1.00  0.00     0.034 C 
ENDBRANCH  14  15
ENDBRANCH  12  14
ENDBRANCH   6  12
ENDBRANCH   1   5
BRANCH   3  17
HETATM   17  C7  UNL     1       2.407  -0.782  -0.403  1.00  0.00     0.283 C 
BRANCH  17  18
HETATM   18  O4  UNL     1       3.693  -0.241  -0.194  1.00  0.00    -0.295 OA
BRANCH  18  19
HETATM   19  C8  UNL     1       4.858  -0.966  -0.367  1.00  0.00     0.364 C 
HETATM   20  O5  UNL     1       4.707  -2.172  -0.739  1.00  0.00    -0.238 OA
HETATM   21  N2  UNL     1       6.122  -0.378  -0.137  1.00  0.00    -0.288 N 
ATOM     22  H2  UNL     1       6.132   0.596   0.166  1.00  0.00     0.169 HD
BRANCH  21  23
HETATM   23  C9  UNL     1       7.379  -1.020  -0.290  1.00  0.00     0.271 C 
HETATM   24 CL1  UNL     1       7.668  -1.302  -2.048  1.00  0.00    -0.060 Cl
HETATM   25 CL2  UNL     1       8.703   0.032   0.329  1.00  0.00    -0.060 Cl
HETATM   26 CL3  UNL     1       7.400  -2.581   0.557  1.00  0.00    -0.060 Cl
ENDBRANCH  21  23
ENDBRANCH  18  19
ENDBRANCH  17  18
ENDBRANCH   3  17
TORSDOF 8
