REMARK  7 active torsions:
REMARK  status: ('A' for Active; 'I' for Inactive)
REMARK    1  A    between atoms: C2_2  and  C3_3 
REMARK    2  A    between atoms: N3_15  and  C11_16 
REMARK    3  A    between atoms: C11_16  and  C12_17 
REMARK    4  A    between atoms: C15_20  and  C16_21 
REMARK    5  A    between atoms: C16_21  and  C17_24 
REMARK    6  A    between atoms: C17_24  and  O1_25 
REMARK    7  A    between atoms: N4_27  and  O2_29 
ROOT
HETATM    1  C12 UNL     1       0.756   0.891   0.104  1.00  0.00     0.005 C 
HETATM    2  C13 UNL     1       0.778  -0.526   0.627  1.00  0.00     0.007 C 
HETATM    3  C14 UNL     1       2.099  -0.664   1.385  1.00  0.00     0.013 C 
HETATM    4  C15 UNL     1       3.233  -0.754   0.356  1.00  0.00     0.084 C 
HETATM    5  C18 UNL     1       3.030   0.185  -0.760  1.00  0.00     0.103 C 
HETATM    6  C19 UNL     1       2.497  -0.546  -1.945  1.00  0.00     0.064 C 
HETATM    7  N5  UNL     1       2.103  -1.121  -2.868  1.00  0.00    -0.197 NA
HETATM    8  C20 UNL     1       2.050   1.307  -0.505  1.00  0.00     0.026 C 
ENDROOT
BRANCH   4   9
HETATM    9  C16 UNL     1       4.508  -0.698   1.109  1.00  0.00     0.313 C 
HETATM   10  F1  UNL     1       4.571  -1.767   2.021  1.00  0.00    -0.196 F 
HETATM   11  F2  UNL     1       4.503   0.446   1.930  1.00  0.00    -0.196 F 
BRANCH   9  12
HETATM   12  C17 UNL     1       5.753  -0.691   0.361  1.00  0.00     0.210 C 
HETATM   13  N4  UNL     1       6.587  -1.686   0.275  1.00  0.00    -0.246 N 
ATOM     14  H4  UNL     1       7.440  -1.588  -0.276  1.00  0.00     0.196 HD
BRANCH  12  15
HETATM   15  O1  UNL     1       6.158   0.452  -0.357  1.00  0.00    -0.344 OA
ATOM     16  H1  UNL     1       6.972   0.457  -0.846  1.00  0.00     0.219 HD
ENDBRANCH  12  15
BRANCH  13  17
HETATM   17  O2  UNL     1       6.327  -2.851   0.914  1.00  0.00    -0.288 OA
ATOM     18  H2  UNL     1       6.936  -3.577   0.851  1.00  0.00     0.244 HD
ENDBRANCH  13  17
ENDBRANCH   9  12
ENDBRANCH   4   9
BRANCH   1  19
HETATM   19  C11 UNL     1      -0.360   1.183  -0.843  1.00  0.00     0.136 C 
BRANCH  19  20
HETATM   20  N3  UNL     1      -1.681   1.000  -0.296  1.00  0.00    -0.320 N 
HETATM   21  C3  UNL     1      -2.398   1.948   0.345  1.00  0.00     0.085 A 
HETATM   22  N1  UNL     1      -3.592   1.438   0.720  1.00  0.00    -0.342 N 
HETATM   23  C4  UNL     1      -3.658   0.170   0.330  1.00  0.00     0.084 A 
ATOM     24  H1  UNL     1      -4.323   1.944   1.220  1.00  0.00     0.167 HD
HETATM   25  C5  UNL     1      -4.658  -0.764   0.476  1.00  0.00    -0.030 A 
HETATM   26  C10 UNL     1      -2.446  -0.104  -0.313  1.00  0.00     0.137 A 
HETATM   27  C6  UNL     1      -5.956  -0.512   1.151  1.00  0.00     0.050 C 
HETATM   28  C7  UNL     1      -4.435  -2.019  -0.043  1.00  0.00     0.033 A 
HETATM   29  C8  UNL     1      -3.223  -2.273  -0.679  1.00  0.00     0.007 A 
HETATM   30  C9  UNL     1      -2.922  -3.614  -1.263  1.00  0.00     0.068 C 
HETATM   31  N2  UNL     1      -2.283  -1.327  -0.793  1.00  0.00    -0.344 N 
ATOM     32  H2  UNL     1      -1.409  -1.557  -1.267  1.00  0.00     0.167 HD
BRANCH  21  33
HETATM   33  C2  UNL     1      -1.944   3.326   0.593  1.00  0.00     0.072 C 
HETATM   34  C1  UNL     1      -2.320   4.273  -0.526  1.00  0.00     0.013 C 
ENDBRANCH  21  33
ENDBRANCH  19  20
ENDBRANCH   1  19
TORSDOF 7
