REMARK  7 active torsions:
REMARK  status: ('A' for Active; 'I' for Inactive)
REMARK    1  A    between atoms: N2_10  and  C7_11 
REMARK    2  A    between atoms: C7_11  and  C8_12 
REMARK    3  A    between atoms: C10_14  and  C11_15 
REMARK    4  A    between atoms: C11_15  and  O1_16 
REMARK    5  A    between atoms: N3_18  and  O2_20 
REMARK    6  A    between atoms: C13_25  and  S1_26 
REMARK    7  A    between atoms: S1_26  and  C14_27 
ROOT
HETATM    1  N1  UNL     1       4.589   2.441   0.371  1.00  0.00    -0.195 NA
HETATM    2  C1  UNL     1       3.826   1.552   0.483  1.00  0.00     0.084 C 
HETATM    3  C2  UNL     1       2.862   0.463   0.637  1.00  0.00     0.191 C 
HETATM    4  C3  UNL     1       3.629  -0.667   1.288  1.00  0.00     0.046 C 
HETATM    5  C4  UNL     1       4.790  -0.976   0.335  1.00  0.00     0.083 C 
HETATM    6  C5  UNL     1       4.148  -1.506  -0.914  1.00  0.00     0.259 C 
HETATM    7  F1  UNL     1       3.447  -2.672  -0.613  1.00  0.00    -0.205 F 
HETATM    8  F2  UNL     1       5.147  -1.872  -1.808  1.00  0.00    -0.205 F 
HETATM    9  C6  UNL     1       3.197  -0.535  -1.538  1.00  0.00     0.202 C 
HETATM   10  N2  UNL     1       2.329   0.138  -0.633  1.00  0.00    -0.366 N 
ENDROOT
BRANCH  10  11
HETATM   11  C7  UNL     1       1.026  -0.408  -0.695  1.00  0.00     0.101 C 
BRANCH  11  12
HETATM   12  C8  UNL     1      -0.113   0.394  -0.323  1.00  0.00     0.014 A 
HETATM   13  C9  UNL     1      -0.059   1.707   0.046  1.00  0.00     0.032 A 
HETATM   14  C10 UNL     1      -1.215   2.431   0.373  1.00  0.00     0.033 A 
HETATM   15  C12 UNL     1      -2.435   1.801   0.321  1.00  0.00     0.104 A 
HETATM   16  N4  UNL     1      -2.467   0.528  -0.039  1.00  0.00    -0.359 N 
HETATM   17  C13 UNL     1      -1.384  -0.193  -0.358  1.00  0.00     0.087 A 
ATOM     18  H4  UNL     1      -3.375   0.066  -0.076  1.00  0.00     0.166 HD
BRANCH  14  19
HETATM   19  C11 UNL     1      -1.130   3.832   0.765  1.00  0.00     0.171 C 
HETATM   20  N3  UNL     1       0.005   4.413   0.812  1.00  0.00    -0.247 N 
ATOM     21  H3  UNL     1       0.843   3.883   0.573  1.00  0.00     0.196 HD
BRANCH  19  22
HETATM   22  O1  UNL     1      -2.259   4.530   1.082  1.00  0.00    -0.344 OA
ATOM     23  H1  UNL     1      -2.204   5.443   1.338  1.00  0.00     0.219 HD
ENDBRANCH  19  22
BRANCH  20  24
HETATM   24  O2  UNL     1       0.130   5.731   1.175  1.00  0.00    -0.288 OA
ATOM     25  H2  UNL     1       0.975   6.164   1.210  1.00  0.00     0.244 HD
ENDBRANCH  20  24
ENDBRANCH  14  19
BRANCH  17  26
HETATM   26  S1  UNL     1      -1.551  -1.921  -0.834  1.00  0.00    -0.054 SA
BRANCH  26  27
HETATM   27  C14 UNL     1      -3.250  -2.379  -0.787  1.00  0.00     0.075 A 
HETATM   28  C15 UNL     1      -3.770  -2.883   0.393  1.00  0.00     0.037 A 
HETATM   29  C16 UNL     1      -5.099  -3.263   0.499  1.00  0.00     0.004 A 
HETATM   30  C17 UNL     1      -5.954  -3.145  -0.594  1.00  0.00     0.017 A 
HETATM   31  C18 UNL     1      -5.393  -2.637  -1.749  1.00  0.00     0.089 A 
HETATM   32  N5  UNL     1      -4.092  -2.273  -1.831  1.00  0.00    -0.360 N 
ATOM     33  H5  UNL     1      -3.738  -1.906  -2.714  1.00  0.00     0.166 HD
ENDBRANCH  26  27
ENDBRANCH  17  26
ENDBRANCH  11  12
ENDBRANCH  10  11
TORSDOF 7
