REMARK  4 active torsions:
REMARK  status: ('A' for Active; 'I' for Inactive)
REMARK    1  A    between atoms: C2_2  and  O1_5 
REMARK    2  A    between atoms: O1_5  and  C5_6 
REMARK    3  A    between atoms: C5_6  and  N1_7 
REMARK    4  A    between atoms: C5_6  and  C6_11 
REMARK       I    between atoms: N3_18  and  C12_19 
ROOT
HETATM    1  C6  UNL     1      -0.414  -0.376  -0.674  1.00  0.00     0.144 C 
HETATM    2  C7  UNL     1      -0.730  -1.840  -0.487  1.00  0.00     0.030 C 
HETATM    3  C8  UNL     1      -2.059  -2.070   0.183  1.00  0.00     0.005 C 
HETATM    4  C9  UNL     1      -3.195  -1.379  -0.523  1.00  0.00     0.040 C 
HETATM    5  C10 UNL     1      -2.729  -0.316  -1.478  1.00  0.00     0.195 C 
HETATM    6  C11 UNL     1      -3.766   0.625  -1.815  1.00  0.00     0.084 C 
HETATM    7  N2  UNL     1      -4.596   1.398  -2.077  1.00  0.00    -0.195 NA
HETATM    8  N3  UNL     1      -1.630   0.394  -0.802  1.00  0.00    -0.330 N 
HETATM    9  C12 UNL     1      -1.804   1.709  -0.340  1.00  0.00     0.185 C 
HETATM   10  N4  UNL     1      -1.166   2.676  -0.892  1.00  0.00    -0.374 N 
ATOM     11  H41 UNL     1      -1.292   3.631  -0.557  1.00  0.00     0.158 HD
ATOM     12  H42 UNL     1      -0.538   2.463  -1.667  1.00  0.00     0.158 HD
HETATM   13  N5  UNL     1      -2.675   2.004   0.735  1.00  0.00    -0.064 NA
ENDROOT
BRANCH   1  14
HETATM   14  C5  UNL     1       0.508   0.153   0.394  1.00  0.00     0.342 C 
BRANCH  14  15
HETATM   15  O1  UNL     1       1.616  -0.640   0.431  1.00  0.00    -0.348 OA
BRANCH  15  16
HETATM   16  C2  UNL     1       2.809  -0.035   0.194  1.00  0.00     0.053 C 
HETATM   17  C1  UNL     1       2.872   0.602  -1.154  1.00  0.00     0.045 C 
HETATM   18  C3  UNL     1       3.891  -1.124   0.224  1.00  0.00     0.045 C 
HETATM   19  C4  UNL     1       3.213   0.985   1.231  1.00  0.00     0.045 C 
ENDBRANCH  15  16
ENDBRANCH  14  15
BRANCH  14  20
HETATM   20  N1  UNL     1      -0.188  -0.010   1.680  1.00  0.00    -0.051 N 
ATOM     21  H13 UNL     1      -0.401  -0.983   1.898  1.00  0.00     0.277 HD
ATOM     22  H12 UNL     1       0.410   0.177   2.484  1.00  0.00     0.277 HD
ATOM     23  H11 UNL     1      -1.017   0.583   1.652  1.00  0.00     0.277 HD
ENDBRANCH  14  20
ENDBRANCH   1  14
TORSDOF 4
