REMARK  6 active torsions:
REMARK  status: ('A' for Active; 'I' for Inactive)
REMARK       I    between atoms: C1_2  and  N1_3 
REMARK    1  A    between atoms: C1_2  and  C15_20 
REMARK    2  A    between atoms: N1_3  and  N2_5 
REMARK       I    between atoms: N2_5  and  C2_6 
REMARK    3  A    between atoms: C2_6  and  C3_8 
REMARK    4  A    between atoms: C6_11  and  C7_12 
REMARK    5  A    between atoms: C18_23  and  N3_24 
REMARK    6  A    between atoms: N3_24  and  C19_26 
ROOT
HETATM    1  O1  UNL     1       0.135   0.115  -0.046  1.00  0.00    -0.265 OA
HETATM    2  C1  UNL     1       0.951  -0.874   0.108  1.00  0.00     0.280 C 
HETATM    3  N1  UNL     1       0.559  -2.178  -0.124  1.00  0.00    -0.195 N 
ATOM      4  H1  UNL     1       1.257  -2.905   0.035  1.00  0.00     0.205 HD
ENDROOT
BRANCH   3   5
HETATM    5  N2  UNL     1      -0.670  -2.586  -0.545  1.00  0.00    -0.278 NA
HETATM    6  C2  UNL     1      -1.853  -2.992  -0.962  1.00  0.00     0.345 C 
HETATM    7  O2  UNL     1      -2.079  -4.000  -1.747  1.00  0.00    -0.249 OA
BRANCH   6   8
HETATM    8  C3  UNL     1      -3.122  -2.270  -0.569  1.00  0.00     0.048 A 
HETATM    9  C4  UNL     1      -4.316  -2.623  -1.202  1.00  0.00     0.019 A 
HETATM   10  C5  UNL     1      -5.466  -1.868  -0.957  1.00  0.00     0.013 A 
HETATM   11  C6  UNL     1      -5.479  -0.781  -0.111  1.00  0.00    -0.026 A 
HETATM   12  C13 UNL     1      -4.265  -0.460   0.514  1.00  0.00     0.013 A 
HETATM   13  C14 UNL     1      -3.132  -1.209   0.272  1.00  0.00     0.019 A 
BRANCH  11  14
HETATM   14  C7  UNL     1      -6.615   0.098   0.099  1.00  0.00    -0.026 A 
HETATM   15  C8  UNL     1      -7.901  -0.288   0.077  1.00  0.00     0.012 A 
HETATM   16  C9  UNL     1      -8.918   0.608   0.222  1.00  0.00     0.001 A 
HETATM   17  C10 UNL     1      -8.672   1.948   0.396  1.00  0.00     0.000 A 
HETATM   18  C11 UNL     1      -7.369   2.396   0.426  1.00  0.00     0.001 A 
HETATM   19  C12 UNL     1      -6.352   1.485   0.283  1.00  0.00     0.012 A 
ENDBRANCH  11  14
ENDBRANCH   6   8
ENDBRANCH   3   5
BRANCH   2  20
HETATM   20  C15 UNL     1       2.291  -0.535   0.529  1.00  0.00     0.034 A 
HETATM   21  C16 UNL     1       3.331  -1.271   0.039  1.00  0.00     0.019 A 
HETATM   22  C17 UNL     1       4.665  -0.900   0.364  1.00  0.00     0.030 A 
HETATM   23  C18 UNL     1       4.886   0.180   1.161  1.00  0.00     0.032 A 
HETATM   24  C25 UNL     1       3.828   0.892   1.633  1.00  0.00     0.030 A 
HETATM   25  C26 UNL     1       2.516   0.556   1.335  1.00  0.00     0.019 A 
BRANCH  23  26
HETATM   26  N3  UNL     1       6.212   0.679   1.357  1.00  0.00    -0.356 N 
ATOM     27  H3  UNL     1       6.687   0.623   2.258  1.00  0.00     0.166 HD
BRANCH  26  28
HETATM   28  C19 UNL     1       6.828   1.262   0.206  1.00  0.00     0.032 A 
HETATM   29  C20 UNL     1       7.402   0.519  -0.770  1.00  0.00     0.029 A 
HETATM   30  C21 UNL     1       7.924   1.111  -1.932  1.00  0.00     0.002 A 
HETATM   31  C22 UNL     1       7.869   2.482  -2.114  1.00  0.00     0.000 A 
HETATM   32  C23 UNL     1       7.280   3.232  -1.101  1.00  0.00     0.002 A 
HETATM   33  C24 UNL     1       6.768   2.628   0.050  1.00  0.00     0.029 A 
ENDBRANCH  26  28
ENDBRANCH  23  26
ENDBRANCH   2  20
TORSDOF 6
