REMARK  1 active torsions:
REMARK  status: ('A' for Active; 'I' for Inactive)
REMARK    1  A    between atoms: O1_1  and  C1_3 
ROOT
HETATM    1  C1  UNL     1      -0.600  -0.941  -0.413  1.00  0.00     0.089 C 
HETATM    2  C2  UNL     1      -1.656  -0.221   0.410  1.00  0.00     0.073 C 
HETATM    3  C3  UNL     1      -1.379   1.208   0.113  1.00  0.00     0.198 C 
HETATM    4  C4  UNL     1      -0.455   1.882   1.068  1.00  0.00     0.107 C 
HETATM    5  S1  UNL     1       0.288   0.623   2.131  1.00  0.00    -0.162 SA
HETATM    6  C5  UNL     1       1.196  -0.606   1.189  1.00  0.00     0.050 C 
HETATM    7  C6  UNL     1       2.082  -0.006   0.148  1.00  0.00     0.017 C 
HETATM    8  C7  UNL     1       1.454   0.330  -1.138  1.00  0.00     0.037 C 
HETATM    9  C8  UNL     1       0.025   0.028  -1.322  1.00  0.00     0.220 C 
HETATM   10  N1  UNL     1      -0.831   1.219  -1.197  1.00  0.00    -0.063 N 
ATOM     11  H11 UNL     1      -0.343   2.087  -1.418  1.00  0.00     0.278 HD
ATOM     12  H12 UNL     1      -1.541   1.278  -1.926  1.00  0.00     0.278 HD
HETATM   13  C9  UNL     1       0.319  -1.635   0.539  1.00  0.00     0.055 C 
ENDROOT
BRANCH   1  14
HETATM   14  O1  UNL     1      -1.283  -1.927  -1.148  1.00  0.00    -0.388 OA
ATOM     15  H1  UNL     1      -0.623  -2.377  -1.662  1.00  0.00     0.210 HD
ENDBRANCH   1  14
TORSDOF 1
