REMARK  12 active torsions:
REMARK  status: ('A' for Active; 'I' for Inactive)
REMARK    1  A    between atoms: C4_6  and  C5_7 
REMARK    2  A    between atoms: C5_7  and  C6_8 
REMARK    3  A    between atoms: C8_13  and  C9_14 
REMARK    4  A    between atoms: C9_14  and  C10_15 
REMARK    5  A    between atoms: C18_25  and  O3_26 
REMARK    6  A    between atoms: C19_30  and  C20_31 
REMARK    7  A    between atoms: C20_31  and  C21_32 
REMARK    8  A    between atoms: C21_32  and  C22_33 
REMARK    9  A    between atoms: C22_33  and  C23_34 
REMARK   10  A    between atoms: C23_34  and  N5_35 
REMARK   11  A    between atoms: C25_43  and  C26_44 
REMARK   12  A    between atoms: C26_44  and  N7_45 
ROOT
HETATM    1  C6  UNL     1      -1.810  -1.445  -0.128  1.00  0.00     0.153 C 
HETATM    2  C7  UNL     1      -2.030  -0.230  -0.912  1.00  0.00     0.230 C 
HETATM    3  O1  UNL     1      -2.340  -0.409  -2.147  1.00  0.00    -0.273 OA
HETATM    4  N2  UNL     1      -1.956   1.113  -0.518  1.00  0.00    -0.347 N 
ATOM      5  H2  UNL     1      -2.628   1.740  -0.959  1.00  0.00     0.163 HD
HETATM    6  C8  UNL     1      -1.059   1.725   0.425  1.00  0.00     0.177 C 
HETATM    7  C13 UNL     1      -0.120   2.700  -0.170  1.00  0.00     0.243 C 
HETATM    8  O2  UNL     1      -0.562   3.319  -1.212  1.00  0.00    -0.271 OA
HETATM    9  N3  UNL     1       1.167   3.054   0.219  1.00  0.00    -0.338 N 
HETATM   10  C14 UNL     1       1.836   4.303   0.626  1.00  0.00     0.127 C 
HETATM   11  C15 UNL     1       2.435   3.815   1.954  1.00  0.00     0.022 C 
HETATM   12  C16 UNL     1       2.664   2.306   1.751  1.00  0.00     0.035 C 
HETATM   13  C17 UNL     1       2.340   2.144   0.327  1.00  0.00     0.161 C 
HETATM   14  C18 UNL     1       2.021   0.818  -0.198  1.00  0.00     0.135 C 
HETATM   15  N4  UNL     1       2.104  -0.464   0.297  1.00  0.00    -0.359 N 
ATOM     16  H4  UNL     1       1.209  -0.740   0.700  1.00  0.00     0.162 HD
HETATM   17  C19 UNL     1       3.037  -1.520   0.424  1.00  0.00     0.175 C 
HETATM   18  C24 UNL     1       2.288  -2.842   0.555  1.00  0.00     0.241 C 
HETATM   19  O4  UNL     1       2.977  -3.775   1.028  1.00  0.00    -0.271 OA
HETATM   20  N6  UNL     1       0.946  -3.040   0.192  1.00  0.00    -0.346 N 
ATOM     21  H6  UNL     1       0.336  -3.477   0.884  1.00  0.00     0.163 HD
HETATM   22  C25 UNL     1       0.336  -2.669  -1.112  1.00  0.00     0.181 C 
HETATM   23  C30 UNL     1      -1.115  -2.491  -0.956  1.00  0.00     0.164 C 
HETATM   24  O5  UNL     1      -1.885  -3.239  -1.530  1.00  0.00    -0.295 OA
ENDROOT
BRANCH   1  25
HETATM   25  C5  UNL     1      -3.041  -2.105   0.403  1.00  0.00     0.062 C 
BRANCH  25  26
HETATM   26  C4  UNL     1      -3.887  -1.326   1.292  1.00  0.00    -0.034 A 
HETATM   27  C3  UNL     1      -3.812  -1.292   2.702  1.00  0.00     0.095 A 
HETATM   28  N1  UNL     1      -4.727  -0.434   3.180  1.00  0.00    -0.368 N 
HETATM   29  C2  UNL     1      -5.401   0.099   2.153  1.00  0.00     0.011 A 
ATOM     30  H1  UNL     1      -4.883  -0.222   4.165  1.00  0.00     0.165 HD
HETATM   31  C1  UNL     1      -6.497   1.091   2.262  1.00  0.00     0.068 C 
HETATM   32  C31 UNL     1      -4.886  -0.450   0.992  1.00  0.00    -0.032 A 
HETATM   33  C32 UNL     1      -5.424  -0.119  -0.342  1.00  0.00     0.050 C 
ENDBRANCH  25  26
ENDBRANCH   1  25
BRANCH  22  34
HETATM   34  C26 UNL     1       0.636  -3.832  -2.001  1.00  0.00     0.268 C 
BRANCH  34  35
HETATM   35  N7  UNL     1       0.273  -3.841  -3.354  1.00  0.00    -0.076 N 
HETATM   36  C27 UNL     1      -0.201  -2.646  -3.956  1.00  0.00     0.271 C 
HETATM   37  C28 UNL     1      -0.661  -4.927  -3.701  1.00  0.00     0.271 C 
HETATM   38  C29 UNL     1       1.483  -4.211  -4.168  1.00  0.00     0.271 C 
ENDBRANCH  34  35
ENDBRANCH  22  34
BRANCH   6  39
HETATM   39  C9  UNL     1      -1.744   2.245   1.646  1.00  0.00     0.038 C 
BRANCH  39  40
HETATM   40  C10 UNL     1      -2.789   3.266   1.516  1.00  0.00    -0.020 C 
HETATM   41  C11 UNL     1      -3.300   3.551   2.957  1.00  0.00     0.009 C 
HETATM   42  C12 UNL     1      -2.288   4.612   1.019  1.00  0.00     0.009 C 
ENDBRANCH  39  40
ENDBRANCH   6  39
BRANCH  17  43
HETATM   43  C20 UNL     1       4.131  -1.629  -0.559  1.00  0.00     0.035 C 
BRANCH  43  44
HETATM   44  C21 UNL     1       5.077  -0.509  -0.684  1.00  0.00     0.004 C 
BRANCH  44  45
HETATM   45  C22 UNL     1       5.849  -0.150   0.529  1.00  0.00     0.027 C 
BRANCH  45  46
HETATM   46  C23 UNL     1       6.797   1.017   0.255  1.00  0.00     0.229 C 
BRANCH  46  47
HETATM   47  N5  UNL     1       6.112   2.196  -0.166  1.00  0.00    -0.079 N 
ATOM     48  H53 UNL     1       5.521   2.007  -0.976  1.00  0.00     0.274 HD
ATOM     49  H52 UNL     1       5.391   2.460   0.506  1.00  0.00     0.274 HD
ATOM     50  H51 UNL     1       6.745   2.975  -0.349  1.00  0.00     0.274 HD
ENDBRANCH  46  47
ENDBRANCH  45  46
ENDBRANCH  44  45
ENDBRANCH  43  44
ENDBRANCH  17  43
BRANCH  14  51
HETATM   51  O3  UNL     1       1.554   1.004  -1.417  1.00  0.00    -0.348 OA
ATOM     52  H3  UNL     1       1.347   0.142  -1.758  1.00  0.00     0.219 HD
ENDBRANCH  14  51
TORSDOF 12
