REMARK  17 active torsions:
REMARK  status: ('A' for Active; 'I' for Inactive)
REMARK    1  A    between atoms: C2_2  and  C3_3 
REMARK    2  A    between atoms: C3_3  and  C4_4 
REMARK    3  A    between atoms: C4_4  and  C5_5 
REMARK    4  A    between atoms: C5_5  and  C6_6 
REMARK    5  A    between atoms: C5_5  and  N3_17 
REMARK    6  A    between atoms: C6_6  and  C7_7 
REMARK       I    between atoms: C7_7  and  N1_9 
REMARK    7  A    between atoms: N1_9  and  C8_11 
REMARK    8  A    between atoms: C8_11  and  C9_12 
REMARK    9  A    between atoms: C9_12  and  N2_13 
REMARK   10  A    between atoms: N3_17  and  C13_19 
REMARK   11  A    between atoms: C13_19  and  C14_23 
REMARK   12  A    between atoms: C14_23  and  N5_24 
REMARK       I    between atoms: N5_24  and  C15_26 
REMARK   13  A    between atoms: C15_26  and  C16_28 
REMARK   14  A    between atoms: C16_28  and  N6_29 
REMARK   15  A    between atoms: N6_29  and  C19_32 
REMARK   16  A    between atoms: C19_32  and  C20_33 
REMARK   17  A    between atoms: C20_33  and  N7_35 
ROOT
HETATM    1  C13 UNL     1       0.111  -1.435   1.257  1.00  0.00     0.089 C 
HETATM    2  N4  UNL     1       0.583  -2.430   1.862  1.00  0.00    -0.388 N 
ATOM      3  H41 UNL     1       1.598  -2.470   1.958  1.00  0.00     0.157 HD
ATOM      4  H42 UNL     1      -0.015  -3.176   2.219  1.00  0.00     0.157 HD
ENDROOT
BRANCH   1   5
HETATM    5  N3  UNL     1      -1.304  -1.379   1.123  1.00  0.00    -0.374 N 
ATOM      6  H3  UNL     1      -1.744  -0.574   1.568  1.00  0.00     0.161 HD
BRANCH   5   7
HETATM    7  C5  UNL     1      -2.203  -2.264   0.469  1.00  0.00     0.091 C 
BRANCH   7   8
HETATM    8  C4  UNL     1      -2.159  -2.324  -1.009  1.00  0.00     0.026 C 
BRANCH   8   9
HETATM    9  C3  UNL     1      -0.888  -2.751  -1.644  1.00  0.00     0.002 C 
BRANCH   9  10
HETATM   10  C2  UNL     1      -0.454  -4.163  -1.308  1.00  0.00    -0.004 C 
HETATM   11  C1  UNL     1      -1.502  -5.168  -1.760  1.00  0.00     0.005 C 
ENDBRANCH   9  10
ENDBRANCH   8   9
ENDBRANCH   7   8
BRANCH   7  12
HETATM   12  C6  UNL     1      -3.593  -1.876   0.980  1.00  0.00     0.127 C 
BRANCH  12  13
HETATM   13  C7  UNL     1      -4.056  -0.562   0.553  1.00  0.00     0.219 C 
HETATM   14  O1  UNL     1      -3.369   0.269  -0.095  1.00  0.00    -0.274 OA
HETATM   15  N1  UNL     1      -5.398  -0.143   0.877  1.00  0.00    -0.359 N 
ATOM     16  H1  UNL     1      -6.014  -0.764   1.401  1.00  0.00     0.162 HD
BRANCH  15  17
HETATM   17  C8  UNL     1      -5.863   1.145   0.462  1.00  0.00     0.150 C 
BRANCH  17  18
HETATM   18  C9  UNL     1      -7.296   1.306   0.940  1.00  0.00     0.255 C 
BRANCH  18  19
HETATM   19  N2  UNL     1      -7.759   2.608   0.509  1.00  0.00    -0.077 N 
HETATM   20  C10 UNL     1      -8.069   2.512  -0.895  1.00  0.00     0.271 C 
HETATM   21  C11 UNL     1      -9.001   2.878   1.214  1.00  0.00     0.271 C 
HETATM   22  C12 UNL     1      -6.750   3.587   0.796  1.00  0.00     0.271 C 
ENDBRANCH  18  19
ENDBRANCH  17  18
ENDBRANCH  15  17
ENDBRANCH  12  13
ENDBRANCH   7  12
ENDBRANCH   5   7
ENDBRANCH   1   5
BRANCH   1  23
HETATM   23  C14 UNL     1       0.975  -0.357   0.741  1.00  0.00     0.198 C 
BRANCH  23  24
HETATM   24  N5  UNL     1       2.359  -0.641   0.984  1.00  0.00    -0.353 N 
HETATM   25  C15 UNL     1       3.321   0.337   0.531  1.00  0.00     0.244 C 
HETATM   26  O2  UNL     1       2.922   1.373  -0.044  1.00  0.00    -0.272 OA
ATOM     27  H5  UNL     1       2.652  -1.496   1.456  1.00  0.00     0.162 HD
BRANCH  25  28
HETATM   28  C16 UNL     1       4.753   0.066   0.772  1.00  0.00     0.339 C 
BRANCH  28  29
HETATM   29  N6  UNL     1       5.601   1.129   0.272  1.00  0.00    -0.060 N 
HETATM   30  C17 UNL     1       5.450   1.327  -1.141  1.00  0.00     0.273 C 
HETATM   31  C18 UNL     1       5.122   2.363   0.914  1.00  0.00     0.273 C 
BRANCH  29  32
HETATM   32  C19 UNL     1       6.955   0.926   0.680  1.00  0.00     0.306 C 
BRANCH  32  33
HETATM   33  C20 UNL     1       7.713  -0.095  -0.026  1.00  0.00     0.105 C 
HETATM   34  S1  UNL     1       7.145  -1.027  -1.235  1.00  0.00    -0.064 SA
BRANCH  33  35
HETATM   35  N7  UNL     1       9.072  -0.321   0.351  1.00  0.00    -0.326 N 
HETATM   36  C21 UNL     1       9.981   0.404  -0.168  1.00  0.00     0.201 C 
HETATM   37  N8  UNL     1      11.323   0.204   0.185  1.00  0.00    -0.066 NA
HETATM   38  N9  UNL     1       9.639   1.409  -1.100  1.00  0.00    -0.066 NA
ATOM     39  H7  UNL     1       9.310  -1.050   1.024  1.00  0.00     0.168 HD
ENDBRANCH  33  35
ENDBRANCH  32  33
ENDBRANCH  29  32
ENDBRANCH  28  29
ENDBRANCH  25  28
ENDBRANCH  23  24
ENDBRANCH   1  23
TORSDOF 17
