REMARK  7 active torsions:
REMARK  status: ('A' for Active; 'I' for Inactive)
REMARK    1  A    between atoms: C1_2  and  C2_4 
REMARK    2  A    between atoms: C2_4  and  N2_5 
REMARK    3  A    between atoms: C10_16  and  C11_17 
REMARK    4  A    between atoms: C11_17  and  C12_18 
REMARK    5  A    between atoms: C12_18  and  C13_19 
REMARK    6  A    between atoms: C13_19  and  C14_20 
REMARK    7  A    between atoms: C14_20  and  O3_21 
ROOT
HETATM    1  N2  UNL     1      -3.044  -0.604  -0.329  1.00  0.00    -0.340 N 
HETATM    2  C3  UNL     1      -2.914  -0.175   1.044  1.00  0.00     0.126 C 
HETATM    3  C4  UNL     1      -2.986   1.336   1.172  1.00  0.00     0.020 C 
HETATM    4  C5  UNL     1      -2.227   2.049   0.078  1.00  0.00     0.002 C 
HETATM    5  C6  UNL     1      -1.911   3.425   0.549  1.00  0.00     0.002 C 
HETATM    6  C7  UNL     1      -0.578   3.948   0.079  1.00  0.00     0.020 C 
HETATM    7  C8  UNL     1       0.523   2.954   0.187  1.00  0.00     0.122 C 
HETATM    8  N3  UNL     1       0.984   2.556  -1.136  1.00  0.00    -0.359 N 
ATOM      9  H3  UNL     1       0.633   3.070  -1.944  1.00  0.00     0.162 HD
HETATM   10  C9  UNL     1       1.892   1.496  -1.360  1.00  0.00     0.248 C 
HETATM   11  O2  UNL     1       2.662   1.540  -2.355  1.00  0.00    -0.271 OA
HETATM   12  C10 UNL     1       2.005   0.301  -0.482  1.00  0.00     0.277 C 
HETATM   13  N4  UNL     1       1.216  -0.743  -1.063  1.00  0.00    -0.054 N 
ATOM     14  H41 UNL     1       1.804  -1.483  -1.447  1.00  0.00     0.279 HD
ATOM     15  H42 UNL     1       0.767  -0.432  -1.924  1.00  0.00     0.279 HD
HETATM   16  C15 UNL     1       0.227  -1.285  -0.106  1.00  0.00     0.221 C 
HETATM   17  C16 UNL     1       1.030  -2.230   0.766  1.00  0.00     0.038 C 
HETATM   18  C17 UNL     1       0.214  -3.038   1.698  1.00  0.00     0.003 C 
HETATM   19  C18 UNL     1      -1.088  -3.521   1.184  1.00  0.00     0.004 C 
HETATM   20  C19 UNL     1      -1.179  -3.373  -0.289  1.00  0.00     0.042 C 
HETATM   21  C20 UNL     1      -0.889  -1.991  -0.825  1.00  0.00     0.018 C 
HETATM   22  C21 UNL     1      -2.058  -1.180  -1.155  1.00  0.00     0.248 C 
HETATM   23  O4  UNL     1      -2.270  -0.914  -2.409  1.00  0.00    -0.268 OA
ENDROOT
BRANCH  12  24
HETATM   24  C11 UNL     1       3.466  -0.046  -0.367  1.00  0.00     0.043 C 
BRANCH  24  25
HETATM   25  C12 UNL     1       4.184   1.133   0.233  1.00  0.00     0.004 C 
BRANCH  25  26
HETATM   26  C13 UNL     1       5.659   0.816   0.363  1.00  0.00     0.026 C 
BRANCH  26  27
HETATM   27  C14 UNL     1       6.287   0.513  -0.963  1.00  0.00     0.164 C 
BRANCH  27  28
HETATM   28  O3  UNL     1       7.647   0.236  -0.716  1.00  0.00    -0.401 OA
ATOM     29  H3  UNL     1       8.045   0.044  -1.557  1.00  0.00     0.209 HD
ENDBRANCH  27  28
ENDBRANCH  26  27
ENDBRANCH  25  26
ENDBRANCH  24  25
ENDBRANCH  12  24
BRANCH   1  30
HETATM   30  C2  UNL     1      -4.402  -0.374  -0.872  1.00  0.00     0.225 C 
BRANCH  30  31
HETATM   31  C1  UNL     1      -5.206  -1.588  -0.583  1.00  0.00     0.249 C 
HETATM   32  N1  UNL     1      -6.558  -1.724  -0.965  1.00  0.00    -0.061 NA
HETATM   33  O1  UNL     1      -4.716  -2.591   0.035  1.00  0.00    -0.275 OA
ENDBRANCH  30  31
ENDBRANCH   1  30
TORSDOF 7
