REMARK  5 active torsions:
REMARK  status: ('A' for Active; 'I' for Inactive)
REMARK    1  A    between atoms: O1_1  and  N1_3 
REMARK    2  A    between atoms: C1_5  and  O2_6 
REMARK    3  A    between atoms: C1_5  and  C2_8 
REMARK    4  A    between atoms: C3_9  and  C4_10 
REMARK    5  A    between atoms: C6_13  and  C7_14 
ROOT
HETATM    1  C4  UNL     1       1.738  -1.251  -0.010  1.00  0.00     0.039 A 
HETATM    2  C5  UNL     1       1.362  -2.574   0.001  1.00  0.00     0.081 A 
HETATM    3  S1  UNL     1      -0.344  -2.445   0.077  1.00  0.00    -0.086 SA
HETATM    4  C6  UNL     1      -0.469  -0.745   0.090  1.00  0.00     0.055 A 
HETATM    5  N2  UNL     1       0.795  -0.365   0.035  1.00  0.00    -0.353 N 
ATOM      6  H2  UNL     1       1.028   0.628   0.028  1.00  0.00     0.166 HD
ENDROOT
BRANCH   1   7
HETATM    7  C3  UNL     1       3.175  -0.873  -0.072  1.00  0.00     0.034 C 
HETATM    8  C2  UNL     1       3.540   0.393  -0.083  1.00  0.00     0.060 C 
BRANCH   8   9
HETATM    9  C1  UNL     1       4.953   0.719  -0.145  1.00  0.00     0.159 C 
HETATM   10  N1  UNL     1       5.832  -0.220  -0.188  1.00  0.00    -0.248 N 
ATOM     11  H1  UNL     1       5.522  -1.192  -0.179  1.00  0.00     0.196 HD
BRANCH  10  12
HETATM   12  O1  UNL     1       7.177   0.053  -0.246  1.00  0.00    -0.288 OA
ATOM     13  H1  UNL     1       7.826  -0.640  -0.278  1.00  0.00     0.244 HD
ENDBRANCH  10  12
BRANCH   9  14
HETATM   14  O2  UNL     1       5.378   2.054  -0.158  1.00  0.00    -0.345 OA
ATOM     15  H2  UNL     1       4.729   2.747  -0.126  1.00  0.00     0.219 HD
ENDBRANCH   9  14
ENDBRANCH   8   9
ENDBRANCH   1   7
BRANCH   4  16
HETATM   16  C7  UNL     1      -1.693   0.118   0.148  1.00  0.00     0.043 C 
HETATM   17  C8  UNL     1      -2.540  -0.101  -1.096  1.00  0.00     0.011 C 
HETATM   18  C9  UNL     1      -3.543   1.031  -1.148  1.00  0.00     0.001 C 
HETATM   19  C10 UNL     1      -4.119   1.277   0.227  1.00  0.00     0.000 C 
HETATM   20  C11 UNL     1      -4.024  -0.008   1.045  1.00  0.00     0.001 C 
HETATM   21  C12 UNL     1      -2.559  -0.246   1.333  1.00  0.00     0.011 C 
ENDBRANCH   4  16
TORSDOF 5
