REMARK  8 active torsions:
REMARK  status: ('A' for Active; 'I' for Inactive)
REMARK    1  A    between atoms: C2_2  and  N1_5 
REMARK    2  A    between atoms: N1_5  and  C5_7 
REMARK    3  A    between atoms: C5_7  and  C6_8 
REMARK    4  A    between atoms: C6_8  and  O1_9 
REMARK    5  A    between atoms: C6_8  and  C7_11 
REMARK    6  A    between atoms: C7_11  and  O2_12 
REMARK    7  A    between atoms: C7_11  and  C8_14 
REMARK    8  A    between atoms: C8_14  and  C9_15 
ROOT
HETATM    1  C6  UNL     1      -0.300  -2.065  -0.229  1.00  0.00     0.164 C 
ENDROOT
BRANCH   1   2
HETATM    2  C5  UNL     1      -1.429  -1.343   0.457  1.00  0.00     0.149 C 
BRANCH   2   3
HETATM    3  N1  UNL     1      -1.859  -0.224  -0.303  1.00  0.00    -0.411 N 
ATOM      4  H1  UNL     1      -1.428   0.017  -1.195  1.00  0.00     0.154 HD
BRANCH   3   5
HETATM    5  C2  UNL     1      -2.923   0.542   0.247  1.00  0.00     0.014 C 
HETATM    6  C1  UNL     1      -2.532   1.165   1.562  1.00  0.00     0.037 C 
HETATM    7  C3  UNL     1      -4.215  -0.221   0.431  1.00  0.00     0.037 C 
HETATM    8  C4  UNL     1      -3.242   1.675  -0.726  1.00  0.00     0.037 C 
ENDBRANCH   3   5
ENDBRANCH   2   3
ENDBRANCH   1   2
BRANCH   1   9
HETATM    9  O1  UNL     1      -0.702  -2.533  -1.500  1.00  0.00    -0.391 OA
ATOM     10  H1  UNL     1       0.010  -2.989  -1.933  1.00  0.00     0.210 HD
ENDBRANCH   1   9
BRANCH   1  11
HETATM   11  C7  UNL     1       0.908  -1.195  -0.472  1.00  0.00     0.152 C 
BRANCH  11  12
HETATM   12  O2  UNL     1       1.862  -2.048  -1.077  1.00  0.00    -0.393 OA
ATOM     13  H2  UNL     1       2.623  -1.500  -1.230  1.00  0.00     0.210 HD
ENDBRANCH  11  12
BRANCH  11  14
HETATM   14  C8  UNL     1       1.545  -0.745   0.835  1.00  0.00     0.073 C 
BRANCH  14  15
HETATM   15  C9  UNL     1       2.724   0.108   0.516  1.00  0.00    -0.056 A 
HETATM   16  C10 UNL     1       2.611   1.475   0.386  1.00  0.00     0.007 A 
HETATM   17  C11 UNL     1       3.711   2.247   0.086  1.00  0.00     0.001 A 
HETATM   18  C12 UNL     1       4.951   1.681  -0.091  1.00  0.00     0.000 A 
HETATM   19  C13 UNL     1       5.063   0.311   0.039  1.00  0.00     0.001 A 
HETATM   20  C14 UNL     1       3.965  -0.459   0.338  1.00  0.00     0.007 A 
ENDBRANCH  14  15
ENDBRANCH  11  14
ENDBRANCH   1  11
TORSDOF 8
