REMARK  14 active torsions:
REMARK  status: ('A' for Active; 'I' for Inactive)
REMARK    1  A    between atoms: C2_2  and  C3_3 
REMARK    2  A    between atoms: C3_3  and  C5_5 
REMARK    3  A    between atoms: C3_3  and  C6_8 
REMARK    4  A    between atoms: C5_5  and  O1_6 
REMARK    5  A    between atoms: C6_8  and  C7_9 
REMARK    6  A    between atoms: C7_9  and  C8_10 
REMARK    7  A    between atoms: C8_10  and  C9_11 
REMARK    8  A    between atoms: C10_12  and  C11_13 
REMARK    9  A    between atoms: C12_14  and  O2_16 
REMARK   10  A    between atoms: C20_24  and  O3_25 
REMARK   11  A    between atoms: C21_27  and  O4_28 
REMARK   12  A    between atoms: C24_31  and  O5_32 
REMARK   13  A    between atoms: O5_32  and  C25_33 
REMARK   14  A    between atoms: C27_36  and  C29_38 
ROOT
HETATM    1  C11 UNL     1      -0.203  -0.502   0.574  1.00  0.00     0.057 C 
HETATM    2  C12 UNL     1      -0.555   0.898   0.729  1.00  0.00     0.067 C 
HETATM    3  C13 UNL     1      -0.201   1.269   2.192  1.00  0.00     0.047 C 
HETATM    4  C14 UNL     1      -1.988   1.276   0.403  1.00  0.00     0.034 C 
HETATM    5  C15 UNL     1      -1.990   2.440  -0.543  1.00  0.00    -0.002 A 
HETATM    6  C16 UNL     1      -1.954   3.846   0.084  1.00  0.00     0.011 A 
HETATM    7  C17 UNL     1      -3.104   3.296  -0.725  1.00  0.00    -0.003 A 
HETATM    8  C18 UNL     1      -4.406   3.078  -0.088  1.00  0.00     0.017 C 
HETATM    9  C19 UNL     1      -4.595   3.666   1.290  1.00  0.00     0.013 C 
HETATM   10  C20 UNL     1      -4.937   1.659  -0.178  1.00  0.00     0.151 C 
HETATM   11  C21 UNL     1      -3.960   0.719  -0.870  1.00  0.00     0.157 C 
HETATM   12  C23 UNL     1      -2.938   0.186   0.109  1.00  0.00     0.055 C 
HETATM   13  C24 UNL     1      -2.454  -1.144  -0.283  1.00  0.00     0.151 C 
HETATM   14  C27 UNL     1      -0.954  -1.275  -0.470  1.00  0.00     0.010 C 
HETATM   15  C28 UNL     1      -0.491  -0.957  -1.868  1.00  0.00     0.023 C 
ENDROOT
BRANCH   1  16
HETATM   16  C10 UNL     1       1.231  -0.699   0.329  1.00  0.00    -0.010 C 
HETATM   17  C9  UNL     1       2.072  -1.236   1.261  1.00  0.00     0.047 C 
BRANCH  17  18
HETATM   18  C8  UNL     1       3.388  -1.424   1.042  1.00  0.00    -0.156 C 
BRANCH  18  19
HETATM   19  C7  UNL     1       4.658  -1.607   0.831  1.00  0.00     0.086 C 
BRANCH  19  20
HETATM   20  C6  UNL     1       5.222  -1.208  -0.525  1.00  0.00     0.027 C 
BRANCH  20  21
HETATM   21  C3  UNL     1       6.285  -0.170  -0.408  1.00  0.00    -0.005 C 
HETATM   22  C4  UNL     1       5.754   1.138   0.146  1.00  0.00     0.021 C 
BRANCH  21  23
HETATM   23  C2  UNL     1       7.441  -0.614   0.406  1.00  0.00    -0.026 C 
HETATM   24  C1  UNL     1       8.477   0.193   0.545  1.00  0.00     0.008 C 
ENDBRANCH  21  23
BRANCH  21  25
HETATM   25  C5  UNL     1       6.840   0.140  -1.802  1.00  0.00     0.177 C 
BRANCH  25  26
HETATM   26  O1  UNL     1       7.411  -1.001  -2.333  1.00  0.00    -0.400 OA
ATOM     27  H1  UNL     1       7.755  -0.809  -3.197  1.00  0.00     0.209 HD
ENDBRANCH  25  26
ENDBRANCH  21  25
ENDBRANCH  20  21
ENDBRANCH  19  20
ENDBRANCH  18  19
ENDBRANCH  17  18
ENDBRANCH   1  16
BRANCH   2  28
HETATM   28  O2  UNL     1       0.268   1.787   0.010  1.00  0.00    -0.389 OA
ATOM     29  H2  UNL     1       0.038   2.703   0.111  1.00  0.00     0.210 HD
ENDBRANCH   2  28
BRANCH  14  30
HETATM   30  C29 UNL     1      -0.618  -2.715  -0.283  1.00  0.00    -0.024 C 
HETATM   31  C30 UNL     1      -0.322  -3.526  -1.273  1.00  0.00     0.008 C 
ENDBRANCH  14  30
BRANCH  13  32
HETATM   32  O5  UNL     1      -2.891  -2.154   0.648  1.00  0.00    -0.315 OA
BRANCH  32  33
HETATM   33  C25 UNL     1      -3.602  -3.265   0.345  1.00  0.00     0.255 C 
HETATM   34  C26 UNL     1      -4.011  -4.255   1.391  1.00  0.00     0.126 C 
HETATM   35  O6  UNL     1      -3.930  -3.478  -0.829  1.00  0.00    -0.266 OA
ENDBRANCH  32  33
ENDBRANCH  13  32
BRANCH  11  36
HETATM   36  O4  UNL     1      -4.552  -0.303  -1.518  1.00  0.00    -0.388 OA
HETATM   37  C22 UNL     1      -4.449  -0.310  -2.894  1.00  0.00     0.202 C 
ENDBRANCH  11  36
BRANCH  10  38
HETATM   38  O3  UNL     1      -5.295   1.200   1.086  1.00  0.00    -0.393 OA
ATOM     39  H3  UNL     1      -5.627   0.312   1.030  1.00  0.00     0.210 HD
ENDBRANCH  10  38
TORSDOF 14
