REMARK  14 active torsions:
REMARK  status: ('A' for Active; 'I' for Inactive)
REMARK    1  A    between atoms: C2_2  and  C3_3 
REMARK    2  A    between atoms: C3_3  and  C5_5 
REMARK    3  A    between atoms: C5_5  and  N1_6 
REMARK    4  A    between atoms: C5_5  and  C6_10 
REMARK       I    between atoms: C6_10  and  N2_12 
REMARK    5  A    between atoms: N2_12  and  C7_14 
REMARK    6  A    between atoms: C8_19  and  C9_20 
REMARK    7  A    between atoms: C9_20  and  C10_21 
REMARK    8  A    between atoms: C10_21  and  C11_22 
REMARK    9  A    between atoms: C11_22  and  C12_23 
REMARK   10  A    between atoms: C12_23  and  C13_24 
REMARK       I    between atoms: N7_30  and  C15_32 
REMARK   11  A    between atoms: C15_32  and  C16_34 
REMARK   12  A    between atoms: C16_34  and  C17_35 
REMARK   13  A    between atoms: C17_35  and  C18_36 
REMARK   14  A    between atoms: C18_36  and  C19_38 
ROOT
HETATM    1  C10 UNL     1      -0.800  -0.029   0.991  1.00  0.00     0.007 C 
ENDROOT
BRANCH   1   2
HETATM    2  C9  UNL     1      -1.665   1.186   1.142  1.00  0.00     0.066 C 
BRANCH   2   3
HETATM    3  C8  UNL     1      -3.055   0.768   1.465  1.00  0.00     0.069 A 
HETATM    4  N4  UNL     1      -3.671   0.600   2.621  1.00  0.00    -0.296 N 
HETATM    5  N3  UNL     1      -4.879   0.232   2.680  1.00  0.00    -0.279 N 
ATOM      6  H4  UNL     1      -3.160   0.771   3.487  1.00  0.00     0.187 HD
HETATM    7  C7  UNL     1      -5.536   0.010   1.537  1.00  0.00     0.167 A 
ATOM      8  H3  UNL     1      -5.342   0.107   3.580  1.00  0.00     0.189 HD
HETATM    9  S2  UNL     1      -4.338   0.356   0.373  1.00  0.00    -0.038 SA
BRANCH   7  10
HETATM   10  N2  UNL     1      -6.783  -0.375   1.387  1.00  0.00    -0.304 N 
HETATM   11  C6  UNL     1      -7.256  -0.545   0.031  1.00  0.00     0.254 C 
HETATM   12  O1  UNL     1      -6.442  -0.421  -0.919  1.00  0.00    -0.271 OA
ATOM     13  H2  UNL     1      -7.389  -0.546   2.189  1.00  0.00     0.171 HD
BRANCH  11  14
HETATM   14  C5  UNL     1      -8.655  -0.856  -0.265  1.00  0.00     0.278 C 
BRANCH  14  15
HETATM   15  C3  UNL     1      -9.387   0.103  -1.130  1.00  0.00     0.021 C 
HETATM   16  C4  UNL     1      -9.797   1.381  -0.435  1.00  0.00     0.012 C 
BRANCH  15  17
HETATM   17  C2  UNL     1      -8.695   0.332  -2.429  1.00  0.00     0.002 C 
HETATM   18  C1  UNL     1      -9.580   1.072  -3.425  1.00  0.00     0.005 C 
ENDBRANCH  15  17
ENDBRANCH  14  15
BRANCH  14  19
HETATM   19  N1  UNL     1      -9.344  -1.073   1.007  1.00  0.00    -0.066 N 
ATOM     20  H13 UNL     1      -9.516  -0.192   1.491  1.00  0.00     0.275 HD
ATOM     21  H12 UNL     1     -10.310  -1.366   0.861  1.00  0.00     0.275 HD
ATOM     22  H11 UNL     1      -8.841  -1.732   1.601  1.00  0.00     0.275 HD
ENDBRANCH  14  19
ENDBRANCH  11  14
ENDBRANCH   7  10
ENDBRANCH   2   3
ENDBRANCH   1   2
BRANCH   1  23
HETATM   23  C11 UNL     1      -0.780  -0.802   2.277  1.00  0.00     0.007 C 
BRANCH  23  24
HETATM   24  C12 UNL     1       0.078  -2.048   2.234  1.00  0.00     0.066 C 
BRANCH  24  25
HETATM   25  C13 UNL     1       1.479  -1.613   1.932  1.00  0.00     0.069 A 
HETATM   26  N5  UNL     1       2.098  -1.479   0.772  1.00  0.00    -0.296 N 
HETATM   27  N6  UNL     1       3.305  -1.094   0.718  1.00  0.00    -0.279 N 
ATOM     28  H5  UNL     1       1.598  -1.688  -0.092  1.00  0.00     0.187 HD
HETATM   29  C14 UNL     1       3.947  -0.826   1.861  1.00  0.00     0.167 A 
ATOM     30  H6  UNL     1       3.778  -0.991  -0.180  1.00  0.00     0.189 HD
HETATM   31  N7  UNL     1       5.185  -0.422   2.028  1.00  0.00    -0.306 N 
HETATM   32  S1  UNL     1       2.737  -1.150   3.024  1.00  0.00    -0.038 SA
HETATM   33  C15 UNL     1       5.997  -0.226   0.899  1.00  0.00     0.224 C 
ATOM     34  H7  UNL     1       5.552  -0.253   2.965  1.00  0.00     0.171 HD
HETATM   35  O2  UNL     1       6.269  -1.215   0.150  1.00  0.00    -0.273 OA
BRANCH  33  36
HETATM   36  C16 UNL     1       6.496   1.143   0.642  1.00  0.00     0.110 C 
BRANCH  36  37
HETATM   37  C17 UNL     1       7.519   1.113  -0.443  1.00  0.00     0.088 C 
BRANCH  37  38
HETATM   38  C18 UNL     1       8.677   0.292  -0.017  1.00  0.00     0.135 C 
HETATM   39  O3  UNL     1       8.702  -0.166   1.104  1.00  0.00    -0.297 OA
BRANCH  38  40
HETATM   40  C19 UNL     1       9.774   0.065  -1.003  1.00  0.00     0.009 C 
HETATM   41  C20 UNL     1      10.333   1.416  -1.382  1.00  0.00     0.022 C 
HETATM   42  C21 UNL     1      10.809  -0.809  -0.332  1.00  0.00     0.022 C 
HETATM   43  C22 UNL     1       9.217  -0.580  -2.251  1.00  0.00     0.022 C 
ENDBRANCH  38  40
ENDBRANCH  37  38
ENDBRANCH  36  37
ENDBRANCH  33  36
ENDBRANCH  24  25
ENDBRANCH  23  24
ENDBRANCH   1  23
TORSDOF 14
