REMARK  3 active torsions:
REMARK  status: ('A' for Active; 'I' for Inactive)
REMARK    1  A    between atoms: N1_1  and  C1_4 
REMARK    2  A    between atoms: C2_9  and  C3_10 
REMARK       I    between atoms: C3_10  and  N4_12 
REMARK       I    between atoms: N4_12  and  C4_14 
REMARK    3  A    between atoms: N6_17  and  N7_18 
ROOT
HETATM    1  C1  UNL     1      -2.746  -0.604   0.464  1.00  0.00     0.713 A 
HETATM    2  N2  UNL     1      -2.133  -1.787   0.667  1.00  0.00    -0.129 N 
ATOM      3  H2  UNL     1      -2.573  -2.684   0.874  1.00  0.00     0.205 HD
HETATM    4  N3  UNL     1      -0.849  -1.541   0.542  1.00  0.00    -0.265 N 
ATOM      5  H3  UNL     1      -0.122  -2.249   0.642  1.00  0.00     0.189 HD
HETATM    6  C2  UNL     1      -0.606  -0.259   0.269  1.00  0.00     0.228 A 
HETATM    7  N6  UNL     1      -1.800   0.345   0.217  1.00  0.00    -0.068 N 
ENDROOT
BRANCH   6   8
HETATM    8  C3  UNL     1       0.701   0.389   0.063  1.00  0.00     0.297 C 
HETATM    9  O1  UNL     1       0.734   1.622  -0.188  1.00  0.00    -0.264 OA
HETATM   10  N4  UNL     1       1.897  -0.371   0.146  1.00  0.00    -0.275 N 
HETATM   11  C4  UNL     1       3.132   0.269  -0.055  1.00  0.00     0.335 C 
ATOM     12  H4  UNL     1       1.861  -1.370   0.349  1.00  0.00     0.173 HD
HETATM   13  N5  UNL     1       4.383  -0.408   0.009  1.00  0.00    -0.040 NA
HETATM   14  O2  UNL     1       3.191   1.503  -0.307  1.00  0.00    -0.251 OA
ENDBRANCH   6   8
BRANCH   7  15
HETATM   15  N7  UNL     1      -2.054   1.696  -0.041  1.00  0.00    -0.322 N 
ATOM     16  H72 UNL     1      -2.963   2.156  -0.081  1.00  0.00     0.178 HD
ATOM     17  H71 UNL     1      -1.346   2.406  -0.226  1.00  0.00     0.178 HD
ENDBRANCH   7  15
BRANCH   1  18
HETATM   18  N1  UNL     1      -4.022  -0.421   0.501  1.00  0.00    -0.232 N 
ATOM     19  H12 UNL     1      -4.730  -1.131   0.686  1.00  0.00     0.174 HD
ATOM     20  H11 UNL     1      -4.486   0.474   0.347  1.00  0.00     0.174 HD
ENDBRANCH   1  18
TORSDOF 3
