REMARK  16 active torsions:
REMARK  status: ('A' for Active; 'I' for Inactive)
REMARK    1  A    between atoms: N1_6  and  C5_7 
REMARK    2  A    between atoms: C6_10  and  N3_11 
REMARK    3  A    between atoms: C7_16  and  N5_17 
REMARK    4  A    between atoms: N7_24  and  C9_25 
REMARK    5  A    between atoms: C9_25  and  C10_26 
REMARK    6  A    between atoms: C10_26  and  C11_27 
REMARK    7  A    between atoms: C11_27  and  C12_28 
REMARK    8  A    between atoms: C15_31  and  C16_32 
REMARK    9  A    between atoms: C16_32  and  O3_33 
REMARK   10  A    between atoms: O3_33  and  C17_34 
REMARK   11  A    between atoms: C20_37  and  N8_38 
REMARK   12  A    between atoms: N8_38  and  C21_40 
REMARK   13  A    between atoms: C21_40  and  C22_41 
REMARK   14  A    between atoms: C22_41  and  N9_42 
REMARK   15  A    between atoms: C23_46  and  N10_47 
REMARK   16  A    between atoms: N10_47  and  N11_49 
ROOT
HETATM    1  C12 UNL     1      -0.769  -1.047  -1.334  1.00  0.00     0.009 A 
HETATM    2  C13 UNL     1      -0.041  -1.620  -0.338  1.00  0.00     0.025 A 
HETATM    3  C14 UNL     1       1.334  -1.415  -0.215  1.00  0.00     0.012 A 
HETATM    4  C15 UNL     1       1.974  -0.613  -1.122  1.00  0.00    -0.019 A 
HETATM    5  C24 UNL     1       1.221  -0.044  -2.119  1.00  0.00     0.097 A 
HETATM    6  N13 UNL     1      -0.107  -0.254  -2.223  1.00  0.00    -0.369 N 
ATOM      7  H13 UNL     1      -0.626   0.189  -2.981  1.00  0.00     0.165 HD
ENDROOT
BRANCH   1   8
HETATM    8  C11 UNL     1      -2.260  -1.267  -1.453  1.00  0.00     0.058 C 
BRANCH   8   9
HETATM    9  C10 UNL     1      -2.705  -0.522  -2.681  1.00  0.00     0.026 C 
BRANCH   9  10
HETATM   10  C9  UNL     1      -4.133  -0.592  -3.021  1.00  0.00     0.129 C 
BRANCH  10  11
HETATM   11  N7  UNL     1      -5.073  -0.104  -2.070  1.00  0.00    -0.315 N 
HETATM   12  C2  UNL     1      -5.614   1.233  -1.876  1.00  0.00     0.112 C 
HETATM   13  C1  UNL     1      -5.780   1.996  -3.141  1.00  0.00     0.049 C 
HETATM   14  C3  UNL     1      -4.872   2.012  -0.835  1.00  0.00     0.049 C 
HETATM   15  C4  UNL     1      -6.996   0.977  -1.324  1.00  0.00     0.275 C 
HETATM   16  O1  UNL     1      -7.951   1.737  -1.533  1.00  0.00    -0.269 OA
HETATM   17  N1  UNL     1      -6.883  -0.232  -0.592  1.00  0.00    -0.059 N 
HETATM   18  C8  UNL     1      -5.701  -0.881  -1.062  1.00  0.00     0.347 C 
HETATM   19  O2  UNL     1      -5.354  -1.993  -0.578  1.00  0.00    -0.246 OA
BRANCH  17  20
HETATM   20  C5  UNL     1      -7.791  -0.670   0.399  1.00  0.00     0.724 A 
HETATM   21  N2  UNL     1      -7.609  -1.901   0.965  1.00  0.00    -0.021 N 
HETATM   22  C6  UNL     1      -8.437  -2.373   1.909  1.00  0.00     0.705 A 
ATOM     23  H2  UNL     1      -6.823  -2.476   0.662  1.00  0.00     0.203 HD
HETATM   24  N4  UNL     1      -9.471  -1.608   2.302  1.00  0.00    -0.022 N 
HETATM   25  C7  UNL     1      -9.685  -0.408   1.781  1.00  0.00     0.705 A 
ATOM     26  H4  UNL     1     -10.106  -1.960   3.018  1.00  0.00     0.203 HD
HETATM   27  N6  UNL     1      -8.831   0.029   0.837  1.00  0.00    -0.021 N 
ATOM     28  H6  UNL     1      -8.993   0.952   0.434  1.00  0.00     0.203 HD
BRANCH  22  29
HETATM   29  N3  UNL     1      -8.312  -3.527   2.476  1.00  0.00    -0.234 N 
ATOM     30  H32 UNL     1      -7.528  -4.107   2.178  1.00  0.00     0.174 HD
ATOM     31  H31 UNL     1      -8.942  -3.886   3.194  1.00  0.00     0.174 HD
ENDBRANCH  22  29
BRANCH  25  32
HETATM   32  N5  UNL     1     -10.664   0.312   2.155  1.00  0.00    -0.234 N 
ATOM     33  H52 UNL     1     -11.311  -0.019   2.870  1.00  0.00     0.174 HD
ATOM     34  H51 UNL     1     -10.829   1.235   1.754  1.00  0.00     0.174 HD
ENDBRANCH  25  32
ENDBRANCH  17  20
ENDBRANCH  10  11
ENDBRANCH   9  10
ENDBRANCH   8   9
ENDBRANCH   1   8
BRANCH   4  35
HETATM   35  C16 UNL     1       3.427  -0.371  -1.030  1.00  0.00     0.217 C 
BRANCH  35  36
HETATM   36  O3  UNL     1       3.836   0.126   0.236  1.00  0.00    -0.331 OA
BRANCH  36  37
HETATM   37  C17 UNL     1       5.183   0.396   0.420  1.00  0.00     0.143 A 
HETATM   38  C18 UNL     1       6.092   0.202  -0.578  1.00  0.00     0.058 A 
HETATM   39  C19 UNL     1       7.426   0.464  -0.417  1.00  0.00     0.037 A 
HETATM   40  C20 UNL     1       7.851   0.938   0.799  1.00  0.00     0.074 A 
HETATM   41  C23 UNL     1       6.928   1.139   1.823  1.00  0.00     0.148 A 
HETATM   42  N12 UNL     1       5.628   0.861   1.597  1.00  0.00    -0.320 N 
ATOM     43  H12 UNL     1       4.957   1.010   2.350  1.00  0.00     0.169 HD
BRANCH  40  44
HETATM   44  N8  UNL     1       9.204   1.251   1.027  1.00  0.00    -0.385 N 
ATOM     45  H8  UNL     1       9.450   1.689   1.915  1.00  0.00     0.159 HD
BRANCH  44  46
HETATM   46  C21 UNL     1      10.253   0.995   0.096  1.00  0.00     0.147 C 
BRANCH  46  47
HETATM   47  C22 UNL     1      10.641  -0.433  -0.079  1.00  0.00     0.249 C 
BRANCH  47  48
HETATM   48  N9  UNL     1      11.107  -0.980   1.204  1.00  0.00    -0.078 N 
ATOM     49  H93 UNL     1      11.860  -0.424   1.608  1.00  0.00     0.274 HD
ATOM     50  H92 UNL     1      10.419  -0.857   1.947  1.00  0.00     0.274 HD
ATOM     51  H91 UNL     1      11.373  -1.958   1.084  1.00  0.00     0.274 HD
ENDBRANCH  47  48
ENDBRANCH  46  47
ENDBRANCH  44  46
ENDBRANCH  40  44
BRANCH  41  52
HETATM   52  N10 UNL     1       7.333   1.582   2.959  1.00  0.00    -0.290 N 
ATOM     53  H10 UNL     1       8.320   1.786   3.115  1.00  0.00     0.188 HD
BRANCH  52  54
HETATM   54  N11 UNL     1       6.405   1.778   3.968  1.00  0.00    -0.344 N 
ATOM     55 2H11 UNL     1       5.421   1.570   3.796  1.00  0.00     0.176 HD
ATOM     56 1H11 UNL     1       6.727   2.130   4.870  1.00  0.00     0.176 HD
ENDBRANCH  52  54
ENDBRANCH  41  52
ENDBRANCH  36  37
ENDBRANCH  35  36
ENDBRANCH   4  35
TORSDOF 16
