REMARK  3 active torsions:
REMARK  status: ('A' for Active; 'I' for Inactive)
REMARK    1  A    between atoms: C2_2  and  C4_4 
REMARK    2  A    between atoms: C6_6  and  C7_7 
REMARK    3  A    between atoms: C7_7  and  N1_8 
ROOT
HETATM    1  C4  UNL     1       1.666  -1.239   0.375  1.00  0.00     0.019 A 
HETATM    2  C5  UNL     1       0.746  -1.892  -0.647  1.00  0.00     0.016 A 
HETATM    3  C6  UNL     1       0.239  -0.940   0.457  1.00  0.00     0.020 A 
ENDROOT
BRANCH   3   4
HETATM    4  C7  UNL     1      -0.355   0.338  -0.051  1.00  0.00     0.241 C 
BRANCH   4   5
HETATM    5  N1  UNL     1      -1.767   0.439   0.121  1.00  0.00    -0.078 N 
HETATM    6  C8  UNL     1      -2.510  -0.696  -0.327  1.00  0.00     0.271 C 
HETATM    7  C9  UNL     1      -2.137   0.801   1.492  1.00  0.00     0.271 C 
HETATM    8  C10 UNL     1      -2.220   1.570  -0.706  1.00  0.00     0.271 C 
ENDBRANCH   4   5
ENDBRANCH   3   4
BRANCH   1   9
HETATM    9  C2  UNL     1       2.675  -0.288  -0.116  1.00  0.00    -0.088 C 
HETATM   10  C1  UNL     1       3.403  -0.600  -1.161  1.00  0.00     0.014 C 
HETATM   11  C3  UNL     1       2.883   1.023   0.554  1.00  0.00     0.043 C 
ENDBRANCH   1   9
TORSDOF 3
