REMARK  5 active torsions:
REMARK  status: ('A' for Active; 'I' for Inactive)
REMARK    1  A    between atoms: C2_2  and  C3_3 
REMARK    2  A    between atoms: C3_3  and  C4_4 
REMARK    3  A    between atoms: C4_4  and  N1_5 
REMARK    4  A    between atoms: C5_7  and  N2_8 
REMARK    5  A    between atoms: N2_8  and  C6_10 
ROOT
HETATM    1  C6  UNL     1       1.916  -0.234  -0.358  1.00  0.00     0.685 A 
HETATM    2  N3  UNL     1       2.614   0.441   0.572  1.00  0.00    -0.176 N 
ATOM      3  H3  UNL     1       2.224   1.143   1.201  1.00  0.00     0.185 HD
HETATM    4  C7  UNL     1       3.901   0.056   0.552  1.00  0.00     0.166 A 
HETATM    5  N4  UNL     1       4.987   0.494   1.347  1.00  0.00    -0.079 NA
HETATM    6  C8  UNL     1       4.025  -0.910  -0.439  1.00  0.00     0.138 A 
HETATM    7  S1  UNL     1       5.535  -1.786  -0.915  1.00  0.00    -0.029 SA
HETATM    8  N5  UNL     1       2.796  -1.048  -0.958  1.00  0.00    -0.181 N 
ATOM      9  H5  UNL     1       2.561  -1.691  -1.714  1.00  0.00     0.185 HD
ENDROOT
BRANCH   1  10
HETATM   10  N2  UNL     1       0.641  -0.101  -0.603  1.00  0.00    -0.188 N 
ATOM     11  H2  UNL     1       0.065   0.557  -0.077  1.00  0.00     0.185 HD
BRANCH  10  12
HETATM   12  C5  UNL     1       0.088  -0.909  -1.631  1.00  0.00     0.193 C 
HETATM   13  N1  UNL     1      -1.166  -1.194  -1.568  1.00  0.00    -0.386 N 
ATOM     14  H1  UNL     1      -1.581  -1.774  -2.297  1.00  0.00     0.160 HD
BRANCH  13  15
HETATM   15  C4  UNL     1      -1.991  -0.719  -0.502  1.00  0.00     0.120 C 
BRANCH  15  16
HETATM   16  C3  UNL     1      -2.376   0.702  -0.781  1.00  0.00     0.019 C 
BRANCH  16  17
HETATM   17  C2  UNL     1      -3.253   1.249   0.325  1.00  0.00    -0.003 C 
HETATM   18  C1  UNL     1      -4.505   0.424   0.434  1.00  0.00     0.005 C 
ENDBRANCH  16  17
ENDBRANCH  15  16
ENDBRANCH  13  15
ENDBRANCH  10  12
ENDBRANCH   1  10
TORSDOF 5
