REMARK  3 active torsions:
REMARK  status: ('A' for Active; 'I' for Inactive)
REMARK    1  A    between atoms: C4_7  and  N3_8 
REMARK    2  A    between atoms: C11_16  and  N5_17 
REMARK       I    between atoms: N5_17  and  C12_19 
REMARK    3  A    between atoms: C12_19  and  C13_21 
ROOT
HETATM    1  C1  UNL     1      -2.670  -3.274   0.862  1.00  0.00     0.072 C 
HETATM    2  C2  UNL     1      -1.250  -2.845   0.835  1.00  0.00     0.052 A 
HETATM    3  N1  UNL     1      -0.200  -3.531   1.247  1.00  0.00    -0.299 N 
ATOM      4  H1  UNL     1      -0.237  -4.469   1.645  1.00  0.00     0.187 HD
HETATM    5  N2  UNL     1       0.925  -2.816   1.067  1.00  0.00    -0.279 N 
HETATM    6  C3  UNL     1       2.208  -3.324   1.440  1.00  0.00     0.179 C 
HETATM    7  C4  UNL     1       0.644  -1.618   0.520  1.00  0.00     0.149 A 
HETATM    8  C11 UNL     1      -0.739  -1.627   0.370  1.00  0.00     0.104 A 
ENDROOT
BRANCH   7   9
HETATM    9  N3  UNL     1       1.521  -0.577   0.126  1.00  0.00    -0.356 N 
HETATM   10  C5  UNL     1       0.916   0.701  -0.276  1.00  0.00     0.155 C 
HETATM   11  C6  UNL     1       1.932   1.759  -0.642  1.00  0.00     0.291 C 
HETATM   12  N4  UNL     1       2.836   1.861   0.448  1.00  0.00     0.087 N 
HETATM   13  C7  UNL     1       3.670   3.030   0.280  1.00  0.00     0.310 C 
HETATM   14  C8  UNL     1       3.620   0.695   0.525  1.00  0.00     0.296 C 
HETATM   15  C9  UNL     1       2.928  -0.583   0.027  1.00  0.00     0.110 C 
HETATM   16  C10 UNL     1       3.315  -0.706  -1.465  1.00  0.00     0.034 C 
ENDBRANCH   7   9
BRANCH   8  17
HETATM   17  N5  UNL     1      -1.642  -0.676  -0.170  1.00  0.00    -0.322 N 
HETATM   18  C12 UNL     1      -2.364   0.190   0.681  1.00  0.00     0.230 C 
HETATM   19  O1  UNL     1      -2.191   0.102   1.920  1.00  0.00    -0.272 OA
ATOM     20  H5  UNL     1      -1.771  -0.617  -1.180  1.00  0.00     0.169 HD
BRANCH  18  21
HETATM   21  C13 UNL     1      -3.313   1.192   0.141  1.00  0.00     0.030 C 
HETATM   22  C14 UNL     1      -4.424   0.501  -0.648  1.00  0.00     0.025 C 
HETATM   23  C15 UNL     1      -2.653   2.151  -0.814  1.00  0.00     0.025 C 
HETATM   24  C16 UNL     1      -3.959   1.956   1.255  1.00  0.00     0.025 C 
ENDBRANCH  18  21
ENDBRANCH   8  17
TORSDOF 3
