REMARK  3 active torsions:
REMARK  status: ('A' for Active; 'I' for Inactive)
REMARK    1  A    between atoms: C4_4  and  C5_5 
REMARK    2  A    between atoms: C6_6  and  C7_7 
REMARK    3  A    between atoms: C17_21  and  O5_22 
ROOT
HETATM    1  C7  UNL     1       0.137  -0.456   0.020  1.00  0.00     0.128 C 
HETATM    2  C8  UNL     1      -0.479  -1.779   0.208  1.00  0.00     0.268 C 
HETATM    3  O1  UNL     1       0.155  -2.545   0.963  1.00  0.00    -0.264 OA
HETATM    4  O2  UNL     1      -1.649  -2.185  -0.375  1.00  0.00    -0.315 OA
HETATM    5  C9  UNL     1      -2.879  -1.598  -0.517  1.00  0.00     0.137 C 
HETATM    6  C10 UNL     1      -3.374  -1.925  -1.940  1.00  0.00     0.040 C 
HETATM    7  C11 UNL     1      -3.042  -0.158  -0.270  1.00  0.00     0.074 C 
HETATM    8  C12 UNL     1      -3.577   0.049   1.146  1.00  0.00     0.137 C 
HETATM    9  C13 UNL     1      -4.500   1.232   1.197  1.00  0.00     0.040 C 
HETATM   10  O3  UNL     1      -2.550   0.110   2.110  1.00  0.00    -0.315 OA
HETATM   11  C14 UNL     1      -1.261   0.517   1.821  1.00  0.00     0.271 C 
HETATM   12  O4  UNL     1      -0.493   0.756   2.781  1.00  0.00    -0.264 OA
HETATM   13  C15 UNL     1      -0.774   0.674   0.452  1.00  0.00     0.086 C 
HETATM   14  C16 UNL     1       0.029   1.957   0.295  1.00  0.00     0.030 C 
HETATM   15  C17 UNL     1      -1.889   0.725  -0.567  1.00  0.00     0.146 C 
ENDROOT
BRANCH   1  16
HETATM   16  C6  UNL     1       1.466  -0.367   0.678  1.00  0.00    -0.011 C 
HETATM   17  C5  UNL     1       2.561  -0.246  -0.018  1.00  0.00    -0.003 C 
BRANCH  17  18
HETATM   18  C4  UNL     1       3.891  -0.154   0.562  1.00  0.00     0.002 C 
HETATM   19  C2  UNL     1       4.977  -0.032  -0.161  1.00  0.00    -0.088 C 
HETATM   20  C1  UNL     1       4.867   0.017  -1.663  1.00  0.00     0.043 C 
HETATM   21  C3  UNL     1       6.311   0.059   0.436  1.00  0.00     0.043 C 
ENDBRANCH  17  18
ENDBRANCH   1  16
BRANCH  15  22
HETATM   22  O5  UNL     1      -1.430   0.498  -1.842  1.00  0.00    -0.394 OA
ATOM     23  H5  UNL     1      -0.691   1.064  -2.032  1.00  0.00     0.210 HD
ENDBRANCH  15  22
TORSDOF 3
