REMARK  8 active torsions:
REMARK  status: ('A' for Active; 'I' for Inactive)
REMARK    1  A    between atoms: C2_2  and  C3_3 
REMARK    2  A    between atoms: C3_3  and  C4_4 
REMARK    3  A    between atoms: C4_4  and  N1_5 
REMARK    4  A    between atoms: N1_5  and  C5_8 
REMARK    5  A    between atoms: C5_8  and  C6_9 
REMARK    6  A    between atoms: C8_11  and  C9_12 
REMARK    7  A    between atoms: C9_12  and  C11_14 
REMARK    8  A    between atoms: C11_14  and  N2_15 
ROOT
HETATM    1  C6  UNL     1       0.010  -0.049  -0.244  1.00  0.00    -0.057 A 
HETATM    2  C7  UNL     1      -0.492   0.718   0.708  1.00  0.00    -0.017 A 
HETATM    3  C8  UNL     1      -1.666   1.002  -0.121  1.00  0.00     0.018 A 
HETATM    4  C12 UNL     1      -1.123   0.147  -1.196  1.00  0.00     0.044 A 
ENDROOT
BRANCH   1   5
HETATM    5  C5  UNL     1       1.280  -0.846  -0.329  1.00  0.00     0.266 C 
BRANCH   5   6
HETATM    6  N1  UNL     1       2.000  -0.712   0.897  1.00  0.00    -0.071 N 
ATOM      7  H12 UNL     1       1.410  -0.937   1.698  1.00  0.00     0.277 HD
ATOM      8  H11 UNL     1       2.192   0.268   1.107  1.00  0.00     0.277 HD
BRANCH   6   9
HETATM    9  C4  UNL     1       3.221  -1.501   0.906  1.00  0.00     0.236 C 
BRANCH   9  10
HETATM   10  C3  UNL     1       4.271  -0.993  -0.043  1.00  0.00     0.054 C 
BRANCH  10  11
HETATM   11  C2  UNL     1       4.697   0.385   0.294  1.00  0.00    -0.035 C 
HETATM   12  C1  UNL     1       4.564   1.408  -0.525  1.00  0.00     0.007 C 
ENDBRANCH  10  11
ENDBRANCH   9  10
ENDBRANCH   6   9
ENDBRANCH   5   6
ENDBRANCH   1   5
BRANCH   3  13
HETATM   13  C9  UNL     1      -2.997   0.639   0.489  1.00  0.00     0.015 C 
HETATM   14  C10 UNL     1      -3.095  -0.826   0.825  1.00  0.00     0.012 C 
BRANCH  13  15
HETATM   15  C11 UNL     1      -4.058   0.982  -0.523  1.00  0.00     0.234 C 
BRANCH  15  16
HETATM   16  N2  UNL     1      -5.393   0.696  -0.094  1.00  0.00    -0.079 N 
ATOM     17  H23 UNL     1      -5.475  -0.280   0.192  1.00  0.00     0.274 HD
ATOM     18  H22 UNL     1      -5.588   1.154   0.796  1.00  0.00     0.274 HD
ATOM     19  H21 UNL     1      -6.112   0.928  -0.779  1.00  0.00     0.274 HD
ENDBRANCH  15  16
ENDBRANCH  13  15
ENDBRANCH   3  13
TORSDOF 8
