REMARK  10 active torsions:
REMARK  status: ('A' for Active; 'I' for Inactive)
REMARK    1  A    between atoms: C6_9  and  C7_10 
REMARK    2  A    between atoms: C7_10  and  N3_11 
REMARK    3  A    between atoms: N4_14  and  C10_15 
REMARK    4  A    between atoms: C10_15  and  C11_16 
REMARK    5  A    between atoms: C11_16  and  C12_17 
REMARK    6  A    between atoms: C15_20  and  N5_21 
REMARK    7  A    between atoms: N5_21  and  C16_24 
REMARK    8  A    between atoms: C16_24  and  C17_25 
REMARK    9  A    between atoms: C17_25  and  C18_26 
REMARK   10  A    between atoms: C18_26  and  N6_27 
ROOT
HETATM    1  C10 UNL     1      -0.057  -0.562  -0.605  1.00  0.00     0.273 C 
ENDROOT
BRANCH   1   2
HETATM    2  N4  UNL     1      -0.742  -1.774  -0.023  1.00  0.00     0.090 N 
HETATM    3  C9  UNL     1      -1.350  -1.397   1.222  1.00  0.00     0.287 C 
HETATM    4  C8  UNL     1      -2.469  -2.235   1.615  1.00  0.00     0.125 C 
HETATM    5  N3  UNL     1      -3.562  -1.966   0.620  1.00  0.00    -0.288 NA
HETATM    6  C21 UNL     1      -3.069  -2.459  -0.566  1.00  0.00     0.125 C 
HETATM    7  C20 UNL     1      -1.705  -2.178  -1.018  1.00  0.00     0.287 C 
BRANCH   5   8
HETATM    8  C7  UNL     1      -4.026  -0.719   0.911  1.00  0.00     0.075 C 
BRANCH   8   9
HETATM    9  C6  UNL     1      -5.234  -0.013   0.452  1.00  0.00     0.022 A 
HETATM   10  C2  UNL     1      -6.184   0.383   1.437  1.00  0.00     0.035 A 
HETATM   11  C1  UNL     1      -6.120  -0.218   2.785  1.00  0.00     0.070 C 
HETATM   12  N1  UNL     1      -7.040   1.200   0.899  1.00  0.00    -0.302 N 
HETATM   13  N2  UNL     1      -6.711   1.356  -0.409  1.00  0.00    -0.300 N 
ATOM     14  H1  UNL     1      -7.823   1.646   1.377  1.00  0.00     0.186 HD
HETATM   15  C3  UNL     1      -7.463   2.251  -1.303  1.00  0.00     0.177 C 
HETATM   16  C4  UNL     1      -5.624   0.631  -0.680  1.00  0.00     0.037 A 
HETATM   17  C5  UNL     1      -4.961   0.588  -1.984  1.00  0.00     0.071 C 
ENDBRANCH   8   9
ENDBRANCH   5   8
ENDBRANCH   1   2
BRANCH   1  18
HETATM   18  C11 UNL     1       0.835   0.012   0.420  1.00  0.00     0.035 C 
BRANCH  18  19
HETATM   19  C12 UNL     1       1.852   0.949  -0.211  1.00  0.00    -0.011 C 
HETATM   20  C13 UNL     1       2.692   1.563   0.858  1.00  0.00     0.007 C 
HETATM   21  C14 UNL     1       4.125   1.335   0.563  1.00  0.00     0.033 C 
HETATM   22  C15 UNL     1       4.219   0.517  -0.689  1.00  0.00     0.186 C 
HETATM   23  C19 UNL     1       2.827  -0.006  -0.914  1.00  0.00     0.037 C 
BRANCH  22  24
HETATM   24  N5  UNL     1       5.070  -0.708  -0.443  1.00  0.00    -0.071 N 
ATOM     25  H52 UNL     1       4.630  -1.410   0.152  1.00  0.00     0.277 HD
ATOM     26  H51 UNL     1       5.184  -1.309  -1.259  1.00  0.00     0.277 HD
BRANCH  24  27
HETATM   27  C16 UNL     1       6.320  -0.175   0.086  1.00  0.00     0.234 C 
BRANCH  27  28
HETATM   28  C17 UNL     1       7.025   0.666  -0.912  1.00  0.00     0.055 C 
BRANCH  28  29
HETATM   29  C18 UNL     1       8.180   1.330  -0.122  1.00  0.00     0.231 C 
BRANCH  29  30
HETATM   30  N6  UNL     1       9.060   0.377   0.455  1.00  0.00    -0.079 N 
ATOM     31  H63 UNL     1       8.551  -0.288   1.038  1.00  0.00     0.274 HD
ATOM     32  H62 UNL     1       9.419  -0.266  -0.251  1.00  0.00     0.274 HD
ATOM     33  H61 UNL     1       9.821   0.814   0.975  1.00  0.00     0.274 HD
ENDBRANCH  29  30
ENDBRANCH  28  29
ENDBRANCH  27  28
ENDBRANCH  24  27
ENDBRANCH  22  24
ENDBRANCH  18  19
ENDBRANCH   1  18
TORSDOF 10
