REMARK  13 active torsions:
REMARK  status: ('A' for Active; 'I' for Inactive)
REMARK    1  A    between atoms: C3_3  and  C4_4 
REMARK    2  A    between atoms: C4_4  and  C5_5 
REMARK    3  A    between atoms: C5_5  and  C6_6 
REMARK    4  A    between atoms: C7_7  and  C8_8 
REMARK    5  A    between atoms: C9_9  and  C10_10 
REMARK    6  A    between atoms: C10_10  and  O2_12 
REMARK    7  A    between atoms: O2_12  and  C11_13 
REMARK    8  A    between atoms: C11_13  and  C12_14 
REMARK    9  A    between atoms: C11_13  and  C17_19 
REMARK   10  A    between atoms: C12_14  and  C13_15 
REMARK   11  A    between atoms: C13_15  and  C14_16 
REMARK       I    between atoms: C17_19  and  N1_21 
REMARK   12  A    between atoms: N1_21  and  C18_23 
REMARK   13  A    between atoms: C21_28  and  O6_29 
ROOT
HETATM    1  C1  UNL     1       9.670   0.603   0.368  1.00  0.00     0.112 C 
HETATM    2  C2  UNL     1       8.842  -0.258  -0.473  1.00  0.00    -0.110 C 
HETATM    3  C3  UNL     1       8.146  -0.949  -1.140  1.00  0.00    -0.096 C 
ENDROOT
BRANCH   3   4
HETATM    4  C4  UNL     1       7.229  -1.806  -1.972  1.00  0.00     0.178 C 
BRANCH   4   5
HETATM    5  C5  UNL     1       5.989  -1.679  -1.810  1.00  0.00    -0.144 C 
BRANCH   5   6
HETATM    6  C6  UNL     1       4.637  -1.551  -1.644  1.00  0.00     0.051 C 
HETATM    7  C7  UNL     1       4.213  -0.618  -0.730  1.00  0.00     0.008 C 
BRANCH   7   8
HETATM    8  C8  UNL     1       2.805  -0.442  -0.501  1.00  0.00     0.007 C 
HETATM    9  C9  UNL     1       2.424   0.456   0.383  1.00  0.00     0.082 C 
BRANCH   9  10
HETATM   10  C10 UNL     1       1.091   0.795   0.774  1.00  0.00     0.283 C 
HETATM   11  O1  UNL     1       0.936   1.706   1.662  1.00  0.00    -0.260 OA
BRANCH  10  12
HETATM   12  O2  UNL     1      -0.092   0.233   0.295  1.00  0.00    -0.303 OA
BRANCH  12  13
HETATM   13  C11 UNL     1      -1.343   0.692   0.839  1.00  0.00     0.224 C 
BRANCH  13  14
HETATM   14  C12 UNL     1      -2.017  -0.485   1.542  1.00  0.00     0.043 C 
BRANCH  14  15
HETATM   15  C13 UNL     1      -2.291  -1.615   0.597  1.00  0.00     0.007 C 
BRANCH  15  16
HETATM   16  C14 UNL     1      -2.924  -2.749   1.358  1.00  0.00    -0.023 C 
HETATM   17  C15 UNL     1      -2.065  -3.303   2.448  1.00  0.00     0.009 C 
HETATM   18  C16 UNL     1      -3.358  -3.884   0.456  1.00  0.00     0.009 C 
ENDBRANCH  15  16
ENDBRANCH  14  15
ENDBRANCH  13  14
BRANCH  13  19
HETATM   19  C17 UNL     1      -2.190   1.231  -0.236  1.00  0.00     0.247 C 
HETATM   20  O3  UNL     1      -1.853   1.064  -1.429  1.00  0.00    -0.271 OA
HETATM   21  N1  UNL     1      -3.385   1.945   0.050  1.00  0.00    -0.349 N 
ATOM     22  H1  UNL     1      -3.663   2.093   1.020  1.00  0.00     0.163 HD
BRANCH  21  23
HETATM   23  C18 UNL     1      -4.204   2.460  -1.008  1.00  0.00     0.149 C 
HETATM   24  C19 UNL     1      -5.659   2.553  -0.590  1.00  0.00     0.141 C 
HETATM   25  C20 UNL     1      -6.152   3.629  -1.470  1.00  0.00     0.263 C 
HETATM   26  O4  UNL     1      -7.302   3.725  -1.948  1.00  0.00    -0.265 OA
HETATM   27  O5  UNL     1      -5.109   4.496  -1.661  1.00  0.00    -0.288 OA
HETATM   28  C21 UNL     1      -3.883   3.944  -1.257  1.00  0.00     0.289 C 
BRANCH  28  29
HETATM   29  O6  UNL     1      -3.477   4.569  -0.085  1.00  0.00    -0.369 OA
ATOM     30  H6  UNL     1      -3.279   5.485  -0.239  1.00  0.00     0.212 HD
ENDBRANCH  28  29
ENDBRANCH  21  23
ENDBRANCH  13  19
ENDBRANCH  12  13
ENDBRANCH  10  12
ENDBRANCH   9  10
ENDBRANCH   7   8
ENDBRANCH   5   6
ENDBRANCH   4   5
ENDBRANCH   3   4
TORSDOF 13
