REMARK  9 active torsions:
REMARK  status: ('A' for Active; 'I' for Inactive)
REMARK       I    between atoms: C2_2  and  N1_4 
REMARK    1  A    between atoms: N1_4  and  C3_6 
REMARK    2  A    between atoms: C3_6  and  C4_7 
REMARK    3  A    between atoms: C3_6  and  C8_11 
REMARK    4  A    between atoms: C4_7  and  C5_8 
REMARK    5  A    between atoms: C8_11  and  C9_12 
REMARK    6  A    between atoms: C8_11  and  N5_25 
REMARK    7  A    between atoms: C9_12  and  S1_13 
REMARK    8  A    between atoms: S1_13  and  C10_14 
REMARK    9  A    between atoms: C11_19  and  C12_20 
ROOT
HETATM    1  C8  UNL     1      -0.818  -0.420  -0.430  1.00  0.00     0.255 C 
ENDROOT
BRANCH   1   2
HETATM    2  C3  UNL     1      -2.041  -1.064   0.092  1.00  0.00     0.118 C 
BRANCH   2   3
HETATM    3  N1  UNL     1      -3.161  -0.280   0.458  1.00  0.00    -0.355 N 
HETATM    4  C2  UNL     1      -3.766  -0.507   1.759  1.00  0.00     0.213 C 
HETATM    5  C1  UNL     1      -4.942   0.255   2.241  1.00  0.00     0.117 C 
HETATM    6  O1  UNL     1      -3.293  -1.387   2.536  1.00  0.00    -0.274 OA
ATOM      7  H1  UNL     1      -3.534   0.427  -0.176  1.00  0.00     0.162 HD
ENDBRANCH   2   3
BRANCH   2   8
HETATM    8  C4  UNL     1      -2.543  -2.206  -0.737  1.00  0.00     0.031 C 
BRANCH   8   9
HETATM    9  C5  UNL     1      -3.228  -1.946  -1.999  1.00  0.00    -0.021 C 
HETATM   10  C6  UNL     1      -3.581  -3.343  -2.569  1.00  0.00     0.009 C 
HETATM   11  C7  UNL     1      -4.486  -1.180  -2.009  1.00  0.00     0.009 C 
ENDBRANCH   8   9
ENDBRANCH   2   8
ENDBRANCH   1   2
BRANCH   1  12
HETATM   12  C9  UNL     1       0.224  -1.426  -0.782  1.00  0.00     0.120 C 
BRANCH  12  13
HETATM   13  S1  UNL     1       1.760  -0.893  -1.445  1.00  0.00    -0.090 SA
BRANCH  13  14
HETATM   14  C10 UNL     1       3.040  -0.378  -0.392  1.00  0.00     0.160 A 
HETATM   15  N2  UNL     1       3.113  -0.397   0.943  1.00  0.00    -0.278 N 
HETATM   16  N3  UNL     1       4.248   0.081   1.386  1.00  0.00    -0.287 N 
ATOM     17  H2  UNL     1       2.369  -0.745   1.548  1.00  0.00     0.189 HD
HETATM   18  C11 UNL     1       4.957   0.431   0.303  1.00  0.00     0.101 A 
ATOM     19  H3  UNL     1       4.536   0.170   2.361  1.00  0.00     0.188 HD
HETATM   20  N4  UNL     1       4.241   0.160  -0.771  1.00  0.00    -0.324 N 
ATOM     21  H4  UNL     1       4.536   0.325  -1.733  1.00  0.00     0.169 HD
BRANCH  18  22
HETATM   22  C12 UNL     1       6.320   1.032   0.357  1.00  0.00     0.047 C 
HETATM   23  C13 UNL     1       7.346   0.031  -0.182  1.00  0.00     0.017 C 
HETATM   24  C14 UNL     1       6.401   2.332  -0.421  1.00  0.00     0.017 C 
ENDBRANCH  18  22
ENDBRANCH  13  14
ENDBRANCH  12  13
ENDBRANCH   1  12
BRANCH   1  25
HETATM   25  N5  UNL     1      -0.360   0.797   0.066  1.00  0.00     0.100 N 
HETATM   26  C15 UNL     1      -1.132   1.958  -0.357  1.00  0.00     0.299 C 
HETATM   27  C16 UNL     1      -1.406   2.846   0.811  1.00  0.00     0.198 C 
HETATM   28  O2  UNL     1      -0.295   3.204   1.552  1.00  0.00    -0.388 OA
HETATM   29  C17 UNL     1       0.538   2.140   1.832  1.00  0.00     0.198 C 
HETATM   30  C18 UNL     1      -0.210   0.841   1.518  1.00  0.00     0.299 C 
ENDBRANCH   1  25
TORSDOF 9
