REMARK  1 active torsions:
REMARK  status: ('A' for Active; 'I' for Inactive)
REMARK    1  A    between atoms: C2_2  and  C3_3 
ROOT
HETATM    1  C3  UNL     1      -0.346   0.328  -0.476  1.00  0.00     0.083 C 
HETATM    2  C4  UNL     1      -0.518   1.439  -1.499  1.00  0.00     0.172 C 
HETATM    3  N1  UNL     1      -0.409   2.574  -0.601  1.00  0.00    -0.139 NA
HETATM    4  N2  UNL     1       0.603   2.203   0.290  1.00  0.00    -0.310 N 
ATOM      5  H2  UNL     1       1.202   2.859   0.791  1.00  0.00     0.181 HD
HETATM    6  C5  UNL     1       0.677   0.922   0.393  1.00  0.00     0.029 C 
HETATM    7  C6  UNL     1       1.572   0.056   1.182  1.00  0.00     0.061 C 
HETATM    8  C7  UNL     1       2.105  -0.976   0.211  1.00  0.00     0.050 C 
HETATM    9  C8  UNL     1       1.088  -1.629  -0.621  1.00  0.00     0.057 C 
HETATM   10  N3  UNL     1       0.001  -0.884  -1.091  1.00  0.00    -0.387 N 
ATOM     11  H3  UNL     1      -0.542  -1.224  -1.885  1.00  0.00     0.159 HD
ENDROOT
BRANCH   1  12
HETATM   12  C2  UNL     1      -1.688   0.278   0.257  1.00  0.00     0.034 C 
HETATM   13  C1  UNL     1      -1.751  -0.754   1.323  1.00  0.00     0.008 C 
ENDBRANCH   1  12
TORSDOF 1
