REMARK  17 active torsions:
REMARK  status: ('A' for Active; 'I' for Inactive)
REMARK    1  A    between atoms: C5_11  and  N3_12 
REMARK    2  A    between atoms: C6_19  and  O1_20 
REMARK    3  A    between atoms: C8_24  and  N6_25 
REMARK    4  A    between atoms: C9_29  and  O2_30 
REMARK    5  A    between atoms: O2_30  and  C10_31 
REMARK    6  A    between atoms: C10_31  and  C11_33 
REMARK    7  A    between atoms: C11_33  and  O4_34 
REMARK    8  A    between atoms: C11_33  and  C12_36 
REMARK    9  A    between atoms: C12_36  and  C13_37 
REMARK   10  A    between atoms: C13_37  and  O5_38 
REMARK   11  A    between atoms: C13_37  and  C14_40 
REMARK   12  A    between atoms: C14_40  and  O6_41 
REMARK   13  A    between atoms: C14_40  and  C15_43 
REMARK   14  A    between atoms: C15_43  and  O7_44 
REMARK   15  A    between atoms: N7_46  and  N8_47 
REMARK       I    between atoms: N8_47  and  C16_49 
REMARK   16  A    between atoms: C16_49  and  C17_51 
REMARK   17  A    between atoms: C17_51  and  N9_53 
ROOT
HETATM    1  C1  UNL     1      -3.046  -2.084   4.367  1.00  0.00     0.146 C 
HETATM    2  N1  UNL     1      -2.485  -1.817   3.070  1.00  0.00    -0.389 N 
ATOM      3  H1  UNL     1      -2.033  -2.550   2.524  1.00  0.00     0.159 HD
HETATM    4  C2  UNL     1      -2.576  -0.643   2.641  1.00  0.00     0.090 C 
HETATM    5  S1  UNL     1      -3.362   0.716   3.548  1.00  0.00    -0.109 SA
HETATM    6  C3  UNL     1      -3.620   2.031   2.314  1.00  0.00     0.135 C 
HETATM    7  C4  UNL     1      -3.832   1.438   0.989  1.00  0.00     0.301 C 
HETATM    8  N2  UNL     1      -3.712   2.408  -0.116  1.00  0.00     0.000 N 
ATOM      9  H21 UNL     1      -2.755   2.708  -0.303  1.00  0.00     0.284 HD
ATOM     10  H22 UNL     1      -4.082   3.333   0.101  1.00  0.00     0.284 HD
HETATM   11  C5  UNL     1      -4.368   1.754  -1.257  1.00  0.00     0.584 C 
HETATM   12  N4  UNL     1      -3.693   0.500  -1.614  1.00  0.00     0.023 N 
ATOM     13  H41 UNL     1      -2.743   0.636  -1.958  1.00  0.00     0.287 HD
ATOM     14  H42 UNL     1      -4.071   0.063  -2.455  1.00  0.00     0.287 HD
HETATM   15  C6  UNL     1      -3.764  -0.367  -0.422  1.00  0.00     0.432 C 
HETATM   16  N5  UNL     1      -3.076   0.331   0.589  1.00  0.00    -0.306 N 
HETATM   17  C7  UNL     1      -2.046  -0.165   1.305  1.00  0.00     0.191 C 
HETATM   18  C8  UNL     1      -0.977   0.888   1.644  1.00  0.00     0.280 C 
HETATM   19  C9  UNL     1      -0.084  -0.362   1.736  1.00  0.00     0.263 C 
HETATM   20  N7  UNL     1      -1.040  -0.998   0.838  1.00  0.00    -0.159 NA
ENDROOT
BRANCH  18  21
HETATM   21  N6  UNL     1      -0.637   1.785   0.584  1.00  0.00    -0.067 N 
ATOM     22  H63 UNL     1      -0.357   1.258  -0.243  1.00  0.00     0.275 HD
ATOM     23  H62 UNL     1      -1.478   2.242   0.231  1.00  0.00     0.275 HD
ATOM     24  H61 UNL     1       0.072   2.483   0.809  1.00  0.00     0.275 HD
ENDBRANCH  18  21
BRANCH  20  25
HETATM   25  N8  UNL     1      -0.555  -0.955  -0.437  1.00  0.00    -0.282 N 
HETATM   26  C16 UNL     1       0.151  -2.102  -0.932  1.00  0.00     0.262 C 
HETATM   27  O8  UNL     1       0.329  -3.130  -0.229  1.00  0.00    -0.270 OA
ATOM     28  H8  UNL     1      -0.691  -0.130  -1.022  1.00  0.00     0.184 HD
BRANCH  26  29
HETATM   29  C17 UNL     1       0.719  -2.152  -2.307  1.00  0.00     0.272 C 
HETATM   30  C18 UNL     1       0.044  -3.323  -3.035  1.00  0.00     0.050 C 
BRANCH  29  31
HETATM   31  N9  UNL     1       0.491  -0.917  -3.028  1.00  0.00    -0.067 N 
ATOM     32  H93 UNL     1      -0.499  -0.674  -3.044  1.00  0.00     0.275 HD
ATOM     33  H92 UNL     1       0.845  -0.113  -2.509  1.00  0.00     0.275 HD
ATOM     34  H91 UNL     1       0.880  -0.951  -3.970  1.00  0.00     0.275 HD
ENDBRANCH  29  31
ENDBRANCH  26  29
ENDBRANCH  20  25
BRANCH  15  35
HETATM   35  O1  UNL     1      -3.463  -1.662  -0.660  1.00  0.00    -0.354 OA
ATOM     36  H1  UNL     1      -3.509  -2.220   0.107  1.00  0.00     0.213 HD
ENDBRANCH  15  35
BRANCH  19  37
HETATM   37  O2  UNL     1       1.159  -0.015   1.134  1.00  0.00    -0.295 OA
BRANCH  37  38
HETATM   38  C10 UNL     1       2.318  -0.224   1.847  1.00  0.00     0.289 C 
HETATM   39  O3  UNL     1       2.233  -0.715   3.007  1.00  0.00    -0.262 OA
BRANCH  38  40
HETATM   40  C11 UNL     1       3.635   0.119   1.269  1.00  0.00     0.220 C 
BRANCH  40  41
HETATM   41  O4  UNL     1       4.631  -0.159   2.213  1.00  0.00    -0.385 OA
ATOM     42  H4  UNL     1       5.477   0.061   1.842  1.00  0.00     0.210 HD
ENDBRANCH  40  41
BRANCH  40  43
HETATM   43  C12 UNL     1       3.891  -0.624  -0.024  1.00  0.00     0.076 C 
BRANCH  43  44
HETATM   44  C13 UNL     1       5.232  -0.269  -0.605  1.00  0.00     0.151 C 
BRANCH  44  45
HETATM   45  O5  UNL     1       6.212  -0.617   0.336  1.00  0.00    -0.393 OA
ATOM     46  H5  UNL     1       7.059  -0.393  -0.031  1.00  0.00     0.210 HD
ENDBRANCH  44  45
BRANCH  44  47
HETATM   47  C14 UNL     1       5.343   1.194  -0.976  1.00  0.00     0.170 C 
BRANCH  47  48
HETATM   48  O6  UNL     1       6.617   1.465  -1.519  1.00  0.00    -0.391 OA
ATOM     49  H6  UNL     1       6.687   2.383  -1.752  1.00  0.00     0.210 HD
ENDBRANCH  47  48
BRANCH  47  50
HETATM   50  C15 UNL     1       4.368   1.483  -2.111  1.00  0.00     0.198 C 
BRANCH  50  51
HETATM   51  O7  UNL     1       4.631   0.664  -3.182  1.00  0.00    -0.398 OA
ATOM     52  H7  UNL     1       4.023   0.844  -3.890  1.00  0.00     0.209 HD
ENDBRANCH  50  51
ENDBRANCH  47  50
ENDBRANCH  44  47
ENDBRANCH  43  44
ENDBRANCH  40  43
ENDBRANCH  38  40
ENDBRANCH  37  38
ENDBRANCH  19  37
BRANCH  11  53
HETATM   53  N3  UNL     1      -4.365   2.679  -2.346  1.00  0.00    -0.025 N 
ATOM     54  H33 UNL     1      -4.787   3.576  -2.106  1.00  0.00     0.278 HD
ATOM     55  H32 UNL     1      -3.432   3.026  -2.570  1.00  0.00     0.278 HD
ATOM     56  H31 UNL     1      -4.820   2.225  -3.138  1.00  0.00     0.278 HD
ENDBRANCH  11  53
TORSDOF 17
