REMARK  5 active torsions:
REMARK  status: ('A' for Active; 'I' for Inactive)
REMARK    1  A    between atoms: N1_1  and  N2_4 
REMARK    2  A    between atoms: N2_4  and  N3_5 
REMARK    3  A    between atoms: N3_5  and  C1_7 
REMARK    4  A    between atoms: C3_9  and  C4_10 
REMARK    5  A    between atoms: C15_21  and  O1_22 
ROOT
HETATM    1  C1  UNL     1       4.229  -0.016  -0.160  1.00  0.00     0.178 A 
HETATM    2  C2  UNL     1       3.096   0.737   0.015  1.00  0.00     0.075 A 
HETATM    3  C3  UNL     1       2.003  -0.124  -0.158  1.00  0.00     0.029 A 
HETATM    4  C15 UNL     1       2.602  -1.359  -0.438  1.00  0.00     0.196 A 
HETATM    5  O2  UNL     1       3.875  -1.212  -0.434  1.00  0.00    -0.268 OA
ENDROOT
BRANCH   3   6
HETATM    6  C4  UNL     1       0.597   0.261  -0.221  1.00  0.00    -0.060 C 
HETATM    7  C5  UNL     1       0.169   0.897   1.074  1.00  0.00     0.040 C 
HETATM    8  C6  UNL     1      -1.291   1.168   1.175  1.00  0.00    -0.010 C 
HETATM    9  C7  UNL     1      -2.074  -0.045   1.642  1.00  0.00     0.009 C 
HETATM   10  C11 UNL     1      -1.874   1.820  -0.032  1.00  0.00     0.009 C 
HETATM   11  C8  UNL     1      -2.418  -0.940   0.479  1.00  0.00    -0.013 C 
HETATM   12  C9  UNL     1      -3.249  -0.217  -0.528  1.00  0.00     0.009 C 
HETATM   13  C14 UNL     1      -1.151  -1.517  -0.043  1.00  0.00     0.013 C 
HETATM   14  C10 UNL     1      -2.356   0.897  -1.092  1.00  0.00    -0.013 C 
HETATM   15  C12 UNL     1      -1.283   0.203  -1.848  1.00  0.00     0.013 C 
HETATM   16  C13 UNL     1      -0.355  -0.601  -0.921  1.00  0.00     0.016 C 
ENDBRANCH   3   6
BRANCH   4  17
HETATM   17  O1  UNL     1       1.870  -2.460  -0.656  1.00  0.00    -0.340 OA
ATOM     18  H1  UNL     1       2.276  -3.298  -0.846  1.00  0.00     0.220 HD
ENDBRANCH   4  17
BRANCH   1  19
HETATM   19  N3  UNL     1       5.612   0.454  -0.055  1.00  0.00    -0.193 N 
ATOM     20  H3  UNL     1       6.102   0.896  -0.833  1.00  0.00     0.206 HD
BRANCH  19  21
HETATM   21  N2  UNL     1       6.151   0.270   1.073  1.00  0.00    -0.242 NA
BRANCH  21  22
HETATM   22  N1  UNL     1       6.572  -0.171   2.141  1.00  0.00    -0.260 N 
ATOM     23  H12 UNL     1       6.167  -1.089   1.957  1.00  0.00     0.193 HD
ATOM     24  H11 UNL     1       7.007  -0.320   3.052  1.00  0.00     0.193 HD
ENDBRANCH  21  22
ENDBRANCH  19  21
ENDBRANCH   1  19
TORSDOF 5
