REMARK  3 active torsions:
REMARK  status: ('A' for Active; 'I' for Inactive)
REMARK    1  A    between atoms: C3_3  and  C4_4 
REMARK    2  A    between atoms: C4_4  and  C5_5 
REMARK    3  A    between atoms: C5_5  and  C6_6 
ROOT
HETATM    1  C1  UNL     1       4.510   0.453   1.485  1.00  0.00     0.012 C 
HETATM    2  C2  UNL     1       3.651  -0.105   0.832  1.00  0.00    -0.117 C 
HETATM    3  C3  UNL     1       2.633  -0.789   0.031  1.00  0.00     0.093 C 
ENDROOT
BRANCH   3   4
HETATM    4  C4  UNL     1       1.260  -0.125   0.213  1.00  0.00     0.012 C 
BRANCH   4   5
HETATM    5  C5  UNL     1       0.298  -0.882  -0.633  1.00  0.00     0.007 C 
BRANCH   5   6
HETATM    6  C6  UNL     1      -1.106  -0.388  -0.595  1.00  0.00     0.013 C 
HETATM    7  C7  UNL     1      -1.296   1.021  -1.044  1.00  0.00     0.034 C 
HETATM    8  C8  UNL     1      -2.728   1.238  -0.594  1.00  0.00     0.232 C 
HETATM    9  N1  UNL     1      -2.922   0.430   0.569  1.00  0.00    -0.075 N 
HETATM   10  C9  UNL     1      -1.713  -0.349   0.780  1.00  0.00     0.237 C 
ATOM     11  H12 UNL     1      -3.188   0.975   1.389  1.00  0.00     0.277 HD
ATOM     12  H11 UNL     1      -3.760  -0.149   0.512  1.00  0.00     0.277 HD
ENDBRANCH   5   6
ENDBRANCH   4   5
ENDBRANCH   3   4
TORSDOF 3
