REMARK  11 active torsions:
REMARK  status: ('A' for Active; 'I' for Inactive)
REMARK    1  A    between atoms: C2_2  and  C3_3 
REMARK    2  A    between atoms: C3_3  and  O1_4 
REMARK    3  A    between atoms: O1_4  and  C4_5 
REMARK    4  A    between atoms: C4_5  and  C5_6 
REMARK    5  A    between atoms: C5_6  and  N1_7 
REMARK    6  A    between atoms: N1_7  and  C6_10 
REMARK    7  A    between atoms: C6_10  and  C7_11 
REMARK    8  A    between atoms: C7_11  and  S1_12 
REMARK    9  A    between atoms: S1_12  and  N2_15 
REMARK   10  A    between atoms: N2_15  and  C8_17 
REMARK   11  A    between atoms: N4_25  and  N5_26 
ROOT
HETATM    1  C8  UNL     1      -1.645   0.716  -0.182  1.00  0.00     0.047 C 
HETATM    2  C9  UNL     1      -2.050   1.864   0.767  1.00  0.00     0.033 C 
HETATM    3  C10 UNL     1      -2.345   0.855   1.846  1.00  0.00     0.011 C 
HETATM    4  C11 UNL     1      -1.666  -0.176   0.970  1.00  0.00     0.033 C 
HETATM    5  C12 UNL     1      -2.358  -1.463   0.887  1.00  0.00     0.138 C 
HETATM    6  N3  UNL     1      -3.792  -1.299   0.855  1.00  0.00    -0.320 N 
HETATM    7  C13 UNL     1      -4.448  -0.516  -0.003  1.00  0.00     0.091 A 
HETATM    8  C14 UNL     1      -5.800  -0.602   0.250  1.00  0.00     0.151 A 
HETATM    9  N4  UNL     1      -5.946  -1.448   1.275  1.00  0.00    -0.218 N 
HETATM   10  C15 UNL     1      -4.721  -1.869   1.639  1.00  0.00     0.201 A 
HETATM   11  S2  UNL     1      -4.387  -2.929   2.865  1.00  0.00    -0.038 SA
HETATM   12  N6  UNL     1      -6.653   0.182  -0.587  1.00  0.00    -0.350 N 
ATOM     13  H6  UNL     1      -7.655  -0.009  -0.566  1.00  0.00     0.162 HD
HETATM   14  C16 UNL     1      -6.176   1.234  -1.465  1.00  0.00     0.357 C 
HETATM   15  N7  UNL     1      -4.817   1.566  -0.981  1.00  0.00    -0.050 N 
ATOM     16  H71 UNL     1      -4.811   1.958  -0.039  1.00  0.00     0.280 HD
ATOM     17  H72 UNL     1      -4.406   2.369  -1.458  1.00  0.00     0.280 HD
HETATM   18  C17 UNL     1      -4.026   0.371  -1.101  1.00  0.00     0.243 C 
HETATM   19  C18 UNL     1      -2.586   0.500  -1.304  1.00  0.00     0.071 C 
ENDROOT
BRANCH   1  20
HETATM   20  N2  UNL     1      -0.360   1.110  -0.717  1.00  0.00    -0.309 N 
ATOM     21  H2  UNL     1      -0.000   2.039  -0.496  1.00  0.00     0.173 HD
BRANCH  20  22
HETATM   22  S1  UNL     1       0.538   0.123  -1.663  1.00  0.00     0.228 S 
HETATM   23  O2  UNL     1       0.010  -1.138  -2.188  1.00  0.00    -0.206 OA
HETATM   24  O3  UNL     1       1.064   0.904  -2.865  1.00  0.00    -0.206 OA
BRANCH  22  25
HETATM   25  C7  UNL     1       2.034  -0.327  -0.751  1.00  0.00     0.190 C 
BRANCH  25  26
HETATM   26  C6  UNL     1       2.818   0.924  -0.414  1.00  0.00     0.249 C 
BRANCH  26  27
HETATM   27  N1  UNL     1       4.023   0.631   0.313  1.00  0.00    -0.072 N 
ATOM     28  H12 UNL     1       3.823   0.116   1.171  1.00  0.00     0.277 HD
ATOM     29  H11 UNL     1       4.424   1.475   0.722  1.00  0.00     0.277 HD
BRANCH  27  30
HETATM   30  C5  UNL     1       4.992  -0.068  -0.507  1.00  0.00     0.258 C 
BRANCH  30  31
HETATM   31  C4  UNL     1       6.238  -0.337   0.327  1.00  0.00     0.195 C 
BRANCH  31  32
HETATM   32  O1  UNL     1       6.781   0.862   0.768  1.00  0.00    -0.386 OA
BRANCH  32  33
HETATM   33  C3  UNL     1       7.915   0.588   1.524  1.00  0.00     0.194 C 
BRANCH  33  34
HETATM   34  C2  UNL     1       8.954  -0.135   0.755  1.00  0.00    -0.011 C 
HETATM   35  C1  UNL     1       9.355  -1.331   1.163  1.00  0.00     0.009 C 
ENDBRANCH  33  34
ENDBRANCH  32  33
ENDBRANCH  31  32
ENDBRANCH  30  31
ENDBRANCH  27  30
ENDBRANCH  26  27
ENDBRANCH  25  26
ENDBRANCH  22  25
ENDBRANCH  20  22
ENDBRANCH   1  20
BRANCH   9  36
HETATM   36  N5  UNL     1      -7.184  -1.803   1.836  1.00  0.00    -0.335 N 
ATOM     37  H52 UNL     1      -8.113  -1.484   1.560  1.00  0.00     0.177 HD
ATOM     38  H51 UNL     1      -7.295  -2.448   2.618  1.00  0.00     0.177 HD
ENDBRANCH   9  36
TORSDOF 11
