REMARK  6 active torsions:
REMARK  status: ('A' for Active; 'I' for Inactive)
REMARK    1  A    between atoms: C1_2  and  N2_4 
REMARK    2  A    between atoms: N3_6  and  C2_8 
REMARK    3  A    between atoms: C3_9  and  O1_10 
REMARK    4  A    between atoms: N4_12  and  C4_13 
REMARK    5  A    between atoms: C4_13  and  C5_14 
REMARK    6  A    between atoms: C5_14  and  N5_15 
ROOT
HETATM    1  C2  UNL     1       2.871  -0.118   0.023  1.00  0.00     0.135 A 
HETATM    2  C3  UNL     1       1.608  -0.091   0.570  1.00  0.00     0.174 A 
HETATM    3  N4  UNL     1       0.778   0.499  -0.298  1.00  0.00    -0.322 N 
HETATM    4  C10 UNL     1       1.422   0.872  -1.405  1.00  0.00     0.075 A 
HETATM    5  C11 UNL     1       1.362   1.473  -2.658  1.00  0.00     0.057 A 
HETATM    6  C12 UNL     1       2.641   1.414  -3.144  1.00  0.00     0.145 A 
HETATM    7  O3  UNL     1       3.434   0.833  -2.281  1.00  0.00    -0.318 OA
HETATM    8  C13 UNL     1       2.729   0.495  -1.222  1.00  0.00     0.134 A 
ENDROOT
BRANCH   3   9
HETATM    9  C4  UNL     1      -0.632   0.713  -0.061  1.00  0.00     0.161 C 
BRANCH   9  10
HETATM   10  C5  UNL     1      -1.493  -0.415  -0.557  1.00  0.00     0.292 C 
BRANCH  10  11
HETATM   11  N5  UNL     1      -2.883  -0.097  -0.260  1.00  0.00     0.094 N 
HETATM   12  C6  UNL     1      -3.781  -1.002  -0.991  1.00  0.00     0.298 C 
HETATM   13  C7  UNL     1      -5.191  -0.543  -0.669  1.00  0.00     0.198 C 
HETATM   14  O2  UNL     1      -5.446  -0.609   0.702  1.00  0.00    -0.388 OA
HETATM   15  C8  UNL     1      -4.545   0.171   1.427  1.00  0.00     0.198 C 
HETATM   16  C9  UNL     1      -3.141  -0.332   1.175  1.00  0.00     0.298 C 
ENDBRANCH  10  11
ENDBRANCH   9  10
ENDBRANCH   3   9
BRANCH   2  17
HETATM   17  O1  UNL     1       1.302  -0.613   1.837  1.00  0.00    -0.344 OA
ATOM     18  H1  UNL     1       0.430  -0.594   2.214  1.00  0.00     0.219 HD
ENDBRANCH   2  17
BRANCH   1  19
HETATM   19  N3  UNL     1       4.014  -0.658   0.663  1.00  0.00    -0.292 N 
HETATM   20  N2  UNL     1       4.747   0.083   1.404  1.00  0.00    -0.278 N 
ATOM     21  H2  UNL     1       4.536   1.069   1.556  1.00  0.00     0.189 HD
ATOM     22  H3  UNL     1       4.253  -1.641   0.532  1.00  0.00     0.187 HD
BRANCH  20  23
HETATM   23  C1  UNL     1       5.871  -0.545   2.003  1.00  0.00     0.199 C 
HETATM   24  N1  UNL     1       7.159  -0.004   1.846  1.00  0.00    -0.068 NA
HETATM   25  S1  UNL     1       5.706  -1.918   2.899  1.00  0.00    -0.043 SA
ENDBRANCH  20  23
ENDBRANCH   1  19
TORSDOF 6
