REMARK  10 active torsions:
REMARK  status: ('A' for Active; 'I' for Inactive)
REMARK    1  A    between atoms: C11_11  and  C12_12 
REMARK       I    between atoms: C12_12  and  N1_14 
REMARK    2  A    between atoms: N1_14  and  C13_16 
REMARK    3  A    between atoms: C13_16  and  C14_17 
REMARK    4  A    between atoms: C14_17  and  C15_18 
REMARK    5  A    between atoms: C15_18  and  C16_19 
REMARK    6  A    between atoms: C16_19  and  C17_20 
REMARK       I    between atoms: C17_20  and  N2_22 
REMARK    7  A    between atoms: N2_22  and  C18_24 
REMARK    8  A    between atoms: C18_24  and  C19_25 
REMARK    9  A    between atoms: C19_25  and  C20_26 
REMARK   10  A    between atoms: C20_26  and  N3_27 
ROOT
HETATM    1  C12 UNL     1      -1.858   1.384   1.592  1.00  0.00     0.222 C 
HETATM    2  O1  UNL     1      -2.277   2.383   2.199  1.00  0.00    -0.273 OA
HETATM    3  N1  UNL     1      -0.627   0.739   1.838  1.00  0.00    -0.361 N 
ATOM      4  H1  UNL     1      -0.365  -0.081   1.290  1.00  0.00     0.162 HD
ENDROOT
BRANCH   3   5
HETATM    5  C13 UNL     1       0.259   1.232   2.857  1.00  0.00     0.122 C 
BRANCH   5   6
HETATM    6  C14 UNL     1       0.685   2.627   2.534  1.00  0.00     0.020 C 
BRANCH   6   7
HETATM    7  C15 UNL     1       1.392   2.677   1.201  1.00  0.00     0.011 C 
BRANCH   7   8
HETATM    8  C16 UNL     1       2.619   1.813   1.198  1.00  0.00     0.103 C 
BRANCH   8   9
HETATM    9  C17 UNL     1       3.267   1.906  -0.118  1.00  0.00     0.217 C 
HETATM   10  O2  UNL     1       2.786   2.619  -1.013  1.00  0.00    -0.274 OA
HETATM   11  N2  UNL     1       4.456   1.173  -0.368  1.00  0.00    -0.361 N 
ATOM     12  H2  UNL     1       4.842   0.592   0.376  1.00  0.00     0.162 HD
BRANCH  11  13
HETATM   13  C18 UNL     1       5.139   1.222  -1.641  1.00  0.00     0.124 C 
BRANCH  13  14
HETATM   14  C19 UNL     1       6.346   0.330  -1.589  1.00  0.00     0.050 C 
BRANCH  14  15
HETATM   15  C20 UNL     1       5.915  -1.071  -1.341  1.00  0.00     0.273 C 
BRANCH  15  16
HETATM   16  N3  UNL     1       7.024  -2.006  -1.281  1.00  0.00     0.080 N 
HETATM   17  C21 UNL     1       6.455  -3.324  -1.035  1.00  0.00     0.309 C 
HETATM   18  C22 UNL     1       7.842  -1.628  -0.144  1.00  0.00     0.309 C 
ENDBRANCH  15  16
ENDBRANCH  14  15
ENDBRANCH  13  14
ENDBRANCH  11  13
ENDBRANCH   8   9
ENDBRANCH   7   8
ENDBRANCH   6   7
ENDBRANCH   5   6
ENDBRANCH   3   5
BRANCH   1  19
HETATM   19  C11 UNL     1      -2.716   0.816   0.518  1.00  0.00     0.085 C 
HETATM   20  C7  UNL     1      -3.097  -0.598   0.794  1.00  0.00     0.004 C 
HETATM   21  C6  UNL     1      -3.319  -1.600  -0.247  1.00  0.00     0.046 C 
HETATM   22  C8  UNL     1      -4.524  -0.331   1.197  1.00  0.00     0.047 C 
HETATM   23  C4  UNL     1      -4.528  -1.661  -1.041  1.00  0.00     0.093 C 
HETATM   24  C3  UNL     1      -5.908  -1.372  -0.629  1.00  0.00     0.048 C 
HETATM   25  C5  UNL     1      -4.522  -2.937  -1.870  1.00  0.00     0.049 C 
HETATM   26  O4  UNL     1      -4.361  -0.607  -2.001  1.00  0.00    -0.229 OA
HETATM   27  C2  UNL     1      -6.147   0.142  -0.319  1.00  0.00     0.022 C 
HETATM   28  C1  UNL     1      -6.857   0.842  -1.421  1.00  0.00     0.013 C 
HETATM   29  C9  UNL     1      -4.827   0.502  -0.040  1.00  0.00     0.101 C 
HETATM   30  C10 UNL     1      -4.060   1.635   0.452  1.00  0.00     0.056 C 
HETATM   31  O3  UNL     1      -4.107   0.338  -1.202  1.00  0.00    -0.228 OA
ENDBRANCH   1  19
TORSDOF 10
