REMARK  4 active torsions:
REMARK  status: ('A' for Active; 'I' for Inactive)
REMARK    1  A    between atoms: N1_1  and  N2_4 
REMARK       I    between atoms: N2_4  and  C1_6 
REMARK       I    between atoms: C1_6  and  N3_8 
REMARK    2  A    between atoms: C3_15  and  N6_16 
REMARK    3  A    between atoms: N6_16  and  N7_18 
REMARK    4  A    between atoms: N7_18  and  O3_20 
ROOT
HETATM    1  N2  UNL     1      -2.201  -0.454  -0.097  1.00  0.00    -0.257 N 
ATOM      2  H2  UNL     1      -2.179  -1.438  -0.364  1.00  0.00     0.191 HD
HETATM    3  C1  UNL     1      -0.992   0.255   0.121  1.00  0.00     0.363 C 
HETATM    4  O1  UNL     1      -1.086   1.493   0.455  1.00  0.00    -0.244 OA
HETATM    5  N3  UNL     1       0.305  -0.284   0.002  1.00  0.00    -0.038 N 
HETATM    6  C2  UNL     1       0.574  -1.559  -0.339  1.00  0.00     0.364 A 
HETATM    7  O2  UNL     1      -0.225  -2.501  -0.611  1.00  0.00    -0.244 OA
HETATM    8  N4  UNL     1       1.923  -1.698  -0.348  1.00  0.00    -0.236 N 
ATOM      9  H4  UNL     1       2.415  -2.563  -0.572  1.00  0.00     0.192 HD
HETATM   10  N5  UNL     1       2.502  -0.584  -0.034  1.00  0.00    -0.126 N 
ATOM     11  H5  UNL     1       3.506  -0.417   0.032  1.00  0.00     0.206 HD
HETATM   12  C3  UNL     1       1.500   0.330   0.193  1.00  0.00     0.728 A 
ENDROOT
BRANCH  12  13
HETATM   13  N6  UNL     1       1.778   1.487   0.513  1.00  0.00    -0.110 N 
ATOM     14  H6  UNL     1       2.797   1.524   0.545  1.00  0.00     0.207 HD
BRANCH  13  15
HETATM   15  N7  UNL     1       1.377   2.679   0.828  1.00  0.00    -0.196 N 
ATOM     16  H7  UNL     1       0.844   2.785   1.691  1.00  0.00     0.216 HD
BRANCH  15  17
HETATM   17  O3  UNL     1       1.595   3.712   0.151  1.00  0.00    -0.274 OA
ATOM     18  H3  UNL     1       1.301   4.585   0.382  1.00  0.00     0.246 HD
ENDBRANCH  15  17
ENDBRANCH  13  15
ENDBRANCH  12  13
BRANCH   1  19
HETATM   19  N1  UNL     1      -3.419   0.205   0.056  1.00  0.00    -0.341 N 
ATOM     20  H12 UNL     1      -3.424   1.189   0.323  1.00  0.00     0.177 HD
ATOM     21  H11 UNL     1      -4.288  -0.305  -0.101  1.00  0.00     0.177 HD
ENDBRANCH   1  19
TORSDOF 4
