REMARK  5 active torsions:
REMARK  status: ('A' for Active; 'I' for Inactive)
REMARK    1  A    between atoms: C2_2  and  O1_3 
REMARK    2  A    between atoms: C2_2  and  C3_5 
REMARK    3  A    between atoms: C4_7  and  C5_8 
REMARK    4  A    between atoms: C6_10  and  O3_11 
REMARK    5  A    between atoms: C7_13  and  O4_14 
ROOT
HETATM    1  C3  UNL     1       0.518  -0.379  -0.544  1.00  0.00     0.181 C 
HETATM    2  O2  UNL     1      -0.464  -1.244  -0.020  1.00  0.00    -0.372 OA
HETATM    3  C4  UNL     1      -1.628  -0.498  -0.313  1.00  0.00     0.163 C 
HETATM    4  C6  UNL     1      -1.272   0.793   0.396  1.00  0.00     0.179 C 
HETATM    5  C7  UNL     1       0.131   1.000  -0.189  1.00  0.00     0.180 C 
ENDROOT
BRANCH   1   6
HETATM    6  C2  UNL     1       1.884  -0.811  -0.131  1.00  0.00     0.145 C 
HETATM    7  C1  UNL     1       2.939   0.078  -0.747  1.00  0.00     0.042 C 
BRANCH   6   8
HETATM    8  O1  UNL     1       2.091  -0.833   1.238  1.00  0.00    -0.393 OA
ATOM      9  H1  UNL     1       1.428  -1.392   1.625  1.00  0.00     0.210 HD
ENDBRANCH   6   8
ENDBRANCH   1   6
BRANCH   5  10
HETATM   10  O4  UNL     1       0.957   1.645   0.706  1.00  0.00    -0.390 OA
ATOM     11  H4  UNL     1       0.708   2.533   0.935  1.00  0.00     0.210 HD
ENDBRANCH   5  10
BRANCH   3  12
HETATM   12  C5  UNL     1      -2.856  -1.150   0.266  1.00  0.00     0.120 C 
HETATM   13 BR1  UNL     1      -2.667  -1.271   2.181  1.00  0.00    -0.094 Br
ENDBRANCH   3  12
BRANCH   4  14
HETATM   14  O3  UNL     1      -2.124   1.828   0.065  1.00  0.00    -0.390 OA
ATOM     15  H3  UNL     1      -1.901   2.637   0.510  1.00  0.00     0.210 HD
ENDBRANCH   4  14
TORSDOF 5
