REMARK  4 active torsions:
REMARK  status: ('A' for Active; 'I' for Inactive)
REMARK    1  A    between atoms: C2_2  and  C4_5 
REMARK    2  A    between atoms: C5_7  and  C7_9 
REMARK    3  A    between atoms: C8_12  and  C9_13 
REMARK    4  A    between atoms: C10_16  and  O6_17 
ROOT
HETATM    1  C4  UNL     1       0.782  -0.059  -0.217  1.00  0.00     0.192 C 
HETATM    2  O1  UNL     1       0.053  -1.172   0.145  1.00  0.00    -0.357 OA
HETATM    3  C5  UNL     1      -1.238  -0.893  -0.277  1.00  0.00     0.161 C 
HETATM    4  C6  UNL     1      -1.330  -0.905  -1.805  1.00  0.00     0.059 C 
HETATM    5  C8  UNL     1      -1.463   0.512   0.163  1.00  0.00     0.163 C 
HETATM    6  C10 UNL     1      -0.074   1.131  -0.045  1.00  0.00     0.168 C 
ENDROOT
BRANCH   1   7
HETATM    7  C2  UNL     1       2.126   0.012   0.450  1.00  0.00     0.124 C 
HETATM    8  C1  UNL     1       2.846   1.268  -0.013  1.00  0.00     0.054 C 
HETATM    9  C3  UNL     1       3.010  -1.155   0.064  1.00  0.00     0.054 C 
HETATM   10  F1  UNL     1       2.065   0.054   1.811  1.00  0.00    -0.241 F 
ENDBRANCH   1   7
BRANCH   6  11
HETATM   11  O6  UNL     1       0.197   1.900   1.066  1.00  0.00    -0.392 OA
ATOM     12  H6  UNL     1      -0.354   2.666   1.177  1.00  0.00     0.210 HD
ENDBRANCH   6  11
BRANCH   3  13
HETATM   13  C7  UNL     1      -2.206  -1.876   0.214  1.00  0.00     0.209 C 
HETATM   14  O2  UNL     1      -1.913  -2.875   0.938  1.00  0.00    -0.646 OA
HETATM   15  O3  UNL     1      -3.547  -1.737  -0.118  1.00  0.00    -0.646 OA
ENDBRANCH   3  13
BRANCH   5  16
HETATM   16  C9  UNL     1      -1.879   0.646   1.572  1.00  0.00     0.183 C 
HETATM   17  O4  UNL     1      -2.024  -0.345   2.321  1.00  0.00    -0.648 OA
HETATM   18  O5  UNL     1      -2.121   1.902   2.104  1.00  0.00    -0.648 OA
ENDBRANCH   5  16
TORSDOF 4
