REMARK  1 active torsions:
REMARK  status: ('A' for Active; 'I' for Inactive)
REMARK       I    between atoms: N1_2  and  C2_3 
REMARK    1  A    between atoms: N1_2  and  C3_6 
ROOT
HETATM    1  C1  UNL     1       0.113   1.755  -0.095  1.00  0.00     0.154 C 
HETATM    2  N1  UNL     1       0.504   0.371  -0.109  1.00  0.00    -0.336 N 
HETATM    3  C2  UNL     1       1.813   0.018  -0.471  1.00  0.00     0.330 C 
HETATM    4  N2  UNL     1       2.180  -1.343  -0.479  1.00  0.00    -0.040 NA
HETATM    5  O1  UNL     1       2.651   0.889  -0.785  1.00  0.00    -0.251 OA
ENDROOT
BRANCH   2   6
HETATM    6  C3  UNL     1      -0.435  -0.667   0.247  1.00  0.00     0.088 A 
HETATM    7  C4  UNL     1      -1.559  -0.368   1.165  1.00  0.00     0.027 A 
HETATM    8  C5  UNL     1      -1.843  -0.401  -0.306  1.00  0.00     0.027 A 
ENDBRANCH   2   6
TORSDOF 1
