REMARK  3 active torsions:
REMARK  status: ('A' for Active; 'I' for Inactive)
REMARK       I    between atoms: C1_4  and  N3_6 
REMARK    1  A    between atoms: N3_6  and  N4_8 
REMARK       I    between atoms: N4_8  and  C2_10 
REMARK    2  A    between atoms: C2_10  and  C3_12 
REMARK       I    between atoms: C3_12  and  N5_14 
REMARK    3  A    between atoms: N5_14  and  C4_16 
ROOT
HETATM    1  N4  UNL     1       0.025  -1.342  -0.286  1.00  0.00    -0.259 N 
ATOM      2  H4  UNL     1      -0.225  -2.249  -0.680  1.00  0.00     0.190 HD
HETATM    3  C2  UNL     1      -0.998  -0.342  -0.183  1.00  0.00     0.328 C 
HETATM    4  O1  UNL     1      -0.685   0.792   0.309  1.00  0.00    -0.261 OA
ENDROOT
BRANCH   1   5
HETATM    5  N3  UNL     1       1.327  -1.145   0.118  1.00  0.00    -0.271 N 
HETATM    6  C1  UNL     1       1.952   0.095   0.375  1.00  0.00     0.200 C 
HETATM    7  N1  UNL     1       2.116   0.453   1.624  1.00  0.00    -0.372 N 
HETATM    8  N2  UNL     1       2.417   0.981  -0.625  1.00  0.00    -0.062 NA
ATOM      9  H12 UNL     1       2.567   1.349   1.810  1.00  0.00     0.158 HD
ATOM     10  H11 UNL     1       1.781  -0.186   2.345  1.00  0.00     0.158 HD
ATOM     11  H3  UNL     1       1.898  -1.980   0.245  1.00  0.00     0.189 HD
ENDBRANCH   1   5
BRANCH   3  12
HETATM   12  C3  UNL     1      -2.354  -0.566  -0.611  1.00  0.00     0.317 C 
HETATM   13  O2  UNL     1      -2.692  -1.667  -1.090  1.00  0.00    -0.262 OA
HETATM   14  N5  UNL     1      -3.323   0.448  -0.500  1.00  0.00    -0.297 N 
ATOM     15  H5  UNL     1      -4.251   0.273  -0.885  1.00  0.00     0.171 HD
BRANCH  14  16
HETATM   16  C4  UNL     1      -3.101   1.581   0.060  1.00  0.00     0.355 C 
HETATM   17  O3  UNL     1      -3.299   2.521   0.844  1.00  0.00    -0.283 OA
ENDBRANCH  14  16
ENDBRANCH   3  12
TORSDOF 3
