REMARK  2 active torsions:
REMARK  status: ('A' for Active; 'I' for Inactive)
REMARK    1  A    between atoms: C2_2  and  C4_10 
REMARK    2  A    between atoms: N1_3  and  N2_5 
REMARK       I    between atoms: C4_10  and  N5_12 
ROOT
HETATM    1  C4  UNL     1       0.217  -1.332   1.209  1.00  0.00     0.269 C 
HETATM    2  O1  UNL     1       0.672  -2.364   1.738  1.00  0.00    -0.266 OA
HETATM    3  N5  UNL     1       0.873  -0.111   1.370  1.00  0.00    -0.313 N 
ATOM      4  H5  UNL     1       0.515   0.501   2.103  1.00  0.00     0.169 HD
HETATM    5  C5  UNL     1       1.863   0.324   0.709  1.00  0.00     0.173 A 
HETATM    6  C6  UNL     1       2.403   1.637   1.039  1.00  0.00     0.292 A 
HETATM    7  O2  UNL     1       1.851   2.291   1.981  1.00  0.00    -0.265 OA
HETATM    8  N6  UNL     1       3.511   2.195   0.346  1.00  0.00    -0.154 N 
ATOM      9  H6  UNL     1       3.858   3.118   0.608  1.00  0.00     0.187 HD
HETATM   10  C7  UNL     1       4.138   1.484  -0.704  1.00  0.00     0.681 A 
HETATM   11  N7  UNL     1       5.161   2.004  -1.341  1.00  0.00    -0.234 N 
ATOM     12  H71 UNL     1       5.613   1.491  -2.098  1.00  0.00     0.174 HD
ATOM     13  H72 UNL     1       5.529   2.924  -1.100  1.00  0.00     0.174 HD
HETATM   14  N8  UNL     1       3.624   0.199  -1.041  1.00  0.00    -0.154 N 
ATOM     15  H8  UNL     1       4.071  -0.319  -1.797  1.00  0.00     0.187 HD
HETATM   16  C8  UNL     1       2.517  -0.398  -0.374  1.00  0.00     0.292 A 
HETATM   17  O3  UNL     1       2.061  -1.532  -0.668  1.00  0.00    -0.265 OA
ENDROOT
BRANCH   1  18
HETATM   18  C2  UNL     1      -0.997  -1.411   0.427  1.00  0.00     0.089 C 
HETATM   19  C1  UNL     1      -1.704  -2.699   0.247  1.00  0.00     0.076 C 
HETATM   20  N1  UNL     1      -1.491  -0.336  -0.137  1.00  0.00    -0.298 N 
ATOM     21  H1  UNL     1      -1.010   0.556  -0.018  1.00  0.00     0.187 HD
BRANCH  20  22
HETATM   22  N2  UNL     1      -2.644  -0.385  -0.886  1.00  0.00    -0.276 N 
HETATM   23  C3  UNL     1      -3.674   0.317  -0.558  1.00  0.00     0.215 C 
HETATM   24  N3  UNL     1      -4.883   0.295  -1.302  1.00  0.00    -0.065 NA
HETATM   25  N4  UNL     1      -3.619   1.155   0.595  1.00  0.00    -0.065 NA
ATOM     26  H2  UNL     1      -2.684  -0.984  -1.711  1.00  0.00     0.189 HD
ENDBRANCH  20  22
ENDBRANCH   1  18
TORSDOF 2
