REMARK  3 active torsions:
REMARK  status: ('A' for Active; 'I' for Inactive)
REMARK    1  A    between atoms: O1_2  and  C2_3 
REMARK    2  A    between atoms: C2_3  and  C3_4 
REMARK    3  A    between atoms: C14_17  and  S1_18 
ROOT
HETATM    1  C3  UNL     1       3.016   1.143  -0.051  1.00  0.00     0.067 C 
HETATM    2  C4  UNL     1       2.929   0.016   0.637  1.00  0.00     0.015 C 
HETATM    3  C5  UNL     1       2.234  -0.942  -0.244  1.00  0.00     0.051 C 
HETATM    4  C6  UNL     1       1.397  -1.988   0.399  1.00  0.00     0.034 C 
HETATM    5  C7  UNL     1       2.166  -3.309   0.158  1.00  0.00     0.010 C 
HETATM    6  C8  UNL     1       1.925  -3.879  -1.188  1.00  0.00     0.031 C 
HETATM    7  C9  UNL     1       1.443  -2.940  -2.252  1.00  0.00     0.277 C 
HETATM    8  N1  UNL     1       0.479  -2.019  -1.791  1.00  0.00     0.129 N 
HETATM    9  C10 UNL     1       0.687  -0.618  -2.134  1.00  0.00     0.396 C 
HETATM   10  O2  UNL     1      -0.665  -0.101  -2.111  1.00  0.00    -0.313 OA
HETATM   11  C11 UNL     1      -1.371  -0.370  -0.921  1.00  0.00     0.081 A 
HETATM   12  C12 UNL     1      -2.453   0.466  -0.659  1.00  0.00     0.051 A 
HETATM   13  C13 UNL     1      -3.182   0.254   0.490  1.00  0.00    -0.002 A 
HETATM   14  C14 UNL     1      -4.269   1.035   0.820  1.00  0.00     0.071 A 
HETATM   15  C16 UNL     1      -4.987   0.795   1.979  1.00  0.00     0.043 A 
HETATM   16  C17 UNL     1      -4.664  -0.216   2.856  1.00  0.00     0.013 A 
HETATM   17 BR1  UNL     1      -5.681  -0.520   4.455  1.00  0.00    -0.051 Br
HETATM   18  C18 UNL     1      -3.584  -1.000   2.540  1.00  0.00     0.031 A 
HETATM   19  C19 UNL     1      -2.852  -0.774   1.381  1.00  0.00    -0.022 A 
HETATM   20  C20 UNL     1      -1.771  -1.568   1.067  1.00  0.00     0.024 A 
HETATM   21  C21 UNL     1      -1.013  -1.399  -0.062  1.00  0.00     0.010 A 
HETATM   22  C22 UNL     1       0.130  -2.226  -0.426  1.00  0.00     0.266 C 
HETATM   23  C23 UNL     1       1.388   0.041  -1.023  1.00  0.00     0.196 C 
HETATM   24  O5  UNL     1       2.411   0.968  -1.318  1.00  0.00    -0.343 OA
ENDROOT
BRANCH  14  25
HETATM   25  S1  UNL     1      -4.722   2.348  -0.236  1.00  0.00     0.172 S 
HETATM   26  C15 UNL     1      -3.463   3.587  -0.382  1.00  0.00     0.167 C 
HETATM   27  O3  UNL     1      -5.934   3.011   0.342  1.00  0.00    -0.223 OA
HETATM   28  O4  UNL     1      -5.125   1.817  -1.590  1.00  0.00    -0.223 OA
ENDBRANCH  14  25
BRANCH   1  29
HETATM   29  C2  UNL     1       3.666   2.394   0.481  1.00  0.00     0.231 C 
BRANCH  29  30
HETATM   30  O1  UNL     1       4.733   2.762  -0.339  1.00  0.00    -0.390 OA
HETATM   31  C1  UNL     1       5.284   3.919   0.209  1.00  0.00     0.201 C 
ENDBRANCH  29  30
ENDBRANCH   1  29
TORSDOF 3
