REMARK  10 active torsions:
REMARK  status: ('A' for Active; 'I' for Inactive)
REMARK    1  A    between atoms: C8_8  and  O1_9 
REMARK    2  A    between atoms: C9_13  and  C10_14 
REMARK    3  A    between atoms: C10_14  and  C11_15 
REMARK    4  A    between atoms: C11_15  and  C12_16 
REMARK    5  A    between atoms: C12_16  and  N2_17 
REMARK    6  A    between atoms: N5_24  and  C15_25 
REMARK    7  A    between atoms: C15_25  and  C16_26 
REMARK    8  A    between atoms: C16_26  and  C17_27 
REMARK    9  A    between atoms: C17_27  and  C18_28 
REMARK   10  A    between atoms: C18_28  and  S1_29 
ROOT
HETATM    1  C1  UNL     1      -4.127   2.270  -1.017  1.00  0.00     0.024 C 
HETATM    2  C2  UNL     1      -2.619   2.055  -0.862  1.00  0.00     0.097 C 
HETATM    3  C3  UNL     1      -1.968   3.309  -0.362  1.00  0.00    -0.017 C 
HETATM    4  C4  UNL     1      -1.137   4.207  -0.727  1.00  0.00    -0.030 C 
HETATM    5  C5  UNL     1      -0.492   5.449  -0.198  1.00  0.00     0.027 C 
HETATM    6  C6  UNL     1       1.031   5.317  -0.208  1.00  0.00     0.012 C 
HETATM    7  C7  UNL     1       1.600   4.320   0.815  1.00  0.00     0.084 C 
HETATM    8  C8  UNL     1       1.261   2.934   0.456  1.00  0.00     0.111 C 
HETATM    9  N1  UNL     1       0.757   1.806   0.990  1.00  0.00    -0.361 N 
ATOM     10  H1  UNL     1      -0.103   2.074   1.469  1.00  0.00     0.162 HD
HETATM   11  C9  UNL     1       0.899   0.407   1.178  1.00  0.00     0.176 C 
HETATM   12  C14 UNL     1      -0.202  -0.317   0.381  1.00  0.00     0.249 C 
HETATM   13  O2  UNL     1       0.282  -1.258  -0.345  1.00  0.00    -0.271 OA
HETATM   14  N5  UNL     1      -1.570  -0.125   0.324  1.00  0.00    -0.286 N 
HETATM   15  C19 UNL     1      -2.427   0.964   0.181  1.00  0.00     0.233 C 
HETATM   16  O5  UNL     1      -3.281   1.121   1.148  1.00  0.00    -0.272 OA
ENDROOT
BRANCH  11  17
HETATM   17  C10 UNL     1       2.194  -0.262   1.098  1.00  0.00     0.036 C 
BRANCH  17  18
HETATM   18  C11 UNL     1       3.011  -0.234  -0.121  1.00  0.00     0.022 C 
BRANCH  18  19
HETATM   19  C12 UNL     1       4.299  -1.058   0.136  1.00  0.00     0.122 C 
BRANCH  19  20
HETATM   20  N2  UNL     1       3.837  -2.397   0.451  1.00  0.00    -0.367 N 
HETATM   21  C13 UNL     1       4.583  -3.439   0.310  1.00  0.00     0.196 C 
HETATM   22  N3  UNL     1       5.920  -3.242  -0.181  1.00  0.00    -0.067 NA
HETATM   23  N4  UNL     1       4.181  -4.748   0.600  1.00  0.00    -0.067 NA
ATOM     24  H2  UNL     1       2.885  -2.519   0.797  1.00  0.00     0.161 HD
ENDBRANCH  19  20
ENDBRANCH  18  19
ENDBRANCH  17  18
ENDBRANCH  11  17
BRANCH   8  25
HETATM   25  O1  UNL     1       1.584   2.870  -0.813  1.00  0.00    -0.350 OA
ATOM     26  H1  UNL     1       1.365   1.975  -1.045  1.00  0.00     0.219 HD
ENDBRANCH   8  25
BRANCH  14  27
HETATM   27  C15 UNL     1      -2.359  -1.419   0.450  1.00  0.00     0.135 C 
BRANCH  27  28
HETATM   28  C16 UNL     1      -2.603  -2.000  -0.890  1.00  0.00     0.021 C 
BRANCH  28  29
HETATM   29  C17 UNL     1      -3.400  -3.268  -0.817  1.00  0.00     0.018 C 
BRANCH  29  30
HETATM   30  C18 UNL     1      -2.712  -4.338  -0.018  1.00  0.00     0.157 C 
BRANCH  30  31
HETATM   31  S1  UNL     1      -3.683  -5.827   0.016  1.00  0.00     0.250 S 
HETATM   32  O3  UNL     1      -3.902  -6.373  -1.537  1.00  0.00    -0.212 OA
HETATM   33  O4  UNL     1      -5.112  -5.592   0.819  1.00  0.00    -0.212 OA
ENDBRANCH  30  31
ENDBRANCH  29  30
ENDBRANCH  28  29
ENDBRANCH  27  28
ENDBRANCH  14  27
TORSDOF 10
