REMARK  8 active torsions:
REMARK  status: ('A' for Active; 'I' for Inactive)
REMARK    1  A    between atoms: C2_2  and  C3_3 
REMARK       I    between atoms: C3_3  and  N1_5 
REMARK    2  A    between atoms: C4_7  and  C5_8 
REMARK    3  A    between atoms: C4_7  and  N5_20 
REMARK    4  A    between atoms: C5_8  and  C6_9 
REMARK    5  A    between atoms: C6_9  and  C7_10 
REMARK    6  A    between atoms: C7_10  and  S1_11 
REMARK    7  A    between atoms: S1_11  and  C8_12 
REMARK    8  A    between atoms: N5_20  and  C10_22 
ROOT
HETATM    1  C10 UNL     1      -2.887  -0.637   0.350  1.00  0.00     0.120 C 
HETATM    2  C11 UNL     1      -3.837   0.474   0.366  1.00  0.00     0.091 C 
HETATM    3  N6  UNL     1      -4.584   1.333   0.370  1.00  0.00    -0.195 NA
HETATM    4  C12 UNL     1      -2.556  -1.065  -1.061  1.00  0.00     0.046 C 
HETATM    5  C13 UNL     1      -3.857  -1.709  -1.500  1.00  0.00     0.004 C 
HETATM    6  C14 UNL     1      -4.549  -2.183  -0.245  1.00  0.00     0.004 C 
HETATM    7  C15 UNL     1      -3.571  -1.873   0.894  1.00  0.00     0.046 C 
ENDROOT
BRANCH   1   8
HETATM    8  N5  UNL     1      -1.724  -0.346   1.138  1.00  0.00    -0.358 N 
ATOM      9  H5  UNL     1      -1.513  -0.959   1.925  1.00  0.00     0.162 HD
BRANCH   8  10
HETATM   10  C4  UNL     1      -0.851   0.741   0.889  1.00  0.00     0.080 C 
HETATM   11  N1  UNL     1      -1.342   1.911   0.773  1.00  0.00    -0.317 N 
HETATM   12  C3  UNL     1      -0.479   3.007   0.524  1.00  0.00     0.222 C 
ATOM     13  H1  UNL     1      -2.348   2.057   0.859  1.00  0.00     0.170 HD
HETATM   14  O1  UNL     1       0.103   3.606   1.457  1.00  0.00    -0.273 OA
BRANCH  12  15
HETATM   15  C2  UNL     1      -0.255   3.460  -0.867  1.00  0.00     0.098 C 
HETATM   16  C1  UNL     1       0.691   4.626  -0.858  1.00  0.00     0.014 C 
ENDBRANCH  12  15
BRANCH  10  17
HETATM   17  C5  UNL     1       0.600   0.527   0.766  1.00  0.00     0.077 C 
BRANCH  17  18
HETATM   18  C6  UNL     1       0.938  -0.418  -0.374  1.00  0.00     0.018 C 
BRANCH  18  19
HETATM   19  C7  UNL     1       2.440  -0.588  -0.438  1.00  0.00     0.081 C 
BRANCH  19  20
HETATM   20  S1  UNL     1       3.075  -1.279   1.124  1.00  0.00    -0.110 SA
BRANCH  20  21
HETATM   21  C8  UNL     1       4.839  -1.477   1.042  1.00  0.00     0.102 A 
HETATM   22  C9  UNL     1       5.576  -2.573   0.612  1.00  0.00     0.146 A 
HETATM   23  N2  UNL     1       6.873  -2.269   0.727  1.00  0.00    -0.295 N 
HETATM   24  N3  UNL     1       6.963  -1.048   1.203  1.00  0.00    -0.242 N 
ATOM     25  H2  UNL     1       7.655  -2.878   0.487  1.00  0.00     0.187 HD
HETATM   26  N4  UNL     1       5.742  -0.557   1.398  1.00  0.00    -0.279 N 
ATOM     27  H3  UNL     1       7.834  -0.553   1.394  1.00  0.00     0.208 HD
ATOM     28  H4  UNL     1       5.529   0.372   1.761  1.00  0.00     0.189 HD
ENDBRANCH  20  21
ENDBRANCH  19  20
ENDBRANCH  18  19
ENDBRANCH  17  18
ENDBRANCH  10  17
ENDBRANCH   8  10
ENDBRANCH   1   8
TORSDOF 8
