REMARK  11 active torsions:
REMARK  status: ('A' for Active; 'I' for Inactive)
REMARK    1  A    between atoms: C2_2  and  N2_6 
REMARK    2  A    between atoms: N2_6  and  C3_8 
REMARK    3  A    between atoms: C3_8  and  O1_9 
REMARK    4  A    between atoms: C3_8  and  O2_11 
REMARK    5  A    between atoms: O2_11  and  C4_12 
REMARK    6  A    between atoms: C6_21  and  N6_22 
REMARK    7  A    between atoms: N7_25  and  C9_26 
REMARK    8  A    between atoms: C9_26  and  C10_27 
REMARK    9  A    between atoms: C14_31  and  N8_32 
REMARK   10  A    between atoms: C16_34  and  C17_35 
REMARK   11  A    between atoms: C21_46  and  N12_47 
ROOT
HETATM    1  C4  UNL     1      -4.926  -0.848  -0.554  1.00  0.00     0.206 C 
HETATM    2  N3  UNL     1      -4.761  -2.209  -0.363  1.00  0.00    -0.166 N 
ATOM      3  H3  UNL     1      -5.590  -2.734  -0.084  1.00  0.00     0.186 HD
HETATM    4  C5  UNL     1      -3.602  -2.926  -0.509  1.00  0.00     0.692 C 
HETATM    5  N4  UNL     1      -3.714  -4.126  -0.447  1.00  0.00    -0.234 N 
ATOM      6  H41 UNL     1      -2.852  -4.660  -0.556  1.00  0.00     0.174 HD
ATOM      7  H42 UNL     1      -4.641  -4.524  -0.296  1.00  0.00     0.174 HD
HETATM    8  N5  UNL     1      -2.359  -2.392  -0.712  1.00  0.00    -0.022 N 
ATOM      9  H5  UNL     1      -1.668  -3.045  -1.083  1.00  0.00     0.203 HD
HETATM   10  C6  UNL     1      -1.902  -1.149  -0.502  1.00  0.00     0.696 C 
HETATM   11  N11 UNL     1      -2.638  -0.032  -0.388  1.00  0.00    -0.172 N 
ATOM     12  H11 UNL     1      -2.135   0.850  -0.488  1.00  0.00     0.186 HD
HETATM   13  C21 UNL     1      -3.985   0.064  -0.153  1.00  0.00     0.167 C 
ENDROOT
BRANCH  10  14
HETATM   14  N6  UNL     1      -0.501  -1.027  -0.391  1.00  0.00    -0.214 N 
HETATM   15  C7  UNL     1       0.077   0.262  -0.123  1.00  0.00     0.160 C 
HETATM   16  C8  UNL     1       1.489   0.090   0.372  1.00  0.00     0.137 C 
HETATM   17  N7  UNL     1       1.613  -1.037   1.218  1.00  0.00    -0.405 N 
HETATM   18  C19 UNL     1       1.173  -2.287   0.729  1.00  0.00     0.137 C 
HETATM   19  C20 UNL     1       0.357  -2.170  -0.545  1.00  0.00     0.160 C 
BRANCH  17  20
HETATM   20  C9  UNL     1       2.743  -1.040   2.067  1.00  0.00     0.155 C 
BRANCH  20  21
HETATM   21  C10 UNL     1       3.991  -0.996   1.262  1.00  0.00    -0.038 A 
HETATM   22  C11 UNL     1       4.640  -2.165   0.905  1.00  0.00     0.009 A 
HETATM   23  C12 UNL     1       5.799  -2.131   0.158  1.00  0.00     0.003 A 
HETATM   24  C13 UNL     1       6.331  -0.902  -0.249  1.00  0.00     0.031 A 
HETATM   25  C14 UNL     1       5.711   0.282   0.089  1.00  0.00     0.054 A 
HETATM   26  C18 UNL     1       4.555   0.204   0.838  1.00  0.00     0.040 A 
BRANCH  25  27
HETATM   27  N8  UNL     1       6.211   1.557  -0.297  1.00  0.00    -0.249 N 
HETATM   28  C15 UNL     1       7.482   2.001  -0.178  1.00  0.00     0.152 A 
HETATM   29  C16 UNL     1       7.586   3.295  -0.660  1.00  0.00     0.140 A 
HETATM   30  N9  UNL     1       6.343   3.603  -1.067  1.00  0.00    -0.276 N 
HETATM   31  N10 UNL     1       5.546   2.569  -0.846  1.00  0.00    -0.015 NA
ATOM     32  H9  UNL     1       6.059   4.491  -1.480  1.00  0.00     0.184 HD
BRANCH  29  33
HETATM   33  C17 UNL     1       8.758   4.152  -0.727  1.00  0.00     0.229 C 
HETATM   34  O3  UNL     1       8.633   5.300  -1.205  1.00  0.00    -0.643 OA
HETATM   35  O4  UNL     1      10.008   3.753  -0.283  1.00  0.00    -0.643 OA
ENDBRANCH  29  33
ENDBRANCH  25  27
ENDBRANCH  20  21
ENDBRANCH  17  20
ENDBRANCH  10  14
BRANCH  13  36
HETATM   36  N12 UNL     1      -4.364   1.056   0.527  1.00  0.00    -0.382 N 
ATOM     37 2H12 UNL     1      -5.366   1.127   0.702  1.00  0.00     0.157 HD
ATOM     38 1H12 UNL     1      -3.664   1.735   0.825  1.00  0.00     0.157 HD
ENDBRANCH  13  36
BRANCH   1  39
HETATM   39  O2  UNL     1      -6.056  -0.467  -1.154  1.00  0.00    -0.282 OA
BRANCH  39  40
HETATM   40  C3  UNL     1      -6.553   0.725  -1.552  1.00  0.00     0.377 C 
BRANCH  40  41
HETATM   41  N2  UNL     1      -7.951   0.817  -1.117  1.00  0.00    -0.332 N 
ATOM     42  H2  UNL     1      -8.688   0.929  -1.813  1.00  0.00     0.165 HD
BRANCH  41  43
HETATM   43  C2  UNL     1      -8.290   0.753   0.253  1.00  0.00     0.070 C 
HETATM   44  C1  UNL     1      -8.688   1.997   0.949  1.00  0.00     0.088 C 
HETATM   45  N1  UNL     1      -8.262  -0.361   0.912  1.00  0.00    -0.389 N 
ATOM     46  H12 UNL     1      -8.507  -0.407   1.901  1.00  0.00     0.157 HD
ATOM     47  H11 UNL     1      -7.988  -1.218   0.432  1.00  0.00     0.157 HD
ENDBRANCH  41  43
ENDBRANCH  40  41
BRANCH  40  48
HETATM   48  O1  UNL     1      -6.633   0.785  -2.990  1.00  0.00    -0.354 OA
ATOM     49  H1  UNL     1      -5.728   0.725  -3.272  1.00  0.00     0.214 HD
ENDBRANCH  40  48
ENDBRANCH  39  40
ENDBRANCH   1  39
TORSDOF 11
