REMARK  13 active torsions:
REMARK  status: ('A' for Active; 'I' for Inactive)
REMARK    1  A    between atoms: O1_2  and  C2_3 
REMARK    2  A    between atoms: C2_3  and  C3_5 
REMARK    3  A    between atoms: C3_5  and  C4_6 
REMARK    4  A    between atoms: C3_5  and  C17_32 
REMARK    5  A    between atoms: C4_6  and  C5_7 
REMARK    6  A    between atoms: C5_7  and  C6_8 
REMARK    7  A    between atoms: N1_12  and  N2_14 
REMARK    8  A    between atoms: N2_14  and  C10_16 
REMARK    9  A    between atoms: C10_16  and  C11_17 
REMARK   10  A    between atoms: C10_16  and  C16_27 
REMARK   11  A    between atoms: C16_27  and  O3_28 
REMARK   12  A    between atoms: C16_27  and  O4_30 
REMARK   13  A    between atoms: C21_46  and  N10_47 
ROOT
HETATM    1  N10 UNL     1       4.290   3.993  -2.157  1.00  0.00    -0.289 N 
ATOM      2  H10 UNL     1       3.839   4.838  -2.509  1.00  0.00     0.178 HD
HETATM    3  C22 UNL     1       5.625   3.776  -2.430  1.00  0.00     0.182 C 
HETATM    4  N11 UNL     1       6.751   3.600  -2.642  1.00  0.00    -0.172 NA
ENDROOT
BRANCH   1   5
HETATM    5  C21 UNL     1       3.594   3.143  -1.460  1.00  0.00     0.105 A 
HETATM    6  C19 UNL     1       4.030   1.885  -0.866  1.00  0.00     0.172 A 
HETATM    7  N7  UNL     1       5.211   1.247  -0.852  1.00  0.00    -0.173 N 
HETATM    8  N8  UNL     1       2.965   1.348  -0.240  1.00  0.00    -0.223 N 
HETATM    9  C18 UNL     1       5.332   0.083  -0.218  1.00  0.00     0.678 A 
ATOM     10  H7  UNL     1       6.016   1.655  -1.328  1.00  0.00     0.186 HD
HETATM   11  N5  UNL     1       4.253  -0.431   0.400  1.00  0.00    -0.178 N 
HETATM   12  N6  UNL     1       6.485  -0.494  -0.230  1.00  0.00    -0.234 N 
HETATM   13  C17 UNL     1       3.058   0.174   0.408  1.00  0.00     0.140 A 
ATOM     14  H5  UNL     1       4.350  -1.323   0.885  1.00  0.00     0.185 HD
ATOM     15  H62 UNL     1       6.578  -1.386   0.256  1.00  0.00     0.174 HD
ATOM     16  H61 UNL     1       7.303  -0.104  -0.698  1.00  0.00     0.174 HD
HETATM   17  N9  UNL     1       1.911   2.216  -0.424  1.00  0.00    -0.300 N 
HETATM   18  C20 UNL     1       2.186   3.251  -1.102  1.00  0.00     0.141 A 
ATOM     19  H9  UNL     1       0.981   2.039  -0.044  1.00  0.00     0.186 HD
BRANCH  13  20
HETATM   20  C3  UNL     1       1.857  -0.389   1.090  1.00  0.00     0.202 C 
BRANCH  20  21
HETATM   21  C2  UNL     1       1.681   0.284   2.421  1.00  0.00     0.275 C 
HETATM   22  O2  UNL     1       0.692   0.984   2.711  1.00  0.00    -0.264 OA
BRANCH  21  23
HETATM   23  O1  UNL     1       2.648   0.144   3.409  1.00  0.00    -0.326 OA
HETATM   24  C1  UNL     1       2.495   0.778   4.680  1.00  0.00     0.213 C 
ENDBRANCH  21  23
ENDBRANCH  20  21
BRANCH  20  25
HETATM   25  C4  UNL     1       0.633  -0.341   0.265  1.00  0.00     0.025 C 
HETATM   26  N1  UNL     1      -0.411   0.282   0.651  1.00  0.00    -0.311 N 
ATOM     27  H1  UNL     1      -0.305   0.726   1.563  1.00  0.00     0.186 HD
BRANCH  25  28
HETATM   28  C5  UNL     1       0.589  -1.021  -1.032  1.00  0.00     0.063 C 
BRANCH  28  29
HETATM   29  C6  UNL     1       0.635  -2.492  -1.090  1.00  0.00    -0.046 C 
HETATM   30  C7  UNL     1       1.799  -3.221  -0.556  1.00  0.00     0.015 C 
HETATM   31  C8  UNL     1       0.555  -2.860  -2.595  1.00  0.00     0.015 C 
HETATM   32  C9  UNL     1      -0.642  -3.133  -0.519  1.00  0.00     0.015 C 
ENDBRANCH  28  29
ENDBRANCH  25  28
BRANCH  26  33
HETATM   33  N2  UNL     1      -1.627   0.473   0.098  1.00  0.00    -0.323 N 
ATOM     34  H2  UNL     1      -1.736   0.399  -0.913  1.00  0.00     0.181 HD
BRANCH  33  35
HETATM   35  C10 UNL     1      -2.784   0.783   0.922  1.00  0.00     0.187 C 
BRANCH  35  36
HETATM   36  C11 UNL     1      -3.963   1.133   0.094  1.00  0.00    -0.025 A 
HETATM   37  C12 UNL     1      -4.719   2.220   0.459  1.00  0.00     0.026 A 
HETATM   38  C13 UNL     1      -5.841   2.607  -0.273  1.00  0.00     0.090 A 
HETATM   39  N3  UNL     1      -6.207   1.925  -1.350  1.00  0.00    -0.353 N 
HETATM   40  C14 UNL     1      -5.483   0.857  -1.726  1.00  0.00     0.099 A 
ATOM     41  H3  UNL     1      -7.028   2.207  -1.886  1.00  0.00     0.166 HD
HETATM   42  N4  UNL     1      -5.877   0.224  -2.779  1.00  0.00    -0.385 N 
HETATM   43  C15 UNL     1      -4.355   0.434  -1.025  1.00  0.00     0.057 A 
ATOM     44  H42 UNL     1      -6.702   0.534  -3.292  1.00  0.00     0.157 HD
ATOM     45  H41 UNL     1      -5.328  -0.587  -3.064  1.00  0.00     0.157 HD
ENDBRANCH  35  36
BRANCH  35  46
HETATM   46  C16 UNL     1      -3.171  -0.427   1.759  1.00  0.00     0.282 C 
BRANCH  46  47
HETATM   47  O3  UNL     1      -3.501  -1.493   0.954  1.00  0.00    -0.369 OA
ATOM     48  H3  UNL     1      -3.743  -2.249   1.477  1.00  0.00     0.212 HD
ENDBRANCH  46  47
BRANCH  46  49
HETATM   49  O4  UNL     1      -2.145  -0.791   2.611  1.00  0.00    -0.369 OA
ATOM     50  H4  UNL     1      -2.387  -1.547   3.134  1.00  0.00     0.212 HD
ENDBRANCH  46  49
ENDBRANCH  35  46
ENDBRANCH  33  35
ENDBRANCH  26  33
ENDBRANCH  20  25
ENDBRANCH  13  20
ENDBRANCH   1   5
TORSDOF 13
