REMARK  2 active torsions:
REMARK  status: ('A' for Active; 'I' for Inactive)
REMARK    1  A    between atoms: O1_1  and  C1_3 
REMARK    2  A    between atoms: C6_9  and  O3_10 
ROOT
HETATM    1  C1  UNL     1       0.379   0.597   0.934  1.00  0.00     0.155 C 
HETATM    2  C2  UNL     1      -0.990   0.516   0.305  1.00  0.00     0.043 C 
HETATM    3  C3  UNL     1      -1.449  -0.917   0.446  1.00  0.00     0.175 C 
HETATM    4  O2  UNL     1      -0.639  -1.665  -0.392  1.00  0.00    -0.383 OA
HETATM    5  C4  UNL     1       0.262  -0.795  -1.005  1.00  0.00     0.153 C 
HETATM    6  C5  UNL     1      -0.596   0.473  -1.182  1.00  0.00     0.044 C 
HETATM    7  C6  UNL     1       1.255  -0.260   0.007  1.00  0.00     0.176 C 
ENDROOT
BRANCH   1   8
HETATM    8  O1  UNL     1       0.798   1.903   0.917  1.00  0.00    -0.392 OA
ATOM      9  H1  UNL     1       1.660   1.954   1.313  1.00  0.00     0.210 HD
ENDBRANCH   1   8
BRANCH   7  10
HETATM   10  O3  UNL     1       1.928  -1.240   0.687  1.00  0.00    -0.390 OA
ATOM     11  H3  UNL     1       2.470  -1.770   0.114  1.00  0.00     0.210 HD
ENDBRANCH   7  10
TORSDOF 2
