REMARK  2 active torsions:
REMARK  status: ('A' for Active; 'I' for Inactive)
REMARK    1  A    between atoms: C4_5  and  O2_7 
REMARK    2  A    between atoms: C6_9  and  O3_10 
ROOT
HETATM    1  C1  UNL     1       2.501  -0.135   0.341  1.00  0.00     0.042 C 
HETATM    2  C2  UNL     1       1.163   0.170  -0.202  1.00  0.00     0.149 C 
HETATM    3  O1  UNL     1       0.734  -0.736  -1.192  1.00  0.00    -0.381 OA
HETATM    4  C3  UNL     1      -0.531  -0.193  -1.486  1.00  0.00     0.208 C 
HETATM    5  C4  UNL     1      -1.156  -0.139  -0.091  1.00  0.00     0.103 C 
HETATM    6  C5  UNL     1      -2.187   0.948  -0.025  1.00  0.00     0.051 C 
HETATM    7  C6  UNL     1       0.051   0.209   0.784  1.00  0.00     0.182 C 
ENDROOT
BRANCH   5   8
HETATM    8  O2  UNL     1      -1.663  -1.393   0.215  1.00  0.00    -0.385 OA
ATOM      9  H2  UNL     1      -2.051  -1.359   1.081  1.00  0.00     0.210 HD
ENDBRANCH   5   8
BRANCH   7  10
HETATM   10  O3  UNL     1       0.158  -0.665   1.830  1.00  0.00    -0.390 OA
ATOM     11  H3  UNL     1      -0.553  -0.640   2.460  1.00  0.00     0.210 HD
ENDBRANCH   7  10
TORSDOF 2
