REMARK  11 active torsions:
REMARK  status: ('A' for Active; 'I' for Inactive)
REMARK    1  A    between atoms: N3_8  and  C4_10 
REMARK    2  A    between atoms: N4_13  and  C7_14 
REMARK    3  A    between atoms: C7_14  and  C8_15 
REMARK    4  A    between atoms: C8_15  and  O1_16 
REMARK    5  A    between atoms: C9_18  and  N5_19 
REMARK    6  A    between atoms: N5_19  and  N6_20 
REMARK       I    between atoms: N6_20  and  C10_22 
REMARK    7  A    between atoms: C10_22  and  C11_24 
REMARK    8  A    between atoms: C11_24  and  S1_25 
REMARK    9  A    between atoms: S1_25  and  C12_26 
REMARK   10  A    between atoms: C13_29  and  N8_30 
REMARK   11  A    between atoms: C14_35  and  N10_36 
ROOT
HETATM    1  N5  UNL     1       0.147   1.273  -0.252  1.00  0.00    -0.284 NA
ENDROOT
BRANCH   1   2
HETATM    2  C9  UNL     1      -0.962   0.786  -0.307  1.00  0.00     0.284 A 
HETATM    3  N4  UNL     1      -1.188  -0.451  -0.784  1.00  0.00    -0.314 N 
HETATM    4  C6  UNL     1      -2.476  -0.849  -0.891  1.00  0.00     0.099 A 
HETATM    5  C5  UNL     1      -3.539  -0.056  -0.537  1.00  0.00     0.066 A 
HETATM    6  C4  UNL     1      -3.302   1.218  -0.043  1.00  0.00     0.111 A 
HETATM    7  N12 UNL     1      -2.026   1.591   0.054  1.00  0.00    -0.300 N 
ATOM      8  H12 UNL     1      -1.823   2.523   0.415  1.00  0.00     0.171 HD
BRANCH   3   9
HETATM    9  C7  UNL     1      -0.115  -1.383  -1.144  1.00  0.00     0.158 C 
BRANCH   9  10
HETATM   10  C8  UNL     1       0.172  -2.321   0.014  1.00  0.00     0.184 C 
BRANCH  10  11
HETATM   11  O1  UNL     1      -0.997  -3.058   0.322  1.00  0.00    -0.399 OA
ATOM     12  H1  UNL     1      -0.817  -3.645   1.047  1.00  0.00     0.209 HD
ENDBRANCH  10  11
ENDBRANCH   9  10
ENDBRANCH   3   9
BRANCH   6  13
HETATM   13  N3  UNL     1      -4.344   2.098   0.314  1.00  0.00    -0.321 N 
HETATM   14  C3  UNL     1      -5.424   1.757   0.915  1.00  0.00     0.166 A 
HETATM   15  N2  UNL     1      -6.441   2.586   1.271  1.00  0.00    -0.279 N 
HETATM   16  S2  UNL     1      -6.025   0.259   1.479  1.00  0.00    -0.038 SA
HETATM   17  N1  UNL     1      -7.437   2.093   1.852  1.00  0.00    -0.296 N 
ATOM     18  H2  UNL     1      -6.395   3.585   1.070  1.00  0.00     0.189 HD
HETATM   19  C2  UNL     1      -7.512   0.802   2.119  1.00  0.00     0.066 A 
ATOM     20  H1  UNL     1      -8.207   2.704   2.125  1.00  0.00     0.187 HD
HETATM   21  C1  UNL     1      -8.639   0.072   2.805  1.00  0.00     0.078 C 
ATOM     22  H3  UNL     1      -4.230   3.083   0.075  1.00  0.00     0.169 HD
ENDBRANCH   6  13
ENDBRANCH   1   2
BRANCH   1  23
HETATM   23  N6  UNL     1       1.283   1.771  -0.196  1.00  0.00    -0.199 N 
HETATM   24  C10 UNL     1       2.522   1.279   0.359  1.00  0.00     0.256 C 
HETATM   25  O2  UNL     1       2.615   0.189   0.897  1.00  0.00    -0.270 OA
ATOM     26  H6  UNL     1       1.354   2.696  -0.619  1.00  0.00     0.205 HD
BRANCH  24  27
HETATM   27  C11 UNL     1       3.671   2.210   0.221  1.00  0.00     0.187 C 
BRANCH  27  28
HETATM   28  S1  UNL     1       4.469   1.881  -1.354  1.00  0.00    -0.083 SA
BRANCH  28  29
HETATM   29  C12 UNL     1       5.444   0.386  -1.233  1.00  0.00     0.174 A 
HETATM   30  N7  UNL     1       6.793   0.521  -1.078  1.00  0.00    -0.170 N 
HETATM   31  C13 UNL     1       7.562  -0.577  -1.017  1.00  0.00     0.692 A 
ATOM     32  H7  UNL     1       7.213   1.448  -1.009  1.00  0.00     0.186 HD
HETATM   33  N9  UNL     1       7.024  -1.768  -1.103  1.00  0.00    -0.023 N 
HETATM   34  C14 UNL     1       5.694  -1.930  -1.254  1.00  0.00     0.692 A 
ATOM     35  H9  UNL     1       7.624  -2.591  -1.055  1.00  0.00     0.203 HD
HETATM   36  N11 UNL     1       4.920  -0.823  -1.317  1.00  0.00    -0.170 N 
ATOM     37  H11 UNL     1       3.912  -0.924  -1.432  1.00  0.00     0.186 HD
BRANCH  31  38
HETATM   38  N8  UNL     1       8.860  -0.424  -0.881  1.00  0.00    -0.234 N 
ATOM     39  H82 UNL     1       9.279   0.504  -0.814  1.00  0.00     0.174 HD
ATOM     40  H81 UNL     1       9.445  -1.259  -0.835  1.00  0.00     0.174 HD
ENDBRANCH  31  38
BRANCH  34  41
HETATM   41  N10 UNL     1       5.117  -3.083  -1.331  1.00  0.00    -0.234 N 
ATOM     42 2H10 UNL     1       5.701  -3.918  -1.283  1.00  0.00     0.174 HD
ATOM     43 1H10 UNL     1       4.111  -3.206  -1.445  1.00  0.00     0.174 HD
ENDBRANCH  34  41
ENDBRANCH  28  29
ENDBRANCH  27  28
ENDBRANCH  24  27
ENDBRANCH   1  23
TORSDOF 11
