REMARK  4 active torsions:
REMARK  status: ('A' for Active; 'I' for Inactive)
REMARK    1  A    between atoms: C2_2  and  S1_3 
REMARK    2  A    between atoms: C7_9  and  O1_10 
REMARK    3  A    between atoms: N2_12  and  C8_13 
REMARK    4  A    between atoms: C14_19  and  O2_20 
ROOT
HETATM    1  S1  UNL     1       4.137  -0.299   0.405  1.00  0.00    -0.131 SA
HETATM    2  C3  UNL     1       3.378   0.210  -1.344  1.00  0.00     0.345 C 
HETATM    3  N1  UNL     1       3.280  -1.214  -1.664  1.00  0.00     0.119 N 
HETATM    4  C4  UNL     1       2.091  -1.415  -2.476  1.00  0.00     0.319 C 
HETATM    5  C5  UNL     1       1.016  -1.082  -1.494  1.00  0.00     0.035 A 
HETATM    6  C6  UNL     1       1.514  -1.181  -0.215  1.00  0.00     0.048 A 
HETATM    7  C7  UNL     1       0.496  -0.867   0.635  1.00  0.00     0.154 A 
HETATM    8  N2  UNL     1      -0.588  -0.586  -0.096  1.00  0.00    -0.303 N 
HETATM    9  C14 UNL     1      -0.302  -0.709  -1.410  1.00  0.00     0.153 A 
HETATM   10  C15 UNL     1       2.914  -1.579  -0.317  1.00  0.00     0.320 C 
ENDROOT
BRANCH   8  11
HETATM   11  C8  UNL     1      -1.886  -0.204   0.442  1.00  0.00     0.094 C 
HETATM   12  C9  UNL     1      -2.005   1.304   0.584  1.00  0.00     0.026 C 
HETATM   13  C10 UNL     1      -3.461   1.673   0.728  1.00  0.00     0.002 C 
HETATM   14  C11 UNL     1      -4.268   0.545   1.349  1.00  0.00     0.000 C 
HETATM   15  C12 UNL     1      -4.283  -0.647   0.417  1.00  0.00     0.002 C 
HETATM   16  C13 UNL     1      -3.019  -0.652  -0.452  1.00  0.00     0.026 C 
ENDBRANCH   8  11
BRANCH   7  17
HETATM   17  O1  UNL     1       0.565  -0.843   2.012  1.00  0.00    -0.345 OA
ATOM     18  H1  UNL     1      -0.145  -0.624   2.604  1.00  0.00     0.219 HD
ENDBRANCH   7  17
BRANCH   9  19
HETATM   19  O2  UNL     1      -1.150  -0.505  -2.483  1.00  0.00    -0.345 OA
ATOM     20  H2  UNL     1      -2.062  -0.247  -2.425  1.00  0.00     0.219 HD
ENDBRANCH   9  19
BRANCH   1  21
HETATM   21  C2  UNL     1       3.900   0.792   1.997  1.00  0.00     0.028 C 
HETATM   22  C1  UNL     1       4.244   2.066   1.998  1.00  0.00     0.018 C 
ENDBRANCH   1  21
TORSDOF 4
