REMARK  14 active torsions:
REMARK  status: ('A' for Active; 'I' for Inactive)
REMARK    1  A    between atoms: C3_3  and  C4_4 
REMARK    2  A    between atoms: C4_4  and  C5_5 
REMARK    3  A    between atoms: C5_5  and  C6_6 
REMARK    4  A    between atoms: C6_6  and  C7_7 
REMARK    5  A    between atoms: C7_7  and  C8_8 
REMARK    6  A    between atoms: C8_8  and  C9_9 
REMARK    7  A    between atoms: C9_9  and  C10_10 
REMARK    8  A    between atoms: C10_10  and  C11_11 
REMARK    9  A    between atoms: C11_11  and  C12_12 
REMARK   10  A    between atoms: C12_12  and  C13_13 
REMARK   11  A    between atoms: C13_13  and  C14_14 
REMARK   12  A    between atoms: C14_14  and  C15_15 
REMARK   13  A    between atoms: C15_15  and  C16_16 
REMARK   14  A    between atoms: C16_16  and  C17_17 
ROOT
HETATM    1  C1  UNL     1      -8.882   1.789  -1.419  1.00  0.00     0.012 C 
HETATM    2  C2  UNL     1      -8.721   0.702  -0.934  1.00  0.00    -0.117 C 
HETATM    3  C3  UNL     1      -8.511  -0.628  -0.363  1.00  0.00     0.093 C 
ENDROOT
BRANCH   3   4
HETATM    4  C4  UNL     1      -7.366  -1.361  -1.037  1.00  0.00     0.012 C 
BRANCH   4   5
HETATM    5  C5  UNL     1      -6.058  -0.593  -0.890  1.00  0.00     0.001 C 
BRANCH   5   6
HETATM    6  C6  UNL     1      -5.679  -0.401   0.540  1.00  0.00     0.000 C 
BRANCH   6   7
HETATM    7  C7  UNL     1      -4.396   0.368   0.630  1.00  0.00     0.000 C 
BRANCH   7   8
HETATM    8  C8  UNL     1      -3.230  -0.301  -0.037  1.00  0.00     0.000 C 
BRANCH   8   9
HETATM    9  C9  UNL     1      -1.951   0.478   0.049  1.00  0.00     0.000 C 
BRANCH   9  10
HETATM   10  C10 UNL     1      -1.543   0.691   1.472  1.00  0.00     0.000 C 
BRANCH  10  11
HETATM   11  C11 UNL     1      -0.269   1.463   1.555  1.00  0.00     0.004 C 
BRANCH  11  12
HETATM   12  C12 UNL     1       0.905   0.760   0.856  1.00  0.00     0.027 C 
BRANCH  12  13
HETATM   13  C13 UNL     1       1.168  -0.570   1.436  1.00  0.00    -0.031 C 
BRANCH  13  14
HETATM   14  C14 UNL     1       2.207  -1.449   0.915  1.00  0.00    -0.031 C 
BRANCH  14  15
HETATM   15  C15 UNL     1       3.634  -1.153   0.922  1.00  0.00     0.027 C 
BRANCH  15  16
HETATM   16  C16 UNL     1       4.096   0.028   0.176  1.00  0.00     0.008 C 
BRANCH  16  17
HETATM   17  C17 UNL     1       5.621   0.169   0.194  1.00  0.00    -0.011 C 
HETATM   18  C18 UNL     1       5.959   1.408  -0.599  1.00  0.00     0.032 C 
HETATM   19  C19 UNL     1       6.913   1.081  -1.730  1.00  0.00     0.232 C 
HETATM   20  N1  UNL     1       8.107   0.468  -1.222  1.00  0.00    -0.075 N 
HETATM   21  C20 UNL     1       7.783  -0.715  -0.474  1.00  0.00     0.232 C 
ATOM     22  H12 UNL     1       8.781   0.276  -1.964  1.00  0.00     0.277 HD
ATOM     23  H11 UNL     1       8.667   1.122  -0.675  1.00  0.00     0.277 HD
HETATM   24  C21 UNL     1       6.298  -1.005  -0.430  1.00  0.00     0.032 C 
ENDBRANCH  16  17
ENDBRANCH  15  16
ENDBRANCH  14  15
ENDBRANCH  13  14
ENDBRANCH  12  13
ENDBRANCH  11  12
ENDBRANCH  10  11
ENDBRANCH   9  10
ENDBRANCH   8   9
ENDBRANCH   7   8
ENDBRANCH   6   7
ENDBRANCH   5   6
ENDBRANCH   4   5
ENDBRANCH   3   4
TORSDOF 14
