REMARK  13 active torsions:
REMARK  status: ('A' for Active; 'I' for Inactive)
REMARK    1  A    between atoms: C3_3  and  C4_4 
REMARK    2  A    between atoms: C6_6  and  N1_7 
REMARK    3  A    between atoms: C7_11  and  O1_12 
REMARK    4  A    between atoms: O1_12  and  C8_13 
REMARK    5  A    between atoms: C10_16  and  O3_17 
REMARK    6  A    between atoms: C11_19  and  C12_20 
REMARK    7  A    between atoms: C12_20  and  O4_21 
REMARK    8  A    between atoms: C12_20  and  O5_23 
REMARK    9  A    between atoms: O5_23  and  C14_24 
REMARK   10  A    between atoms: C19_29  and  O6_30 
REMARK   11  A    between atoms: C20_32  and  O7_33 
REMARK   12  A    between atoms: C21_35  and  O8_36 
REMARK   13  A    between atoms: C22_38  and  O9_39 
ROOT
HETATM    1  C8  UNL     1       0.603   0.811  -1.631  1.00  0.00     0.291 C 
HETATM    2  O2  UNL     1      -0.012   1.903  -1.035  1.00  0.00    -0.356 OA
HETATM    3  C9  UNL     1      -0.324   1.719   0.291  1.00  0.00     0.203 C 
HETATM    4  C10 UNL     1      -1.684   1.195   0.585  1.00  0.00     0.153 C 
HETATM    5  C11 UNL     1      -1.791  -0.274   0.390  1.00  0.00     0.103 C 
HETATM    6  C19 UNL     1      -0.715  -0.887  -0.420  1.00  0.00     0.163 C 
HETATM    7  C20 UNL     1      -0.437  -0.279  -1.763  1.00  0.00     0.202 C 
ENDROOT
BRANCH   1   8
HETATM    8  O1  UNL     1       1.791   0.426  -1.134  1.00  0.00    -0.349 OA
BRANCH   8   9
HETATM    9  C7  UNL     1       2.889   0.458  -1.910  1.00  0.00     0.186 C 
HETATM   10  C6  UNL     1       3.871   1.461  -1.339  1.00  0.00     0.215 C 
HETATM   11  C5  UNL     1       4.725   0.869  -0.251  1.00  0.00     0.046 C 
HETATM   12  C4  UNL     1       4.161  -0.381   0.336  1.00  0.00     0.041 C 
HETATM   13  C22 UNL     1       4.087  -1.424  -0.758  1.00  0.00     0.157 C 
HETATM   14  C21 UNL     1       3.603  -0.864  -2.072  1.00  0.00     0.178 C 
BRANCH  10  15
HETATM   15  N1  UNL     1       3.177   2.618  -0.818  1.00  0.00    -0.072 N 
ATOM     16  H13 UNL     1       2.641   2.403   0.022  1.00  0.00     0.274 HD
ATOM     17  H12 UNL     1       3.815   3.302  -0.410  1.00  0.00     0.274 HD
ATOM     18  H11 UNL     1       2.598   3.019  -1.556  1.00  0.00     0.274 HD
ENDBRANCH  10  15
BRANCH  12  19
HETATM   19  C3  UNL     1       5.136  -0.908   1.345  1.00  0.00    -0.024 C 
HETATM   20  C2  UNL     1       6.248  -0.265   1.671  1.00  0.00    -0.034 C 
HETATM   21  C1  UNL     1       7.167  -0.842   2.675  1.00  0.00     0.036 C 
ENDBRANCH  12  19
BRANCH  13  22
HETATM   22  O9  UNL     1       5.366  -1.962  -0.899  1.00  0.00    -0.392 OA
ATOM     23  H9  UNL     1       5.320  -2.617  -1.586  1.00  0.00     0.210 HD
ENDBRANCH  13  22
BRANCH  14  24
HETATM   24  O8  UNL     1       4.745  -0.601  -2.846  1.00  0.00    -0.390 OA
ATOM     25  H8  UNL     1       5.194  -1.432  -2.948  1.00  0.00     0.210 HD
ENDBRANCH  14  24
ENDBRANCH   8   9
ENDBRANCH   1   8
BRANCH   7  26
HETATM   26  O7  UNL     1      -1.571   0.242  -2.401  1.00  0.00    -0.388 OA
ATOM     27  H7  UNL     1      -2.224  -0.443  -2.484  1.00  0.00     0.210 HD
ENDBRANCH   7  26
BRANCH   6  28
HETATM   28  O6  UNL     1      -0.807  -2.276  -0.512  1.00  0.00    -0.392 OA
ATOM     29  H6  UNL     1      -0.116  -2.670  -1.032  1.00  0.00     0.210 HD
ENDBRANCH   6  28
BRANCH   4  30
HETATM   30  O3  UNL     1      -1.902   1.535   1.951  1.00  0.00    -0.393 OA
ATOM     31  H3  UNL     1      -2.771   1.200   2.139  1.00  0.00     0.210 HD
ENDBRANCH   4  30
BRANCH   5  32
HETATM   32  C12 UNL     1      -3.200  -0.716   0.040  1.00  0.00     0.268 C 
BRANCH  32  33
HETATM   33  O4  UNL     1      -3.295  -2.094  -0.144  1.00  0.00    -0.366 OA
HETATM   34  C13 UNL     1      -3.732  -2.508  -1.368  1.00  0.00     0.204 C 
ENDBRANCH  32  33
BRANCH  32  35
HETATM   35  O5  UNL     1      -4.105  -0.432   1.046  1.00  0.00    -0.355 OA
BRANCH  35  36
HETATM   36  C14 UNL     1      -5.180   0.321   0.739  1.00  0.00     0.124 C 
HETATM   37  C15 UNL     1      -6.432  -0.556   0.785  1.00  0.00     0.032 C 
HETATM   38  C16 UNL     1      -7.323   0.039   1.846  1.00  0.00     0.002 C 
HETATM   39  C17 UNL     1      -6.833   1.425   2.129  1.00  0.00     0.002 C 
HETATM   40  C18 UNL     1      -5.481   1.562   1.452  1.00  0.00     0.032 C 
ENDBRANCH  35  36
ENDBRANCH  32  35
ENDBRANCH   5  32
TORSDOF 13
