REMARK  5 active torsions:
REMARK  status: ('A' for Active; 'I' for Inactive)
REMARK    1  A    between atoms: O1_2  and  N1_3 
REMARK       I    between atoms: C2_5  and  N3_7 
REMARK    2  A    between atoms: C5_10  and  N4_11 
REMARK       I    between atoms: N4_11  and  C6_13 
REMARK       I    between atoms: C6_13  and  N6_20 
REMARK    3  A    between atoms: N5_14  and  S1_16 
REMARK    4  A    between atoms: N7_23  and  C10_24 
REMARK    5  A    between atoms: C10_24  and  N8_26 
ROOT
HETATM    1  N4  UNL     1       0.818   0.351  -0.982  1.00  0.00    -0.219 N 
ATOM      2  H4  UNL     1       0.273   1.135  -0.623  1.00  0.00     0.178 HD
HETATM    3  C6  UNL     1       0.173  -0.902  -1.149  1.00  0.00     0.686 C 
HETATM    4  N5  UNL     1       0.808  -1.952  -1.397  1.00  0.00    -0.117 N 
ATOM      5  H5  UNL     1       1.817  -1.819  -1.465  1.00  0.00     0.197 HD
HETATM    6  N6  UNL     1      -1.233  -0.934  -1.026  1.00  0.00    -0.214 N 
HETATM    7  C8  UNL     1      -1.839  -1.405   0.198  1.00  0.00     0.161 C 
HETATM    8  C9  UNL     1      -2.947  -0.422   0.584  1.00  0.00     0.145 C 
HETATM    9  N7  UNL     1      -3.882  -0.380  -0.514  1.00  0.00    -0.355 N 
HETATM   10  C12 UNL     1      -3.527  -0.888  -1.809  1.00  0.00     0.145 C 
HETATM   11  C13 UNL     1      -2.101  -0.501  -2.101  1.00  0.00     0.161 C 
ENDROOT
BRANCH   1  12
HETATM   12  C5  UNL     1       2.211   0.566  -1.297  1.00  0.00     0.119 C 
HETATM   13  C4  UNL     1       2.601   1.997  -1.015  1.00  0.00     0.047 C 
HETATM   14  C3  UNL     1       3.454   1.995   0.220  1.00  0.00     0.127 C 
HETATM   15  N3  UNL     1       4.025   0.670   0.223  1.00  0.00    -0.352 N 
HETATM   16  C2  UNL     1       5.323   0.271   0.640  1.00  0.00     0.210 C 
HETATM   17  C14 UNL     1       3.019  -0.231  -0.289  1.00  0.00     0.151 C 
HETATM   18  N1  UNL     1       5.885   0.881   1.639  1.00  0.00    -0.239 N 
HETATM   19  N2  UNL     1       5.945  -0.782  -0.063  1.00  0.00    -0.062 NA
ATOM     20  H1  UNL     1       6.817   0.601   1.945  1.00  0.00     0.197 HD
BRANCH  18  21
HETATM   21  O1  UNL     1       5.235   1.895   2.283  1.00  0.00    -0.283 OA
HETATM   22  C1  UNL     1       5.533   2.298   3.600  1.00  0.00     0.237 C 
ENDBRANCH  18  21
ENDBRANCH   1  12
BRANCH   4  23
HETATM   23  S1  UNL     1       0.313  -3.539  -1.639  1.00  0.00     0.240 S 
HETATM   24  C7  UNL     1       0.212  -4.499  -0.149  1.00  0.00     0.186 C 
HETATM   25  O2  UNL     1       1.191  -4.310  -2.592  1.00  0.00    -0.206 OA
HETATM   26  O3  UNL     1      -1.062  -3.539  -2.256  1.00  0.00    -0.206 OA
ENDBRANCH   4  23
BRANCH   9  27
HETATM   27  C10 UNL     1      -5.165   0.179  -0.278  1.00  0.00     0.176 C 
HETATM   28  S2  UNL     1      -6.243   0.241  -1.495  1.00  0.00    -0.041 SA
BRANCH  27  29
HETATM   29  N8  UNL     1      -5.546   0.690   0.992  1.00  0.00    -0.310 N 
HETATM   30  C11 UNL     1      -5.915   1.910   1.170  1.00  0.00     0.203 C 
HETATM   31  N9  UNL     1      -5.942   2.778   0.058  1.00  0.00    -0.066 NA
HETATM   32  N10 UNL     1      -6.292   2.403   2.441  1.00  0.00    -0.066 NA
ATOM     33  H8  UNL     1      -5.526   0.063   1.797  1.00  0.00     0.170 HD
ENDBRANCH  27  29
ENDBRANCH   9  27
TORSDOF 5
