REMARK  5 active torsions:
REMARK  status: ('A' for Active; 'I' for Inactive)
REMARK       I    between atoms: C2_2  and  N1_4 
REMARK    1  A    between atoms: N1_4  and  C3_6 
REMARK       I    between atoms: N2_9  and  C6_10 
REMARK    2  A    between atoms: C6_10  and  C7_12 
REMARK    3  A    between atoms: C7_12  and  C8_13 
REMARK    4  A    between atoms: C7_12  and  N3_16 
REMARK    5  A    between atoms: C8_13  and  O3_14 
REMARK       I    between atoms: N3_16  and  C9_18 
REMARK       I    between atoms: C9_18  and  N4_20 
ROOT
HETATM    1  N3  UNL     1      -0.059  -1.213  -0.554  1.00  0.00    -0.328 N 
ATOM      2  H3  UNL     1      -0.396  -2.159  -0.733  1.00  0.00     0.165 HD
HETATM    3  C9  UNL     1      -0.772  -0.377   0.333  1.00  0.00     0.319 C 
HETATM    4  O4  UNL     1      -0.335   0.800   0.542  1.00  0.00    -0.247 OA
HETATM    5  N4  UNL     1      -1.954  -0.785   1.003  1.00  0.00    -0.324 N 
HETATM    6  C10 UNL     1      -2.652   0.113   1.891  1.00  0.00     0.156 C 
HETATM    7  C11 UNL     1      -3.258   1.283   1.204  1.00  0.00     0.257 C 
HETATM    8  N5  UNL     1      -4.625   1.138   0.805  1.00  0.00    -0.064 N 
HETATM    9  C12 UNL     1      -5.471   1.245   1.955  1.00  0.00     0.237 C 
HETATM   10  C13 UNL     1      -6.005   2.662   1.971  1.00  0.00     0.029 C 
HETATM   11  C14 UNL     1      -6.124   2.958   0.496  1.00  0.00     0.029 C 
HETATM   12  C15 UNL     1      -4.958   2.228  -0.092  1.00  0.00     0.237 C 
HETATM   13  C16 UNL     1      -4.917  -0.087   0.084  1.00  0.00     0.257 C 
HETATM   14  C17 UNL     1      -4.119  -0.183  -1.172  1.00  0.00     0.150 C 
HETATM   15  N6  UNL     1      -3.528  -1.453  -1.450  1.00  0.00    -0.358 N 
ATOM     16  H6  UNL     1      -3.485  -1.717  -2.434  1.00  0.00     0.162 HD
HETATM   17  C18 UNL     1      -2.999  -2.384  -0.545  1.00  0.00     0.235 C 
HETATM   18  O5  UNL     1      -2.958  -3.621  -0.898  1.00  0.00    -0.272 OA
HETATM   19  C19 UNL     1      -2.461  -2.129   0.807  1.00  0.00     0.230 C 
ENDROOT
BRANCH   1  20
HETATM   20  C7  UNL     1       1.167  -0.739  -1.226  1.00  0.00     0.202 C 
BRANCH  20  21
HETATM   21  C6  UNL     1       2.304  -1.614  -0.889  1.00  0.00     0.244 C 
HETATM   22  N2  UNL     1       3.643  -1.446  -1.261  1.00  0.00    -0.350 N 
HETATM   23  C5  UNL     1       4.627  -2.442  -0.845  1.00  0.00     0.128 C 
HETATM   24  C20 UNL     1       4.084  -0.323  -2.018  1.00  0.00     0.128 C 
HETATM   25  C4  UNL     1       5.589  -1.726   0.052  1.00  0.00     0.045 C 
HETATM   26  C3  UNL     1       6.082  -0.426  -0.463  1.00  0.00     0.087 C 
HETATM   27  C21 UNL     1       5.517   0.054  -1.750  1.00  0.00     0.045 C 
HETATM   28  O2  UNL     1       2.039  -2.649  -0.170  1.00  0.00    -0.271 OA
BRANCH  26  29
HETATM   29  N1  UNL     1       6.015   0.584   0.590  1.00  0.00    -0.357 N 
HETATM   30  C2  UNL     1       7.136   1.172   1.194  1.00  0.00     0.213 C 
HETATM   31  C1  UNL     1       6.997   2.195   2.258  1.00  0.00     0.117 C 
HETATM   32  O1  UNL     1       8.282   0.817   0.818  1.00  0.00    -0.274 OA
ATOM     33  H1  UNL     1       5.092   0.881   0.907  1.00  0.00     0.162 HD
ENDBRANCH  26  29
ENDBRANCH  20  21
BRANCH  20  34
HETATM   34  C8  UNL     1       0.914  -0.731  -2.722  1.00  0.00     0.199 C 
BRANCH  34  35
HETATM   35  O3  UNL     1       0.612  -2.008  -3.174  1.00  0.00    -0.398 OA
ATOM     36  H3  UNL     1       0.454  -2.003  -4.111  1.00  0.00     0.209 HD
ENDBRANCH  34  35
ENDBRANCH  20  34
ENDBRANCH   1  20
TORSDOF 5
