REMARK  8 active torsions:
REMARK  status: ('A' for Active; 'I' for Inactive)
REMARK    1  A    between atoms: C3_3  and  N1_4 
REMARK    2  A    between atoms: N1_4  and  C4_6 
REMARK    3  A    between atoms: C4_6  and  N2_8 
REMARK    4  A    between atoms: N3_11  and  C7_12 
REMARK    5  A    between atoms: C7_12  and  N4_14 
REMARK    6  A    between atoms: N4_14  and  S3_16 
REMARK    7  A    between atoms: S3_16  and  N5_19 
REMARK    8  A    between atoms: C10_22  and  C11_23 
REMARK       I    between atoms: C11_23  and  N6_25 
ROOT
HETATM    1  C1  UNL     1      -7.805   3.976  -1.169  1.00  0.00     0.014 C 
HETATM    2  C2  UNL     1      -7.449   2.880  -1.522  1.00  0.00    -0.098 C 
HETATM    3  C3  UNL     1      -7.038   1.542  -1.941  1.00  0.00     0.215 C 
ENDROOT
BRANCH   3   4
HETATM    4  N1  UNL     1      -5.924   1.057  -1.125  1.00  0.00    -0.357 N 
ATOM      5  H1  UNL     1      -5.550   1.649  -0.384  1.00  0.00     0.162 HD
BRANCH   4   6
HETATM    6  C4  UNL     1      -5.356  -0.225  -1.349  1.00  0.00     0.170 C 
HETATM    7  S1  UNL     1      -5.972  -1.159  -2.546  1.00  0.00    -0.041 SA
BRANCH   6   8
HETATM    8  N2  UNL     1      -4.277  -0.733  -0.582  1.00  0.00    -0.355 N 
HETATM    9  C5  UNL     1      -3.729   0.086   0.477  1.00  0.00     0.145 C 
HETATM   10  C6  UNL     1      -2.968  -0.807   1.441  1.00  0.00     0.145 C 
HETATM   11  N3  UNL     1      -1.933  -1.482   0.701  1.00  0.00    -0.354 N 
HETATM   12  C14 UNL     1      -2.214  -2.004  -0.615  1.00  0.00     0.145 C 
HETATM   13  C15 UNL     1      -3.730  -2.055  -0.857  1.00  0.00     0.145 C 
BRANCH  11  14
HETATM   14  C7  UNL     1      -0.646  -1.628   1.274  1.00  0.00     0.184 C 
HETATM   15  S2  UNL     1      -0.342  -1.040   2.780  1.00  0.00    -0.040 SA
BRANCH  14  16
HETATM   16  N4  UNL     1       0.419  -2.278   0.609  1.00  0.00    -0.247 N 
ATOM     17  H4  UNL     1       0.243  -2.658  -0.321  1.00  0.00     0.182 HD
BRANCH  16  18
HETATM   18  S3  UNL     1       1.988  -2.466   1.271  1.00  0.00     0.306 S 
HETATM   19  O1  UNL     1       2.481  -3.838   0.842  1.00  0.00    -0.188 OA
HETATM   20  O2  UNL     1       1.858  -2.520   2.764  1.00  0.00    -0.188 OA
BRANCH  18  21
HETATM   21  N5  UNL     1       3.116  -1.309   0.741  1.00  0.00    -0.168 NA
HETATM   22  C8  UNL     1       2.815   0.047   1.066  1.00  0.00     0.113 C 
HETATM   23  C9  UNL     1       3.955   0.992   0.733  1.00  0.00     0.058 C 
HETATM   24  C10 UNL     1       4.870   0.290  -0.237  1.00  0.00     0.279 C 
HETATM   25  N7  UNL     1       4.071  -0.367  -1.267  1.00  0.00    -0.050 N 
HETATM   26  C13 UNL     1       3.241  -1.399  -0.705  1.00  0.00     0.341 C 
ATOM     27  H72 UNL     1       3.521   0.306  -1.801  1.00  0.00     0.279 HD
ATOM     28  H71 UNL     1       4.655  -0.726  -2.022  1.00  0.00     0.279 HD
BRANCH  24  29
HETATM   29  C11 UNL     1       5.784   1.260  -0.893  1.00  0.00     0.248 C 
HETATM   30  O3  UNL     1       5.783   1.411  -2.142  1.00  0.00    -0.271 OA
HETATM   31  N6  UNL     1       6.663   2.020  -0.104  1.00  0.00    -0.364 N 
HETATM   32  C12 UNL     1       7.559   2.966  -0.716  1.00  0.00     0.149 C 
ATOM     33  H6  UNL     1       6.666   1.901   0.909  1.00  0.00     0.161 HD
ENDBRANCH  24  29
ENDBRANCH  18  21
ENDBRANCH  16  18
ENDBRANCH  14  16
ENDBRANCH  11  14
ENDBRANCH   6   8
ENDBRANCH   4   6
ENDBRANCH   3   4
TORSDOF 8
