REMARK  13 active torsions:
REMARK  status: ('A' for Active; 'I' for Inactive)
REMARK    1  A    between atoms: N1_1  and  C1_5 
REMARK    2  A    between atoms: C1_5  and  C2_6 
REMARK    3  A    between atoms: C2_6  and  C3_7 
REMARK    4  A    between atoms: C3_7  and  C4_8 
REMARK    5  A    between atoms: C4_8  and  N2_9 
REMARK    6  A    between atoms: N2_9  and  C5_10 
REMARK    7  A    between atoms: C5_10  and  C6_11 
REMARK    8  A    between atoms: C6_11  and  N3_12 
REMARK       I    between atoms: N3_12  and  C7_14 
REMARK    9  A    between atoms: C7_14  and  C8_16 
REMARK   10  A    between atoms: C8_16  and  C9_17 
REMARK   11  A    between atoms: C12_20  and  C13_21 
REMARK   12  A    between atoms: C13_21  and  C14_22 
REMARK   13  A    between atoms: C14_22  and  C15_23 
ROOT
HETATM    1  C9  UNL     1       2.182  -0.798  -0.414  1.00  0.00     0.087 C 
HETATM    2  C10 UNL     1       3.497  -0.062  -0.713  1.00  0.00     0.024 C 
HETATM    3  C11 UNL     1       4.559  -0.431   0.257  1.00  0.00     0.041 C 
HETATM    4  C12 UNL     1       4.977   0.701   1.158  1.00  0.00     0.091 C 
HETATM    5  N4  UNL     1       5.536   0.027   2.329  1.00  0.00    -0.354 N 
ATOM      6  H4  UNL     1       6.050   0.488   3.079  1.00  0.00     0.162 HD
HETATM    7  C16 UNL     1       5.257  -1.367   2.268  1.00  0.00     0.241 C 
HETATM    8  O4  UNL     1       5.775  -2.321   2.885  1.00  0.00    -0.271 OA
HETATM    9  C17 UNL     1       4.158  -1.490   1.264  1.00  0.00     0.182 C 
HETATM   10  N5  UNL     1       2.916  -1.099   1.901  1.00  0.00    -0.347 N 
ATOM     11  H5  UNL     1       2.753  -1.219   2.901  1.00  0.00     0.163 HD
HETATM   12  C18 UNL     1       1.939  -0.535   1.029  1.00  0.00     0.223 C 
HETATM   13  O5  UNL     1       0.955   0.129   1.431  1.00  0.00    -0.273 OA
ENDROOT
BRANCH   1  14
HETATM   14  C8  UNL     1       1.083  -0.320  -1.304  1.00  0.00     0.117 C 
BRANCH  14  15
HETATM   15  C7  UNL     1      -0.202  -0.986  -1.080  1.00  0.00     0.218 C 
HETATM   16  N3  UNL     1      -1.362  -0.630  -1.822  1.00  0.00    -0.359 N 
ATOM     17  H3  UNL     1      -1.275   0.108  -2.521  1.00  0.00     0.162 HD
HETATM   18  O1  UNL     1      -0.255  -1.899  -0.197  1.00  0.00    -0.274 OA
BRANCH  16  19
HETATM   19  C6  UNL     1      -2.643  -1.243  -1.648  1.00  0.00     0.150 C 
BRANCH  19  20
HETATM   20  C5  UNL     1      -3.210  -1.095  -0.259  1.00  0.00     0.257 C 
BRANCH  20  21
HETATM   21  N2  UNL     1      -4.489  -1.746  -0.201  1.00  0.00    -0.062 N 
HETATM   22  C19 UNL     1      -4.553  -3.184  -0.053  1.00  0.00     0.265 A 
HETATM   23  C20 UNL     1      -4.910  -2.259   1.090  1.00  0.00     0.265 A 
BRANCH  21  24
HETATM   24  C4  UNL     1      -5.507  -1.197  -1.061  1.00  0.00     0.237 C 
BRANCH  24  25
HETATM   25  C3  UNL     1      -5.704   0.299  -0.874  1.00  0.00     0.029 C 
BRANCH  25  26
HETATM   26  C2  UNL     1      -6.115   0.616   0.538  1.00  0.00     0.029 C 
BRANCH  26  27
HETATM   27  C1  UNL     1      -6.284   2.138   0.609  1.00  0.00     0.229 C 
BRANCH  27  28
HETATM   28  N1  UNL     1      -4.999   2.706   0.269  1.00  0.00    -0.079 N 
ATOM     29  H13 UNL     1      -4.236   2.356   0.848  1.00  0.00     0.274 HD
ATOM     30  H12 UNL     1      -4.637   2.380  -0.627  1.00  0.00     0.274 HD
ATOM     31  H11 UNL     1      -5.111   3.719   0.316  1.00  0.00     0.274 HD
ENDBRANCH  27  28
ENDBRANCH  26  27
ENDBRANCH  25  26
ENDBRANCH  24  25
ENDBRANCH  21  24
ENDBRANCH  20  21
ENDBRANCH  19  20
ENDBRANCH  16  19
ENDBRANCH  14  15
ENDBRANCH   1  14
BRANCH   4  32
HETATM   32  C13 UNL     1       6.077   1.548   0.582  1.00  0.00     0.036 C 
BRANCH  32  33
HETATM   33  C14 UNL     1       5.737   2.199  -0.712  1.00  0.00     0.115 C 
BRANCH  33  34
HETATM   34  C15 UNL     1       6.910   2.998  -1.155  1.00  0.00     0.172 C 
HETATM   35  O2  UNL     1       7.968   3.048  -0.476  1.00  0.00    -0.648 OA
HETATM   36  O3  UNL     1       6.905   3.730  -2.337  1.00  0.00    -0.648 OA
ENDBRANCH  33  34
ENDBRANCH  32  33
ENDBRANCH   4  32
TORSDOF 13
