REMARK  14 active torsions:
REMARK  status: ('A' for Active; 'I' for Inactive)
REMARK    1  A    between atoms: N1_1  and  C1_5 
REMARK    2  A    between atoms: C1_5  and  N2_6 
REMARK    3  A    between atoms: C1_5  and  C9_28 
REMARK       I    between atoms: N2_6  and  C2_8 
REMARK    4  A    between atoms: C2_8  and  C3_10 
REMARK    5  A    between atoms: C3_10  and  C4_12 
REMARK    6  A    between atoms: C5_14  and  O4_15 
REMARK    7  A    between atoms: C6_17  and  C7_18 
REMARK    8  A    between atoms: C7_18  and  O5_19 
REMARK    9  A    between atoms: C8_22  and  O7_23 
REMARK   10  A    between atoms: O7_23  and  S1_24 
REMARK   11  A    between atoms: C9_28  and  O11_29 
REMARK   12  A    between atoms: C9_28  and  N3_31 
REMARK   13  A    between atoms: N3_31  and  N4_33 
REMARK       I    between atoms: N4_33  and  C10_35 
REMARK       I    between atoms: C10_35  and  N5_37 
REMARK   14  A    between atoms: N5_37  and  N6_39 
ROOT
HETATM    1  C1  UNL     1       1.734   0.461   0.173  1.00  0.00     0.360 C 
ENDROOT
BRANCH   1   2
HETATM    2  N1  UNL     1       1.335   0.978   1.597  1.00  0.00    -0.051 N 
ATOM      3  H13 UNL     1       0.375   1.311   1.691  1.00  0.00     0.277 HD
ATOM      4  H12 UNL     1       1.250   0.260   2.317  1.00  0.00     0.277 HD
ATOM      5  H11 UNL     1       2.060   1.677   1.758  1.00  0.00     0.277 HD
ENDBRANCH   1   2
BRANCH   1   6
HETATM    6  N2  UNL     1       0.710  -0.527  -0.054  1.00  0.00    -0.320 N 
HETATM    7  C2  UNL     1      -0.508  -0.003  -0.534  1.00  0.00     0.292 C 
HETATM    8  O1  UNL     1      -0.633   1.281  -0.681  1.00  0.00    -0.264 OA
ATOM      9  H2  UNL     1       0.854  -1.522   0.118  1.00  0.00     0.165 HD
BRANCH   7  10
HETATM   10  C3  UNL     1      -1.682  -0.777  -0.901  1.00  0.00     0.250 C 
HETATM   11  O2  UNL     1      -1.566  -2.010  -1.052  1.00  0.00    -0.284 OA
BRANCH  10  12
HETATM   12  C4  UNL     1      -2.992  -0.102  -1.078  1.00  0.00     0.260 C 
HETATM   13  O3  UNL     1      -3.937  -0.928  -1.609  1.00  0.00    -0.341 OA
HETATM   14  C5  UNL     1      -5.074  -1.148  -0.847  1.00  0.00     0.289 C 
HETATM   15  C6  UNL     1      -4.731  -1.530   0.524  1.00  0.00     0.203 C 
HETATM   16  O6  UNL     1      -3.532  -0.950   1.009  1.00  0.00    -0.345 OA
HETATM   17  C8  UNL     1      -3.366   0.322   0.392  1.00  0.00     0.319 C 
BRANCH  14  18
HETATM   18  O4  UNL     1      -5.719  -2.241  -1.513  1.00  0.00    -0.369 OA
ATOM     19  H4  UNL     1      -6.498  -2.392  -0.991  1.00  0.00     0.212 HD
ENDBRANCH  14  18
BRANCH  15  20
HETATM   20  C7  UNL     1      -5.838  -1.300   1.503  1.00  0.00     0.201 C 
BRANCH  20  21
HETATM   21  O5  UNL     1      -7.090  -1.713   1.066  1.00  0.00    -0.398 OA
ATOM     22  H5  UNL     1      -7.793  -1.567   1.688  1.00  0.00     0.209 HD
ENDBRANCH  20  21
ENDBRANCH  15  20
BRANCH  17  23
HETATM   23  O7  UNL     1      -4.502   1.004   0.461  1.00  0.00    -0.221 OA
BRANCH  23  24
HETATM   24  S1  UNL     1      -4.450   2.607   0.773  1.00  0.00     0.254 S 
HETATM   25  O8  UNL     1      -3.098   3.176   0.990  1.00  0.00    -0.572 OA
HETATM   26  O9  UNL     1      -5.238   2.877   2.022  1.00  0.00    -0.572 OA
HETATM   27  O10 UNL     1      -5.291   3.383  -0.490  1.00  0.00    -0.572 OA
ENDBRANCH  23  24
ENDBRANCH  17  23
ENDBRANCH  10  12
ENDBRANCH   7  10
ENDBRANCH   1   6
BRANCH   1  28
HETATM   28  C9  UNL     1       3.058  -0.131   0.369  1.00  0.00     0.181 C 
BRANCH  28  29
HETATM   29  O11 UNL     1       3.769   0.371   1.343  1.00  0.00    -0.345 OA
ATOM     30  H11 UNL     1       4.628  -0.013   1.470  1.00  0.00     0.219 HD
ENDBRANCH  28  29
BRANCH  28  31
HETATM   31  N3  UNL     1       3.622  -1.188  -0.380  1.00  0.00    -0.276 N 
ATOM     32  H3  UNL     1       3.098  -1.663  -1.115  1.00  0.00     0.189 HD
BRANCH  31  33
HETATM   33  N4  UNL     1       4.949  -1.554  -0.060  1.00  0.00    -0.248 N 
HETATM   34  C10 UNL     1       5.983  -0.698  -0.438  1.00  0.00     0.356 C 
HETATM   35  O12 UNL     1       5.647   0.360  -1.097  1.00  0.00    -0.244 OA
HETATM   36  N5  UNL     1       7.335  -0.907  -0.165  1.00  0.00    -0.214 N 
ATOM     37  H5  UNL     1       7.630  -1.741   0.343  1.00  0.00     0.195 HD
ATOM     38  H4  UNL     1       5.146  -2.424   0.436  1.00  0.00     0.192 HD
BRANCH  36  39
HETATM   39  N6  UNL     1       8.261   0.004  -0.577  1.00  0.00    -0.094 N 
HETATM   40  N7  UNL     1       8.190   1.101  -1.353  1.00  0.00    -0.194 N 
HETATM   41  N8  UNL     1       9.421   1.421  -1.210  1.00  0.00    -0.206 N 
ATOM     42  H7  UNL     1       7.424   1.528  -1.873  1.00  0.00     0.213 HD
HETATM   43  N9  UNL     1       9.575   0.323  -0.409  1.00  0.00     0.036 NA
ATOM     44  H8  UNL     1      10.025   2.170  -1.547  1.00  0.00     0.207 HD
ENDBRANCH  36  39
ENDBRANCH  31  33
ENDBRANCH  28  31
ENDBRANCH   1  28
TORSDOF 14
