REMARK  4 active torsions:
REMARK  status: ('A' for Active; 'I' for Inactive)
REMARK    1  A    between atoms: N1_2  and  C3_4 
REMARK    2  A    between atoms: C3_4  and  C4_5 
REMARK    3  A    between atoms: C5_6  and  C6_7 
REMARK    4  A    between atoms: C6_7  and  N2_8 
ROOT
HETATM    1  C4  UNL     1       0.381  -0.440   0.563  1.00  0.00    -0.086 C 
HETATM    2  C5  UNL     1       1.454  -0.314  -0.012  1.00  0.00    -0.078 C 
ENDROOT
BRANCH   2   3
HETATM    3  C6  UNL     1       2.763  -0.188  -0.679  1.00  0.00     0.323 C 
BRANCH   3   4
HETATM    4  N2  UNL     1       3.833  -0.371   0.323  1.00  0.00    -0.069 N 
ATOM      5  H23 UNL     1       3.737   0.266   1.114  1.00  0.00     0.275 HD
ATOM      6  H22 UNL     1       3.740  -1.249   0.834  1.00  0.00     0.275 HD
ATOM      7  H21 UNL     1       4.738  -0.284  -0.138  1.00  0.00     0.275 HD
ENDBRANCH   3   4
ENDBRANCH   2   3
BRANCH   1   8
HETATM    8  C3  UNL     1      -0.867  -0.607   1.270  1.00  0.00     0.210 C 
BRANCH   8   9
HETATM    9  N1  UNL     1      -1.956   0.020   0.606  1.00  0.00    -0.411 N 
HETATM   10  C1  UNL     1      -1.897   1.442   0.623  1.00  0.00     0.143 C 
HETATM   11  C2  UNL     1      -2.431  -0.593  -0.577  1.00  0.00     0.143 C 
ENDBRANCH   8   9
ENDBRANCH   1   8
TORSDOF 4
