REMARK  16 active torsions:
REMARK  status: ('A' for Active; 'I' for Inactive)
REMARK    1  A    between atoms: C2_3  and  C3_4 
REMARK    2  A    between atoms: C4_5  and  C5_6 
REMARK    3  A    between atoms: C6_7  and  C7_8 
REMARK    4  A    between atoms: C7_8  and  C8_9 
REMARK    5  A    between atoms: C8_9  and  C9_10 
REMARK    6  A    between atoms: C9_10  and  C10_11 
REMARK    7  A    between atoms: C10_11  and  C11_12 
REMARK    8  A    between atoms: C11_12  and  C12_13 
REMARK    9  A    between atoms: C12_13  and  C13_14 
REMARK   10  A    between atoms: C13_14  and  C14_15 
REMARK   11  A    between atoms: C15_18  and  C16_19 
REMARK   12  A    between atoms: C16_19  and  O1_20 
REMARK   13  A    between atoms: C17_22  and  O2_23 
REMARK   14  A    between atoms: C18_25  and  O3_26 
REMARK   15  A    between atoms: C19_28  and  O4_29 
REMARK   16  A    between atoms: C20_31  and  O5_32 
ROOT
HETATM    1  N1  UNL     1       6.681   3.935  -0.507  1.00  0.00    -0.197 NA
HETATM    2  C1  UNL     1       7.117   2.880  -0.657  1.00  0.00     0.062 C 
HETATM    3  C2  UNL     1       7.681   1.518  -0.839  1.00  0.00     0.151 C 
ENDROOT
BRANCH   3   4
HETATM    4  C3  UNL     1       7.320   0.714   0.328  1.00  0.00    -0.013 C 
HETATM    5  C4  UNL     1       6.608  -0.378   0.244  1.00  0.00    -0.003 C 
BRANCH   5   6
HETATM    6  C5  UNL     1       6.083  -0.948  -0.956  1.00  0.00    -0.004 C 
HETATM    7  C6  UNL     1       5.371  -2.052  -0.983  1.00  0.00    -0.027 C 
BRANCH   7   8
HETATM    8  C7  UNL     1       5.012  -2.857   0.192  1.00  0.00     0.027 C 
BRANCH   8   9
HETATM    9  C8  UNL     1       3.499  -2.929   0.321  1.00  0.00     0.004 C 
BRANCH   9  10
HETATM   10  C9  UNL     1       2.887  -1.557   0.483  1.00  0.00     0.000 C 
BRANCH  10  11
HETATM   11  C10 UNL     1       1.390  -1.749   0.600  1.00  0.00     0.000 C 
BRANCH  11  12
HETATM   12  C11 UNL     1       0.687  -0.397   0.768  1.00  0.00     0.000 C 
BRANCH  12  13
HETATM   13  C12 UNL     1      -0.790  -0.708   0.875  1.00  0.00     0.002 C 
BRANCH  13  14
HETATM   14  C13 UNL     1      -1.612   0.553   1.047  1.00  0.00     0.027 C 
BRANCH  14  15
HETATM   15  C14 UNL     1      -3.064   0.212   1.152  1.00  0.00     0.108 C 
HETATM   16  N2  UNL     1      -3.920   1.349   1.317  1.00  0.00    -0.406 N 
HETATM   17  C15 UNL     1      -4.025   2.238   0.240  1.00  0.00     0.132 C 
ATOM     18  H2  UNL     1      -4.433   1.505   2.185  1.00  0.00     0.154 HD
HETATM   19  C17 UNL     1      -4.065   1.675  -1.131  1.00  0.00     0.173 C 
HETATM   20  C18 UNL     1      -5.037   0.553  -1.333  1.00  0.00     0.180 C 
HETATM   21  C19 UNL     1      -4.970  -0.412  -0.199  1.00  0.00     0.180 C 
HETATM   22  C20 UNL     1      -3.483  -0.705   0.051  1.00  0.00     0.171 C 
BRANCH  17  23
HETATM   23  C16 UNL     1      -5.305   3.065   0.440  1.00  0.00     0.191 C 
BRANCH  23  24
HETATM   24  O1  UNL     1      -5.186   3.762   1.665  1.00  0.00    -0.399 OA
ATOM     25  H1  UNL     1      -5.977   4.273   1.789  1.00  0.00     0.209 HD
ENDBRANCH  23  24
ENDBRANCH  17  23
BRANCH  19  26
HETATM   26  O2  UNL     1      -4.490   2.719  -1.992  1.00  0.00    -0.391 OA
ATOM     27  H2  UNL     1      -4.516   2.358  -2.870  1.00  0.00     0.210 HD
ENDBRANCH  19  26
BRANCH  20  28
HETATM   28  O3  UNL     1      -4.617  -0.141  -2.491  1.00  0.00    -0.390 OA
ATOM     29  H3  UNL     1      -5.233  -0.852  -2.619  1.00  0.00     0.210 HD
ENDBRANCH  20  28
BRANCH  21  30
HETATM   30  O4  UNL     1      -5.607  -1.601  -0.589  1.00  0.00    -0.390 OA
ATOM     31  H4  UNL     1      -5.564  -2.216   0.134  1.00  0.00     0.210 HD
ENDBRANCH  21  30
BRANCH  22  32
HETATM   32  O5  UNL     1      -3.414  -2.057   0.464  1.00  0.00    -0.391 OA
ATOM     33  H5  UNL     1      -3.681  -2.641  -0.237  1.00  0.00     0.210 HD
ENDBRANCH  22  32
ENDBRANCH  14  15
ENDBRANCH  13  14
ENDBRANCH  12  13
ENDBRANCH  11  12
ENDBRANCH  10  11
ENDBRANCH   9  10
ENDBRANCH   8   9
ENDBRANCH   7   8
ENDBRANCH   5   6
ENDBRANCH   3   4
TORSDOF 16
