REMARK  12 active torsions:
REMARK  status: ('A' for Active; 'I' for Inactive)
REMARK    1  A    between atoms: N3_4  and  C2_6 
REMARK    2  A    between atoms: C2_6  and  C3_7 
REMARK    3  A    between atoms: C3_7  and  C4_8 
REMARK    4  A    between atoms: C4_8  and  N4_9 
REMARK    5  A    between atoms: N4_9  and  C5_11 
REMARK    6  A    between atoms: C7_15  and  C8_16 
REMARK    7  A    between atoms: C8_16  and  C9_17 
REMARK       I    between atoms: C9_17  and  N6_19 
REMARK    8  A    between atoms: N6_19  and  C10_21 
REMARK    9  A    between atoms: C10_21  and  C11_22 
REMARK   10  A    between atoms: C11_22  and  C12_23 
REMARK   11  A    between atoms: C12_23  and  N7_24 
REMARK   12  A    between atoms: C13_26  and  C14_27 
ROOT
HETATM    1  C8  UNL     1      -0.755  -0.712   1.586  1.00  0.00     0.150 C 
ENDROOT
BRANCH   1   2
HETATM    2  C7  UNL     1      -1.572   0.507   1.233  1.00  0.00     0.010 A 
HETATM    3  C6  UNL     1      -1.457   1.781   1.724  1.00  0.00     0.105 A 
HETATM    4  N5  UNL     1      -2.275   2.683   1.274  1.00  0.00    -0.346 N 
HETATM    5  C5  UNL     1      -3.180   2.331   0.363  1.00  0.00     0.144 A 
ATOM      6  H5  UNL     1      -2.225   3.644   1.612  1.00  0.00     0.167 HD
HETATM    7  S1  UNL     1      -2.867   0.668   0.134  1.00  0.00    -0.057 SA
BRANCH   5   8
HETATM    8  N4  UNL     1      -4.085   3.103  -0.204  1.00  0.00    -0.370 N 
ATOM      9  H4  UNL     1      -4.158   4.092   0.033  1.00  0.00     0.161 HD
BRANCH   8  10
HETATM   10  C4  UNL     1      -4.983   2.489  -1.188  1.00  0.00     0.123 C 
BRANCH  10  11
HETATM   11  C3  UNL     1      -6.368   2.505  -0.551  1.00  0.00     0.039 C 
BRANCH  11  12
HETATM   12  C2  UNL     1      -7.365   1.894  -1.487  1.00  0.00     0.123 C 
BRANCH  12  13
HETATM   13  N3  UNL     1      -7.084   0.537  -1.835  1.00  0.00    -0.367 N 
HETATM   14  C1  UNL     1      -7.694  -0.420  -1.242  1.00  0.00     0.196 C 
HETATM   15  N1  UNL     1      -8.644  -0.129  -0.245  1.00  0.00    -0.067 NA
HETATM   16  N2  UNL     1      -7.395  -1.758  -1.607  1.00  0.00    -0.067 NA
ATOM     17  H3  UNL     1      -6.395   0.330  -2.558  1.00  0.00     0.161 HD
ENDBRANCH  12  13
ENDBRANCH  11  12
ENDBRANCH  10  11
ENDBRANCH   8  10
ENDBRANCH   5   8
ENDBRANCH   1   2
BRANCH   1  18
HETATM   18  C9  UNL     1       0.408  -0.775   0.667  1.00  0.00     0.222 C 
HETATM   19  O1  UNL     1       0.577   0.099  -0.216  1.00  0.00    -0.273 OA
HETATM   20  N6  UNL     1       1.356  -1.830   0.771  1.00  0.00    -0.361 N 
ATOM     21  H6  UNL     1       1.233  -2.548   1.485  1.00  0.00     0.162 HD
BRANCH  20  22
HETATM   22  C10 UNL     1       2.483  -1.897  -0.115  1.00  0.00     0.124 C 
BRANCH  22  23
HETATM   23  C11 UNL     1       3.307  -3.109   0.226  1.00  0.00     0.039 C 
BRANCH  23  24
HETATM   24  C12 UNL     1       4.491  -3.126  -0.749  1.00  0.00     0.120 C 
BRANCH  24  25
HETATM   25  N7  UNL     1       5.222  -1.893  -0.537  1.00  0.00    -0.398 N 
HETATM   26  C13 UNL     1       6.482  -1.885  -0.351  1.00  0.00     0.094 C 
ATOM     27  H7  UNL     1       4.714  -1.008  -0.537  1.00  0.00     0.158 HD
BRANCH  26  28
HETATM   28  C14 UNL     1       7.167  -0.623  -0.143  1.00  0.00    -0.021 A 
HETATM   29  C15 UNL     1       8.527  -0.634   0.057  1.00  0.00     0.013 A 
HETATM   30  C16 UNL     1       9.225   0.534   0.259  1.00  0.00     0.001 A 
HETATM   31  C17 UNL     1       8.552   1.736   0.262  1.00  0.00     0.000 A 
HETATM   32  C18 UNL     1       7.206   1.750   0.065  1.00  0.00     0.001 A 
HETATM   33  C19 UNL     1       6.522   0.574  -0.135  1.00  0.00     0.013 A 
ENDBRANCH  26  28
ENDBRANCH  24  25
ENDBRANCH  23  24
ENDBRANCH  22  23
ENDBRANCH  20  22
ENDBRANCH   1  18
TORSDOF 12
