REMARK  4 active torsions:
REMARK  status: ('A' for Active; 'I' for Inactive)
REMARK    1  A    between atoms: S1_2  and  C2_3 
REMARK    2  A    between atoms: C4_9  and  N3_10 
REMARK    3  A    between atoms: C5_15  and  N5_16 
REMARK    4  A    between atoms: C8_23  and  C9_24 
ROOT
HETATM    1  N5  UNL     1      -3.235   1.653  -0.473  1.00  0.00    -0.126 N 
ATOM      2  H5  UNL     1      -2.838   2.592  -0.465  1.00  0.00     0.197 HD
HETATM    3  C6  UNL     1      -4.586   1.524  -0.775  1.00  0.00     0.196 C 
HETATM    4  N6  UNL     1      -5.721   1.432  -1.044  1.00  0.00    -0.171 NA
ENDROOT
BRANCH   1   5
HETATM    5  C5  UNL     1      -2.458   0.678  -0.205  1.00  0.00     0.693 A 
HETATM    6  N4  UNL     1      -2.934  -0.573  -0.203  1.00  0.00    -0.174 N 
HETATM    7  C4  UNL     1      -2.085  -1.593   0.078  1.00  0.00     0.145 A 
ATOM      8  H4  UNL     1      -3.916  -0.756  -0.409  1.00  0.00     0.186 HD
HETATM    9  C3  UNL     1      -0.760  -1.356   0.358  1.00  0.00     0.120 A 
HETATM   10  N2  UNL     1       0.092  -2.370   0.620  1.00  0.00    -0.294 N 
HETATM   11  C7  UNL     1      -0.300  -0.050   0.349  1.00  0.00     0.099 A 
HETATM   12  N1  UNL     1       1.362  -2.183   0.873  1.00  0.00    -0.293 N 
ATOM     13  H2  UNL     1      -0.270  -3.324   0.621  1.00  0.00     0.187 HD
HETATM   14  C2  UNL     1       1.868  -0.955   0.880  1.00  0.00     0.102 A 
ATOM     15  H1  UNL     1       1.965  -2.983   1.065  1.00  0.00     0.187 HD
HETATM   16  C8  UNL     1       1.042   0.150   0.618  1.00  0.00     0.093 A 
HETATM   17  N7  UNL     1      -1.156   0.950   0.067  1.00  0.00    -0.187 N 
ATOM     18  H7  UNL     1      -0.825   1.915   0.058  1.00  0.00     0.184 HD
BRANCH   7  19
HETATM   19  N3  UNL     1      -2.469  -2.822   0.101  1.00  0.00    -0.383 N 
ATOM     20  H32 UNL     1      -1.831  -3.589   0.312  1.00  0.00     0.157 HD
ATOM     21  H31 UNL     1      -3.452  -2.998  -0.107  1.00  0.00     0.157 HD
ENDBRANCH   7  19
BRANCH  14  22
HETATM   22  S1  UNL     1       3.616  -0.764   1.233  1.00  0.00    -0.114 SA
HETATM   23  C1  UNL     1       4.535  -0.916  -0.321  1.00  0.00     0.097 C 
ENDBRANCH  14  22
BRANCH  16  24
HETATM   24  C9  UNL     1       1.643   1.440   0.656  1.00  0.00     0.270 C 
HETATM   25  N8  UNL     1       1.048   2.702   0.698  1.00  0.00    -0.057 NA
HETATM   26  O1  UNL     1       2.934   1.481   0.658  1.00  0.00    -0.271 OA
ENDBRANCH  16  24
ENDBRANCH   1   5
TORSDOF 4
