REMARK  6 active torsions:
REMARK  status: ('A' for Active; 'I' for Inactive)
REMARK    1  A    between atoms: C3_3  and  O1_4 
REMARK    2  A    between atoms: C4_6  and  N1_7 
REMARK    3  A    between atoms: N1_7  and  C5_8 
REMARK    4  A    between atoms: C5_8  and  C6_9 
REMARK    5  A    between atoms: C6_9  and  N2_10 
REMARK    6  A    between atoms: C11_17  and  N5_18 
ROOT
HETATM    1  C1  UNL     1      -1.846   0.672  -2.284  1.00  0.00     0.054 C 
HETATM    2  C2  UNL     1      -1.136   0.471  -0.975  1.00  0.00     0.003 A 
HETATM    3  C3  UNL     1       0.229   0.790  -0.958  1.00  0.00     0.116 A 
HETATM    4  C4  UNL     1       0.967   0.798   0.227  1.00  0.00     0.165 A 
HETATM    5  C9  UNL     1       0.317   0.495   1.412  1.00  0.00     0.116 A 
HETATM    6  N3  UNL     1       1.049   0.526   2.648  1.00  0.00    -0.097 NA
HETATM    7  C10 UNL     1      -1.016   0.184   1.376  1.00  0.00     0.101 A 
HETATM    8  N4  UNL     1      -1.620  -0.087   2.607  1.00  0.00    -0.098 NA
HETATM    9  C11 UNL     1      -1.772   0.155   0.186  1.00  0.00     0.067 A 
ENDROOT
BRANCH   9  10
HETATM   10  N5  UNL     1      -3.054  -0.480   0.181  1.00  0.00    -0.355 N 
HETATM   11  C12 UNL     1      -3.642  -1.137  -0.953  1.00  0.00     0.126 C 
HETATM   12  C13 UNL     1      -4.999  -0.690  -1.386  1.00  0.00     0.047 C 
HETATM   13  C14 UNL     1      -5.774  -0.269  -0.152  1.00  0.00     0.236 C 
HETATM   14  N6  UNL     1      -5.250  -0.980   0.949  1.00  0.00    -0.059 N 
HETATM   15  C15 UNL     1      -3.908  -0.538   1.363  1.00  0.00     0.357 C 
ATOM     16  H62 UNL     1      -5.897  -0.947   1.737  1.00  0.00     0.279 HD
ATOM     17  H61 UNL     1      -5.255  -1.983   0.763  1.00  0.00     0.279 HD
ENDBRANCH   9  10
BRANCH   3  18
HETATM   18  O1  UNL     1       0.820   1.099  -2.175  1.00  0.00    -0.357 OA
ATOM     19  H1  UNL     1       1.745   1.315  -2.163  1.00  0.00     0.218 HD
ENDBRANCH   3  18
BRANCH   4  20
HETATM   20  N1  UNL     1       2.303   0.944   0.217  1.00  0.00    -0.415 NA
BRANCH  20  21
HETATM   21  C5  UNL     1       3.438   1.095   0.209  1.00  0.00     0.185 C 
BRANCH  21  22
HETATM   22  C6  UNL     1       4.333  -0.154   0.187  1.00  0.00     0.330 C 
BRANCH  22  23
HETATM   23  N2  UNL     1       5.443   0.119  -0.662  1.00  0.00     0.085 N 
HETATM   24  C7  UNL     1       6.367   1.071  -0.122  1.00  0.00     0.309 C 
HETATM   25  C8  UNL     1       6.068  -1.142  -1.017  1.00  0.00     0.309 C 
ENDBRANCH  22  23
ENDBRANCH  21  22
ENDBRANCH  20  21
ENDBRANCH   4  20
TORSDOF 6
