REMARK  11 active torsions:
REMARK  status: ('A' for Active; 'I' for Inactive)
REMARK    1  A    between atoms: C7_7  and  O1_8 
REMARK    2  A    between atoms: O1_8  and  C8_9 
REMARK    3  A    between atoms: C8_9  and  C9_10 
REMARK    4  A    between atoms: C9_10  and  C10_11 
REMARK    5  A    between atoms: C9_10  and  C12_24 
REMARK    6  A    between atoms: N4_20  and  N5_21 
REMARK    7  A    between atoms: C12_24  and  N6_25 
REMARK    8  A    between atoms: C12_24  and  C13_29 
REMARK    9  A    between atoms: C13_29  and  O2_30 
REMARK   10  A    between atoms: C13_29  and  C14_32 
REMARK   11  A    between atoms: C16_37  and  N9_38 
ROOT
HETATM    1  C9  UNL     1      -0.162   0.246   0.150  1.00  0.00     0.115 C 
ENDROOT
BRANCH   1   2
HETATM    2  C8  UNL     1      -1.122  -0.807   0.586  1.00  0.00     0.190 C 
BRANCH   2   3
HETATM    3  O1  UNL     1      -2.340  -0.894   0.136  1.00  0.00    -0.350 OA
BRANCH   3   4
HETATM    4  C7  UNL     1      -3.549  -0.477  -0.042  1.00  0.00     0.074 A 
HETATM    5  C2  UNL     1      -4.431  -1.297  -0.795  1.00  0.00    -0.029 A 
HETATM    6  C1  UNL     1      -3.879  -2.566  -1.314  1.00  0.00     0.051 C 
HETATM    7  C3  UNL     1      -5.729  -0.967  -1.050  1.00  0.00     0.009 A 
HETATM    8  C4  UNL     1      -6.275   0.206  -0.582  1.00  0.00     0.001 A 
HETATM    9  C5  UNL     1      -5.460   1.021   0.146  1.00  0.00     0.003 A 
HETATM   10  C6  UNL     1      -4.146   0.705   0.414  1.00  0.00     0.037 A 
ENDBRANCH   3   4
ENDBRANCH   2   3
ENDBRANCH   1   2
BRANCH   1  11
HETATM   11  C10 UNL     1      -0.582   1.630   0.437  1.00  0.00     0.144 A 
HETATM   12  N1  UNL     1      -0.751   2.258   1.607  1.00  0.00    -0.272 N 
HETATM   13  N2  UNL     1      -1.131   3.486   1.410  1.00  0.00    -0.129 N 
ATOM     14  H1  UNL     1      -0.603   1.834   2.523  1.00  0.00     0.189 HD
HETATM   15  C11 UNL     1      -1.222   3.692   0.089  1.00  0.00     0.712 A 
ATOM     16  H2  UNL     1      -1.326   4.175   2.137  1.00  0.00     0.205 HD
HETATM   17  N3  UNL     1      -1.573   4.801  -0.512  1.00  0.00    -0.232 N 
HETATM   18  N4  UNL     1      -0.887   2.559  -0.520  1.00  0.00    -0.077 N 
ATOM     19  H32 UNL     1      -1.830   5.670  -0.045  1.00  0.00     0.174 HD
ATOM     20  H31 UNL     1      -1.642   4.958  -1.517  1.00  0.00     0.174 HD
BRANCH  18  21
HETATM   21  N5  UNL     1      -0.864   2.392  -1.897  1.00  0.00    -0.323 N 
ATOM     22  H52 UNL     1      -0.607   1.523  -2.364  1.00  0.00     0.178 HD
ATOM     23  H51 UNL     1      -1.091   3.085  -2.610  1.00  0.00     0.178 HD
ENDBRANCH  18  21
ENDBRANCH   1  11
BRANCH   1  24
HETATM   24  C12 UNL     1       1.204   0.020   0.791  1.00  0.00     0.230 C 
BRANCH  24  25
HETATM   25  N6  UNL     1       1.082   0.005   2.200  1.00  0.00    -0.071 N 
ATOM     26  H63 UNL     1       0.629   0.848   2.553  1.00  0.00     0.274 HD
ATOM     27  H62 UNL     1       0.394  -0.678   2.517  1.00  0.00     0.274 HD
ATOM     28  H61 UNL     1       1.995  -0.146   2.629  1.00  0.00     0.274 HD
ENDBRANCH  24  25
BRANCH  24  29
HETATM   29  C13 UNL     1       2.060  -0.994   0.188  1.00  0.00     0.191 C 
BRANCH  29  30
HETATM   30  O2  UNL     1       1.676  -2.308   0.566  1.00  0.00    -0.388 OA
ATOM     31  H2  UNL     1       2.234  -2.969   0.173  1.00  0.00     0.210 HD
ENDBRANCH  29  30
BRANCH  29  32
HETATM   32  C14 UNL     1       3.524  -0.863   0.246  1.00  0.00     0.082 A 
HETATM   33  C15 UNL     1       4.302  -1.762  -0.527  1.00  0.00     0.146 A 
HETATM   34  N7  UNL     1       3.672  -2.737  -1.334  1.00  0.00    -0.081 NA
HETATM   35  N8  UNL     1       5.633  -1.734  -0.543  1.00  0.00    -0.178 N 
HETATM   36  C16 UNL     1       6.261  -0.817   0.204  1.00  0.00     0.680 A 
ATOM     37  H8  UNL     1       6.162  -2.396  -1.111  1.00  0.00     0.185 HD
HETATM   38  N10 UNL     1       5.595   0.066   0.961  1.00  0.00    -0.156 N 
HETATM   39  C17 UNL     1       4.220   0.047   0.985  1.00  0.00     0.271 A 
ATOM     40  H10 UNL     1       6.107   0.750   1.518  1.00  0.00     0.187 HD
HETATM   41  O3  UNL     1       3.737   0.925   1.732  1.00  0.00    -0.267 OA
BRANCH  36  42
HETATM   42  N9  UNL     1       7.560  -0.784   0.193  1.00  0.00    -0.234 N 
ATOM     43  H92 UNL     1       8.067  -1.456  -0.383  1.00  0.00     0.174 HD
ATOM     44  H91 UNL     1       8.038  -0.086   0.762  1.00  0.00     0.174 HD
ENDBRANCH  36  42
ENDBRANCH  29  32
ENDBRANCH  24  29
ENDBRANCH   1  24
TORSDOF 11
