REMARK  9 active torsions:
REMARK  status: ('A' for Active; 'I' for Inactive)
REMARK    1  A    between atoms: C2_2  and  C3_3 
REMARK    2  A    between atoms: C2_2  and  N13_44 
REMARK    3  A    between atoms: C3_3  and  C4_4 
REMARK    4  A    between atoms: N1_5  and  C5_7 
REMARK    5  A    between atoms: C6_8  and  C7_9 
REMARK       I    between atoms: C7_9  and  N2_11 
REMARK    6  A    between atoms: N2_11  and  C8_13 
REMARK    7  A    between atoms: C8_13  and  C9_14 
REMARK    8  A    between atoms: C12_21  and  N5_22 
REMARK    9  A    between atoms: N13_44  and  N14_45 
ROOT
HETATM    1  C7  UNL     1       0.222   1.086  -0.345  1.00  0.00     0.276 C 
HETATM    2  O1  UNL     1       1.076   0.336  -0.951  1.00  0.00    -0.266 OA
HETATM    3  N2  UNL     1       0.332   1.103   1.042  1.00  0.00    -0.329 N 
ATOM      4  H2  UNL     1      -0.332   1.700   1.535  1.00  0.00     0.168 HD
ENDROOT
BRANCH   1   5
HETATM    5  C6  UNL     1      -0.694   1.777  -1.217  1.00  0.00     0.148 A 
HETATM    6  C5  UNL     1      -1.873   2.343  -0.850  1.00  0.00     0.111 A 
HETATM    7  C15 UNL     1      -2.674   3.052  -1.766  1.00  0.00     0.144 A 
HETATM    8  N11 UNL     1      -2.232   3.149  -3.023  1.00  0.00    -0.269 N 
HETATM    9  N12 UNL     1      -3.758   3.564  -1.346  1.00  0.00    -0.382 N 
HETATM   10  N10 UNL     1      -1.092   2.606  -3.403  1.00  0.00    -0.240 N 
ATOM     11  H11 UNL     1      -2.792   3.657  -3.708  1.00  0.00     0.190 HD
HETATM   12  N9  UNL     1      -0.355   1.950  -2.543  1.00  0.00    -0.279 N 
ATOM     13  H10 UNL     1      -0.783   2.698  -4.371  1.00  0.00     0.208 HD
ATOM     14  H9  UNL     1       0.521   1.543  -2.872  1.00  0.00     0.189 HD
ATOM     15 2H12 UNL     1      -4.095   3.490  -0.386  1.00  0.00     0.157 HD
ATOM     16 1H12 UNL     1      -4.338   4.078  -2.009  1.00  0.00     0.157 HD
BRANCH   6  17
HETATM   17  N1  UNL     1      -2.364   2.185   0.490  1.00  0.00    -0.364 N 
HETATM   18  C4  UNL     1      -3.237   1.236   0.727  1.00  0.00     0.063 C 
ATOM     19  H1  UNL     1      -2.041   2.797   1.240  1.00  0.00     0.165 HD
BRANCH  18  20
HETATM   20  C3  UNL     1      -3.744   0.324  -0.299  1.00  0.00     0.067 C 
BRANCH  20  21
HETATM   21  C2  UNL     1      -4.025  -1.063   0.236  1.00  0.00     0.099 C 
HETATM   22  C1  UNL     1      -2.813  -1.725   0.806  1.00  0.00     0.030 C 
BRANCH  21  23
HETATM   23  N13 UNL     1      -5.070  -1.011   1.265  1.00  0.00    -0.143 NA
BRANCH  23  24
HETATM   24  N14 UNL     1      -6.221  -0.388   0.742  1.00  0.00    -0.348 N 
ATOM     25 2H14 UNL     1      -6.300  -0.032  -0.211  1.00  0.00     0.172 HD
ATOM     26 1H14 UNL     1      -6.947  -0.352   1.457  1.00  0.00     0.172 HD
ENDBRANCH  23  24
ENDBRANCH  21  23
ENDBRANCH  20  21
ENDBRANCH  18  20
ENDBRANCH   6  17
ENDBRANCH   1   5
BRANCH   3  27
HETATM   27  C8  UNL     1       1.264   0.384   1.865  1.00  0.00     0.122 C 
BRANCH  27  28
HETATM   28  C9  UNL     1       2.210  -0.480   1.196  1.00  0.00     0.064 A 
HETATM   29  C10 UNL     1       2.012  -1.829   0.922  1.00  0.00     0.120 A 
HETATM   30  N3  UNL     1       2.947  -2.578   0.318  1.00  0.00    -0.348 N 
HETATM   31  C11 UNL     1       4.128  -2.056  -0.053  1.00  0.00     0.151 A 
ATOM     32  H3  UNL     1       2.757  -3.564   0.137  1.00  0.00     0.167 HD
HETATM   33  N4  UNL     1       5.048  -2.826  -0.656  1.00  0.00    -0.174 N 
HETATM   34  C14 UNL     1       4.357  -0.721   0.203  1.00  0.00     0.122 A 
HETATM   35  C12 UNL     1       6.212  -2.257  -1.008  1.00  0.00     0.679 A 
ATOM     36  H4  UNL     1       4.868  -3.813  -0.841  1.00  0.00     0.186 HD
HETATM   37  N6  UNL     1       6.464  -0.939  -0.766  1.00  0.00    -0.175 N 
HETATM   38  C13 UNL     1       5.565  -0.164  -0.171  1.00  0.00     0.145 A 
ATOM     39  H6  UNL     1       7.360  -0.541  -1.047  1.00  0.00     0.186 HD
HETATM   40  N7  UNL     1       5.789   1.078   0.062  1.00  0.00    -0.383 N 
ATOM     41  H72 UNL     1       6.681   1.489  -0.214  1.00  0.00     0.157 HD
ATOM     42  H71 UNL     1       5.098   1.673   0.519  1.00  0.00     0.157 HD
HETATM   43  N8  UNL     1       3.417   0.024   0.807  1.00  0.00    -0.348 N 
ATOM     44  H8  UNL     1       3.614   1.009   0.983  1.00  0.00     0.166 HD
BRANCH  35  45
HETATM   45  N5  UNL     1       7.094  -3.005  -1.588  1.00  0.00    -0.234 N 
ATOM     46  H52 UNL     1       6.905  -3.991  -1.769  1.00  0.00     0.174 HD
ATOM     47  H51 UNL     1       7.978  -2.573  -1.855  1.00  0.00     0.174 HD
ENDBRANCH  35  45
ENDBRANCH  27  28
ENDBRANCH   3  27
TORSDOF 9
