REMARK  3 active torsions:
REMARK  status: ('A' for Active; 'I' for Inactive)
REMARK    1  A    between atoms: C9_9  and  C10_10 
REMARK    2  A    between atoms: C10_10  and  C11_11 
REMARK    3  A    between atoms: C11_11  and  C13_13 
ROOT
HETATM    1  C1  UNL     1       5.084   0.036  -2.302  1.00  0.00     0.012 C 
HETATM    2  C2  UNL     1       4.933   0.972  -1.128  1.00  0.00     0.004 C 
HETATM    3  C3  UNL     1       6.165   0.982  -0.251  1.00  0.00     0.006 C 
HETATM    4  C4  UNL     1       6.496  -0.418   0.201  1.00  0.00     0.001 C 
HETATM    5  C5  UNL     1       5.304  -1.143   0.776  1.00  0.00     0.007 C 
HETATM    6  C6  UNL     1       4.164  -0.178   0.959  1.00  0.00     0.013 C 
HETATM    7  C7  UNL     1       2.982  -0.886   1.568  1.00  0.00     0.050 C 
HETATM    8  C8  UNL     1       1.708  -0.104   1.377  1.00  0.00     0.006 C 
HETATM    9  C9  UNL     1       0.553  -0.680   1.531  1.00  0.00    -0.014 C 
HETATM   10  C23 UNL     1       1.891   1.297   1.034  1.00  0.00     0.247 C 
HETATM   11  O1  UNL     1       1.171   2.158   1.584  1.00  0.00    -0.268 OA
HETATM   12  N1  UNL     1       2.892   1.631   0.078  1.00  0.00    -0.352 N 
ATOM     13  H1  UNL     1       2.991   2.569  -0.310  1.00  0.00     0.163 HD
HETATM   14  C24 UNL     1       3.772   0.516  -0.305  1.00  0.00     0.092 C 
ENDROOT
BRANCH   9  15
HETATM   15  C10 UNL     1      -0.772  -0.089   1.387  1.00  0.00     0.033 C 
BRANCH  15  16
HETATM   16  C11 UNL     1      -1.567  -0.843   0.319  1.00  0.00    -0.007 C 
HETATM   17  C12 UNL     1      -0.813  -0.735  -0.966  1.00  0.00     0.011 C 
BRANCH  16  18
HETATM   18  C13 UNL     1      -2.973  -0.320   0.208  1.00  0.00    -0.036 C 
HETATM   19  C14 UNL     1      -3.050   1.130  -0.160  1.00  0.00     0.014 C 
HETATM   20  C15 UNL     1      -4.514   1.503  -0.264  1.00  0.00    -0.013 C 
HETATM   21  C16 UNL     1      -5.221   0.743  -1.359  1.00  0.00     0.009 C 
HETATM   22  C20 UNL     1      -5.265   1.288   1.016  1.00  0.00     0.009 C 
HETATM   23  C17 UNL     1      -5.114  -0.736  -1.026  1.00  0.00    -0.013 C 
HETATM   24  C18 UNL     1      -5.789  -1.044   0.280  1.00  0.00     0.009 C 
HETATM   25  C22 UNL     1      -3.657  -1.109  -0.890  1.00  0.00     0.014 C 
HETATM   26  C19 UNL     1      -5.172  -0.188   1.356  1.00  0.00    -0.013 C 
HETATM   27  C21 UNL     1      -3.696  -0.508   1.519  1.00  0.00     0.014 C 
ENDBRANCH  16  18
ENDBRANCH  15  16
ENDBRANCH   9  15
TORSDOF 3
