REMARK  6 active torsions:
REMARK  status: ('A' for Active; 'I' for Inactive)
REMARK    1  A    between atoms: C3_5  and  N2_6 
REMARK    2  A    between atoms: C10_15  and  N4_16 
REMARK    3  A    between atoms: C11_19  and  S1_20 
REMARK    4  A    between atoms: S1_20  and  C12_21 
REMARK    5  A    between atoms: C12_21  and  C13_22 
REMARK    6  A    between atoms: C13_22  and  O1_24 
ROOT
HETATM    1  O1  UNL     1       5.866   1.262  -0.839  1.00  0.00    -0.278 OA
HETATM    2  C15 UNL     1       6.354   2.243  -0.026  1.00  0.00     0.228 C 
HETATM    3  N5  UNL     1       6.785   3.067   0.671  1.00  0.00    -0.164 NA
ENDROOT
BRANCH   1   4
HETATM    4  C13 UNL     1       5.573  -0.033  -0.395  1.00  0.00     0.147 C 
HETATM    5  C14 UNL     1       6.482  -0.999  -1.142  1.00  0.00     0.042 C 
BRANCH   4   6
HETATM    6  C12 UNL     1       4.127  -0.418  -0.683  1.00  0.00     0.112 C 
BRANCH   6   7
HETATM    7  S1  UNL     1       3.063   0.736   0.210  1.00  0.00    -0.122 SA
BRANCH   7   8
HETATM    8  C11 UNL     1       1.347   0.406  -0.033  1.00  0.00     0.067 A 
HETATM    9  C2  UNL     1       0.679  -0.452   0.806  1.00  0.00     0.043 A 
HETATM   10  C1  UNL     1       1.409  -1.104   1.926  1.00  0.00     0.070 C 
HETATM   11  N1  UNL     1      -0.638  -0.720   0.636  1.00  0.00    -0.194 N 
HETATM   12  C3  UNL     1      -1.324  -0.147  -0.366  1.00  0.00     0.682 A 
ATOM     13  H1  UNL     1      -1.111  -1.361   1.273  1.00  0.00     0.184 HD
HETATM   14  N3  UNL     1      -0.701   0.704  -1.214  1.00  0.00    -0.176 N 
HETATM   15  C10 UNL     1       0.627   0.983  -1.055  1.00  0.00     0.133 A 
ATOM     16  H3  UNL     1      -1.224   1.138  -1.974  1.00  0.00     0.186 HD
BRANCH  12  17
HETATM   17  N2  UNL     1      -2.694  -0.419  -0.558  1.00  0.00    -0.218 N 
HETATM   18  C4  UNL     1      -3.377  -1.326   0.302  1.00  0.00     0.141 C 
HETATM   19  C5  UNL     1      -3.945  -0.664   1.539  1.00  0.00     0.020 C 
HETATM   20  C6  UNL     1      -4.997   0.363   1.189  1.00  0.00     0.002 C 
HETATM   21  C7  UNL     1      -4.555   1.340   0.150  1.00  0.00     0.002 C 
HETATM   22  C8  UNL     1      -4.729   0.697  -1.219  1.00  0.00     0.020 C 
HETATM   23  C9  UNL     1      -3.323   0.297  -1.679  1.00  0.00     0.141 C 
ENDBRANCH  12  17
BRANCH  15  24
HETATM   24  N4  UNL     1       1.256   1.787  -1.839  1.00  0.00    -0.384 N 
ATOM     25  H42 UNL     1       0.723   2.214  -2.596  1.00  0.00     0.157 HD
ATOM     26  H41 UNL     1       2.247   1.995  -1.720  1.00  0.00     0.157 HD
ENDBRANCH  15  24
ENDBRANCH   7   8
ENDBRANCH   6   7
ENDBRANCH   4   6
ENDBRANCH   1   4
TORSDOF 6
