REMARK  7 active torsions:
REMARK  status: ('A' for Active; 'I' for Inactive)
REMARK    1  A    between atoms: C2_2  and  C3_3 
REMARK    2  A    between atoms: C3_3  and  N1_5 
REMARK    3  A    between atoms: C9_17  and  S1_18 
REMARK    4  A    between atoms: S1_18  and  C10_19 
REMARK    5  A    between atoms: C10_19  and  C11_20 
REMARK    6  A    between atoms: C11_20  and  O1_23 
REMARK    7  A    between atoms: N5_25  and  C14_26 
ROOT
HETATM    1  N1  UNL     1       2.735   1.064   0.679  1.00  0.00    -0.367 N 
ATOM      2  H1  UNL     1       1.938   1.662   0.463  1.00  0.00     0.161 HD
HETATM    3  C5  UNL     1       2.486  -0.134   0.480  1.00  0.00     0.133 A 
HETATM    4  N2  UNL     1       3.376  -1.105   0.689  1.00  0.00    -0.337 N 
ATOM      5  H2  UNL     1       4.311  -0.873   1.025  1.00  0.00     0.168 HD
HETATM    6  C6  UNL     1       3.046  -2.396   0.458  1.00  0.00     0.183 A 
HETATM    7  N3  UNL     1       1.840  -2.748   0.020  1.00  0.00    -0.336 N 
ATOM      8  H3  UNL     1       1.628  -3.732  -0.142  1.00  0.00     0.168 HD
HETATM    9  C7  UNL     1       0.883  -1.802  -0.214  1.00  0.00     0.141 A 
HETATM   10  C8  UNL     1       1.222  -0.491   0.022  1.00  0.00     0.123 A 
HETATM   11  N4  UNL     1       0.109   0.220  -0.279  1.00  0.00    -0.331 N 
ATOM     12  H4  UNL     1       0.027   1.234  -0.210  1.00  0.00     0.168 HD
HETATM   13  C9  UNL     1      -0.861  -0.596  -0.677  1.00  0.00     0.148 A 
HETATM   14  N5  UNL     1      -0.379  -1.883  -0.638  1.00  0.00    -0.312 N 
ENDROOT
BRANCH  13  15
HETATM   15  S1  UNL     1      -2.553  -0.279  -1.240  1.00  0.00    -0.091 SA
BRANCH  15  16
HETATM   16  C10 UNL     1      -3.642  -0.208   0.162  1.00  0.00     0.119 C 
BRANCH  16  17
HETATM   17  C11 UNL     1      -4.428   1.078   0.315  1.00  0.00     0.059 C 
HETATM   18  C12 UNL     1      -3.594   2.316   0.428  1.00  0.00     0.046 C 
HETATM   19  C13 UNL     1      -5.498   1.188  -0.749  1.00  0.00     0.046 C 
BRANCH  17  20
HETATM   20  O1  UNL     1      -5.110   0.938   1.561  1.00  0.00    -0.390 OA
ATOM     21  H1  UNL     1      -5.603   1.744   1.657  1.00  0.00     0.210 HD
ENDBRANCH  17  20
ENDBRANCH  16  17
ENDBRANCH  15  16
ENDBRANCH  13  15
BRANCH  14  22
HETATM   22  C14 UNL     1      -1.131  -3.064  -1.025  1.00  0.00     0.128 C 
HETATM   23  C15 UNL     1      -1.060  -3.310  -2.496  1.00  0.00     0.027 C 
ENDBRANCH  14  22
BRANCH   1  24
HETATM   24  C3  UNL     1       3.848   1.806   1.130  1.00  0.00     0.101 C 
HETATM   25  C4  UNL     1       4.516   1.333   2.378  1.00  0.00     0.036 C 
BRANCH  24  26
HETATM   26  C2  UNL     1       4.875   1.774   0.023  1.00  0.00    -0.013 C 
HETATM   27  C1  UNL     1       4.884   2.738  -0.848  1.00  0.00     0.009 C 
ENDBRANCH  24  26
ENDBRANCH   1  24
TORSDOF 7
