REMARK  8 active torsions:
REMARK  status: ('A' for Active; 'I' for Inactive)
REMARK    1  A    between atoms: C2_2  and  C3_3 
REMARK    2  A    between atoms: C3_3  and  C4_4 
REMARK    3  A    between atoms: C4_4  and  C5_5 
REMARK    4  A    between atoms: C6_8  and  O1_9 
REMARK    5  A    between atoms: C8_13  and  C9_14 
REMARK    6  A    between atoms: C13_21  and  C14_22 
REMARK    7  A    between atoms: C14_22  and  C15_23 
REMARK    8  A    between atoms: C19_30  and  C20_31 
ROOT
HETATM    1  C5  UNL     1       3.600  -0.103  -0.247  1.00  0.00     0.175 C 
HETATM    2  N1  UNL     1       2.836   0.860  -0.957  1.00  0.00    -0.355 N 
ATOM      3  H1  UNL     1       2.462   0.532  -1.848  1.00  0.00     0.162 HD
HETATM    4  C6  UNL     1       2.505   2.203  -0.635  1.00  0.00     0.185 C 
HETATM    5  C7  UNL     1       1.759   2.696   0.504  1.00  0.00     0.222 C 
HETATM    6  O2  UNL     1       2.427   3.478   1.281  1.00  0.00    -0.286 OA
HETATM    7  C8  UNL     1       0.356   2.430   0.892  1.00  0.00     0.166 C 
HETATM    8  N2  UNL     1      -0.613   2.828  -0.102  1.00  0.00    -0.347 N 
ATOM      9  H2  UNL     1      -0.695   3.836  -0.234  1.00  0.00     0.163 HD
HETATM   10  C12 UNL     1      -1.451   2.072  -0.907  1.00  0.00     0.241 C 
HETATM   11  O3  UNL     1      -1.254   2.173  -2.180  1.00  0.00    -0.271 OA
HETATM   12  C13 UNL     1      -2.545   1.162  -0.493  1.00  0.00     0.177 C 
HETATM   13  N3  UNL     1      -2.702   0.057  -1.429  1.00  0.00    -0.346 N 
ATOM     14  H3  UNL     1      -2.465   0.260  -2.400  1.00  0.00     0.163 HD
HETATM   15  C18 UNL     1      -3.138  -1.252  -1.167  1.00  0.00     0.241 C 
HETATM   16  O4  UNL     1      -4.145  -1.710  -1.822  1.00  0.00    -0.271 OA
HETATM   17  C19 UNL     1      -2.544  -2.210  -0.179  1.00  0.00     0.180 C 
HETATM   18  N4  UNL     1      -1.745  -3.209  -0.824  1.00  0.00    -0.346 N 
ATOM     19  H4  UNL     1      -1.742  -3.155  -1.843  1.00  0.00     0.163 HD
HETATM   20  C23 UNL     1      -0.977  -4.234  -0.304  1.00  0.00     0.237 C 
HETATM   21  O5  UNL     1      -1.189  -5.435  -0.738  1.00  0.00    -0.272 OA
HETATM   22  C24 UNL     1       0.101  -4.163   0.718  1.00  0.00     0.179 C 
HETATM   23 CL1  UNL     1      -0.060  -2.835   1.850  1.00  0.00    -0.115 Cl
HETATM   24  C25 UNL     1       1.467  -4.339   0.138  1.00  0.00     0.031 C 
HETATM   25  C26 UNL     1       2.354  -5.100   1.100  1.00  0.00     0.014 C 
HETATM   26  C27 UNL     1       2.189  -3.093  -0.285  1.00  0.00     0.086 C 
HETATM   27  C28 UNL     1       1.531  -2.359  -1.395  1.00  0.00     0.032 C 
HETATM   28  N5  UNL     1       2.574  -2.253   0.801  1.00  0.00    -0.355 N 
ATOM     29  H5  UNL     1       2.630  -2.711   1.710  1.00  0.00     0.162 HD
HETATM   30  C29 UNL     1       2.888  -0.881   0.796  1.00  0.00     0.240 C 
HETATM   31  O6  UNL     1       2.510  -0.245   1.820  1.00  0.00    -0.271 OA
ENDROOT
BRANCH   1  32
HETATM   32  C4  UNL     1       4.818   0.449   0.478  1.00  0.00     0.035 C 
BRANCH  32  33
HETATM   33  C3  UNL     1       5.833   1.116  -0.354  1.00  0.00     0.002 C 
BRANCH  33  34
HETATM   34  C2  UNL     1       6.393   0.169  -1.383  1.00  0.00    -0.004 C 
HETATM   35  C1  UNL     1       7.456   0.909  -2.190  1.00  0.00     0.005 C 
ENDBRANCH  33  34
ENDBRANCH  32  33
ENDBRANCH   1  32
BRANCH   4  36
HETATM   36  O1  UNL     1       2.923   3.128  -1.467  1.00  0.00    -0.344 OA
ATOM     37  H1  UNL     1       2.702   4.026  -1.252  1.00  0.00     0.219 HD
ENDBRANCH   4  36
BRANCH   7  38
HETATM   38  C9  UNL     1       0.110   3.130   2.219  1.00  0.00     0.008 C 
HETATM   39  C10 UNL     1      -1.324   2.862   2.698  1.00  0.00     0.012 C 
HETATM   40  C11 UNL     1       0.363   4.618   2.161  1.00  0.00     0.012 C 
ENDBRANCH   7  38
BRANCH  12  41
HETATM   41  C14 UNL     1      -3.815   1.856  -0.212  1.00  0.00     0.038 C 
BRANCH  41  42
HETATM   42  C15 UNL     1      -4.525   2.638  -1.226  1.00  0.00    -0.020 C 
HETATM   43  C16 UNL     1      -3.854   3.807  -1.839  1.00  0.00     0.009 C 
HETATM   44  C17 UNL     1      -5.759   3.202  -0.477  1.00  0.00     0.009 C 
ENDBRANCH  41  42
ENDBRANCH  12  41
BRANCH  17  45
HETATM   45  C20 UNL     1      -3.618  -2.829   0.706  1.00  0.00     0.009 C 
HETATM   46  C21 UNL     1      -4.653  -3.597  -0.091  1.00  0.00     0.012 C 
HETATM   47  C22 UNL     1      -4.218  -1.819   1.630  1.00  0.00     0.012 C 
ENDBRANCH  17  45
TORSDOF 8
