REMARK  5 active torsions:
REMARK  status: ('A' for Active; 'I' for Inactive)
REMARK    1  A    between atoms: N1_4  and  C4_5 
REMARK    2  A    between atoms: C4_5  and  C5_6 
REMARK    3  A    between atoms: C5_6  and  C6_7 
REMARK    4  A    between atoms: C6_7  and  N2_8 
REMARK    5  A    between atoms: C8_12  and  N4_13 
ROOT
HETATM    1  C6  UNL     1      -1.805  -0.636   0.618  1.00  0.00     0.152 C 
ENDROOT
BRANCH   1   2
HETATM    2  C5  UNL     1      -0.463  -0.309  -0.042  1.00  0.00     0.042 C 
BRANCH   2   3
HETATM    3  C4  UNL     1       0.580  -1.006   0.823  1.00  0.00     0.129 C 
BRANCH   3   4
HETATM    4  N1  UNL     1       1.913  -0.809   0.353  1.00  0.00    -0.363 N 
HETATM    5  C3  UNL     1       2.668   0.222   0.762  1.00  0.00     0.114 A 
HETATM    6  C2  UNL     1       3.971   0.367   0.268  1.00  0.00     0.020 A 
HETATM    7  C1  UNL     1       4.793   1.513   0.730  1.00  0.00     0.069 C 
HETATM    8  N6  UNL     1       4.459  -0.524  -0.613  1.00  0.00    -0.367 N 
HETATM    9  C10 UNL     1       3.713  -1.560  -1.030  1.00  0.00     0.105 A 
ATOM     10  H6  UNL     1       5.408  -0.412  -0.969  1.00  0.00     0.165 HD
HETATM   11  C9  UNL     1       2.432  -1.680  -0.527  1.00  0.00     0.107 A 
ENDBRANCH   3   4
ENDBRANCH   2   3
ENDBRANCH   1   2
BRANCH   1  12
HETATM   12  N2  UNL     1      -2.910  -0.058  -0.066  1.00  0.00    -0.273 N 
HETATM   13  C7  UNL     1      -3.621  -0.610  -1.061  1.00  0.00     0.218 A 
HETATM   14  N3  UNL     1      -4.595   0.260  -1.447  1.00  0.00    -0.185 N 
HETATM   15  C8  UNL     1      -4.448   1.332  -0.665  1.00  0.00     0.691 A 
ATOM     16  H3  UNL     1      -5.291   0.122  -2.180  1.00  0.00     0.185 HD
HETATM   17  N5  UNL     1      -3.424   1.132   0.171  1.00  0.00    -0.129 N 
ATOM     18  H5  UNL     1      -3.095   1.792   0.876  1.00  0.00     0.206 HD
BRANCH  15  19
HETATM   19  N4  UNL     1      -5.153   2.418  -0.669  1.00  0.00    -0.233 N 
ATOM     20  H42 UNL     1      -5.934   2.571  -1.307  1.00  0.00     0.174 HD
ATOM     21  H41 UNL     1      -5.041   3.237  -0.072  1.00  0.00     0.174 HD
ENDBRANCH  15  19
ENDBRANCH   1  12
TORSDOF 5
