REMARK  10 active torsions:
REMARK  status: ('A' for Active; 'I' for Inactive)
REMARK    1  A    between atoms: C2_2  and  C4_4 
REMARK    2  A    between atoms: C4_4  and  C5_5 
REMARK    3  A    between atoms: C12_14  and  C13_15 
REMARK       I    between atoms: C13_15  and  N1_17 
REMARK    4  A    between atoms: C18_23  and  C19_24 
REMARK    5  A    between atoms: C19_24  and  C20_25 
REMARK    6  A    between atoms: C20_25  and  C21_26 
REMARK    7  A    between atoms: C21_26  and  C22_27 
REMARK    8  A    between atoms: C22_27  and  C23_28 
REMARK    9  A    between atoms: C23_28  and  C24_29 
REMARK   10  A    between atoms: C24_29  and  N3_30 
ROOT
HETATM    1  C4  UNL     1       4.137   1.306  -0.118  1.00  0.00     0.008 C 
HETATM    2  C11 UNL     1       4.037  -0.030  -0.766  1.00  0.00     0.051 C 
HETATM    3  C12 UNL     1       2.648  -0.602  -0.409  1.00  0.00     0.176 C 
HETATM    4  N2  UNL     1       2.079   0.261   0.484  1.00  0.00    -0.379 N 
HETATM    5  C18 UNL     1       0.946   0.242   1.232  1.00  0.00     0.059 C 
HETATM    6  C30 UNL     1       2.759   1.546   0.436  1.00  0.00     0.137 C 
ENDROOT
BRANCH   3   7
HETATM    7  C13 UNL     1       2.784  -2.014   0.033  1.00  0.00     0.242 C 
HETATM    8  O1  UNL     1       2.362  -2.324   1.181  1.00  0.00    -0.271 OA
HETATM    9  N1  UNL     1       3.360  -3.018  -0.766  1.00  0.00    -0.350 N 
HETATM   10  C14 UNL     1       3.504  -4.443  -0.354  1.00  0.00     0.126 C 
HETATM   11  C17 UNL     1       3.951  -3.027  -2.086  1.00  0.00     0.126 C 
HETATM   12  C15 UNL     1       4.982  -4.663  -0.661  1.00  0.00     0.021 C 
HETATM   13  C16 UNL     1       5.323  -3.677  -1.788  1.00  0.00     0.021 C 
ENDBRANCH   3   7
BRANCH   5  14
HETATM   14  C19 UNL     1      -0.415   0.338   0.623  1.00  0.00     0.044 C 
BRANCH  14  15
HETATM   15  C20 UNL     1      -0.814  -0.790  -0.276  1.00  0.00     0.005 C 
BRANCH  15  16
HETATM   16  C21 UNL     1      -2.223  -0.546  -0.842  1.00  0.00     0.000 C 
BRANCH  16  17
HETATM   17  C22 UNL     1      -3.222  -0.400   0.273  1.00  0.00     0.002 C 
BRANCH  17  18
HETATM   18  C23 UNL     1      -4.613  -0.139  -0.373  1.00  0.00     0.020 C 
BRANCH  18  19
HETATM   19  C24 UNL     1      -5.627   0.049   0.689  1.00  0.00     0.128 C 
BRANCH  19  20
HETATM   20  N3  UNL     1      -6.971   0.350   0.306  1.00  0.00    -0.329 N 
HETATM   21  C25 UNL     1      -7.442   1.690   0.627  1.00  0.00     0.194 A 
HETATM   22  N4  UNL     1      -6.516   2.625   1.184  1.00  0.00    -0.063 NA
HETATM   23  N5  UNL     1      -8.639   2.050   0.414  1.00  0.00    -0.305 N 
HETATM   24  C26 UNL     1      -9.623   1.197  -0.161  1.00  0.00     0.192 A 
ATOM     25  H5  UNL     1      -8.911   3.000   0.668  1.00  0.00     0.171 HD
HETATM   26  N6  UNL     1     -10.964   1.622  -0.376  1.00  0.00    -0.063 NA
HETATM   27  N7  UNL     1      -9.221   0.020  -0.474  1.00  0.00    -0.338 N 
HETATM   28  C27 UNL     1      -7.904  -0.530  -0.322  1.00  0.00     0.102 A 
ATOM     29  H7  UNL     1      -9.922  -0.600  -0.880  1.00  0.00     0.164 HD
HETATM   30  C28 UNL     1      -7.346  -0.931  -1.691  1.00  0.00     0.063 C 
HETATM   31  C29 UNL     1      -8.070  -1.835   0.450  1.00  0.00     0.063 C 
ENDBRANCH  19  20
ENDBRANCH  18  19
ENDBRANCH  17  18
ENDBRANCH  16  17
ENDBRANCH  15  16
ENDBRANCH  14  15
ENDBRANCH   5  14
BRANCH   1  32
HETATM   32  C2  UNL     1       4.406   2.311  -1.238  1.00  0.00    -0.008 C 
HETATM   33  C1  UNL     1       5.762   2.084  -1.855  1.00  0.00     0.011 C 
HETATM   34  C3  UNL     1       4.249   3.731  -0.837  1.00  0.00     0.011 C 
ENDBRANCH   1  32
BRANCH   1  35
HETATM   35  C5  UNL     1       5.172   1.435   0.938  1.00  0.00    -0.046 A 
HETATM   36  C6  UNL     1       6.236   0.593   1.104  1.00  0.00     0.010 A 
HETATM   37  C7  UNL     1       7.148   0.795   2.118  1.00  0.00     0.026 A 
HETATM   38  C8  UNL     1       6.985   1.858   2.973  1.00  0.00     0.055 A 
HETATM   39 CL1  UNL     1       8.139   2.116   4.253  1.00  0.00    -0.083 Cl
HETATM   40  C9  UNL     1       5.929   2.730   2.842  1.00  0.00     0.056 A 
HETATM   41 CL2  UNL     1       5.766   4.073   3.962  1.00  0.00    -0.083 Cl
HETATM   42  C10 UNL     1       5.034   2.508   1.825  1.00  0.00     0.033 A 
ENDBRANCH   1  35
TORSDOF 10
