REMARK  14 active torsions:
REMARK  status: ('A' for Active; 'I' for Inactive)
REMARK    1  A    between atoms: C2_2  and  O1_4 
REMARK    2  A    between atoms: O1_4  and  C4_5 
REMARK    3  A    between atoms: C4_5  and  C5_7 
REMARK    4  A    between atoms: C5_7  and  N1_9 
REMARK       I    between atoms: N1_9  and  C7_11 
REMARK    5  A    between atoms: C7_11  and  C8_13 
REMARK    6  A    between atoms: N2_16  and  C11_17 
REMARK    7  A    between atoms: C11_17  and  C12_18 
REMARK    8  A    between atoms: C12_18  and  C13_19 
REMARK    9  A    between atoms: C13_19  and  C14_20 
REMARK   10  A    between atoms: C14_20  and  O4_21 
REMARK   11  A    between atoms: C14_20  and  C15_23 
REMARK   12  A    between atoms: C16_24  and  O5_25 
REMARK   13  A    between atoms: C19_29  and  C20_30 
REMARK   14  A    between atoms: C27_38  and  C28_39 
ROOT
HETATM    1  C14 UNL     1      -2.397  -2.354   0.771  1.00  0.00     0.057 C 
ENDROOT
BRANCH   1   2
HETATM    2  C13 UNL     1      -1.788  -2.622  -0.490  1.00  0.00     0.067 C 
BRANCH   2   3
HETATM    3  C12 UNL     1      -0.669  -1.631  -0.857  1.00  0.00     0.026 C 
BRANCH   3   4
HETATM    4  C11 UNL     1       0.448  -1.612   0.150  1.00  0.00     0.117 C 
BRANCH   4   5
HETATM    5  N2  UNL     1       1.483  -0.693  -0.215  1.00  0.00    -0.412 N 
HETATM    6  C10 UNL     1       1.134   0.683  -0.181  1.00  0.00     0.117 C 
HETATM    7  C9  UNL     1       2.283   1.623  -0.317  1.00  0.00     0.033 C 
HETATM    8  C8  UNL     1       3.365   1.123  -1.228  1.00  0.00     0.081 C 
HETATM    9  C31 UNL     1       2.865  -0.009  -2.092  1.00  0.00     0.033 C 
HETATM   10  C30 UNL     1       2.384  -1.120  -1.220  1.00  0.00     0.117 C 
BRANCH   8  11
HETATM   11  C7  UNL     1       4.523   0.738  -0.394  1.00  0.00     0.222 C 
HETATM   12  N1  UNL     1       5.714   0.226  -0.981  1.00  0.00    -0.347 N 
ATOM     13  H1  UNL     1       5.762   0.124  -1.995  1.00  0.00     0.163 HD
HETATM   14  O3  UNL     1       4.501   0.847   0.869  1.00  0.00    -0.273 OA
BRANCH  12  15
HETATM   15  C5  UNL     1       6.861  -0.155  -0.180  1.00  0.00     0.180 C 
HETATM   16  C6  UNL     1       7.020  -1.670  -0.355  1.00  0.00     0.043 C 
BRANCH  15  17
HETATM   17  C4  UNL     1       8.066   0.566  -0.633  1.00  0.00     0.281 C 
HETATM   18  O2  UNL     1       7.982   1.362  -1.583  1.00  0.00    -0.263 OA
BRANCH  17  19
HETATM   19  O1  UNL     1       9.280   0.369  -0.019  1.00  0.00    -0.315 OA
BRANCH  19  20
HETATM   20  C2  UNL     1      10.431   1.065  -0.461  1.00  0.00     0.123 C 
HETATM   21  C1  UNL     1      11.037   1.918   0.634  1.00  0.00     0.040 C 
HETATM   22  C3  UNL     1      11.455   0.042  -0.880  1.00  0.00     0.040 C 
ENDBRANCH  19  20
ENDBRANCH  17  19
ENDBRANCH  15  17
ENDBRANCH  12  15
ENDBRANCH   8  11
ENDBRANCH   4   5
ENDBRANCH   3   4
ENDBRANCH   2   3
ENDBRANCH   1   2
BRANCH   1  23
HETATM   23  O4  UNL     1      -1.608  -2.916   1.737  1.00  0.00    -0.364 OA
ATOM     24  H4  UNL     1      -2.014  -2.737   2.577  1.00  0.00     0.217 HD
ENDBRANCH   1  23
BRANCH   1  25
HETATM   25  C15 UNL     1      -3.508  -1.716   1.390  1.00  0.00     0.039 A 
HETATM   26  C16 UNL     1      -3.544  -1.730   2.830  1.00  0.00     0.079 A 
HETATM   27  C17 UNL     1      -4.511  -1.045   3.495  1.00  0.00     0.038 A 
HETATM   28  C18 UNL     1      -5.462  -0.331   2.861  1.00  0.00     0.017 A 
HETATM   29  C19 UNL     1      -5.467  -0.285   1.428  1.00  0.00     0.003 A 
HETATM   30  C27 UNL     1      -4.513  -0.981   0.764  1.00  0.00     0.040 A 
BRANCH  26  31
HETATM   31  O5  UNL     1      -2.573  -2.458   3.517  1.00  0.00    -0.360 OA
ATOM     32  H5  UNL     1      -2.597  -2.467   4.467  1.00  0.00     0.217 HD
ENDBRANCH  26  31
BRANCH  29  33
HETATM   33  C20 UNL     1      -6.460   0.595   0.869  1.00  0.00     0.037 C 
HETATM   34  C21 UNL     1      -7.706   0.453   1.322  1.00  0.00     0.003 C 
HETATM   35  C22 UNL     1      -8.985   1.109   1.044  1.00  0.00     0.029 C 
HETATM   36  C23 UNL     1      -8.811   2.465   0.389  1.00  0.00     0.005 C 
HETATM   37  C24 UNL     1      -8.183   2.232  -0.965  1.00  0.00     0.020 C 
HETATM   38  C25 UNL     1      -6.716   2.557  -0.863  1.00  0.00     0.122 C 
HETATM   39  N3  UNL     1      -6.042   1.704   0.093  1.00  0.00    -0.385 N 
HETATM   40  C26 UNL     1      -4.650   2.160   0.313  1.00  0.00     0.149 C 
ENDBRANCH  29  33
BRANCH  30  41
HETATM   41  C28 UNL     1      -4.763  -1.235  -0.691  1.00  0.00     0.269 C 
HETATM   42  C29 UNL     1      -5.058  -2.757  -0.782  1.00  0.00     0.096 C 
HETATM   43  F1  UNL     1      -3.952  -0.811  -1.609  1.00  0.00    -0.201 F 
HETATM   44  F2  UNL     1      -6.089  -0.786  -1.027  1.00  0.00    -0.201 F 
ENDBRANCH  30  41
ENDBRANCH   1  25
TORSDOF 14
