REMARK  6 active torsions:
REMARK  status: ('A' for Active; 'I' for Inactive)
REMARK    1  A    between atoms: C2_2  and  C3_3 
REMARK    2  A    between atoms: C6_6  and  C7_7 
REMARK    3  A    between atoms: C7_7  and  C8_8 
REMARK    4  A    between atoms: C8_8  and  N1_9 
REMARK    5  A    between atoms: N1_9  and  C9_11 
REMARK    6  A    between atoms: C13_20  and  C14_21 
ROOT
HETATM    1  C9  UNL     1      -1.317   1.682  -0.536  1.00  0.00     0.116 A 
HETATM    2  N2  UNL     1      -0.391   2.409  -1.185  1.00  0.00    -0.338 N 
ATOM      3  H2  UNL     1       0.440   1.915  -1.510  1.00  0.00     0.168 HD
HETATM    4  C10 UNL     1      -0.457   3.713  -1.443  1.00  0.00     0.182 A 
HETATM    5  N3  UNL     1      -1.553   4.354  -1.013  1.00  0.00    -0.346 N 
ATOM      6  H3  UNL     1      -1.652   5.354  -1.186  1.00  0.00     0.167 HD
HETATM    7  C11 UNL     1      -2.544   3.682  -0.343  1.00  0.00     0.089 A 
HETATM    8  S1  UNL     1      -4.027   4.172   0.346  1.00  0.00    -0.082 SA
HETATM    9  C12 UNL     1      -4.550   2.687   0.959  1.00  0.00     0.065 A 
HETATM   10  C13 UNL     1      -3.538   1.814   0.608  1.00  0.00    -0.003 A 
HETATM   11  C20 UNL     1      -2.489   2.344  -0.073  1.00  0.00     0.053 A 
ENDROOT
BRANCH   1  12
HETATM   12  N1  UNL     1      -1.144   0.429  -0.316  1.00  0.00    -0.375 N 
ATOM     13  H1  UNL     1      -1.873  -0.085   0.179  1.00  0.00     0.161 HD
BRANCH  12  14
HETATM   14  C8  UNL     1       0.030  -0.278  -0.736  1.00  0.00     0.128 C 
BRANCH  14  15
HETATM   15  C7  UNL     1       1.102  -0.123   0.321  1.00  0.00     0.084 C 
BRANCH  15  16
HETATM   16  C6  UNL     1       2.331  -0.852  -0.107  1.00  0.00     0.054 A 
HETATM   17  C5  UNL     1       2.485  -1.567  -1.286  1.00  0.00     0.035 A 
HETATM   18  C4  UNL     1       3.760  -2.084  -1.297  1.00  0.00     0.035 A 
HETATM   19  C3  UNL     1       4.345  -1.669  -0.124  1.00  0.00     0.053 A 
HETATM   20  O1  UNL     1       3.474  -0.963   0.521  1.00  0.00    -0.319 OA
BRANCH  19  21
HETATM   21  C2  UNL     1       5.749  -1.981   0.329  1.00  0.00     0.060 C 
HETATM   22  C1  UNL     1       6.622  -0.855  -0.217  1.00  0.00     0.012 C 
ENDBRANCH  19  21
ENDBRANCH  15  16
ENDBRANCH  14  15
ENDBRANCH  12  14
ENDBRANCH   1  12
BRANCH  10  23
HETATM   23  C14 UNL     1      -3.710   0.365   0.953  1.00  0.00    -0.024 A 
HETATM   24  C15 UNL     1      -3.679  -0.051   2.264  1.00  0.00     0.015 A 
HETATM   25  C16 UNL     1      -3.892  -1.362   2.639  1.00  0.00     0.043 A 
HETATM   26  C17 UNL     1      -4.143  -2.265   1.629  1.00  0.00     0.116 A 
HETATM   27  F1  UNL     1      -4.361  -3.569   1.918  1.00  0.00    -0.206 F 
HETATM   28  C18 UNL     1      -4.186  -1.906   0.298  1.00  0.00     0.043 A 
HETATM   29  C19 UNL     1      -3.965  -0.581  -0.008  1.00  0.00     0.015 A 
ENDBRANCH  10  23
TORSDOF 6
