REMARK  2 active torsions:
REMARK  status: ('A' for Active; 'I' for Inactive)
REMARK    1  A    between atoms: N1_3  and  C3_5 
REMARK    2  A    between atoms: C3_5  and  N2_7 
ROOT
HETATM    1  C1  UNL     1       4.808  -1.641  -0.808  1.00  0.00     0.037 C 
HETATM    2  C2  UNL     1       3.644  -1.721  -0.523  1.00  0.00     0.001 C 
HETATM    3  N1  UNL     1       2.218  -1.793  -0.178  1.00  0.00    -0.295 N 
ATOM      4  H1  UNL     1       1.757  -2.673   0.051  1.00  0.00     0.178 HD
ENDROOT
BRANCH   3   5
HETATM    5  C3  UNL     1       1.549  -0.595  -0.185  1.00  0.00     0.170 C 
HETATM    6  S1  UNL     1       2.516   0.622  -1.021  1.00  0.00    -0.012 SA
BRANCH   5   7
HETATM    7  N2  UNL     1       0.245  -0.099   0.050  1.00  0.00    -0.288 N 
HETATM    8  C4  UNL     1       0.072   1.335   0.092  1.00  0.00     0.059 A 
HETATM    9  C5  UNL     1       1.163   2.117   0.481  1.00  0.00     0.031 A 
HETATM   10  C9  UNL     1      -1.085   2.033  -0.033  1.00  0.00     0.033 A 
HETATM   11  C6  UNL     1       1.048   3.503   0.708  1.00  0.00     0.002 A 
HETATM   12  C7  UNL     1      -0.160   4.127   0.556  1.00  0.00     0.002 A 
HETATM   13  C8  UNL     1      -1.252   3.378   0.178  1.00  0.00     0.021 A 
HETATM   14  S2  UNL     1      -2.556   1.159  -0.502  1.00  0.00    -0.086 SA
HETATM   15  C10 UNL     1      -2.171  -0.558  -0.263  1.00  0.00     0.033 A 
HETATM   16  C11 UNL     1      -3.253  -1.409  -0.310  1.00  0.00     0.021 A 
HETATM   17  C15 UNL     1      -0.875  -0.971  -0.115  1.00  0.00     0.059 A 
HETATM   18  C12 UNL     1      -3.076  -2.764  -0.210  1.00  0.00     0.002 A 
HETATM   19  C13 UNL     1      -1.816  -3.244  -0.064  1.00  0.00     0.002 A 
HETATM   20  C14 UNL     1      -0.754  -2.354  -0.019  1.00  0.00     0.031 A 
ENDBRANCH   5   7
ENDBRANCH   3   5
TORSDOF 2
