REMARK  9 active torsions:
REMARK  status: ('A' for Active; 'I' for Inactive)
REMARK    1  A    between atoms: O1_2  and  C2_3 
REMARK    2  A    between atoms: C3_4  and  C4_5 
REMARK    3  A    between atoms: C8_11  and  C9_12 
REMARK    4  A    between atoms: C9_12  and  O3_13 
REMARK    5  A    between atoms: O3_13  and  C10_14 
REMARK    6  A    between atoms: C12_17  and  O5_18 
REMARK    7  A    between atoms: O5_18  and  C13_19 
REMARK    8  A    between atoms: C13_19  and  C14_21 
REMARK    9  A    between atoms: C17_24  and  O7_25 
ROOT
HETATM    1  C2  UNL     1       1.199  -1.232   0.337  1.00  0.00     0.184 C 
HETATM    2  C3  UNL     1       1.459   0.219   0.042  1.00  0.00     0.177 C 
HETATM    3  O2  UNL     1       0.450   1.028   0.467  1.00  0.00    -0.369 OA
HETATM    4  C8  UNL     1      -0.832   0.674   0.275  1.00  0.00     0.179 C 
HETATM    5  C12 UNL     1      -1.143  -0.818   0.459  1.00  0.00     0.194 C 
HETATM    6  C17 UNL     1      -0.157  -1.664  -0.257  1.00  0.00     0.182 C 
ENDROOT
BRANCH   5   7
HETATM    7  O5  UNL     1      -2.477  -1.010   0.194  1.00  0.00    -0.310 OA
BRANCH   7   8
HETATM    8  C13 UNL     1      -3.465  -1.367   1.062  1.00  0.00     0.263 C 
HETATM    9  O6  UNL     1      -3.064  -1.534   2.250  1.00  0.00    -0.265 OA
BRANCH   8  10
HETATM   10  C14 UNL     1      -4.891  -1.557   0.699  1.00  0.00     0.085 A 
HETATM   11  C15 UNL     1      -5.454  -0.918  -0.510  1.00  0.00     0.015 A 
HETATM   12  C16 UNL     1      -5.086  -2.353  -0.596  1.00  0.00     0.015 A 
ENDBRANCH   8  10
ENDBRANCH   7   8
ENDBRANCH   5   7
BRANCH   4  13
HETATM   13  C9  UNL     1      -1.563   1.237  -0.898  1.00  0.00     0.213 C 
BRANCH  13  14
HETATM   14  O3  UNL     1      -1.760   2.603  -0.949  1.00  0.00    -0.319 OA
BRANCH  14  15
HETATM   15  C10 UNL     1      -0.871   3.635  -1.026  1.00  0.00     0.254 C 
HETATM   16  C11 UNL     1      -1.409   5.044  -1.057  1.00  0.00     0.126 C 
HETATM   17  O4  UNL     1       0.356   3.409  -1.070  1.00  0.00    -0.266 OA
ENDBRANCH  14  15
ENDBRANCH  13  14
ENDBRANCH   4  13
BRANCH   6  18
HETATM   18  O7  UNL     1      -0.116  -1.494  -1.618  1.00  0.00    -0.390 OA
ATOM     19  H7  UNL     1      -0.951  -1.760  -1.984  1.00  0.00     0.210 HD
ENDBRANCH   6  18
BRANCH   1  20
HETATM   20  O1  UNL     1       2.210  -2.070   0.039  1.00  0.00    -0.385 OA
HETATM   21  C1  UNL     1       2.777  -2.770   1.078  1.00  0.00     0.202 C 
ENDBRANCH   1  20
BRANCH   2  22
HETATM   22  C4  UNL     1       2.676   0.588   0.857  1.00  0.00     0.021 C 
HETATM   23  C5  UNL     1       3.895   0.574   0.332  1.00  0.00    -0.022 C 
HETATM   24  C6  UNL     1       5.289   0.845   0.734  1.00  0.00     0.056 C 
HETATM   25  S1  UNL     1       4.500   0.174  -1.303  1.00  0.00    -0.134 SA
HETATM   26  C7  UNL     1       6.028   0.140  -0.358  1.00  0.00     0.084 C 
ENDBRANCH   2  22
TORSDOF 9
