REMARK  15 active torsions:
REMARK  status: ('A' for Active; 'I' for Inactive)
REMARK    1  A    between atoms: N1_1  and  C1_4 
REMARK       I    between atoms: N4_13  and  C5_14 
REMARK    2  A    between atoms: C5_14  and  C6_16 
REMARK    3  A    between atoms: C6_16  and  C7_17 
REMARK    4  A    between atoms: C7_17  and  C8_18 
REMARK    5  A    between atoms: C8_18  and  C9_19 
REMARK    6  A    between atoms: C9_19  and  C10_20 
REMARK    7  A    between atoms: C10_20  and  C11_21 
REMARK    8  A    between atoms: C11_21  and  C12_22 
REMARK    9  A    between atoms: C12_22  and  N5_23 
REMARK   10  A    between atoms: N6_25  and  C13_26 
REMARK   11  A    between atoms: C16_29  and  C17_30 
REMARK   12  A    between atoms: C18_31  and  O4_32 
REMARK   13  A    between atoms: C21_40  and  N8_41 
REMARK   14  A    between atoms: C23_45  and  C24_46 
REMARK   15  A    between atoms: N9_53  and  N10_54 
ROOT
HETATM    1  C10 UNL     1       0.752  -1.965   0.785  1.00  0.00     0.005 C 
ENDROOT
BRANCH   1   2
HETATM    2  C9  UNL     1       2.059  -2.565   0.399  1.00  0.00     0.000 C 
BRANCH   2   3
HETATM    3  C8  UNL     1       2.901  -1.656  -0.495  1.00  0.00     0.000 C 
BRANCH   3   4
HETATM    4  C7  UNL     1       4.211  -2.394  -0.810  1.00  0.00     0.009 C 
BRANCH   4   5
HETATM    5  C6  UNL     1       5.044  -1.550  -1.705  1.00  0.00     0.104 C 
BRANCH   5   6
HETATM    6  C5  UNL     1       5.423  -0.231  -1.095  1.00  0.00     0.232 C 
HETATM    7  N4  UNL     1       6.615  -0.017  -0.384  1.00  0.00    -0.226 N 
HETATM    8  C4  UNL     1       6.910   1.212   0.126  1.00  0.00     0.168 A 
HETATM    9  C25 UNL     1       7.505  -1.016  -0.171  1.00  0.00     0.326 A 
HETATM   10  C3  UNL     1       8.095   1.419   0.843  1.00  0.00     0.173 A 
HETATM   11  N3  UNL     1       6.133   2.286  -0.009  1.00  0.00    -0.174 N 
HETATM   12  C2  UNL     1       8.387   2.668   1.352  1.00  0.00     0.292 A 
HETATM   13  N9  UNL     1       8.938   0.402   1.025  1.00  0.00    -0.213 N 
HETATM   14  N2  UNL     1       7.558   3.706   1.179  1.00  0.00    -0.154 N 
HETATM   15  O1  UNL     1       9.462   2.804   1.989  1.00  0.00    -0.265 OA
HETATM   16  C1  UNL     1       6.429   3.523   0.499  1.00  0.00     0.680 A 
ATOM     17  H2  UNL     1       7.789   4.623   1.563  1.00  0.00     0.187 HD
HETATM   18  C26 UNL     1       8.689  -0.809   0.545  1.00  0.00     0.335 A 
HETATM   19  O12 UNL     1       9.487  -1.788   0.713  1.00  0.00    -0.260 OA
ATOM     20  H3  UNL     1       5.260   2.180  -0.525  1.00  0.00     0.186 HD
HETATM   21  O11 UNL     1       7.335  -2.184  -0.595  1.00  0.00    -0.261 OA
HETATM   22  O2  UNL     1       4.590   0.708  -1.260  1.00  0.00    -0.273 OA
BRANCH  16  23
HETATM   23  N1  UNL     1       5.606   4.493   0.311  1.00  0.00    -0.234 N 
ATOM     24  H12 UNL     1       5.826   5.414   0.689  1.00  0.00     0.174 HD
ATOM     25  H11 UNL     1       4.741   4.353  -0.210  1.00  0.00     0.174 HD
ENDBRANCH  16  23
BRANCH  13  26
HETATM   26  N10 UNL     1      10.127   0.605   1.742  1.00  0.00    -0.335 N 
ATOM     27 2H10 UNL     1      10.319   1.536   2.111  1.00  0.00     0.177 HD
ATOM     28 1H10 UNL     1      10.772  -0.173   1.881  1.00  0.00     0.177 HD
ENDBRANCH  13  26
ENDBRANCH   5   6
ENDBRANCH   4   5
ENDBRANCH   3   4
ENDBRANCH   2   3
ENDBRANCH   1   2
BRANCH   1  29
HETATM   29  C11 UNL     1      -0.124  -1.633  -0.406  1.00  0.00     0.047 C 
BRANCH  29  30
HETATM   30  C12 UNL     1      -1.437  -1.039   0.094  1.00  0.00     0.093 C 
BRANCH  30  31
HETATM   31  N5  UNL     1      -2.293  -0.701  -0.952  1.00  0.00    -0.232 N 
HETATM   32  O3  UNL     1      -3.020   0.402  -0.881  1.00  0.00    -0.152 OA
HETATM   33  N6  UNL     1      -4.307   0.028  -1.280  1.00  0.00    -0.229 N 
HETATM   34  C22 UNL     1      -4.029  -0.794  -2.425  1.00  0.00     0.197 C 
HETATM   35  C23 UNL     1      -2.881  -1.655  -1.785  1.00  0.00     0.236 C 
BRANCH  33  36
HETATM   36  C13 UNL     1      -5.450   0.435  -0.586  1.00  0.00     0.092 A 
HETATM   37  C14 UNL     1      -5.653  -0.120   0.695  1.00  0.00     0.035 A 
HETATM   38  C15 UNL     1      -6.742   0.197   1.465  1.00  0.00     0.015 A 
HETATM   39  C16 UNL     1      -7.689   1.084   1.003  1.00  0.00    -0.013 A 
HETATM   40  C20 UNL     1      -7.494   1.623  -0.236  1.00  0.00     0.051 A 
HETATM   41  C21 UNL     1      -6.372   1.296  -1.031  1.00  0.00     0.132 A 
BRANCH  39  42
HETATM   42  C17 UNL     1      -8.865   1.427   1.824  1.00  0.00     0.104 A 
HETATM   43  C18 UNL     1      -8.922   2.326   2.859  1.00  0.00     0.221 A 
HETATM   44  O5  UNL     1     -10.150   2.357   3.346  1.00  0.00    -0.209 OA
HETATM   45  N7  UNL     1     -10.870   1.520   2.667  1.00  0.00    -0.222 N 
HETATM   46  C19 UNL     1     -10.133   0.908   1.705  1.00  0.00     0.281 A 
ATOM     47  H7  UNL     1     -11.861   1.344   2.834  1.00  0.00     0.198 HD
HETATM   48  O6  UNL     1     -10.571   0.063   0.912  1.00  0.00    -0.265 OA
BRANCH  43  49
HETATM   49  O4  UNL     1      -7.842   3.075   3.306  1.00  0.00    -0.339 OA
ATOM     50  H4  UNL     1      -7.881   3.697   4.023  1.00  0.00     0.220 HD
ENDBRANCH  43  49
ENDBRANCH  39  42
BRANCH  41  51
HETATM   51  N8  UNL     1      -6.315   1.962  -2.253  1.00  0.00    -0.113 N 
HETATM   52  O7  UNL     1      -6.829   3.110  -2.343  1.00  0.00    -0.532 OA
HETATM   53  O8  UNL     1      -5.743   1.480  -3.363  1.00  0.00    -0.532 OA
ENDBRANCH  41  51
ENDBRANCH  33  36
BRANCH  35  54
HETATM   54  C24 UNL     1      -3.481  -2.851  -1.209  1.00  0.00     0.201 C 
HETATM   55  O9  UNL     1      -3.477  -3.072   0.011  1.00  0.00    -0.646 OA
HETATM   56  O10 UNL     1      -4.076  -3.774  -2.054  1.00  0.00    -0.646 OA
ENDBRANCH  35  54
ENDBRANCH  30  31
ENDBRANCH  29  30
ENDBRANCH   1  29
TORSDOF 15
