REMARK  9 active torsions:
REMARK  status: ('A' for Active; 'I' for Inactive)
REMARK    1  A    between atoms: C1_4  and  N2_5 
REMARK    2  A    between atoms: C4_12  and  O1_13 
REMARK    3  A    between atoms: C5_15  and  N5_16 
REMARK    4  A    between atoms: N6_21  and  C7_22 
REMARK    5  A    between atoms: C9_24  and  N7_25 
REMARK    6  A    between atoms: N7_25  and  C10_27 
REMARK    7  A    between atoms: C10_27  and  C11_28 
REMARK    8  A    between atoms: C11_28  and  O2_29 
REMARK    9  A    between atoms: C12_33  and  N9_34 
ROOT
HETATM    1  N2  UNL     1       4.822   0.599   0.613  1.00  0.00    -0.237 N 
HETATM    2  N3  UNL     1       4.920   0.333   1.907  1.00  0.00    -0.235 N 
ATOM      3  H3  UNL     1       5.795   0.299   2.430  1.00  0.00     0.209 HD
HETATM    4  N4  UNL     1       3.733   0.119   2.420  1.00  0.00    -0.286 N 
ATOM      5  H4  UNL     1       3.532  -0.106   3.394  1.00  0.00     0.188 HD
HETATM    6  C2  UNL     1       2.835   0.247   1.443  1.00  0.00     0.072 A 
HETATM    7  C3  UNL     1       3.520   0.552   0.292  1.00  0.00     0.093 A 
HETATM    8  C4  UNL     1       3.022   0.796  -1.063  1.00  0.00     0.204 C 
HETATM    9  C5  UNL     1       2.023  -0.165  -1.589  1.00  0.00     0.236 C 
HETATM   10  C6  UNL     1       1.495  -1.180  -0.638  1.00  0.00     0.160 C 
HETATM   11  N6  UNL     1       0.797  -0.620   0.493  1.00  0.00    -0.359 N 
HETATM   12  C13 UNL     1       1.358   0.087   1.613  1.00  0.00     0.185 C 
ENDROOT
BRANCH  11  13
HETATM   13  C7  UNL     1      -0.606  -0.767   0.569  1.00  0.00     0.123 A 
HETATM   14  C8  UNL     1      -1.515   0.024  -0.079  1.00  0.00     0.097 A 
HETATM   15  C9  UNL     1      -2.901  -0.177   0.024  1.00  0.00     0.120 A 
HETATM   16  N8  UNL     1      -3.343  -1.171   0.779  1.00  0.00    -0.177 N 
HETATM   17  C12 UNL     1      -2.425  -1.959   1.426  1.00  0.00     0.679 A 
ATOM     18  H8  UNL     1      -4.343  -1.347   0.877  1.00  0.00     0.185 HD
HETATM   19  N10 UNL     1      -1.107  -1.759   1.320  1.00  0.00    -0.177 N 
ATOM     20  H10 UNL     1      -0.468  -2.375   1.822  1.00  0.00     0.185 HD
BRANCH  15  21
HETATM   21  N7  UNL     1      -3.676   0.602  -0.609  1.00  0.00    -0.374 N 
ATOM     22  H7  UNL     1      -3.238   1.338  -1.163  1.00  0.00     0.161 HD
BRANCH  21  23
HETATM   23  C10 UNL     1      -5.093   0.549  -0.621  1.00  0.00     0.147 C 
BRANCH  23  24
HETATM   24  C11 UNL     1      -5.663   1.962  -0.719  1.00  0.00     0.183 C 
BRANCH  24  25
HETATM   25  O2  UNL     1      -5.210   2.649   0.398  1.00  0.00    -0.399 OA
ATOM     26  H2  UNL     1      -5.565   3.528   0.337  1.00  0.00     0.209 HD
ENDBRANCH  24  25
ENDBRANCH  23  24
ENDBRANCH  21  23
ENDBRANCH  15  21
BRANCH  17  27
HETATM   27  N9  UNL     1      -2.932  -2.913   2.160  1.00  0.00    -0.234 N 
ATOM     28  H92 UNL     1      -3.937  -3.066   2.241  1.00  0.00     0.174 HD
ATOM     29  H91 UNL     1      -2.250  -3.499   2.641  1.00  0.00     0.174 HD
ENDBRANCH  17  27
ENDBRANCH  11  13
BRANCH   9  30
HETATM   30  N5  UNL     1       2.637  -0.860  -2.729  1.00  0.00    -0.071 N 
ATOM     31  H53 UNL     1       2.988  -0.221  -3.442  1.00  0.00     0.274 HD
ATOM     32  H52 UNL     1       3.527  -1.300  -2.494  1.00  0.00     0.274 HD
ATOM     33  H51 UNL     1       1.950  -1.521  -3.091  1.00  0.00     0.274 HD
ENDBRANCH   9  30
BRANCH   8  34
HETATM   34  O1  UNL     1       2.433   2.083  -1.096  1.00  0.00    -0.387 OA
ATOM     35  H1  UNL     1       2.110   2.241  -1.975  1.00  0.00     0.210 HD
ENDBRANCH   8  34
BRANCH   1  36
HETATM   36  C1  UNL     1       5.959   0.881  -0.233  1.00  0.00     0.201 C 
HETATM   37  N1  UNL     1       6.649   1.925   0.109  1.00  0.00    -0.394 N 
ATOM     38  H12 UNL     1       6.395   2.493   0.917  1.00  0.00     0.156 HD
ATOM     39  H11 UNL     1       7.452   2.124  -0.488  1.00  0.00     0.156 HD
ENDBRANCH   1  36
TORSDOF 9
