REMARK  9 active torsions:
REMARK  status: ('A' for Active; 'I' for Inactive)
REMARK    1  A    between atoms: C2_2  and  N2_6 
REMARK    2  A    between atoms: N2_6  and  C4_8 
REMARK    3  A    between atoms: C5_9  and  O1_10 
REMARK    4  A    between atoms: C8_14  and  C9_15 
REMARK    5  A    between atoms: C9_15  and  C10_16 
REMARK    6  A    between atoms: N3_17  and  C11_19 
REMARK    7  A    between atoms: N4_25  and  C17_26 
REMARK    8  A    between atoms: C17_26  and  C18_27 
REMARK    9  A    between atoms: C18_27  and  C19_28 
ROOT
HETATM    1  C19 UNL     1      -4.450   0.509   0.810  1.00  0.00    -0.024 A 
HETATM    2  C20 UNL     1      -5.514  -0.355   0.774  1.00  0.00     0.010 A 
HETATM    3  C21 UNL     1      -6.750  -0.004   0.281  1.00  0.00     0.003 A 
HETATM    4  C22 UNL     1      -6.918   1.276  -0.196  1.00  0.00     0.032 A 
HETATM    5  C23 UNL     1      -5.854   2.151  -0.164  1.00  0.00     0.063 A 
HETATM    6  C24 UNL     1      -4.597   1.790   0.338  1.00  0.00     0.068 A 
HETATM    7  N5  UNL     1      -3.781   2.864   0.231  1.00  0.00    -0.331 N 
ATOM      8  H5  UNL     1      -2.802   2.907   0.515  1.00  0.00     0.168 HD
HETATM    9  C25 UNL     1      -4.491   3.864  -0.317  1.00  0.00     0.191 A 
HETATM   10  C26 UNL     1      -3.945   5.161  -0.579  1.00  0.00     0.137 C 
HETATM   11  N6  UNL     1      -3.520   6.214  -0.796  1.00  0.00    -0.188 NA
HETATM   12  N7  UNL     1      -5.739   3.439  -0.556  1.00  0.00    -0.327 N 
HETATM   13  C27 UNL     1      -6.831   4.209  -1.139  1.00  0.00     0.159 C 
ENDROOT
BRANCH   1  14
HETATM   14  C18 UNL     1      -3.136   0.047   1.362  1.00  0.00     0.086 C 
BRANCH  14  15
HETATM   15  C17 UNL     1      -2.148  -0.246   0.316  1.00  0.00     0.075 C 
BRANCH  15  16
HETATM   16  N4  UNL     1      -0.856  -0.718   0.602  1.00  0.00    -0.320 N 
HETATM   17  C4  UNL     1      -0.430  -1.959   0.286  1.00  0.00     0.148 C 
HETATM   18  C5  UNL     1       0.821  -2.169  -0.365  1.00  0.00     0.117 C 
HETATM   19  C6  UNL     1       2.033  -1.631   0.038  1.00  0.00    -0.018 C 
HETATM   20  C7  UNL     1       3.263  -2.345  -0.454  1.00  0.00     0.052 C 
HETATM   21  C8  UNL     1       2.265  -0.523   0.817  1.00  0.00    -0.043 C 
HETATM   22  C15 UNL     1       1.300   0.384   1.263  1.00  0.00     0.025 C 
HETATM   23  C16 UNL     1      -0.062   0.213   1.236  1.00  0.00     0.098 C 
BRANCH  17  24
HETATM   24  N2  UNL     1      -1.105  -2.969   0.477  1.00  0.00    -0.325 N 
HETATM   25  C3  UNL     1      -2.346  -3.143   1.167  1.00  0.00     0.159 C 
BRANCH  24  26
HETATM   26  C2  UNL     1      -0.591  -4.271   0.028  1.00  0.00     0.074 C 
HETATM   27  C1  UNL     1      -1.252  -5.044  -1.040  1.00  0.00     0.088 C 
HETATM   28  N1  UNL     1       0.434  -4.765   0.621  1.00  0.00    -0.389 N 
ATOM     29  H12 UNL     1       0.791  -5.668   0.309  1.00  0.00     0.157 HD
ATOM     30  H11 UNL     1       0.891  -4.230   1.360  1.00  0.00     0.157 HD
ENDBRANCH  24  26
ENDBRANCH  17  24
BRANCH  18  31
HETATM   31  O1  UNL     1       0.825  -2.964  -1.481  1.00  0.00    -0.357 OA
ATOM     32  H1  UNL     1       1.659  -3.104  -1.915  1.00  0.00     0.218 HD
ENDBRANCH  18  31
BRANCH  21  33
HETATM   33  C9  UNL     1       3.647  -0.258   1.230  1.00  0.00     0.083 C 
BRANCH  33  34
HETATM   34  C10 UNL     1       4.490   0.273   0.119  1.00  0.00     0.065 C 
HETATM   35  N3  UNL     1       5.777   0.181   0.211  1.00  0.00    -0.378 N 
ATOM     36  H3  UNL     1       6.204  -0.248   1.032  1.00  0.00     0.164 HD
BRANCH  35  37
HETATM   37  C11 UNL     1       6.589   0.679  -0.835  1.00  0.00     0.089 C 
HETATM   38  C12 UNL     1       7.550   1.526  -0.564  1.00  0.00    -0.072 C 
HETATM   39  C13 UNL     1       7.795   1.967   0.831  1.00  0.00     0.044 C 
HETATM   40  C14 UNL     1       8.404   2.054  -1.645  1.00  0.00     0.044 C 
ENDBRANCH  35  37
ENDBRANCH  33  34
ENDBRANCH  21  33
ENDBRANCH  15  16
ENDBRANCH  14  15
ENDBRANCH   1  14
TORSDOF 9
