REMARK  8 active torsions:
REMARK  status: ('A' for Active; 'I' for Inactive)
REMARK    1  A    between atoms: N2_12  and  N3_14 
REMARK       I    between atoms: N3_14  and  C11_16 
REMARK    2  A    between atoms: N4_21  and  C15_22 
REMARK    3  A    between atoms: C15_22  and  C16_23 
REMARK    4  A    between atoms: C16_23  and  C17_24 
REMARK    5  A    between atoms: C18_25  and  C19_26 
REMARK    6  A    between atoms: C19_26  and  O2_27 
REMARK    7  A    between atoms: C20_29  and  N5_30 
REMARK       I    between atoms: N5_30  and  C23_33 
REMARK    8  A    between atoms: C23_33  and  C24_35 
ROOT
HETATM    1  C1  UNL     1      -3.193  -4.060   1.118  1.00  0.00     0.044 C 
HETATM    2  C2  UNL     1      -2.213  -3.161   1.160  1.00  0.00     0.033 A 
HETATM    3  N1  UNL     1      -1.155  -3.223   1.968  1.00  0.00    -0.365 N 
ATOM      4  H1  UNL     1      -0.963  -3.958   2.649  1.00  0.00     0.165 HD
HETATM    5  C3  UNL     1      -0.377  -2.137   1.726  1.00  0.00     0.099 A 
HETATM    6  C4  UNL     1      -0.956  -1.360   0.735  1.00  0.00     0.014 A 
HETATM    7  C5  UNL     1      -2.094  -2.014   0.402  1.00  0.00    -0.001 A 
HETATM    8  C6  UNL     1      -2.864  -1.526  -0.509  1.00  0.00     0.028 C 
HETATM    9  C7  UNL     1      -2.519  -0.274  -1.174  1.00  0.00     0.165 C 
HETATM   10  C8  UNL     1      -2.124  -0.579  -2.564  1.00  0.00     0.053 C 
HETATM   11  C9  UNL     1      -3.892   0.443  -1.271  1.00  0.00     0.053 C 
HETATM   12  N2  UNL     1      -1.605   0.600  -0.408  1.00  0.00     0.041 N 
HETATM   13  C10 UNL     1      -1.271   1.619  -1.444  1.00  0.00     0.305 C 
HETATM   14  C13 UNL     1      -0.469  -0.079   0.052  1.00  0.00     0.243 C 
HETATM   15  C14 UNL     1       0.379  -0.677  -1.074  1.00  0.00     0.170 C 
HETATM   16  N4  UNL     1       1.517  -0.456  -0.254  1.00  0.00    -0.379 N 
HETATM   17  C20 UNL     1       0.762   0.361   0.614  1.00  0.00     0.341 C 
ENDROOT
BRANCH  12  18
HETATM   18  N3  UNL     1      -2.456   1.278   0.425  1.00  0.00    -0.183 N 
HETATM   19  C11 UNL     1      -2.835   1.296   1.760  1.00  0.00     0.237 C 
HETATM   20  C12 UNL     1      -3.875   2.243   2.332  1.00  0.00     0.119 C 
HETATM   21  O1  UNL     1      -2.415   0.580   2.676  1.00  0.00    -0.272 OA
ATOM     22  H3  UNL     1      -2.969   1.988  -0.097  1.00  0.00     0.197 HD
ENDBRANCH  12  18
BRANCH  17  23
HETATM   23  N5  UNL     1       1.451   1.601   0.711  1.00  0.00     0.011 N 
HETATM   24  C21 UNL     1       2.016   2.126  -0.514  1.00  0.00     0.285 C 
HETATM   25  C22 UNL     1       2.708   1.289   1.492  1.00  0.00     0.285 C 
HETATM   26  C23 UNL     1       0.910   2.620   1.527  1.00  0.00     0.319 C 
HETATM   27  O3  UNL     1       0.436   2.282   2.590  1.00  0.00    -0.265 OA
BRANCH  26  28
HETATM   28  C24 UNL     1       0.873   4.053   1.202  1.00  0.00     0.107 C 
HETATM   29  C25 UNL     1      -0.505   4.687   1.399  1.00  0.00     0.014 C 
ENDBRANCH  26  28
ENDBRANCH  17  23
BRANCH  16  30
HETATM   30  C15 UNL     1       2.484  -1.377  -0.092  1.00  0.00     0.131 C 
BRANCH  30  31
HETATM   31  C16 UNL     1       3.224  -1.498  -1.461  1.00  0.00     0.113 C 
BRANCH  31  32
HETATM   32  C17 UNL     1       4.294  -2.479  -1.356  1.00  0.00    -0.103 C 
HETATM   33  C18 UNL     1       5.168  -3.300  -1.284  1.00  0.00    -0.081 C 
BRANCH  33  34
HETATM   34  C19 UNL     1       6.239  -4.325  -1.219  1.00  0.00     0.257 C 
BRANCH  34  35
HETATM   35  O2  UNL     1       6.225  -4.969   0.016  1.00  0.00    -0.389 OA
ATOM     36  H2  UNL     1       6.911  -5.625   0.058  1.00  0.00     0.210 HD
ENDBRANCH  34  35
ENDBRANCH  33  34
ENDBRANCH  31  32
ENDBRANCH  30  31
ENDBRANCH  16  30
TORSDOF 8
