REMARK  6 active torsions:
REMARK  status: ('A' for Active; 'I' for Inactive)
REMARK    1  A    between atoms: C2_2  and  O1_3 
REMARK    2  A    between atoms: O1_3  and  C3_4 
REMARK    3  A    between atoms: C3_4  and  C4_6 
REMARK    4  A    between atoms: C8_10  and  N1_11 
REMARK    5  A    between atoms: N1_11  and  S1_13 
REMARK    6  A    between atoms: S1_13  and  N2_16 
REMARK       I    between atoms: N2_16  and  C9_18 
ROOT
HETATM    1  C4  UNL     1      -1.717  -0.428   0.466  1.00  0.00     0.044 C 
HETATM    2  C5  UNL     1      -1.692  -1.918   0.205  1.00  0.00     0.026 C 
HETATM    3  C6  UNL     1      -1.234   0.254  -0.802  1.00  0.00     0.021 C 
HETATM    4  C7  UNL     1      -0.117   1.231  -0.502  1.00  0.00     0.027 C 
HETATM    5  C8  UNL     1       1.083   0.558   0.132  1.00  0.00     0.094 C 
HETATM    6  C10 UNL     1       0.638  -0.510   1.048  1.00  0.00     0.027 C 
HETATM    7  C11 UNL     1      -0.729  -0.129   1.590  1.00  0.00     0.021 C 
ENDROOT
BRANCH   5   8
HETATM    8  N1  UNL     1       2.015   0.223  -0.869  1.00  0.00    -0.298 N 
ATOM      9  H1  UNL     1       1.781  -0.487  -1.563  1.00  0.00     0.174 HD
BRANCH   8  10
HETATM   10  S1  UNL     1       3.495   0.979  -0.926  1.00  0.00     0.321 S 
HETATM   11  O3  UNL     1       3.366   2.333  -0.269  1.00  0.00    -0.182 OA
HETATM   12  O4  UNL     1       4.038   1.253  -2.296  1.00  0.00    -0.182 OA
BRANCH  10  13
HETATM   13  N2  UNL     1       4.700   0.132   0.015  1.00  0.00    -0.241 N 
HETATM   14  C9  UNL     1       5.503  -0.884  -0.585  1.00  0.00     0.196 C 
HETATM   15  N3  UNL     1       4.940  -1.637  -1.459  1.00  0.00    -0.373 N 
HETATM   16  N4  UNL     1       6.855  -1.093  -0.266  1.00  0.00    -0.063 NA
ATOM     17  H32 UNL     1       3.958  -1.485  -1.691  1.00  0.00     0.158 HD
ATOM     18  H31 UNL     1       5.514  -2.363  -1.888  1.00  0.00     0.158 HD
ATOM     19  H2  UNL     1       4.830   0.365   0.999  1.00  0.00     0.183 HD
ENDBRANCH  10  13
ENDBRANCH   8  10
ENDBRANCH   5   8
BRANCH   1  20
HETATM   20  C3  UNL     1      -3.091  -0.023   0.838  1.00  0.00     0.267 C 
HETATM   21  O2  UNL     1      -3.357   0.514   1.947  1.00  0.00    -0.264 OA
BRANCH  20  22
HETATM   22  O1  UNL     1      -4.149  -0.223  -0.032  1.00  0.00    -0.321 OA
BRANCH  22  23
HETATM   23  C2  UNL     1      -5.475   0.136   0.254  1.00  0.00     0.174 C 
HETATM   24  C1  UNL     1      -5.668   1.598   0.516  1.00  0.00     0.034 C 
ENDBRANCH  22  23
ENDBRANCH  20  22
ENDBRANCH   1  20
TORSDOF 6
