REMARK  6 active torsions:
REMARK  status: ('A' for Active; 'I' for Inactive)
REMARK    1  A    between atoms: C2_2  and  O1_4 
REMARK    2  A    between atoms: O1_4  and  C4_5 
REMARK    3  A    between atoms: C6_7  and  C7_8 
REMARK    4  A    between atoms: N1_10  and  C9_11 
REMARK    5  A    between atoms: C17_19  and  N2_20 
REMARK    6  A    between atoms: C20_31  and  N6_32 
ROOT
HETATM    1  C7  UNL     1       1.316   1.451   0.701  1.00  0.00     0.074 A 
HETATM    2  C8  UNL     1       0.417   0.492   0.297  1.00  0.00     0.139 A 
HETATM    3  N1  UNL     1      -0.844   0.966   0.506  1.00  0.00    -0.280 N 
HETATM    4  N3  UNL     1      -0.696   2.175   1.022  1.00  0.00    -0.020 NA
HETATM    5  N4  UNL     1       0.583   2.482   1.146  1.00  0.00    -0.282 N 
ATOM      6  H4  UNL     1       0.951   3.357   1.518  1.00  0.00     0.184 HD
ENDROOT
BRANCH   1   7
HETATM    7  C6  UNL     1       2.769   1.429   0.684  1.00  0.00     0.011 A 
HETATM    8  C5  UNL     1       3.486   0.361   0.224  1.00  0.00     0.055 A 
HETATM    9  C4  UNL     1       4.901   0.326   0.201  1.00  0.00     0.113 A 
HETATM   10  C20 UNL     1       5.567   1.433   0.670  1.00  0.00     0.132 A 
HETATM   11  N5  UNL     1       4.854   2.485   1.123  1.00  0.00    -0.350 N 
HETATM   12  C19 UNL     1       3.510   2.506   1.139  1.00  0.00     0.103 A 
ATOM     13  H5  UNL     1       5.358   3.302   1.469  1.00  0.00     0.166 HD
BRANCH   9  14
HETATM   14  O1  UNL     1       5.499  -0.776  -0.272  1.00  0.00    -0.343 OA
BRANCH  14  15
HETATM   15  C2  UNL     1       6.705  -1.311  -0.508  1.00  0.00     0.121 C 
HETATM   16  C1  UNL     1       6.936  -1.704  -1.973  1.00  0.00     0.040 C 
HETATM   17  C3  UNL     1       6.919  -2.622   0.269  1.00  0.00     0.040 C 
ENDBRANCH  14  15
ENDBRANCH   9  14
BRANCH  10  18
HETATM   18  N6  UNL     1       6.875   1.495   0.689  1.00  0.00    -0.383 N 
ATOM     19  H62 UNL     1       7.414   0.700   0.347  1.00  0.00     0.157 HD
ATOM     20  H61 UNL     1       7.369   2.317   1.037  1.00  0.00     0.157 HD
ENDBRANCH  10  18
ENDBRANCH   1   7
BRANCH   3  21
HETATM   21  C9  UNL     1      -2.106   0.306   0.231  1.00  0.00     0.108 C 
HETATM   22  C10 UNL     1      -2.017  -0.342  -1.119  1.00  0.00     0.027 C 
HETATM   23  C11 UNL     1      -3.312  -0.728  -1.717  1.00  0.00     0.009 C 
HETATM   24  C12 UNL     1      -4.525  -0.481  -0.916  1.00  0.00     0.021 C 
HETATM   25  C13 UNL     1      -4.961  -1.759  -0.183  1.00  0.00     0.007 C 
HETATM   26  C17 UNL     1      -4.499   0.683   0.006  1.00  0.00     0.129 C 
HETATM   27  C14 UNL     1      -6.286  -1.570   0.491  1.00  0.00     0.001 C 
HETATM   28  C15 UNL     1      -6.322  -0.283   1.305  1.00  0.00     0.002 C 
HETATM   29  C16 UNL     1      -4.889   0.203   1.404  1.00  0.00     0.039 C 
HETATM   30  C18 UNL     1      -3.174   1.369   0.125  1.00  0.00     0.066 C 
BRANCH  26  31
HETATM   31  N2  UNL     1      -5.487   1.708  -0.337  1.00  0.00    -0.070 N 
ATOM     32  H23 UNL     1      -5.378   2.009  -1.306  1.00  0.00     0.275 HD
ATOM     33  H22 UNL     1      -6.423   1.307  -0.391  1.00  0.00     0.275 HD
ATOM     34  H21 UNL     1      -5.469   2.507   0.296  1.00  0.00     0.275 HD
ENDBRANCH  26  31
ENDBRANCH   3  21
TORSDOF 6
