REMARK  4 active torsions:
REMARK  status: ('A' for Active; 'I' for Inactive)
REMARK    1  A    between atoms: C2_2  and  O1_3 
REMARK    2  A    between atoms: C3_5  and  O2_6 
REMARK    3  A    between atoms: C4_9  and  C5_10 
REMARK    4  A    between atoms: N1_11  and  N2_13 
ROOT
HETATM    1  C1  UNL     1      -4.217   0.967  -0.211  1.00  0.00     0.054 C 
HETATM    2  C2  UNL     1      -2.961   0.331   0.316  1.00  0.00     0.134 C 
HETATM    3  C3  UNL     1      -2.624  -0.910  -0.454  1.00  0.00     0.294 C 
HETATM    4  O3  UNL     1      -2.092  -0.090  -1.450  1.00  0.00    -0.345 OA
HETATM    5  C4  UNL     1      -1.759   0.815  -0.441  1.00  0.00     0.203 C 
ENDROOT
BRANCH   5   6
HETATM    6  C5  UNL     1      -0.441   0.412   0.148  1.00  0.00     0.115 C 
HETATM    7  N1  UNL     1       0.587   0.566  -0.617  1.00  0.00    -0.315 N 
ATOM      8  H1  UNL     1       0.437   0.943  -1.553  1.00  0.00     0.185 HD
BRANCH   7   9
HETATM    9  N2  UNL     1       1.880   0.249  -0.242  1.00  0.00    -0.324 N 
HETATM   10  C6  UNL     1       2.137  -0.829   0.701  1.00  0.00     0.168 C 
HETATM   11  C7  UNL     1       3.474  -1.462   0.440  1.00  0.00     0.189 C 
HETATM   12  O4  UNL     1       4.522  -0.578   0.406  1.00  0.00    -0.388 OA
HETATM   13  C8  UNL     1       4.171   0.739   0.247  1.00  0.00     0.189 C 
HETATM   14  C9  UNL     1       3.052   0.950  -0.750  1.00  0.00     0.168 C 
ENDBRANCH   7   9
ENDBRANCH   5   6
BRANCH   2  15
HETATM   15  O1  UNL     1      -2.845   0.260   1.685  1.00  0.00    -0.382 OA
ATOM     16  H1  UNL     1      -2.051  -0.142   2.018  1.00  0.00     0.210 HD
ENDBRANCH   2  15
BRANCH   3  17
HETATM   17  O2  UNL     1      -3.707  -1.637  -0.932  1.00  0.00    -0.368 OA
ATOM     18  H2  UNL     1      -3.493  -2.424  -1.420  1.00  0.00     0.212 HD
ENDBRANCH   3  17
TORSDOF 4
