REMARK  7 active torsions:
REMARK  status: ('A' for Active; 'I' for Inactive)
REMARK    1  A    between atoms: C3_4  and  C4_5 
REMARK    2  A    between atoms: C4_5  and  N2_6 
REMARK    3  A    between atoms: C6_9  and  O2_10 
REMARK    4  A    between atoms: C7_12  and  O3_13 
REMARK    5  A    between atoms: C8_15  and  N3_16 
REMARK    6  A    between atoms: N3_16  and  N4_18 
REMARK    7  A    between atoms: N4_18  and  N5_19 
ROOT
HETATM    1  N1  UNL     1       5.979   0.922   0.419  1.00  0.00    -0.182 NA
HETATM    2  C1  UNL     1       4.962   0.378   0.345  1.00  0.00     0.152 C 
HETATM    3  C2  UNL     1       3.722  -0.298   0.270  1.00  0.00     0.019 C 
HETATM    4  C3  UNL     1       2.651  -0.899   0.226  1.00  0.00    -0.045 C 
ENDROOT
BRANCH   4   5
HETATM    5  C4  UNL     1       1.379  -1.621   0.211  1.00  0.00     0.160 C 
BRANCH   5   6
HETATM    6  N2  UNL     1       0.361  -0.774  -0.165  1.00  0.00    -0.313 N 
HETATM    7  C5  UNL     1       0.241  -0.267  -1.473  1.00  0.00     0.234 C 
HETATM    8  O1  UNL     1      -1.077  -0.437  -1.907  1.00  0.00    -0.313 OA
HETATM    9  C6  UNL     1      -1.984   0.226  -1.139  1.00  0.00     0.296 C 
HETATM   10  C7  UNL     1      -1.862  -0.044   0.340  1.00  0.00     0.218 C 
HETATM   11  C8  UNL     1      -0.414  -0.076   0.817  1.00  0.00     0.253 C 
BRANCH   9  12
HETATM   12  O2  UNL     1      -3.269  -0.270  -1.507  1.00  0.00    -0.368 OA
ATOM     13  H2  UNL     1      -3.902   0.193  -0.971  1.00  0.00     0.212 HD
ENDBRANCH   9  12
BRANCH  10  14
HETATM   14  O3  UNL     1      -2.580   0.923   1.029  1.00  0.00    -0.387 OA
ATOM     15  H3  UNL     1      -2.503   0.753   1.960  1.00  0.00     0.210 HD
ENDBRANCH  10  14
BRANCH  11  16
HETATM   16  N3  UNL     1       0.069   1.287   0.804  1.00  0.00    -0.226 N 
ATOM     17  H3  UNL     1       0.743   1.572   0.093  1.00  0.00     0.199 HD
BRANCH  16  18
HETATM   18  N4  UNL     1      -0.314   2.103   1.627  1.00  0.00    -0.246 NA
BRANCH  18  19
HETATM   19  N5  UNL     1      -0.740   3.069   2.243  1.00  0.00    -0.261 N 
ATOM     20  H52 UNL     1      -0.875   3.583   1.372  1.00  0.00     0.193 HD
ATOM     21  H51 UNL     1      -1.060   3.751   2.931  1.00  0.00     0.193 HD
ENDBRANCH  18  19
ENDBRANCH  16  18
ENDBRANCH  11  16
ENDBRANCH   5   6
ENDBRANCH   4   5
TORSDOF 7
