REMARK  8 active torsions:
REMARK  status: ('A' for Active; 'I' for Inactive)
REMARK       I    between atoms: C2_2  and  N1_4 
REMARK    1  A    between atoms: N1_4  and  C3_6 
REMARK    2  A    between atoms: C3_6  and  C4_7 
REMARK    3  A    between atoms: C3_6  and  C13_18 
REMARK    4  A    between atoms: C4_7  and  C5_8 
REMARK    5  A    between atoms: C5_8  and  C6_9 
REMARK       I    between atoms: C6_9  and  N2_11 
REMARK       I    between atoms: C13_18  and  N3_20 
REMARK    6  A    between atoms: N3_20  and  C14_22 
REMARK    7  A    between atoms: C14_22  and  C15_23 
REMARK    8  A    between atoms: C15_23  and  N4_24 
ROOT
HETATM    1  C3  UNL     1       1.051   0.462  -2.092  1.00  0.00     0.177 C 
ENDROOT
BRANCH   1   2
HETATM    2  N1  UNL     1       1.666  -0.561  -2.905  1.00  0.00    -0.348 N 
HETATM    3  C2  UNL     1       1.500  -0.687  -4.287  1.00  0.00     0.214 C 
HETATM    4  C1  UNL     1       2.184  -1.784  -5.016  1.00  0.00     0.117 C 
HETATM    5  O1  UNL     1       0.781   0.101  -4.970  1.00  0.00    -0.274 OA
ATOM      6  H1  UNL     1       2.265  -1.241  -2.437  1.00  0.00     0.163 HD
ENDBRANCH   1   2
BRANCH   1   7
HETATM    7  C4  UNL     1       2.087   1.354  -1.440  1.00  0.00     0.044 C 
BRANCH   7   8
HETATM    8  C5  UNL     1       3.002   0.554  -0.558  1.00  0.00     0.105 C 
BRANCH   8   9
HETATM    9  C6  UNL     1       4.026   1.382   0.106  1.00  0.00     0.220 C 
HETATM   10  O2  UNL     1       3.986   2.621  -0.116  1.00  0.00    -0.273 OA
HETATM   11  N2  UNL     1       5.023   0.850   0.958  1.00  0.00    -0.348 N 
HETATM   12  C7  UNL     1       5.971   1.727   1.578  1.00  0.00     0.126 C 
HETATM   13  C11 UNL     1       5.083  -0.568   1.186  1.00  0.00     0.083 C 
HETATM   14  C8  UNL     1       6.341   1.262   2.955  1.00  0.00     0.020 C 
HETATM   15  C9  UNL     1       6.608  -0.216   3.034  1.00  0.00     0.004 C 
HETATM   16  C10 UNL     1       5.336  -0.928   2.623  1.00  0.00     0.025 C 
HETATM   17  C12 UNL     1       6.059  -1.264   0.260  1.00  0.00     0.032 C 
ENDBRANCH   8   9
ENDBRANCH   7   8
ENDBRANCH   1   7
BRANCH   1  18
HETATM   18  C13 UNL     1       0.162  -0.166  -1.061  1.00  0.00     0.240 C 
HETATM   19  O3  UNL     1       0.049  -1.420  -0.982  1.00  0.00    -0.271 OA
HETATM   20  N3  UNL     1      -0.577   0.625  -0.146  1.00  0.00    -0.358 N 
ATOM     21  H3  UNL     1      -0.479   1.637  -0.222  1.00  0.00     0.162 HD
BRANCH  20  22
HETATM   22  C14 UNL     1      -1.453   0.125   0.880  1.00  0.00     0.150 C 
BRANCH  22  23
HETATM   23  C15 UNL     1      -2.612  -0.657   0.412  1.00  0.00     0.257 C 
BRANCH  23  24
HETATM   24  N4  UNL     1      -3.582  -0.054  -0.412  1.00  0.00    -0.065 N 
HETATM   25  C16 UNL     1      -3.208   1.071  -1.203  1.00  0.00     0.273 C 
HETATM   26  C17 UNL     1      -4.059  -1.079  -1.373  1.00  0.00     0.238 C 
HETATM   27  C18 UNL     1      -5.115  -1.867  -0.593  1.00  0.00     0.034 C 
HETATM   28  C19 UNL     1      -5.412  -1.051   0.612  1.00  0.00     0.018 C 
HETATM   29  C20 UNL     1      -6.885  -0.779   0.850  1.00  0.00     0.007 C 
HETATM   30  C24 UNL     1      -4.813   0.291   0.259  1.00  0.00     0.194 C 
HETATM   31  C21 UNL     1      -7.148   0.670   1.103  1.00  0.00     0.001 C 
HETATM   32  C22 UNL     1      -6.133   1.372   1.953  1.00  0.00     0.002 C 
HETATM   33  C23 UNL     1      -4.690   1.091   1.500  1.00  0.00     0.034 C 
ENDBRANCH  23  24
ENDBRANCH  22  23
ENDBRANCH  20  22
ENDBRANCH   1  18
TORSDOF 8
