REMARK  5 active torsions:
REMARK  status: ('A' for Active; 'I' for Inactive)
REMARK    1  A    between atoms: C2_2  and  C4_4 
REMARK    2  A    between atoms: C5_6  and  C6_7 
REMARK       I    between atoms: C6_7  and  N1_9 
REMARK    3  A    between atoms: N1_9  and  C7_11 
REMARK    4  A    between atoms: C7_11  and  C8_12 
REMARK    5  A    between atoms: C8_12  and  N2_13 
ROOT
HETATM    1  C4  UNL     1      -0.964  -2.672  -0.726  1.00  0.00     0.159 C 
HETATM    2  O1  UNL     1       0.343  -2.443  -0.192  1.00  0.00    -0.366 OA
HETATM    3  C5  UNL     1       0.927  -1.428  -0.935  1.00  0.00     0.214 C 
HETATM    4  C13 UNL     1      -0.119  -0.313  -0.992  1.00  0.00     0.047 C 
HETATM    5  C14 UNL     1      -1.058  -0.417   0.197  1.00  0.00     0.004 C 
HETATM    6  C15 UNL     1      -1.866   0.815   0.449  1.00  0.00    -0.001 C 
HETATM    7  C16 UNL     1      -1.524   1.870  -0.533  1.00  0.00     0.033 C 
HETATM    8  C17 UNL     1      -2.542   2.900  -0.795  1.00  0.00    -0.023 C 
HETATM    9  C18 UNL     1      -3.712   2.911  -0.231  1.00  0.00    -0.075 C 
HETATM   10  C19 UNL     1      -4.879   3.871  -0.371  1.00  0.00     0.034 C 
HETATM   11  C20 UNL     1      -6.022   2.879  -0.329  1.00  0.00     0.005 C 
HETATM   12  C21 UNL     1      -5.568   1.738   0.558  1.00  0.00     0.014 C 
HETATM   13  C22 UNL     1      -4.078   1.864   0.736  1.00  0.00    -0.017 C 
HETATM   14  C23 UNL     1      -3.828   2.422   2.143  1.00  0.00     0.020 C 
HETATM   15  C24 UNL     1      -3.342   0.585   0.622  1.00  0.00     0.003 C 
HETATM   16  C25 UNL     1      -3.948  -0.305  -0.392  1.00  0.00     0.007 C 
HETATM   17  C26 UNL     1      -2.993  -1.320  -0.981  1.00  0.00     0.013 C 
HETATM   18  C27 UNL     1      -1.889  -1.674  -0.049  1.00  0.00    -0.010 C 
HETATM   19  C28 UNL     1      -2.443  -2.265   1.226  1.00  0.00     0.018 C 
ENDROOT
BRANCH   3  20
HETATM   20  C6  UNL     1       2.213  -0.998  -0.387  1.00  0.00     0.246 C 
HETATM   21  O2  UNL     1       2.609  -1.561   0.674  1.00  0.00    -0.271 OA
HETATM   22  N1  UNL     1       3.030   0.002  -0.974  1.00  0.00    -0.357 N 
ATOM     23  H1  UNL     1       2.683   0.443  -1.826  1.00  0.00     0.162 HD
BRANCH  22  24
HETATM   24  C7  UNL     1       4.299   0.449  -0.479  1.00  0.00     0.142 C 
BRANCH  24  25
HETATM   25  C8  UNL     1       5.330  -0.653  -0.411  1.00  0.00     0.136 C 
BRANCH  25  26
HETATM   26  N2  UNL     1       6.559  -0.117   0.077  1.00  0.00    -0.407 N 
HETATM   27  C9  UNL     1       7.213   0.792  -0.812  1.00  0.00     0.143 C 
HETATM   28  C10 UNL     1       7.483   2.112  -0.097  1.00  0.00     0.187 C 
HETATM   29  O3  UNL     1       8.316   1.866   0.969  1.00  0.00    -0.388 OA
HETATM   30  C11 UNL     1       7.948   0.813   1.771  1.00  0.00     0.187 C 
HETATM   31  C12 UNL     1       6.574   0.259   1.454  1.00  0.00     0.143 C 
ENDBRANCH  25  26
ENDBRANCH  24  25
ENDBRANCH  22  24
ENDBRANCH   3  20
BRANCH   1  32
HETATM   32  C2  UNL     1      -1.335  -4.082  -0.534  1.00  0.00    -0.064 C 
HETATM   33  C1  UNL     1      -0.459  -4.893   0.058  1.00  0.00     0.016 C 
HETATM   34  C3  UNL     1      -2.625  -4.660  -0.968  1.00  0.00     0.045 C 
ENDBRANCH   1  32
TORSDOF 5
