REMARK  2 active torsions:
REMARK  status: ('A' for Active; 'I' for Inactive)
REMARK    1  A    between atoms: N1_6  and  O1_8 
REMARK    2  A    between atoms: C8_12  and  C9_13 
ROOT
HETATM    1  C9  UNL     1      -2.111   1.523  -0.140  1.00  0.00     0.129 C 
HETATM    2  C10 UNL     1      -2.990   0.607   0.574  1.00  0.00     0.059 C 
HETATM    3  N2  UNL     1      -3.708  -0.113   1.126  1.00  0.00    -0.197 NA
ENDROOT
BRANCH   1   4
HETATM    4  C8  UNL     1      -0.856   0.869  -0.658  1.00  0.00     0.013 C 
HETATM    5  C6  UNL     1       0.041   0.274   0.353  1.00  0.00     0.008 C 
HETATM    6  C2  UNL     1       0.296  -1.143  -0.068  1.00  0.00    -0.031 C 
HETATM    7  C5  UNL     1       1.353   0.957   0.239  1.00  0.00     0.019 C 
HETATM    8  C7  UNL     1      -0.382   0.393   1.789  1.00  0.00     0.023 C 
HETATM    9  C1  UNL     1      -0.404  -2.185   0.726  1.00  0.00     0.016 C 
HETATM   10  C3  UNL     1       1.789  -1.325   0.057  1.00  0.00     0.016 C 
HETATM   11  C12 UNL     1      -0.143  -1.230  -1.503  1.00  0.00     0.011 C 
HETATM   12  C4  UNL     1       2.286   0.040  -0.420  1.00  0.00     0.056 C 
HETATM   13  C11 UNL     1      -1.181  -0.185  -1.697  1.00  0.00     0.007 C 
HETATM   14  N1  UNL     1       1.596   2.136   0.653  1.00  0.00    -0.277 N 
ATOM     15  H1  UNL     1       0.826   2.640   1.093  1.00  0.00     0.193 HD
BRANCH  14  16
HETATM   16  O1  UNL     1       2.782   2.784   0.564  1.00  0.00    -0.290 OA
ATOM     17  H1  UNL     1       2.963   3.664   0.873  1.00  0.00     0.244 HD
ENDBRANCH  14  16
ENDBRANCH   1   4
TORSDOF 2
