REMARK  1 active torsions:
REMARK  status: ('A' for Active; 'I' for Inactive)
REMARK    1  A    between atoms: N1_2  and  C1_4 
ROOT
HETATM    1  C1  UNL     1       2.329  -0.164  -0.461  1.00  0.00     0.155 C 
HETATM    2  C2  UNL     1       1.461  -1.314  -0.877  1.00  0.00     0.032 C 
HETATM    3  C3  UNL     1       0.721  -1.955   0.250  1.00  0.00     0.002 C 
HETATM    4  C4  UNL     1      -0.778  -2.004   0.000  1.00  0.00     0.000 C 
HETATM    5  C5  UNL     1      -1.566  -1.327   1.083  1.00  0.00     0.000 C 
HETATM    6  C6  UNL     1      -2.664  -0.445   0.537  1.00  0.00     0.000 C 
HETATM    7  C7  UNL     1      -2.337   1.010   0.580  1.00  0.00     0.000 C 
HETATM    8  C8  UNL     1      -1.711   1.538  -0.678  1.00  0.00     0.000 C 
HETATM    9  C9  UNL     1      -0.484   2.347  -0.332  1.00  0.00     0.000 C 
HETATM   10  C10 UNL     1       0.771   1.748  -0.912  1.00  0.00     0.002 C 
HETATM   11  C11 UNL     1       1.556   0.989   0.117  1.00  0.00     0.032 C 
ENDROOT
BRANCH   1  12
HETATM   12  N1  UNL     1       3.336  -0.551   0.480  1.00  0.00    -0.151 N 
HETATM   13  O1  UNL     1       3.430  -1.722   0.868  1.00  0.00    -0.536 OA
HETATM   14  O2  UNL     1       4.215   0.375   0.966  1.00  0.00    -0.536 OA
ENDBRANCH   1  12
TORSDOF 1
