REMARK  1 active torsions:
REMARK  status: ('A' for Active; 'I' for Inactive)
REMARK    1  A    between atoms: C2_2  and  C3_3 
ROOT
HETATM    1  C3  UNL     1       3.062   0.631  -0.211  1.00  0.00     0.007 A 
HETATM    2  S1  UNL     1       2.367   0.704  -1.765  1.00  0.00    -0.074 SA
HETATM    3  C4  UNL     1       0.751   0.335  -1.368  1.00  0.00     0.089 A 
HETATM    4  N1  UNL     1      -0.494   0.154  -1.865  1.00  0.00    -0.349 N 
ATOM      5  H1  UNL     1      -0.778   0.230  -2.842  1.00  0.00     0.166 HD
HETATM    6  C5  UNL     1      -1.281  -0.144  -0.823  1.00  0.00     0.070 A 
HETATM    7  C6  UNL     1      -0.526  -0.140   0.328  1.00  0.00     0.089 A 
HETATM    8  C7  UNL     1       0.796   0.162  -0.013  1.00  0.00     0.051 A 
HETATM    9  C8  UNL     1       1.996   0.316   0.588  1.00  0.00     0.062 A 
HETATM   10 CL1  UNL     1       2.308   0.140   2.347  1.00  0.00    -0.082 Cl
HETATM   11  N2  UNL     1      -1.423  -0.303   1.467  1.00  0.00    -0.280 N 
ATOM     12  H2  UNL     1      -1.151  -0.355   2.449  1.00  0.00     0.189 HD
HETATM   13  N3  UNL     1      -2.759  -0.376   0.950  1.00  0.00    -0.220 N 
HETATM   14  N4  UNL     1      -3.994  -0.133   1.533  1.00  0.00    -0.294 N 
ATOM     15  H4  UNL     1      -4.071  -0.138   2.550  1.00  0.00     0.187 HD
HETATM   16  C9  UNL     1      -5.053   0.100   0.822  1.00  0.00     0.108 C 
HETATM   17  C10 UNL     1      -4.921   0.061  -0.622  1.00  0.00     0.017 C 
HETATM   18  C11 UNL     1      -3.769  -0.256  -1.224  1.00  0.00     0.009 C 
HETATM   19  C12 UNL     1      -2.618  -0.611  -0.438  1.00  0.00     0.202 C 
ENDROOT
BRANCH   1  20
HETATM   20  C2  UNL     1       4.506   0.862   0.147  1.00  0.00     0.043 C 
HETATM   21  C1  UNL     1       5.213  -0.454   0.418  1.00  0.00     0.010 C 
ENDBRANCH   1  20
TORSDOF 1
