REMARK  5 active torsions:
REMARK  status: ('A' for Active; 'I' for Inactive)
REMARK    1  A    between atoms: N1_2  and  C2_3 
REMARK    2  A    between atoms: N1_2  and  C7_12 
REMARK    3  A    between atoms: C2_3  and  C3_4 
REMARK    4  A    between atoms: C10_15  and  N3_16 
REMARK    5  A    between atoms: N3_16  and  C11_18 
ROOT
HETATM    1  C7  UNL     1       1.013  -0.403   0.551  1.00  0.00     0.121 C 
HETATM    2  C8  UNL     1       0.236  -0.642  -0.766  1.00  0.00     0.030 C 
HETATM    3  C9  UNL     1      -1.165  -1.079  -0.276  1.00  0.00     0.031 C 
HETATM    4  C10 UNL     1      -1.924   0.124   0.198  1.00  0.00     0.111 C 
HETATM    5  C18 UNL     1      -0.936   1.156   0.631  1.00  0.00     0.004 C 
HETATM    6  C19 UNL     1      -1.254   2.432   0.455  1.00  0.00     0.196 C 
HETATM    7  F2  UNL     1      -2.427   2.814  -0.094  1.00  0.00    -0.219 F 
HETATM    8  C20 UNL     1       0.355   0.728   1.233  1.00  0.00     0.226 C 
HETATM    9  F3  UNL     1       0.020   0.361   2.552  1.00  0.00    -0.242 F 
ENDROOT
BRANCH   4  10
HETATM   10  N3  UNL     1      -2.827  -0.156   1.220  1.00  0.00    -0.403 N 
ATOM     11  H3  UNL     1      -2.640   0.237   2.143  1.00  0.00     0.154 HD
BRANCH  10  12
HETATM   12  C11 UNL     1      -3.969  -0.938   1.063  1.00  0.00     0.139 C 
HETATM   13  C12 UNL     1      -3.861  -2.382   0.703  1.00  0.00     0.207 C 
HETATM   14  O1  UNL     1      -4.273  -2.419  -0.650  1.00  0.00    -0.333 OA
HETATM   15  C13 UNL     1      -5.079  -1.327  -0.905  1.00  0.00     0.150 A 
HETATM   16  N4  UNL     1      -5.923  -1.108  -1.964  1.00  0.00    -0.345 N 
HETATM   17  C17 UNL     1      -4.950  -0.388   0.088  1.00  0.00     0.019 A 
HETATM   18  C14 UNL     1      -6.641   0.019  -2.060  1.00  0.00     0.114 A 
ATOM     19  H4  UNL     1      -6.006  -1.817  -2.693  1.00  0.00     0.167 HD
HETATM   20  C15 UNL     1      -6.494   0.955  -1.043  1.00  0.00     0.050 A 
HETATM   21 CL1  UNL     1      -7.441   2.446  -1.169  1.00  0.00    -0.083 Cl
HETATM   22  C16 UNL     1      -5.656   0.760   0.028  1.00  0.00     0.039 A 
ENDBRANCH  10  12
ENDBRANCH   4  10
BRANCH   1  23
HETATM   23  N1  UNL     1       2.403  -0.397   0.338  1.00  0.00    -0.389 N 
HETATM   24  C1  UNL     1       2.817  -1.712  -0.157  1.00  0.00     0.149 C 
BRANCH  23  25
HETATM   25  C2  UNL     1       3.285   0.223   1.219  1.00  0.00     0.067 C 
BRANCH  25  26
HETATM   26  C3  UNL     1       4.590   0.700   0.669  1.00  0.00     0.085 C 
HETATM   27  C4  UNL     1       5.505  -0.286   0.069  1.00  0.00     0.245 C 
HETATM   28  N2  UNL     1       6.568   0.641  -0.394  1.00  0.00    -0.072 N 
HETATM   29  C5  UNL     1       5.824   1.707  -1.055  1.00  0.00     0.270 C 
ATOM     30  H22 UNL     1       7.201   0.959   0.340  1.00  0.00     0.277 HD
ATOM     31  H21 UNL     1       7.287   0.205  -0.972  1.00  0.00     0.277 HD
HETATM   32  C6  UNL     1       4.441   1.719  -0.438  1.00  0.00     0.206 C 
HETATM   33  F1  UNL     1       3.527   1.265  -1.393  1.00  0.00    -0.247 F 
ENDBRANCH  25  26
ENDBRANCH  23  25
ENDBRANCH   1  23
TORSDOF 5
