REMARK  6 active torsions:
REMARK  status: ('A' for Active; 'I' for Inactive)
REMARK    1  A    between atoms: C3_3  and  C4_4 
REMARK    2  A    between atoms: C4_4  and  C5_5 
REMARK    3  A    between atoms: C5_5  and  N1_6 
REMARK    4  A    between atoms: N1_6  and  C7_8 
REMARK    5  A    between atoms: C7_8  and  C8_9 
REMARK    6  A    between atoms: C10_13  and  C11_14 
ROOT
HETATM    1  C1  UNL     1       7.177  -0.790  -2.013  1.00  0.00     0.012 C 
HETATM    2  C2  UNL     1       6.004  -0.510  -1.883  1.00  0.00    -0.117 C 
HETATM    3  C3  UNL     1       4.579  -0.170  -1.719  1.00  0.00     0.098 C 
ENDROOT
BRANCH   3   4
HETATM    4  C4  UNL     1       4.108  -0.713  -0.390  1.00  0.00     0.057 C 
BRANCH   4   5
HETATM    5  C5  UNL     1       2.643  -0.378  -0.190  1.00  0.00     0.064 C 
BRANCH   5   6
HETATM    6  N1  UNL     1       2.102  -0.845   1.014  1.00  0.00    -0.372 N 
HETATM    7  C6  UNL     1       1.931  -2.214   1.244  1.00  0.00     0.154 C 
BRANCH   6   8
HETATM    8  C7  UNL     1       1.528   0.107   1.861  1.00  0.00     0.120 C 
BRANCH   8   9
HETATM    9  C8  UNL     1       0.413   0.814   1.159  1.00  0.00     0.064 A 
HETATM   10  C9  UNL     1       0.412   2.079   0.603  1.00  0.00     0.120 A 
HETATM   11  N2  UNL     1      -0.800   2.322   0.074  1.00  0.00    -0.353 N 
HETATM   12  C10 UNL     1      -1.583   1.225   0.282  1.00  0.00     0.087 A 
ATOM     13  H2  UNL     1      -1.085   3.179  -0.401  1.00  0.00     0.166 HD
HETATM   14  N4  UNL     1      -0.826   0.337   0.935  1.00  0.00    -0.343 N 
ATOM     15  H4  UNL     1      -1.147  -0.586   1.227  1.00  0.00     0.167 HD
BRANCH  12  16
HETATM   16  C11 UNL     1      -3.004   1.110  -0.160  1.00  0.00     0.071 C 
HETATM   17  C12 UNL     1      -3.067   0.125  -1.314  1.00  0.00     0.015 C 
HETATM   18  C13 UNL     1      -4.552   0.071  -1.699  1.00  0.00     0.020 C 
HETATM   19  C14 UNL     1      -5.226  -0.594  -0.503  1.00  0.00     0.113 C 
HETATM   20  N3  UNL     1      -5.143   0.216   0.669  1.00  0.00    -0.420 N 
HETATM   21  C15 UNL     1      -3.840   0.712   0.996  1.00  0.00     0.126 C 
ATOM     22  H3  UNL     1      -5.962   0.429   1.239  1.00  0.00     0.153 HD
ENDBRANCH  12  16
ENDBRANCH   8   9
ENDBRANCH   6   8
ENDBRANCH   5   6
ENDBRANCH   4   5
ENDBRANCH   3   4
TORSDOF 6
