REMARK  0 active torsions:
REMARK  status: ('A' for Active; 'I' for Inactive)
ROOT
HETATM    1  C1  UNL     1       0.650   0.693  -0.209  1.00  0.00     0.037 A 
HETATM    2  C2  UNL     1       1.122  -0.594  -0.065  1.00  0.00     0.108 A 
HETATM    3  N1  UNL     1       0.070  -1.380   0.218  1.00  0.00    -0.312 N 
ATOM      4  H1  UNL     1       0.113  -2.386   0.378  1.00  0.00     0.186 HD
HETATM    5  N2  UNL     1      -1.042  -0.639   0.257  1.00  0.00    -0.312 N 
ATOM      6  H2  UNL     1      -1.978  -0.994   0.451  1.00  0.00     0.186 HD
HETATM    7  C3  UNL     1      -0.735   0.657  -0.001  1.00  0.00     0.108 A 
ENDROOT
TORSDOF 0
