REMARK  2 active torsions:
REMARK  status: ('A' for Active; 'I' for Inactive)
REMARK    1  A    between atoms: C3_6  and  C5_8 
REMARK       I    between atoms: C5_8  and  N2_10 
REMARK    2  A    between atoms: N2_10  and  C6_12 
ROOT
HETATM    1  C1  UNL     1      -3.523  -0.375   0.696  1.00  0.00     0.046 C 
HETATM    2  C2  UNL     1      -2.122   0.117   0.945  1.00  0.00     0.255 C 
HETATM    3  N1  UNL     1      -1.127  -0.836   0.503  1.00  0.00    -0.048 N 
ATOM      4  H11 UNL     1      -1.481  -1.484  -0.201  1.00  0.00     0.279 HD
ATOM      5  H12 UNL     1      -0.894  -1.528   1.215  1.00  0.00     0.279 HD
HETATM    6  C3  UNL     1       0.012  -0.089   0.054  1.00  0.00     0.208 C 
HETATM    7  C4  UNL     1       0.450  -0.688  -1.275  1.00  0.00     0.057 C 
HETATM    8  C7  UNL     1      -0.420   1.347  -0.121  1.00  0.00     0.130 C 
HETATM    9  C8  UNL     1      -1.906   1.331   0.040  1.00  0.00     0.274 C 
HETATM   10  F1  UNL     1      -2.376   2.432   0.700  1.00  0.00    -0.204 F 
HETATM   11  F2  UNL     1      -2.540   1.137  -1.161  1.00  0.00    -0.204 F 
ENDROOT
BRANCH   6  12
HETATM   12  C5  UNL     1       1.145  -0.214   0.983  1.00  0.00     0.260 C 
HETATM   13  O1  UNL     1       0.985  -0.933   2.021  1.00  0.00    -0.270 OA
HETATM   14  N2  UNL     1       2.394   0.393   0.827  1.00  0.00    -0.302 N 
ATOM     15  H2  UNL     1       2.461   1.385   1.055  1.00  0.00     0.171 HD
BRANCH  14  16
HETATM   16  C6  UNL     1       3.459  -0.186   0.424  1.00  0.00     0.197 A 
HETATM   17  N3  UNL     1       4.753   0.029   0.161  1.00  0.00    -0.229 N 
HETATM   18  O2  UNL     1       5.220  -1.138  -0.240  1.00  0.00    -0.194 OA
ATOM     19  H3  UNL     1       5.267   0.905   0.251  1.00  0.00     0.198 HD
HETATM   20  S1  UNL     1       3.732  -1.796  -0.037  1.00  0.00     0.099 SA
ENDBRANCH  14  16
ENDBRANCH   6  12
TORSDOF 2
