REMARK  7 active torsions:
REMARK  status: ('A' for Active; 'I' for Inactive)
REMARK       I    between atoms: C2_2  and  N1_4 
REMARK    1  A    between atoms: N1_4  and  C3_6 
REMARK    2  A    between atoms: C3_6  and  O2_7 
REMARK    3  A    between atoms: O2_7  and  N2_8 
REMARK    4  A    between atoms: C4_11  and  O3_12 
REMARK    5  A    between atoms: C9_19  and  C10_20 
REMARK    6  A    between atoms: N4_21  and  O4_23 
REMARK    7  A    between atoms: C11_25  and  O5_26 
ROOT
HETATM    1  C3  UNL     1       0.817  -0.120  -0.070  1.00  0.00     0.216 C 
HETATM    2  C4  UNL     1       0.448   1.066  -0.880  1.00  0.00     0.196 C 
HETATM    3  C5  UNL     1      -0.961   0.851  -1.404  1.00  0.00     0.131 C 
HETATM    4  C6  UNL     1      -1.333   2.122  -2.076  1.00  0.00     0.067 C 
HETATM    5  N3  UNL     1      -1.628   3.105  -2.603  1.00  0.00    -0.197 NA
HETATM    6  C7  UNL     1      -1.961   0.437  -0.405  1.00  0.00     0.013 C 
HETATM    7  C8  UNL     1      -3.144   1.418  -0.326  1.00  0.00     0.012 C 
HETATM    8  C9  UNL     1      -1.492   0.167   0.964  1.00  0.00     0.065 C 
HETATM    9  C11 UNL     1      -0.070  -0.077   1.197  1.00  0.00     0.188 C 
ENDROOT
BRANCH   2  10
HETATM   10  O3  UNL     1       1.234   1.204  -2.006  1.00  0.00    -0.389 OA
ATOM     11  H3  UNL     1       0.998   1.964  -2.525  1.00  0.00     0.210 HD
ENDBRANCH   2  10
BRANCH   1  12
HETATM   12  N1  UNL     1       2.167  -0.045   0.397  1.00  0.00    -0.323 N 
HETATM   13  C2  UNL     1       3.392  -0.001  -0.262  1.00  0.00     0.216 C 
HETATM   14  C1  UNL     1       4.671   0.083   0.554  1.00  0.00     0.117 C 
HETATM   15  O1  UNL     1       3.558  -0.025  -1.484  1.00  0.00    -0.274 OA
ATOM     16  H1  UNL     1       2.248  -0.019   1.413  1.00  0.00     0.165 HD
ENDBRANCH   1  12
BRANCH   1  17
HETATM   17  O2  UNL     1       0.473  -1.321  -0.665  1.00  0.00    -0.249 OA
BRANCH  17  18
HETATM   18  N2  UNL     1       1.166  -1.641  -1.734  1.00  0.00    -0.308 N 
ATOM     19  H22 UNL     1       1.905  -1.034  -2.089  1.00  0.00     0.184 HD
ATOM     20  H21 UNL     1       0.912  -2.526  -2.173  1.00  0.00     0.184 HD
ENDBRANCH  17  18
ENDBRANCH   1  17
BRANCH   8  21
HETATM   21  C10 UNL     1      -2.257  -1.001   1.547  1.00  0.00     0.094 C 
HETATM   22  N4  UNL     1      -2.236  -1.202   2.801  1.00  0.00    -0.284 N 
ATOM     23  H4  UNL     1      -1.702  -0.571   3.398  1.00  0.00     0.192 HD
BRANCH  22  24
HETATM   24  O4  UNL     1      -2.907  -2.237   3.363  1.00  0.00    -0.291 OA
ATOM     25  H4  UNL     1      -2.891  -2.387   4.301  1.00  0.00     0.244 HD
ENDBRANCH  22  24
ENDBRANCH   8  21
BRANCH   9  26
HETATM   26  O5  UNL     1       0.199  -1.296   1.842  1.00  0.00    -0.390 OA
ATOM     27  H5  UNL     1      -0.346  -1.270   2.620  1.00  0.00     0.210 HD
ENDBRANCH   9  26
TORSDOF 7
