REMARK  8 active torsions:
REMARK  status: ('A' for Active; 'I' for Inactive)
REMARK    1  A    between atoms: C2_2  and  O1_3 
REMARK    2  A    between atoms: C2_2  and  C3_5 
REMARK    3  A    between atoms: C3_5  and  O2_6 
REMARK    4  A    between atoms: O2_6  and  C4_7 
REMARK    5  A    between atoms: C7_12  and  O5_13 
REMARK    6  A    between atoms: C8_15  and  O6_16 
REMARK    7  A    between atoms: C9_18  and  O7_20 
REMARK    8  A    between atoms: C11_22  and  O8_23 
ROOT
HETATM    1  C4  UNL     1       1.408   1.223  -0.005  1.00  0.00     0.414 C 
HETATM    2  O3  UNL     1       0.699   2.388   0.254  1.00  0.00    -0.336 OA
HETATM    3  C5  UNL     1      -0.512   1.847   0.746  1.00  0.00     0.217 C 
HETATM    4  C6  UNL     1      -0.716   0.689  -0.180  1.00  0.00     0.144 C 
HETATM    5  O4  UNL     1       0.525   0.517  -0.814  1.00  0.00    -0.320 OA
HETATM    6  C7  UNL     1      -1.835   0.886  -1.162  1.00  0.00     0.189 C 
HETATM    7  C8  UNL     1      -3.086   0.483  -0.422  1.00  0.00     0.186 C 
HETATM    8  C9  UNL     1      -2.625  -0.694   0.383  1.00  0.00     0.111 C 
HETATM    9  C10 UNL     1      -3.011  -1.952  -0.390  1.00  0.00     0.051 C 
HETATM   10  C11 UNL     1      -1.137  -0.578   0.537  1.00  0.00     0.194 C 
ENDROOT
BRANCH   6  11
HETATM   11  O5  UNL     1      -1.907   2.170  -1.669  1.00  0.00    -0.390 OA
ATOM     12  H5  UNL     1      -2.615   2.295  -2.290  1.00  0.00     0.210 HD
ENDBRANCH   6  11
BRANCH  10  13
HETATM   13  O8  UNL     1      -0.525  -1.696  -0.061  1.00  0.00    -0.389 OA
ATOM     14  H8  UNL     1      -0.789  -2.490   0.388  1.00  0.00     0.210 HD
ENDBRANCH  10  13
BRANCH   1  15
HETATM   15  O2  UNL     1       2.641   1.408  -0.542  1.00  0.00    -0.337 OA
BRANCH  15  16
HETATM   16  C3  UNL     1       3.705   0.910   0.149  1.00  0.00     0.204 C 
BRANCH  16  17
HETATM   17  C2  UNL     1       3.686  -0.572   0.370  1.00  0.00     0.138 C 
HETATM   18  C1  UNL     1       3.691  -1.358  -0.917  1.00  0.00     0.041 C 
BRANCH  17  19
HETATM   19  O1  UNL     1       4.833  -0.939   1.087  1.00  0.00    -0.394 OA
ATOM     20  H1  UNL     1       4.830  -0.444   1.898  1.00  0.00     0.210 HD
ENDBRANCH  17  19
ENDBRANCH  16  17
ENDBRANCH  15  16
ENDBRANCH   1  15
BRANCH   7  21
HETATM   21  O6  UNL     1      -3.564   1.497   0.401  1.00  0.00    -0.390 OA
ATOM     22  H6  UNL     1      -4.352   1.243   0.867  1.00  0.00     0.210 HD
ENDBRANCH   7  21
BRANCH   8  23
HETATM   23  O7  UNL     1      -3.253  -0.702   1.624  1.00  0.00    -0.385 OA
ATOM     24  H7  UNL     1      -2.961  -1.448   2.134  1.00  0.00     0.210 HD
ENDBRANCH   8  23
TORSDOF 8
