REMARK  9 active torsions:
REMARK  status: ('A' for Active; 'I' for Inactive)
REMARK    1  A    between atoms: O1_2  and  C2_3 
REMARK    2  A    between atoms: C2_3  and  O3_5 
REMARK    3  A    between atoms: O3_5  and  C3_6 
REMARK    4  A    between atoms: C3_6  and  C4_7 
REMARK    5  A    between atoms: C5_8  and  O4_9 
REMARK    6  A    between atoms: C6_11  and  O5_12 
REMARK    7  A    between atoms: C7_14  and  O6_15 
REMARK    8  A    between atoms: C10_19  and  C11_20 
REMARK    9  A    between atoms: C11_20  and  O7_21 
ROOT
HETATM    1  C4  UNL     1      -0.088   0.076  -0.458  1.00  0.00     0.036 A 
HETATM    2  C5  UNL     1       0.845   0.620  -1.396  1.00  0.00     0.115 A 
HETATM    3  C6  UNL     1       2.186   0.377  -1.288  1.00  0.00     0.135 A 
HETATM    4  C7  UNL     1       2.687  -0.404  -0.268  1.00  0.00     0.129 A 
HETATM    5  C9  UNL     1       1.814  -0.927   0.631  1.00  0.00     0.095 A 
HETATM    6  N1  UNL     1       2.288  -1.750   1.716  1.00  0.00    -0.098 NA
HETATM    7  C10 UNL     1       0.420  -0.700   0.554  1.00  0.00     0.028 A 
ENDROOT
BRANCH   1   8
HETATM    8  C3  UNL     1      -1.332   0.377  -0.666  1.00  0.00     0.163 C 
BRANCH   8   9
HETATM    9  O3  UNL     1      -2.466   0.054  -0.005  1.00  0.00    -0.267 OA
BRANCH   9  10
HETATM   10  C2  UNL     1      -3.719   0.527  -0.455  1.00  0.00     0.410 C 
HETATM   11  O2  UNL     1      -3.816   1.251  -1.467  1.00  0.00    -0.229 OA
BRANCH  10  12
HETATM   12  O1  UNL     1      -4.885   0.188   0.233  1.00  0.00    -0.303 OA
HETATM   13  C1  UNL     1      -6.154   0.625  -0.163  1.00  0.00     0.215 C 
ENDBRANCH  10  12
ENDBRANCH   9  10
ENDBRANCH   8   9
ENDBRANCH   1   8
BRANCH   2  14
HETATM   14  O4  UNL     1       0.342   1.401  -2.416  1.00  0.00    -0.357 OA
ATOM     15  H4  UNL     1       0.962   1.762  -3.039  1.00  0.00     0.217 HD
ENDBRANCH   2  14
BRANCH   7  16
HETATM   16  C11 UNL     1      -0.274  -1.271   1.489  1.00  0.00     0.145 C 
BRANCH  16  17
HETATM   17  O7  UNL     1      -1.621  -1.250   1.697  1.00  0.00    -0.372 OA
ATOM     18  H7  UNL     1      -2.129  -1.668   2.382  1.00  0.00     0.216 HD
ENDBRANCH  16  17
ENDBRANCH   7  16
BRANCH   3  19
HETATM   19  O5  UNL     1       3.085   0.910  -2.205  1.00  0.00    -0.356 OA
ATOM     20  H5  UNL     1       4.017   0.741  -2.130  1.00  0.00     0.218 HD
ENDBRANCH   3  19
BRANCH   4  21
HETATM   21  O6  UNL     1       4.034  -0.654  -0.151  1.00  0.00    -0.351 OA
HETATM   22  C8  UNL     1       4.946   0.122   0.570  1.00  0.00     0.210 C 
ENDBRANCH   4  21
TORSDOF 9
