REMARK  2 active torsions:
REMARK  status: ('A' for Active; 'I' for Inactive)
REMARK       I    between atoms: C2_2  and  N1_4 
REMARK       I    between atoms: N1_4  and  C3_6 
REMARK       I    between atoms: C3_6  and  N3_8 
REMARK       I    between atoms: N3_8  and  C4_10 
REMARK    1  A    between atoms: C4_10  and  C5_12 
REMARK    2  A    between atoms: C6_16  and  C7_17 
ROOT
HETATM    1  C5  UNL     1       0.966  -0.982  -0.608  1.00  0.00     0.197 A 
HETATM    2  N4  UNL     1       1.703  -1.858  -1.287  1.00  0.00    -0.238 N 
ATOM      3  H4  UNL     1       1.356  -2.494  -2.005  1.00  0.00     0.197 HD
HETATM    4  O3  UNL     1       2.952  -1.770  -0.881  1.00  0.00    -0.213 OA
HETATM    5  C6  UNL     1       3.035  -0.858   0.043  1.00  0.00     0.225 A 
HETATM    6  N7  UNL     1       1.791  -0.344   0.235  1.00  0.00    -0.312 N 
ATOM      7  H7  UNL     1       1.534   0.389   0.896  1.00  0.00     0.170 HD
ENDROOT
BRANCH   1   8
HETATM    8  C4  UNL     1      -0.514  -0.713  -0.718  1.00  0.00     0.293 C 
HETATM    9  N3  UNL     1      -1.080   0.254   0.095  1.00  0.00    -0.294 N 
HETATM   10  C3  UNL     1      -2.316   0.810   0.330  1.00  0.00     0.197 C 
ATOM     11  H3  UNL     1      -0.373   0.679   0.696  1.00  0.00     0.172 HD
HETATM   12  N1  UNL     1      -3.616   0.680  -0.130  1.00  0.00    -0.301 N 
HETATM   13  N2  UNL     1      -2.302   1.804   1.318  1.00  0.00    -0.063 NA
HETATM   14  C2  UNL     1      -4.335  -0.059  -1.045  1.00  0.00     0.220 C 
ATOM     15  H1  UNL     1      -4.230   1.331   0.359  1.00  0.00     0.171 HD
HETATM   16  C1  UNL     1      -5.858   0.204  -1.174  1.00  0.00     0.117 C 
HETATM   17  O1  UNL     1      -3.976  -0.944  -1.830  1.00  0.00    -0.274 OA
HETATM   18  O2  UNL     1      -1.046  -1.439  -1.573  1.00  0.00    -0.264 OA
ENDBRANCH   1   8
BRANCH   5  19
HETATM   19  C7  UNL     1       4.214  -0.421   0.777  1.00  0.00     0.221 A 
HETATM   20  N5  UNL     1       5.440  -0.916   0.599  1.00  0.00    -0.272 N 
HETATM   21  N6  UNL     1       6.279  -0.306   1.418  1.00  0.00    -0.243 N 
ATOM     22  H5  UNL     1       5.690  -1.649  -0.064  1.00  0.00     0.189 HD
HETATM   23  C8  UNL     1       5.559   0.587   2.118  1.00  0.00     0.386 A 
ATOM     24  H6  UNL     1       7.281  -0.480   1.503  1.00  0.00     0.192 HD
HETATM   25  O4  UNL     1       5.999   1.378   3.013  1.00  0.00    -0.236 OA
HETATM   26  O5  UNL     1       4.305   0.491   1.703  1.00  0.00    -0.237 OA
ENDBRANCH   5  19
TORSDOF 2
