REMARK  4 active torsions:
REMARK  status: ('A' for Active; 'I' for Inactive)
REMARK    1  A    between atoms: C4_6  and  C5_7 
REMARK    2  A    between atoms: C5_7  and  N2_8 
REMARK    3  A    between atoms: C5_7  and  O2_12 
REMARK    4  A    between atoms: C5_7  and  C6_14 
ROOT
HETATM    1  C1  UNL     1      -3.903  -0.212   0.279  1.00  0.00     0.312 C 
HETATM    2  N1  UNL     1      -2.584   0.165   0.805  1.00  0.00     0.120 N 
HETATM    3  C2  UNL     1      -2.148   1.486   0.419  1.00  0.00     0.310 A 
HETATM    4  C3  UNL     1      -1.098   0.978  -0.496  1.00  0.00     0.214 A 
HETATM    5  O1  UNL     1       0.231   1.088  -0.023  1.00  0.00    -0.344 OA
HETATM    6  C4  UNL     1       0.647  -0.221  -0.160  1.00  0.00     0.392 C 
HETATM    7  N3  UNL     1      -0.393  -0.906   0.620  1.00  0.00    -0.009 N 
ATOM      8  H31 UNL     1      -0.356  -0.773   1.631  1.00  0.00     0.283 HD
ATOM      9  H32 UNL     1      -0.318  -1.922   0.673  1.00  0.00     0.283 HD
HETATM   10  C8  UNL     1      -1.572  -0.388  -0.048  1.00  0.00     0.452 A 
ENDROOT
BRANCH   6  11
HETATM   11  C5  UNL     1       2.012  -0.500   0.353  1.00  0.00     0.293 C 
BRANCH  11  12
HETATM   12  N2  UNL     1       2.274  -1.922   0.123  1.00  0.00    -0.039 N 
ATOM     13  H23 UNL     1       1.562  -2.531   0.527  1.00  0.00     0.278 HD
ATOM     14  H22 UNL     1       2.147  -2.200  -0.850  1.00  0.00     0.278 HD
ATOM     15  H21 UNL     1       3.212  -2.114   0.475  1.00  0.00     0.278 HD
ENDBRANCH  11  12
BRANCH  11  16
HETATM   16  O2  UNL     1       2.124  -0.222   1.712  1.00  0.00    -0.359 OA
ATOM     17  H2  UNL     1       2.997  -0.401   2.040  1.00  0.00     0.213 HD
ENDBRANCH  11  16
BRANCH  11  18
HETATM   18  C6  UNL     1       2.991   0.302  -0.381  1.00  0.00     0.057 C 
HETATM   19  C7  UNL     1       3.999   0.932   0.201  1.00  0.00     0.085 C 
HETATM   20 CL1  UNL     1       5.162   1.886  -0.682  1.00  0.00    -0.097 Cl
ENDBRANCH  11  18
ENDBRANCH   6  11
TORSDOF 4
