REMARK  6 active torsions:
REMARK  status: ('A' for Active; 'I' for Inactive)
REMARK       I    between atoms: C1_2  and  N1_3 
REMARK       I    between atoms: C1_2  and  N2_12 
REMARK    1  A    between atoms: N1_3  and  C2_5 
REMARK    2  A    between atoms: N2_12  and  C8_13 
REMARK    3  A    between atoms: N2_12  and  C19_27 
REMARK    4  A    between atoms: C8_13  and  C9_14 
REMARK    5  A    between atoms: C12_17  and  N3_18 
REMARK    6  A    between atoms: C19_27  and  C20_28 
ROOT
HETATM    1  O1  UNL     1      -1.480   1.565   1.722  1.00  0.00    -0.247 OA
HETATM    2  C1  UNL     1      -1.880   0.786   0.830  1.00  0.00     0.323 C 
HETATM    3  N1  UNL     1      -2.784   1.211  -0.151  1.00  0.00    -0.309 N 
ATOM      4  H1  UNL     1      -3.070   0.538  -0.862  1.00  0.00     0.170 HD
HETATM    5  N2  UNL     1      -1.386  -0.533   0.851  1.00  0.00    -0.327 N 
ENDROOT
BRANCH   5   6
HETATM    6  C8  UNL     1      -0.426  -0.877   1.891  1.00  0.00     0.166 C 
BRANCH   6   7
HETATM    7  C9  UNL     1       0.931  -0.604   1.385  1.00  0.00    -0.040 A 
HETATM    8  C10 UNL     1       2.026  -0.834   2.206  1.00  0.00     0.011 A 
HETATM    9  C11 UNL     1       3.279  -0.568   1.702  1.00  0.00     0.030 A 
HETATM   10  C12 UNL     1       3.495  -0.092   0.441  1.00  0.00     0.030 A 
HETATM   11  C17 UNL     1       2.371   0.129  -0.361  1.00  0.00     0.030 A 
HETATM   12  C18 UNL     1       1.097  -0.126   0.109  1.00  0.00     0.011 A 
BRANCH  10  13
HETATM   13  N3  UNL     1       4.741   0.208  -0.147  1.00  0.00    -0.378 N 
HETATM   14  C13 UNL     1       5.966   0.137   0.604  1.00  0.00     0.142 C 
HETATM   15  C14 UNL     1       6.882  -0.929   0.024  1.00  0.00     0.133 C 
HETATM   16  N4  UNL     1       6.759  -0.861  -1.402  1.00  0.00    -0.418 N 
HETATM   17  C15 UNL     1       6.344   0.415  -1.916  1.00  0.00     0.133 C 
ATOM     18  H4  UNL     1       6.952  -1.659  -2.007  1.00  0.00     0.153 HD
HETATM   19  C16 UNL     1       4.869   0.600  -1.544  1.00  0.00     0.142 C 
ENDBRANCH  10  13
ENDBRANCH   6   7
ENDBRANCH   5   6
BRANCH   5  20
HETATM   20  C19 UNL     1      -1.845  -1.494  -0.109  1.00  0.00     0.159 C 
BRANCH  20  21
HETATM   21  C20 UNL     1      -3.021  -2.300   0.306  1.00  0.00     0.139 C 
HETATM   22  C21 UNL     1      -3.519  -3.145  -0.870  1.00  0.00     0.035 C 
HETATM   23  C22 UNL     1      -4.889  -3.552  -0.353  1.00  0.00     0.029 C 
HETATM   24  C23 UNL     1      -5.099  -2.606   0.793  1.00  0.00     0.168 C 
HETATM   25  O2  UNL     1      -4.165  -1.577   0.604  1.00  0.00    -0.384 OA
ENDBRANCH  20  21
ENDBRANCH   5  20
BRANCH   3  26
HETATM   26  C2  UNL     1      -3.327   2.519  -0.217  1.00  0.00     0.036 A 
HETATM   27  C3  UNL     1      -3.677   3.024  -1.461  1.00  0.00     0.032 A 
HETATM   28  C4  UNL     1      -4.238   4.276  -1.587  1.00  0.00     0.044 A 
HETATM   29  C5  UNL     1      -4.456   5.043  -0.458  1.00  0.00     0.116 A 
HETATM   30  F1  UNL     1      -5.009   6.279  -0.572  1.00  0.00    -0.206 F 
HETATM   31  C6  UNL     1      -4.109   4.539   0.772  1.00  0.00     0.044 A 
HETATM   32  C7  UNL     1      -3.535   3.259   0.907  1.00  0.00     0.032 A 
ENDBRANCH   3  26
TORSDOF 6
