REMARK  14 active torsions:
REMARK  status: ('A' for Active; 'I' for Inactive)
REMARK    1  A    between atoms: C8_8  and  C9_9 
REMARK    2  A    between atoms: C9_9  and  C10_10 
REMARK    3  A    between atoms: C10_10  and  N1_11 
REMARK    4  A    between atoms: C14_15  and  C15_16 
REMARK    5  A    between atoms: C15_16  and  C16_17 
REMARK    6  A    between atoms: C16_17  and  C17_18 
REMARK    7  A    between atoms: C17_18  and  C18_19 
REMARK    8  A    between atoms: C20_21  and  N2_22 
REMARK       I    between atoms: N2_22  and  C21_24 
REMARK    9  A    between atoms: C21_24  and  C22_26 
REMARK   10  A    between atoms: C22_26  and  C23_27 
REMARK   11  A    between atoms: N3_29  and  N4_31 
REMARK   12  A    between atoms: C25_42  and  N9_43 
REMARK       I    between atoms: N9_43  and  C26_45 
REMARK   13  A    between atoms: C26_45  and  C27_47 
REMARK   14  A    between atoms: C27_47  and  S1_55 
REMARK       I    between atoms: N10_48  and  C28_50 
ROOT
HETATM    1  C1  UNL     1      -6.652  -0.965   2.014  1.00  0.00     0.027 C 
HETATM    2  C2  UNL     1      -5.574  -0.280   1.688  1.00  0.00    -0.001 A 
HETATM    3  C3  UNL     1      -5.649   1.057   1.353  1.00  0.00     0.017 A 
HETATM    4  C4  UNL     1      -4.482   1.700   1.028  1.00  0.00     0.031 A 
HETATM    5  C5  UNL     1      -3.217   1.088   1.013  1.00  0.00     0.044 A 
HETATM    6  C6  UNL     1      -2.180   1.806   0.601  1.00  0.00    -0.003 A 
HETATM    7  C7  UNL     1      -2.293   3.220   0.135  1.00  0.00     0.021 A 
HETATM    8  C8  UNL     1      -1.106   3.669  -0.222  1.00  0.00    -0.055 A 
HETATM    9  C13 UNL     1      -0.164   2.612  -0.015  1.00  0.00     0.015 A 
HETATM   10  C14 UNL     1      -0.782   1.494   0.479  1.00  0.00    -0.045 A 
HETATM   11  N8  UNL     1      -3.229  -0.196   1.344  1.00  0.00    -0.341 N 
ATOM     12  H8  UNL     1      -2.337  -0.691   1.348  1.00  0.00     0.167 HD
HETATM   13  C25 UNL     1      -4.353  -0.907   1.682  1.00  0.00     0.118 A 
ENDROOT
BRANCH  10  14
HETATM   14  C15 UNL     1      -0.030   0.257   0.772  1.00  0.00     0.040 C 
BRANCH  14  15
HETATM   15  C16 UNL     1       0.126  -0.087   2.221  1.00  0.00     0.011 C 
BRANCH  15  16
HETATM   16  C17 UNL     1       0.888  -1.382   2.346  1.00  0.00     0.059 C 
BRANCH  16  17
HETATM   17  C18 UNL     1       2.258  -1.345   1.804  1.00  0.00     0.029 A 
HETATM   18  C19 UNL     1       2.664  -1.634   0.525  1.00  0.00     0.076 A 
HETATM   19  C20 UNL     1       4.031  -1.480   0.471  1.00  0.00     0.124 A 
HETATM   20  N6  UNL     1       4.400  -1.102   1.727  1.00  0.00    -0.285 N 
HETATM   21  N7  UNL     1       3.369  -1.021   2.511  1.00  0.00    -0.303 N 
ATOM     22  H6  UNL     1       5.360  -0.908   2.013  1.00  0.00     0.188 HD
ATOM     23  H7  UNL     1       3.391  -0.757   3.496  1.00  0.00     0.186 HD
BRANCH  19  24
HETATM   24  N2  UNL     1       4.868  -1.615  -0.476  1.00  0.00    -0.307 N 
HETATM   25  C21 UNL     1       4.621  -1.976  -1.801  1.00  0.00     0.271 C 
HETATM   26  O1  UNL     1       3.475  -2.267  -2.189  1.00  0.00    -0.266 OA
ATOM     27  H2  UNL     1       5.844  -1.437  -0.237  1.00  0.00     0.170 HD
BRANCH  25  28
HETATM   28  C22 UNL     1       5.692  -2.034  -2.809  1.00  0.00     0.094 C 
HETATM   29  N3  UNL     1       5.481  -2.356  -4.025  1.00  0.00    -0.285 N 
ATOM     30  H3  UNL     1       6.287  -2.368  -4.650  1.00  0.00     0.188 HD
BRANCH  28  31
HETATM   31  C23 UNL     1       7.065  -1.708  -2.371  1.00  0.00     0.060 C 
HETATM   32  C24 UNL     1       7.195  -0.320  -1.789  1.00  0.00     0.011 C 
ENDBRANCH  28  31
BRANCH  29  33
HETATM   33  N4  UNL     1       4.258  -2.689  -4.568  1.00  0.00    -0.249 N 
HETATM   34  N5  UNL     1       3.999  -3.898  -4.828  1.00  0.00    -0.331 N 
ATOM     35  H52 UNL     1       4.701  -4.611  -4.631  1.00  0.00     0.178 HD
ATOM     36  H51 UNL     1       3.094  -4.144  -5.230  1.00  0.00     0.178 HD
ATOM     37  H4  UNL     1       3.567  -1.964  -4.759  1.00  0.00     0.207 HD
ENDBRANCH  29  33
ENDBRANCH  25  28
ENDBRANCH  19  24
ENDBRANCH  16  17
ENDBRANCH  15  16
ENDBRANCH  14  15
ENDBRANCH  10  14
BRANCH   8  38
HETATM   38  C9  UNL     1      -0.759   5.023  -0.746  1.00  0.00     0.068 C 
BRANCH  38  39
HETATM   39  C10 UNL     1       0.239   5.612   0.225  1.00  0.00     0.276 C 
BRANCH  39  40
HETATM   40  N1  UNL     1       0.688   6.926  -0.120  1.00  0.00     0.080 N 
HETATM   41  C11 UNL     1       1.498   6.980  -1.300  1.00  0.00     0.309 C 
HETATM   42  C12 UNL     1      -0.335   7.922  -0.073  1.00  0.00     0.309 C 
ENDBRANCH  39  40
ENDBRANCH  38  39
ENDBRANCH   8  38
BRANCH  13  43
HETATM   43  N9  UNL     1      -4.291  -2.142   2.010  1.00  0.00    -0.306 N 
HETATM   44  C26 UNL     1      -3.203  -2.985   2.078  1.00  0.00     0.280 C 
HETATM   45  O2  UNL     1      -2.340  -2.879   2.967  1.00  0.00    -0.265 OA
ATOM     46  H9  UNL     1      -5.184  -2.568   2.259  1.00  0.00     0.170 HD
BRANCH  44  47
HETATM   47  C27 UNL     1      -3.024  -4.064   1.075  1.00  0.00     0.140 C 
HETATM   48  N10 UNL     1      -3.898  -4.158   0.193  1.00  0.00    -0.321 N 
HETATM   49  C28 UNL     1      -4.161  -4.951  -0.896  1.00  0.00     0.186 C 
ATOM     50  H10 UNL     1      -4.620  -3.447   0.313  1.00  0.00     0.169 HD
HETATM   51  N11 UNL     1      -3.498  -4.731  -2.005  1.00  0.00    -0.373 N 
HETATM   52  N12 UNL     1      -5.142  -6.006  -0.890  1.00  0.00    -0.064 NA
ATOM     53 2H11 UNL     1      -2.803  -3.984  -2.009  1.00  0.00     0.158 HD
ATOM     54 1H11 UNL     1      -3.693  -5.320  -2.814  1.00  0.00     0.158 HD
BRANCH  47  55
HETATM   55  S1  UNL     1      -1.617  -5.131   1.181  1.00  0.00    -0.111 SA
HETATM   56  C29 UNL     1      -1.475  -6.373  -0.079  1.00  0.00     0.097 C 
ENDBRANCH  47  55
ENDBRANCH  44  47
ENDBRANCH  13  43
TORSDOF 14
