REMARK  11 active torsions:
REMARK  status: ('A' for Active; 'I' for Inactive)
REMARK    1  A    between atoms: C2_2  and  C3_3 
REMARK    2  A    between atoms: C3_3  and  C4_4 
REMARK    3  A    between atoms: C4_4  and  C5_5 
REMARK    4  A    between atoms: C4_4  and  N1_10 
REMARK    5  A    between atoms: C5_5  and  C6_6 
REMARK    6  A    between atoms: C6_6  and  C7_7 
REMARK    7  A    between atoms: N1_10  and  C9_12 
REMARK    8  A    between atoms: C23_26  and  O3_27 
REMARK    9  A    between atoms: O3_27  and  C24_28 
REMARK   10  A    between atoms: C24_28  and  C25_30 
REMARK   11  A    between atoms: C25_30  and  O5_33 
ROOT
HETATM    1  C9  UNL     1       3.310  -0.137   0.403  1.00  0.00    -0.012 C 
HETATM    2  C10 UNL     1       2.629  -0.892   1.469  1.00  0.00     0.053 C 
HETATM    3  C11 UNL     1       1.344  -1.559   1.027  1.00  0.00     0.019 C 
HETATM    4  C12 UNL     1       0.455  -0.778   0.108  1.00  0.00    -0.016 C 
HETATM    5  C13 UNL     1       0.391  -1.557  -1.209  1.00  0.00     0.020 C 
HETATM    6  C14 UNL     1       0.991   0.584  -0.115  1.00  0.00    -0.070 C 
HETATM    7  C15 UNL     1       0.303   1.717  -0.025  1.00  0.00    -0.022 C 
HETATM    8  C16 UNL     1      -1.170   1.697   0.323  1.00  0.00     0.033 C 
HETATM    9  C17 UNL     1      -1.577   0.401  -0.404  1.00  0.00    -0.001 C 
HETATM   10  C18 UNL     1      -0.970  -0.649   0.534  1.00  0.00     0.003 C 
HETATM   11  C19 UNL     1      -1.839  -1.847   0.482  1.00  0.00     0.007 C 
HETATM   12  C20 UNL     1      -3.166  -1.395   1.126  1.00  0.00     0.012 C 
HETATM   13  C21 UNL     1      -3.879  -0.494   0.170  1.00  0.00    -0.013 C 
HETATM   14  C22 UNL     1      -4.748  -1.452  -0.692  1.00  0.00     0.018 C 
HETATM   15  C23 UNL     1      -4.831   0.482   0.782  1.00  0.00     0.140 C 
HETATM   16  C28 UNL     1      -4.264   1.881   0.387  1.00  0.00     0.034 C 
HETATM   17  C29 UNL     1      -3.707   1.580  -0.954  1.00  0.00     0.008 C 
HETATM   18  C30 UNL     1      -2.966   0.242  -0.764  1.00  0.00     0.001 C 
HETATM   19  C31 UNL     1       2.428   0.634  -0.546  1.00  0.00     0.087 C 
ENDROOT
BRANCH   1  20
HETATM   20  N1  UNL     1       4.530  -0.514  -0.168  1.00  0.00    -0.387 N 
HETATM   21  C8  UNL     1       4.565  -1.105  -1.434  1.00  0.00     0.149 C 
BRANCH  20  22
HETATM   22  C4  UNL     1       5.757  -0.015   0.298  1.00  0.00     0.084 C 
BRANCH  22  23
HETATM   23  C3  UNL     1       6.404  -0.505   1.516  1.00  0.00     0.025 C 
BRANCH  23  24
HETATM   24  C2  UNL     1       6.595  -1.998   1.525  1.00  0.00    -0.002 C 
HETATM   25  C1  UNL     1       7.612  -2.403   0.449  1.00  0.00     0.005 C 
ENDBRANCH  23  24
ENDBRANCH  22  23
BRANCH  22  26
HETATM   26  C5  UNL     1       5.692   1.539   0.231  1.00  0.00     0.035 C 
BRANCH  26  27
HETATM   27  C6  UNL     1       7.116   2.055   0.165  1.00  0.00     0.115 C 
BRANCH  27  28
HETATM   28  C7  UNL     1       7.134   3.542   0.113  1.00  0.00     0.172 C 
HETATM   29  O1  UNL     1       6.969   4.188   1.191  1.00  0.00    -0.648 OA
HETATM   30  O2  UNL     1       7.321   4.285  -1.045  1.00  0.00    -0.648 OA
ENDBRANCH  27  28
ENDBRANCH  26  27
ENDBRANCH  22  26
ENDBRANCH  20  22
ENDBRANCH   1  20
BRANCH  15  31
HETATM   31  O3  UNL     1      -6.133   0.397   0.255  1.00  0.00    -0.313 OA
BRANCH  31  32
HETATM   32  C24 UNL     1      -7.276   0.593   0.963  1.00  0.00     0.293 C 
HETATM   33  O4  UNL     1      -7.163   0.877   2.191  1.00  0.00    -0.262 OA
BRANCH  32  34
HETATM   34  C25 UNL     1      -8.589   0.473   0.259  1.00  0.00     0.138 C 
HETATM   35  C26 UNL     1      -8.952  -1.032   0.320  1.00  0.00     0.056 C 
HETATM   36  C27 UNL     1      -8.408   0.771  -1.202  1.00  0.00     0.056 C 
BRANCH  34  37
HETATM   37  O5  UNL     1      -9.580   1.206   0.844  1.00  0.00    -0.380 OA
ATOM     38  H5  UNL     1     -10.415   1.130   0.397  1.00  0.00     0.211 HD
ENDBRANCH  34  37
ENDBRANCH  32  34
ENDBRANCH  31  32
ENDBRANCH  15  31
TORSDOF 11
