REMARK  5 active torsions:
REMARK  status: ('A' for Active; 'I' for Inactive)
REMARK    1  A    between atoms: N1_1  and  C1_4 
REMARK    2  A    between atoms: C3_10  and  O1_11 
REMARK    3  A    between atoms: C3_10  and  N4_13 
REMARK    4  A    between atoms: N4_13  and  N5_15 
REMARK    5  A    between atoms: N6_20  and  O3_21 
ROOT
HETATM    1  C1  UNL     1      -2.613  -0.275  -0.309  1.00  0.00     0.720 A 
HETATM    2  N2  UNL     1      -1.974  -1.010  -1.226  1.00  0.00    -0.130 N 
ATOM      3  H2  UNL     1      -2.511  -1.526  -1.923  1.00  0.00     0.205 HD
HETATM    4  N3  UNL     1      -0.659  -1.075  -1.239  1.00  0.00    -0.278 N 
ATOM      5  H3  UNL     1      -0.200  -1.643  -1.951  1.00  0.00     0.188 HD
HETATM    6  C2  UNL     1       0.119  -0.399  -0.320  1.00  0.00     0.172 A 
HETATM    7  C3  UNL     1       1.558  -0.507  -0.381  1.00  0.00     0.189 C 
HETATM    8  C4  UNL     1      -0.518   0.352   0.618  1.00  0.00     0.320 A 
HETATM    9  O2  UNL     1       0.103   0.993   1.483  1.00  0.00    -0.262 OA
HETATM   10  N6  UNL     1      -1.891   0.392   0.595  1.00  0.00    -0.010 N 
ENDROOT
BRANCH   7  11
HETATM   11  O1  UNL     1       1.997  -1.267  -1.342  1.00  0.00    -0.343 OA
ATOM     12  H1  UNL     1       2.943  -1.338  -1.382  1.00  0.00     0.219 HD
ENDBRANCH   7  11
BRANCH   7  13
HETATM   13  N4  UNL     1       2.536   0.061   0.407  1.00  0.00    -0.285 N 
ATOM     14  H4  UNL     1       2.257   0.668   1.178  1.00  0.00     0.188 HD
BRANCH  13  15
HETATM   15  N5  UNL     1       3.924  -0.172   0.181  1.00  0.00    -0.343 N 
ATOM     16  H52 UNL     1       4.185  -0.782  -0.594  1.00  0.00     0.176 HD
ATOM     17  H51 UNL     1       4.648   0.248   0.764  1.00  0.00     0.176 HD
ENDBRANCH  13  15
ENDBRANCH   7  13
BRANCH  10  18
HETATM   18  O3  UNL     1      -2.507   1.167   1.566  1.00  0.00    -0.266 OA
ATOM     19  H3  UNL     1      -1.993   1.641   2.209  1.00  0.00     0.246 HD
ENDBRANCH  10  18
BRANCH   1  20
HETATM   20  N1  UNL     1      -3.912  -0.223  -0.311  1.00  0.00    -0.231 N 
ATOM     21  H12 UNL     1      -4.463  -0.732  -1.001  1.00  0.00     0.174 HD
ATOM     22  H11 UNL     1      -4.399   0.337   0.388  1.00  0.00     0.174 HD
ENDBRANCH   1  20
TORSDOF 5
