REMARK  2 active torsions:
REMARK  status: ('A' for Active; 'I' for Inactive)
REMARK    1  A    between atoms: C3_3  and  C4_4 
REMARK    2  A    between atoms: C4_4  and  N1_5 
ROOT
HETATM    1  C1  UNL     1       2.101   1.500   1.264  1.00  0.00     0.012 C 
HETATM    2  C2  UNL     1       1.916   0.396   0.781  1.00  0.00    -0.116 C 
HETATM    3  C3  UNL     1       1.682  -0.936   0.221  1.00  0.00     0.114 C 
ENDROOT
BRANCH   3   4
HETATM    4  C4  UNL     1       0.816  -0.744  -1.026  1.00  0.00     0.158 C 
BRANCH   4   5
HETATM    5  N1  UNL     1      -0.410  -0.115  -0.577  1.00  0.00    -0.285 N 
HETATM    6  C5  UNL     1      -1.500  -0.770  -0.183  1.00  0.00     0.126 A 
HETATM    7  C6  UNL     1      -2.479   0.147   0.177  1.00  0.00     0.123 A 
HETATM    8  N2  UNL     1      -1.920   1.348  -0.023  1.00  0.00    -0.294 N 
HETATM    9  N3  UNL     1      -0.686   1.188  -0.473  1.00  0.00    -0.021 NA
ATOM     10  H2  UNL     1      -2.375   2.245   0.145  1.00  0.00     0.183 HD
ENDBRANCH   4   5
ENDBRANCH   3   4
TORSDOF 2
