REMARK  2 active torsions:
REMARK  status: ('A' for Active; 'I' for Inactive)
REMARK    1  A    between atoms: C4_4  and  C5_5 
REMARK    2  A    between atoms: C5_5  and  C7_9 
ROOT
HETATM    1  C7  UNL     1      -0.737  -0.503  -0.321  1.00  0.00     0.221 C 
HETATM    2  C8  UNL     1      -0.979   0.727  -1.160  1.00  0.00     0.038 C 
HETATM    3  C9  UNL     1      -2.478   0.994  -1.153  1.00  0.00     0.004 C 
HETATM    4  C10 UNL     1      -3.019   1.047   0.251  1.00  0.00     0.027 C 
HETATM    5  C11 UNL     1      -2.402   0.094   1.208  1.00  0.00     0.233 C 
HETATM    6  N1  UNL     1      -0.993  -0.130   1.058  1.00  0.00    -0.067 N 
ATOM      7  H11 UNL     1      -0.434   0.668   1.360  1.00  0.00     0.277 HD
ATOM      8  H12 UNL     1      -0.630  -0.812   1.724  1.00  0.00     0.277 HD
ENDROOT
BRANCH   1   9
HETATM    9  C5  UNL     1       0.476  -1.237  -0.577  1.00  0.00     0.006 C 
HETATM   10  C6  UNL     1       0.305  -2.392  -1.287  1.00  0.00     0.111 C 
HETATM   11 CL1  UNL     1      -1.281  -2.938  -1.747  1.00  0.00    -0.070 Cl
HETATM   12 CL2  UNL     1       1.722  -3.302  -1.718  1.00  0.00    -0.070 Cl
BRANCH   9  13
HETATM   13  C4  UNL     1       1.814  -0.883  -0.253  1.00  0.00     0.014 C 
HETATM   14  C2  UNL     1       2.445   0.028   0.374  1.00  0.00    -0.087 C 
HETATM   15  C1  UNL     1       3.979  -0.097   0.401  1.00  0.00     0.043 C 
HETATM   16  C3  UNL     1       1.934   1.164   1.119  1.00  0.00     0.043 C 
ENDBRANCH   9  13
ENDBRANCH   1   9
TORSDOF 2
