REMARK  3 active torsions:
REMARK  status: ('A' for Active; 'I' for Inactive)
REMARK       I    between atoms: C1_2  and  N2_4 
REMARK    1  A    between atoms: N2_4  and  N3_6 
REMARK    2  A    between atoms: C2_8  and  C3_9 
REMARK    3  A    between atoms: C5_12  and  S2_13 
ROOT
HETATM    1  N3  UNL     1      -0.997   0.080   0.741  1.00  0.00    -0.307 N 
ATOM      2  H3  UNL     1      -0.511   0.976   0.695  1.00  0.00     0.186 HD
HETATM    3  C2  UNL     1      -0.327  -0.971   0.462  1.00  0.00     0.126 C 
ENDROOT
BRANCH   3   4
HETATM    4  C3  UNL     1       1.094  -0.883   0.089  1.00  0.00     0.025 A 
HETATM    5  C4  UNL     1       1.913  -1.945  -0.232  1.00  0.00     0.067 A 
HETATM    6  S1  UNL     1       3.494  -1.419  -0.606  1.00  0.00    -0.112 SA
HETATM    7  C5  UNL     1       3.572   0.272  -0.467  1.00  0.00     0.195 A 
HETATM    8  S3  UNL     1       1.964   0.582  -0.006  1.00  0.00    -0.100 SA
BRANCH   7   9
HETATM    9  S2  UNL     1       4.778   1.310  -0.692  1.00  0.00    -0.032 SA
HETATM   10 CL1  UNL     1       4.083   3.239  -0.323  1.00  0.00    -0.042 Cl
ENDBRANCH   7   9
ENDBRANCH   3   4
BRANCH   1  11
HETATM   11  N2  UNL     1      -2.333   0.093   1.101  1.00  0.00    -0.254 N 
HETATM   12  C1  UNL     1      -3.273   0.661   0.199  1.00  0.00     0.347 C 
HETATM   13  N1  UNL     1      -4.653   0.686   0.546  1.00  0.00    -0.038 NA
HETATM   14  O1  UNL     1      -2.958   1.152  -0.906  1.00  0.00    -0.249 OA
ATOM     15  H2  UNL     1      -2.636  -0.296   1.994  1.00  0.00     0.191 HD
ENDBRANCH   1  11
TORSDOF 3
