REMARK  1 active torsions:
REMARK  status: ('A' for Active; 'I' for Inactive)
REMARK    1  A    between atoms: C1_2  and  C2_4 
ROOT
HETATM    1  C2  UNL     1      -0.909   0.416  -0.015  1.00  0.00     0.178 A 
HETATM    2  N2  UNL     1       0.001  -0.556  -0.040  1.00  0.00    -0.312 N 
ATOM      3  H2  UNL     1      -0.328  -1.518  -0.127  1.00  0.00     0.170 HD
HETATM    4  C3  UNL     1       1.333  -0.346   0.043  1.00  0.00     0.198 A 
HETATM    5  N3  UNL     1       2.281  -1.392   0.014  1.00  0.00    -0.063 NA
HETATM    6  N4  UNL     1       1.761   0.920   0.156  1.00  0.00    -0.282 N 
ATOM      7  H4  UNL     1       2.760   1.114   0.220  1.00  0.00     0.173 HD
HETATM    8  C4  UNL     1       0.875   1.939   0.185  1.00  0.00     0.328 A 
HETATM    9  O2  UNL     1       1.291   3.109   0.291  1.00  0.00    -0.247 OA
HETATM   10  N5  UNL     1      -0.460   1.681   0.100  1.00  0.00    -0.290 N 
ATOM     11  H5  UNL     1      -1.126   2.453   0.124  1.00  0.00     0.172 HD
ENDROOT
BRANCH   1  12
HETATM   12  C1  UNL     1      -2.335   0.131  -0.107  1.00  0.00     0.299 C 
HETATM   13  N1  UNL     1      -2.787  -1.205  -0.227  1.00  0.00    -0.054 NA
HETATM   14  O1  UNL     1      -3.188   1.047  -0.083  1.00  0.00    -0.268 OA
ENDBRANCH   1  12
TORSDOF 1
