REMARK  1 active torsions:
REMARK  status: ('A' for Active; 'I' for Inactive)
REMARK    1  A    between atoms: N2_5  and  O1_6 
ROOT
HETATM    1  C1  UNL     1       2.100  -0.133   0.295  1.00  0.00     0.150 C 
HETATM    2  N1  UNL     1       0.717   0.171  -0.041  1.00  0.00    -0.375 N 
HETATM    3  C2  UNL     1      -0.042   1.339   0.255  1.00  0.00     0.106 C 
HETATM    4  C3  UNL     1      -1.346   1.074   0.168  1.00  0.00     0.135 C 
HETATM    5  N2  UNL     1      -1.495  -0.294  -0.193  1.00  0.00    -0.253 N 
HETATM    6  C4  UNL     1      -0.221  -0.681  -0.778  1.00  0.00     0.278 C 
ENDROOT
BRANCH   5   7
HETATM    7  O1  UNL     1      -2.610  -1.039  -0.012  1.00  0.00    -0.286 OA
ATOM      8  H1  UNL     1      -2.709  -1.953  -0.253  1.00  0.00     0.244 HD
ENDBRANCH   5   7
TORSDOF 1
