REMARK  5 active torsions:
REMARK  status: ('A' for Active; 'I' for Inactive)
REMARK    1  A    between atoms: N1_1  and  C1_5 
REMARK    2  A    between atoms: C1_5  and  C2_6 
REMARK    3  A    between atoms: C1_5  and  C17_24 
REMARK    4  A    between atoms: C2_6  and  C3_7 
REMARK    5  A    between atoms: C11_15  and  N2_16 
ROOT
HETATM    1  C3  UNL     1       1.935  -0.381   1.091  1.00  0.00    -0.012 C 
HETATM    2  C4  UNL     1       0.842   0.577   1.141  1.00  0.00     0.005 C 
HETATM    3  C5  UNL     1       1.073   2.011   1.336  1.00  0.00     0.000 C 
HETATM    4  C6  UNL     1       0.417   2.866   0.237  1.00  0.00     0.000 C 
HETATM    5  C7  UNL     1      -1.082   2.909   0.425  1.00  0.00     0.000 C 
HETATM    6  C8  UNL     1      -1.752   2.395  -0.807  1.00  0.00     0.000 C 
HETATM    7  C9  UNL     1      -3.097   1.761  -0.551  1.00  0.00     0.002 C 
HETATM    8  C10 UNL     1      -3.016   0.449   0.167  1.00  0.00     0.032 C 
HETATM    9  C11 UNL     1      -2.745  -0.691  -0.784  1.00  0.00     0.155 C 
HETATM   10  C12 UNL     1      -2.818  -2.034  -0.151  1.00  0.00     0.032 C 
HETATM   11  C13 UNL     1      -1.914  -2.269   1.007  1.00  0.00     0.002 C 
HETATM   12  C14 UNL     1      -0.674  -3.070   0.678  1.00  0.00     0.000 C 
HETATM   13  C15 UNL     1       0.518  -2.261   0.314  1.00  0.00     0.000 C 
HETATM   14  C16 UNL     1       1.333  -1.755   1.462  1.00  0.00     0.005 C 
ENDROOT
BRANCH   1  15
HETATM   15  C2  UNL     1       2.699  -0.605  -0.138  1.00  0.00     0.048 C 
BRANCH  15  16
HETATM   16  C1  UNL     1       3.440   0.534  -0.744  1.00  0.00     0.283 C 
BRANCH  16  17
HETATM   17  N1  UNL     1       4.448   1.124   0.094  1.00  0.00    -0.065 N 
ATOM     18  H13 UNL     1       4.042   1.405   0.987  1.00  0.00     0.275 HD
ATOM     19  H12 UNL     1       5.102   0.409   0.412  1.00  0.00     0.275 HD
ATOM     20  H11 UNL     1       4.956   1.905  -0.321  1.00  0.00     0.275 HD
ENDBRANCH  16  17
BRANCH  16  21
HETATM   21  C17 UNL     1       4.169  -0.016  -1.946  1.00  0.00     0.204 C 
HETATM   22  O3  UNL     1       5.403   0.070  -2.094  1.00  0.00    -0.646 OA
HETATM   23  O4  UNL     1       3.445  -0.655  -2.951  1.00  0.00    -0.646 OA
ENDBRANCH  16  21
ENDBRANCH  15  16
ENDBRANCH   1  15
BRANCH   9  24
HETATM   24  N2  UNL     1      -3.784  -0.632  -1.804  1.00  0.00    -0.151 N 
HETATM   25  O1  UNL     1      -3.543  -0.481  -3.013  1.00  0.00    -0.536 OA
HETATM   26  O2  UNL     1      -5.093  -0.749  -1.415  1.00  0.00    -0.536 OA
ENDBRANCH   9  24
TORSDOF 5
