REMARK  1 active torsions:
REMARK  status: ('A' for Active; 'I' for Inactive)
REMARK    1  A    between atoms: C2_2  and  C3_3 
ROOT
HETATM    1  C3  UNL     1      -0.671   0.026  -0.245  1.00  0.00     0.003 C 
HETATM    2  C4  UNL     1       0.094  -1.241  -0.551  1.00  0.00     0.008 C 
HETATM    3  C5  UNL     1       1.166  -1.516   0.483  1.00  0.00     0.022 C 
HETATM    4  C6  UNL     1       2.265  -0.492   0.290  1.00  0.00     0.139 C 
HETATM    5  N1  UNL     1       2.065   0.650   1.168  1.00  0.00    -0.336 N 
ATOM      6  H1  UNL     1       1.852   0.499   2.154  1.00  0.00     0.180 HD
HETATM    7  N2  UNL     1       2.160   1.921   0.684  1.00  0.00    -0.301 N 
ATOM      8  H2  UNL     1       3.042   2.384   0.903  1.00  0.00     0.187 HD
HETATM    9  C7  UNL     1       1.352   2.636   0.010  1.00  0.00     0.192 C 
HETATM   10  N3  UNL     1       0.067   2.296  -0.449  1.00  0.00    -0.385 N 
ATOM     11  H3  UNL     1      -0.683   2.947  -0.215  1.00  0.00     0.160 HD
HETATM   12  C8  UNL     1      -0.313   1.132  -1.213  1.00  0.00     0.125 C 
ENDROOT
BRANCH   1  13
HETATM   13  C2  UNL     1      -2.162  -0.268  -0.330  1.00  0.00     0.002 C 
HETATM   14  C1  UNL     1      -2.502  -1.337   0.678  1.00  0.00     0.005 C 
ENDBRANCH   1  13
TORSDOF 1
