REMARK  10 active torsions:
REMARK  status: ('A' for Active; 'I' for Inactive)
REMARK       I    between atoms: C2_2  and  N1_4 
REMARK    1  A    between atoms: N1_4  and  C3_6 
REMARK    2  A    between atoms: C5_11  and  S1_12 
REMARK    3  A    between atoms: S1_12  and  C6_13 
REMARK    4  A    between atoms: C6_13  and  C7_14 
REMARK       I    between atoms: C7_14  and  N4_16 
REMARK    5  A    between atoms: N4_16  and  S2_18 
REMARK    6  A    between atoms: S2_18  and  C8_21 
REMARK    7  A    between atoms: C10_31  and  O4_32 
REMARK    8  A    between atoms: C11_34  and  N8_35 
REMARK    9  A    between atoms: N8_35  and  C12_36 
REMARK   10  A    between atoms: C12_36  and  C14_38 
ROOT
HETATM    1  C3  UNL     1      -2.145   0.145   0.563  1.00  0.00     0.120 A 
HETATM    2  C4  UNL     1      -1.167  -0.199   1.484  1.00  0.00     0.147 A 
HETATM    3  N2  UNL     1      -1.169   0.475   2.746  1.00  0.00    -0.080 NA
HETATM    4  N3  UNL     1      -0.238  -1.133   1.210  1.00  0.00    -0.335 N 
ATOM      5  H3  UNL     1       0.459  -1.349   1.923  1.00  0.00     0.168 HD
HETATM    6  C5  UNL     1      -0.186  -1.789   0.050  1.00  0.00     0.108 A 
HETATM    7  C10 UNL     1      -1.139  -1.471  -0.884  1.00  0.00     0.142 A 
HETATM    8  C11 UNL     1      -2.150  -0.490  -0.656  1.00  0.00     0.167 A 
ENDROOT
BRANCH   6   9
HETATM    9  S1  UNL     1       1.067  -3.002  -0.308  1.00  0.00    -0.100 SA
BRANCH   9  10
HETATM   10  C6  UNL     1       2.442  -2.398  -1.274  1.00  0.00     0.184 C 
BRANCH  10  11
HETATM   11  C7  UNL     1       3.300  -1.492  -0.525  1.00  0.00     0.239 C 
HETATM   12  O2  UNL     1       4.154  -0.786  -1.172  1.00  0.00    -0.272 OA
HETATM   13  N4  UNL     1       3.295  -1.307   0.870  1.00  0.00    -0.272 N 
ATOM     14  H4  UNL     1       2.637  -1.870   1.409  1.00  0.00     0.179 HD
BRANCH  13  15
HETATM   15  S2  UNL     1       4.286  -0.230   1.741  1.00  0.00     0.149 S 
HETATM   16  O3  UNL     1       3.468   1.050   1.939  1.00  0.00    -0.230 OA
HETATM   17  S3  UNL     1       4.660  -0.765   3.309  1.00  0.00     0.037 SA
BRANCH  15  18
HETATM   18  C8  UNL     1       5.722   0.272   0.861  1.00  0.00     0.179 A 
HETATM   19  N5  UNL     1       6.917  -0.313   0.818  1.00  0.00    -0.283 N 
HETATM   20  N6  UNL     1       7.848   0.200   0.134  1.00  0.00    -0.279 N 
ATOM     21  H5  UNL     1       7.081  -1.175   1.337  1.00  0.00     0.188 HD
HETATM   22  C9  UNL     1       7.627   1.322  -0.540  1.00  0.00     0.159 A 
ATOM     23  H6  UNL     1       8.765  -0.246   0.100  1.00  0.00     0.189 HD
HETATM   24  N7  UNL     1       8.441   2.008  -1.300  1.00  0.00    -0.379 N 
HETATM   25  S4  UNL     1       5.977   1.630  -0.145  1.00  0.00    -0.023 SA
ATOM     26  H72 UNL     1       9.417   1.826  -1.534  1.00  0.00     0.158 HD
ATOM     27  H71 UNL     1       8.271   2.870  -1.818  1.00  0.00     0.158 HD
ENDBRANCH  15  18
ENDBRANCH  13  15
ENDBRANCH  10  11
ENDBRANCH   9  10
ENDBRANCH   6   9
BRANCH   7  28
HETATM   28  O4  UNL     1      -1.137  -2.114  -2.101  1.00  0.00    -0.355 OA
ATOM     29  H4  UNL     1      -1.797  -1.894  -2.748  1.00  0.00     0.218 HD
ENDBRANCH   7  28
BRANCH   8  30
HETATM   30  N8  UNL     1      -2.954  -0.257  -1.526  1.00  0.00    -0.431 NA
BRANCH  30  31
HETATM   31  C12 UNL     1      -3.946   0.195  -2.289  1.00  0.00     0.220 C 
HETATM   32  C13 UNL     1      -5.324  -0.384  -1.951  1.00  0.00     0.055 C 
BRANCH  31  33
HETATM   33  C14 UNL     1      -4.107   1.699  -2.276  1.00  0.00     0.269 C 
HETATM   34  O5  UNL     1      -5.041   2.169  -2.944  1.00  0.00    -0.303 OA
ENDBRANCH  31  33
ENDBRANCH  30  31
ENDBRANCH   8  30
BRANCH   1  35
HETATM   35  N1  UNL     1      -3.089   1.130   0.971  1.00  0.00    -0.322 N 
HETATM   36  C2  UNL     1      -4.317   0.986   1.552  1.00  0.00     0.218 C 
HETATM   37  C1  UNL     1      -5.201   2.144   1.930  1.00  0.00     0.117 C 
HETATM   38  O1  UNL     1      -4.831  -0.150   1.831  1.00  0.00    -0.274 OA
ATOM     39  H1  UNL     1      -2.803   2.095   0.803  1.00  0.00     0.169 HD
ENDBRANCH   1  35
TORSDOF 10
