REMARK  14 active torsions:
REMARK  status: ('A' for Active; 'I' for Inactive)
REMARK    1  A    between atoms: C2_2  and  O1_3 
REMARK    2  A    between atoms: O1_3  and  C3_4 
REMARK       I    between atoms: C3_4  and  N1_6 
REMARK    3  A    between atoms: N2_9  and  C6_10 
REMARK    4  A    between atoms: C6_10  and  O3_11 
REMARK    5  A    between atoms: C6_10  and  N3_13 
REMARK    6  A    between atoms: N4_16  and  C9_17 
REMARK    7  A    between atoms: C9_17  and  O4_18 
REMARK    8  A    between atoms: C10_20  and  C11_21 
REMARK    9  A    between atoms: C10_20  and  N7_29 
REMARK   10  A    between atoms: C11_21  and  C12_22 
REMARK       I    between atoms: N7_29  and  C15_31 
REMARK   11  A    between atoms: C15_31  and  C16_33 
REMARK   12  A    between atoms: C16_33  and  N9_36 
REMARK   13  A    between atoms: C21_40  and  N10_41 
REMARK   14  A    between atoms: C30_50  and  C31_51 
ROOT
HETATM    1  C16 UNL     1      -4.165  -0.315   0.687  1.00  0.00     0.419 C 
HETATM    2  C17 UNL     1      -3.679   0.651   1.693  1.00  0.00     0.105 C 
HETATM    3  N8  UNL     1      -3.280   1.395   2.468  1.00  0.00    -0.194 NA
ENDROOT
BRANCH   1   4
HETATM    4  C15 UNL     1      -2.980  -0.813  -0.035  1.00  0.00     0.270 C 
HETATM    5  N7  UNL     1      -1.995  -1.517   0.685  1.00  0.00    -0.324 N 
ATOM      6  H7  UNL     1      -2.146  -1.649   1.685  1.00  0.00     0.169 HD
HETATM    7  O5  UNL     1      -2.857  -0.614  -1.250  1.00  0.00    -0.270 OA
BRANCH   5   8
HETATM    8  C10 UNL     1      -0.764  -2.077   0.102  1.00  0.00     0.068 C 
HETATM    9  C9  UNL     1       0.415  -1.362   0.538  1.00  0.00     0.161 C 
BRANCH   9  10
HETATM   10  N4  UNL     1       1.770  -1.691   0.627  1.00  0.00    -0.357 N 
HETATM   11  C8  UNL     1       2.677  -0.601   1.064  1.00  0.00     0.145 C 
HETATM   12  C7  UNL     1       4.088  -1.115   1.342  1.00  0.00     0.146 C 
HETATM   13  N3  UNL     1       4.577  -1.752   0.182  1.00  0.00    -0.344 N 
HETATM   14  C29 UNL     1       3.671  -2.708  -0.488  1.00  0.00     0.146 C 
HETATM   15  C28 UNL     1       2.417  -2.941   0.383  1.00  0.00     0.145 C 
BRANCH  13  16
HETATM   16  C6  UNL     1       5.835  -1.596  -0.387  1.00  0.00     0.218 C 
BRANCH  16  17
HETATM   17  N2  UNL     1       6.972  -0.871  -0.014  1.00  0.00    -0.330 N 
HETATM   18  C5  UNL     1       7.152  -0.082   1.180  1.00  0.00     0.147 C 
HETATM   19  C4  UNL     1       8.620   0.347   1.324  1.00  0.00     0.148 C 
HETATM   20  N1  UNL     1       8.945   1.063   0.117  1.00  0.00    -0.324 N 
HETATM   21  C3  UNL     1       9.377   2.397   0.181  1.00  0.00     0.362 C 
HETATM   22  C32 UNL     1       8.809   0.374  -1.121  1.00  0.00     0.164 C 
HETATM   23  O2  UNL     1       9.646   3.003  -0.916  1.00  0.00    -0.238 OA
HETATM   24  C30 UNL     1       8.091  -0.930  -0.999  1.00  0.00     0.206 C 
BRANCH  21  25
HETATM   25  O1  UNL     1       9.531   3.105   1.367  1.00  0.00    -0.304 OA
BRANCH  25  26
HETATM   26  C2  UNL     1       9.967   4.436   1.314  1.00  0.00     0.176 C 
HETATM   27  C1  UNL     1      11.325   4.599   0.663  1.00  0.00     0.034 C 
ENDBRANCH  25  26
ENDBRANCH  21  25
BRANCH  24  28
HETATM   28  C31 UNL     1       8.943  -2.099  -0.728  1.00  0.00     0.198 C 
HETATM   29  O6  UNL     1       9.966  -2.350  -1.402  1.00  0.00    -0.646 OA
HETATM   30  O7  UNL     1       8.611  -2.956   0.307  1.00  0.00    -0.646 OA
ENDBRANCH  24  28
ENDBRANCH  16  17
BRANCH  16  31
HETATM   31  O3  UNL     1       5.988  -2.276  -1.514  1.00  0.00    -0.332 OA
ATOM     32  H3  UNL     1       5.216  -2.768  -1.767  1.00  0.00     0.220 HD
ENDBRANCH  16  31
ENDBRANCH  13  16
ENDBRANCH   9  10
BRANCH   9  33
HETATM   33  O4  UNL     1       0.110  -0.126   0.933  1.00  0.00    -0.345 OA
ATOM     34  H4  UNL     1      -0.811   0.098   0.872  1.00  0.00     0.219 HD
ENDBRANCH   9  33
BRANCH   8  35
HETATM   35  C11 UNL     1      -0.789  -3.558   0.074  1.00  0.00     0.120 C 
BRANCH  35  36
HETATM   36  C12 UNL     1      -2.176  -3.986  -0.396  1.00  0.00     0.031 A 
HETATM   37  C13 UNL     1      -2.588  -4.201  -1.694  1.00  0.00     0.114 A 
HETATM   38  N5  UNL     1      -3.872  -4.577  -1.728  1.00  0.00    -0.360 N 
HETATM   39  C14 UNL     1      -4.288  -4.604  -0.441  1.00  0.00     0.180 A 
ATOM     40  H5  UNL     1      -4.425  -4.798  -2.556  1.00  0.00     0.166 HD
HETATM   41  N6  UNL     1      -3.257  -4.244   0.370  1.00  0.00    -0.354 N 
ATOM     42  H6  UNL     1      -3.295  -4.180   1.387  1.00  0.00     0.166 HD
ENDBRANCH  35  36
ENDBRANCH   8  35
ENDBRANCH   5   8
ENDBRANCH   1   4
BRANCH   1  43
HETATM   43  N9  UNL     1      -5.038   0.362  -0.244  1.00  0.00     0.117 N 
HETATM   44  C18 UNL     1      -5.552  -0.479  -1.277  1.00  0.00     0.275 C 
HETATM   45  C19 UNL     1      -7.053  -0.613  -1.081  1.00  0.00     0.032 C 
HETATM   46  C20 UNL     1      -7.782   0.704  -1.242  1.00  0.00     0.028 C 
HETATM   47  C21 UNL     1      -6.959   1.771  -0.587  1.00  0.00     0.107 C 
HETATM   48  C27 UNL     1      -6.080   1.107   0.449  1.00  0.00     0.299 C 
BRANCH  47  49
HETATM   49  N10 UNL     1      -7.654   2.832  -0.003  1.00  0.00    -0.406 N 
HETATM   50  C22 UNL     1      -8.455   3.661  -0.834  1.00  0.00     0.117 C 
HETATM   51  C23 UNL     1      -9.798   4.029  -0.252  1.00  0.00     0.019 C 
HETATM   52  C24 UNL     1     -10.441   2.891   0.504  1.00  0.00     0.003 C 
HETATM   53  C25 UNL     1      -9.516   2.207   1.465  1.00  0.00     0.019 C 
HETATM   54  C26 UNL     1      -8.085   2.755   1.338  1.00  0.00     0.117 C 
ENDBRANCH  47  49
ENDBRANCH   1  43
TORSDOF 14
