REMARK  16 active torsions:
REMARK  status: ('A' for Active; 'I' for Inactive)
REMARK    1  A    between atoms: C2_2  and  C3_3 
REMARK    2  A    between atoms: C2_2  and  C11_19 
REMARK    3  A    between atoms: C3_3  and  N1_4 
REMARK       I    between atoms: N1_4  and  C4_6 
REMARK    4  A    between atoms: C4_6  and  C5_8 
REMARK    5  A    between atoms: C5_8  and  N2_10 
REMARK    6  A    between atoms: C5_8  and  C8_16 
REMARK    7  A    between atoms: N2_10  and  S1_12 
REMARK    8  A    between atoms: C11_19  and  N4_24 
REMARK    9  A    between atoms: N3_20  and  O4_22 
REMARK   10  A    between atoms: C15_28  and  C16_29 
REMARK   11  A    between atoms: C16_29  and  O5_30 
REMARK   12  A    between atoms: C16_29  and  N5_32 
REMARK   13  A    between atoms: C20_36  and  C21_37 
REMARK       I    between atoms: C21_37  and  N6_39 
REMARK   14  A    between atoms: C26_45  and  C27_46 
REMARK   15  A    between atoms: C27_46  and  O8_48 
REMARK   16  A    between atoms: O8_48  and  C28_49 
ROOT
HETATM    1  N4  UNL     1       1.261  -0.815  -1.459  1.00  0.00    -0.357 N 
HETATM    2  C12 UNL     1       1.304  -0.637  -2.921  1.00  0.00     0.125 C 
HETATM    3  C13 UNL     1       0.630  -1.865  -3.462  1.00  0.00     0.022 C 
HETATM    4  C14 UNL     1      -0.171  -2.426  -2.349  1.00  0.00     0.035 C 
HETATM    5  C15 UNL     1      -0.005  -1.409  -1.212  1.00  0.00     0.160 C 
ENDROOT
BRANCH   5   6
HETATM    6  C16 UNL     1      -1.206  -0.623  -1.171  1.00  0.00     0.138 C 
BRANCH   6   7
HETATM    7  O5  UNL     1      -2.303  -1.300  -1.352  1.00  0.00    -0.348 OA
ATOM      8  H5  UNL     1      -3.098  -0.780  -1.325  1.00  0.00     0.219 HD
ENDBRANCH   6   7
BRANCH   6   9
HETATM    9  N5  UNL     1      -1.446   0.763  -0.971  1.00  0.00    -0.350 N 
HETATM   10  C17 UNL     1      -0.450   1.737  -0.674  1.00  0.00     0.126 C 
HETATM   11  C18 UNL     1      -1.135   3.012  -0.330  1.00  0.00     0.022 C 
HETATM   12  C19 UNL     1      -2.480   2.886  -0.979  1.00  0.00     0.037 C 
HETATM   13  C20 UNL     1      -2.751   1.413  -1.063  1.00  0.00     0.178 C 
BRANCH  13  14
HETATM   14  C21 UNL     1      -3.660   1.007  -0.000  1.00  0.00     0.243 C 
HETATM   15  O6  UNL     1      -3.238   0.292   0.947  1.00  0.00    -0.271 OA
HETATM   16  N6  UNL     1      -5.014   1.398  -0.011  1.00  0.00    -0.333 N 
HETATM   17  C22 UNL     1      -5.607   2.214  -1.041  1.00  0.00     0.146 C 
HETATM   18  C26 UNL     1      -5.925   0.975   1.056  1.00  0.00     0.204 C 
HETATM   19  C23 UNL     1      -6.322   3.421  -0.486  1.00  0.00     0.136 C 
HETATM   20  N7  UNL     1      -6.705   3.314   0.878  1.00  0.00    -0.413 N 
HETATM   21  C24 UNL     1      -6.131   4.253   1.781  1.00  0.00     0.143 C 
HETATM   22  C25 UNL     1      -6.939   2.012   1.387  1.00  0.00     0.152 C 
BRANCH  18  23
HETATM   23  C27 UNL     1      -6.673  -0.235   0.555  1.00  0.00     0.284 C 
HETATM   24  O7  UNL     1      -6.496  -0.719  -0.579  1.00  0.00    -0.263 OA
BRANCH  23  25
HETATM   25  O8  UNL     1      -7.604  -0.859   1.366  1.00  0.00    -0.310 OA
BRANCH  25  26
HETATM   26  C28 UNL     1      -8.340  -2.008   0.939  1.00  0.00     0.060 C 
HETATM   27  C29 UNL     1      -9.255  -2.411   2.084  1.00  0.00     0.045 C 
HETATM   28  C30 UNL     1      -7.456  -3.145   0.543  1.00  0.00     0.045 C 
HETATM   29  C31 UNL     1      -9.261  -1.639  -0.222  1.00  0.00     0.045 C 
ENDBRANCH  25  26
ENDBRANCH  23  25
ENDBRANCH  18  23
ENDBRANCH  13  14
ENDBRANCH   6   9
ENDBRANCH   5   6
BRANCH   1  30
HETATM   30  C11 UNL     1       2.348  -0.455  -0.618  1.00  0.00     0.105 C 
HETATM   31  N3  UNL     1       3.144   0.484  -0.944  1.00  0.00    -0.257 N 
ATOM     32  H3  UNL     1       3.893   0.679  -0.279  1.00  0.00     0.195 HD
BRANCH  30  33
HETATM   33  C2  UNL     1       2.596  -1.150   0.677  1.00  0.00     0.069 C 
HETATM   34  C1  UNL     1       2.754  -2.625   0.569  1.00  0.00     0.020 C 
BRANCH  33  35
HETATM   35  C3  UNL     1       3.675  -0.498   1.467  1.00  0.00     0.134 C 
BRANCH  35  36
HETATM   36  N1  UNL     1       5.002  -0.712   0.934  1.00  0.00    -0.358 N 
HETATM   37  C4  UNL     1       6.164  -0.169   1.522  1.00  0.00     0.246 C 
HETATM   38  O1  UNL     1       6.013   0.533   2.545  1.00  0.00    -0.271 OA
ATOM     39  H1  UNL     1       5.103  -1.282   0.094  1.00  0.00     0.162 HD
BRANCH  37  40
HETATM   40  C5  UNL     1       7.485  -0.450   0.915  1.00  0.00     0.120 C 
HETATM   41  C6  UNL     1       7.428  -0.311  -0.598  1.00  0.00     0.050 C 
BRANCH  40  42
HETATM   42  N2  UNL     1       8.593   0.172   1.532  1.00  0.00    -0.301 N 
ATOM     43  H2  UNL     1       9.271  -0.393   2.044  1.00  0.00     0.173 HD
BRANCH  42  44
HETATM   44  S1  UNL     1       8.800   1.830   1.429  1.00  0.00     0.223 S 
HETATM   45  C7  UNL     1       9.009   2.369  -0.260  1.00  0.00     0.186 C 
HETATM   46  O2  UNL     1      10.132   2.166   2.108  1.00  0.00    -0.206 OA
HETATM   47  O3  UNL     1       7.787   2.677   2.137  1.00  0.00    -0.206 OA
ENDBRANCH  42  44
ENDBRANCH  40  42
BRANCH  40  48
HETATM   48  C8  UNL     1       7.703  -1.970   1.136  1.00  0.00     0.015 C 
HETATM   49  C9  UNL     1       7.685  -2.198   2.623  1.00  0.00     0.012 C 
HETATM   50  C10 UNL     1       9.089  -2.350   0.632  1.00  0.00     0.012 C 
ENDBRANCH  40  48
ENDBRANCH  37  40
ENDBRANCH  35  36
ENDBRANCH  33  35
ENDBRANCH  30  33
BRANCH  31  51
HETATM   51  O4  UNL     1       3.130   1.256  -2.051  1.00  0.00    -0.288 OA
ATOM     52  H4  UNL     1       3.724   1.957  -2.294  1.00  0.00     0.244 HD
ENDBRANCH  31  51
ENDBRANCH   1  30
TORSDOF 16
