REMARK  11 active torsions:
REMARK  status: ('A' for Active; 'I' for Inactive)
REMARK    1  A    between atoms: C1_2  and  C2_3 
REMARK       I    between atoms: C1_2  and  N10_49 
REMARK    2  A    between atoms: C5_6  and  S1_7 
REMARK    3  A    between atoms: S1_7  and  N1_10 
REMARK    4  A    between atoms: N1_10  and  C6_12 
REMARK    5  A    between atoms: C8_14  and  C9_15 
REMARK    6  A    between atoms: C9_15  and  N2_16 
REMARK    7  A    between atoms: C12_19  and  C13_20 
REMARK    8  A    between atoms: C13_20  and  N3_21 
REMARK    9  A    between atoms: C20_33  and  N5_34 
REMARK   10  A    between atoms: N5_34  and  C21_36 
REMARK   11  A    between atoms: C21_36  and  C22_37 
ROOT
HETATM    1  C6  UNL     1       1.755   1.035  -0.432  1.00  0.00     0.132 A 
HETATM    2  C7  UNL     1       0.632   0.474  -0.993  1.00  0.00     0.077 A 
HETATM    3  C8  UNL     1      -0.437   1.234  -1.435  1.00  0.00     0.058 A 
HETATM    4  N4  UNL     1      -0.356   2.563  -1.303  1.00  0.00    -0.194 N 
ATOM      5  H4  UNL     1      -1.133   3.140  -1.623  1.00  0.00     0.184 HD
HETATM    6  C20 UNL     1       0.729   3.165  -0.756  1.00  0.00     0.680 A 
HETATM    7  N8  UNL     1       1.737   2.402  -0.342  1.00  0.00    -0.176 N 
ATOM      8  H8  UNL     1       2.548   2.864   0.069  1.00  0.00     0.186 HD
ENDROOT
BRANCH   1   9
HETATM    9  N1  UNL     1       2.779   0.394  -0.010  1.00  0.00    -0.265 N 
ATOM     10  H1  UNL     1       3.565   0.905   0.392  1.00  0.00     0.180 HD
BRANCH   9  11
HETATM   11  S1  UNL     1       2.842  -1.302  -0.114  1.00  0.00     0.265 S 
HETATM   12  O2  UNL     1       2.697  -1.711  -1.552  1.00  0.00    -0.200 OA
HETATM   13  O3  UNL     1       1.692  -1.879   0.667  1.00  0.00    -0.200 OA
BRANCH  11  14
HETATM   14  C5  UNL     1       4.368  -1.944   0.450  1.00  0.00     0.095 A 
HETATM   15  C4  UNL     1       4.611  -2.341   1.727  1.00  0.00     0.029 A 
HETATM   16  C3  UNL     1       5.849  -2.820   2.043  1.00  0.00     0.037 A 
HETATM   17  C2  UNL     1       6.899  -2.929   1.127  1.00  0.00     0.100 A 
HETATM   18  N9  UNL     1       6.606  -2.524  -0.120  1.00  0.00    -0.360 N 
HETATM   19  C25 UNL     1       5.394  -2.051  -0.450  1.00  0.00     0.113 A 
ATOM     20  H9  UNL     1       7.328  -2.578  -0.839  1.00  0.00     0.165 HD
BRANCH  17  21
HETATM   21  C1  UNL     1       8.187  -3.447   1.550  1.00  0.00     0.270 C 
HETATM   22  O1  UNL     1       8.276  -3.783   2.767  1.00  0.00    -0.266 OA
HETATM   23  N10 UNL     1       9.316  -3.601   0.732  1.00  0.00    -0.347 N 
HETATM   24  C26 UNL     1      10.585  -4.139   1.242  1.00  0.00     0.126 C 
HETATM   25  C29 UNL     1       9.583  -3.332  -0.648  1.00  0.00     0.126 C 
HETATM   26  C27 UNL     1      11.592  -3.214   0.601  1.00  0.00     0.021 C 
HETATM   27  C28 UNL     1      10.934  -2.629  -0.606  1.00  0.00     0.021 C 
ENDBRANCH  17  21
ENDBRANCH  11  14
ENDBRANCH   9  11
ENDBRANCH   1   9
BRANCH   3  28
HETATM   28  C9  UNL     1      -1.620   0.607  -2.042  1.00  0.00     0.330 C 
BRANCH  28  29
HETATM   29  N2  UNL     1      -2.477   0.086  -1.002  1.00  0.00     0.094 N 
HETATM   30  C10 UNL     1      -3.658  -0.562  -1.583  1.00  0.00     0.273 C 
HETATM   31  C11 UNL     1      -4.294  -1.364  -0.478  1.00  0.00     0.036 C 
HETATM   32  C12 UNL     1      -4.733  -0.507   0.678  1.00  0.00     0.003 C 
HETATM   33  C18 UNL     1      -3.829   0.634   0.968  1.00  0.00     0.036 C 
HETATM   34  C19 UNL     1      -2.956   1.109  -0.130  1.00  0.00     0.273 C 
BRANCH  32  35
HETATM   35  C13 UNL     1      -6.178  -0.031   0.474  1.00  0.00     0.112 C 
BRANCH  35  36
HETATM   36  N3  UNL     1      -7.085  -1.135   0.374  1.00  0.00    -0.210 NA
HETATM   37  C14 UNL     1      -8.101  -0.934  -0.637  1.00  0.00     0.107 C 
HETATM   38  C15 UNL     1      -9.008  -2.170  -0.570  1.00  0.00     0.016 C 
HETATM   39  C16 UNL     1     -10.074  -1.966   0.480  1.00  0.00     0.017 C 
HETATM   40  C17 UNL     1      -9.538  -1.465   1.783  1.00  0.00     0.158 C 
HETATM   41  S2  UNL     1      -7.752  -1.631   1.874  1.00  0.00     0.211 S 
HETATM   42  O4  UNL     1      -7.314  -0.735   3.012  1.00  0.00    -0.211 OA
HETATM   43  O5  UNL     1      -7.386  -3.031   2.251  1.00  0.00    -0.211 OA
ENDBRANCH  35  36
ENDBRANCH  32  35
ENDBRANCH  28  29
ENDBRANCH   3  28
BRANCH   6  44
HETATM   44  N5  UNL     1       0.744   4.458  -0.659  1.00  0.00    -0.220 N 
ATOM     45  H5  UNL     1       1.566   4.897  -0.245  1.00  0.00     0.178 HD
BRANCH  44  46
HETATM   46  C21 UNL     1      -0.319   5.304  -1.096  1.00  0.00     0.196 C 
BRANCH  46  47
HETATM   47  C22 UNL     1       0.105   6.714  -0.887  1.00  0.00     0.044 A 
HETATM   48  C23 UNL     1      -0.149   7.461   0.244  1.00  0.00     0.115 A 
HETATM   49  N6  UNL     1       0.371   8.695   0.109  1.00  0.00    -0.360 N 
HETATM   50  C24 UNL     1       0.957   8.738  -1.106  1.00  0.00     0.180 A 
ATOM     51  H6  UNL     1       0.330   9.451   0.792  1.00  0.00     0.166 HD
HETATM   52  N7  UNL     1       0.791   7.532  -1.706  1.00  0.00    -0.353 N 
ATOM     53  H7  UNL     1       1.133   7.284  -2.634  1.00  0.00     0.166 HD
ENDBRANCH  46  47
ENDBRANCH  44  46
ENDBRANCH   6  44
TORSDOF 11
