REMARK  0 active torsions:
REMARK  status: ('A' for Active; 'I' for Inactive)
REMARK       I    between atoms: N1_2  and  C3_4 
REMARK       I    between atoms: C3_4  and  N3_8 
ROOT
HETATM    1  C1  UNL     1      -1.383   1.442   0.582  1.00  0.00     0.168 C 
HETATM    2  N1  UNL     1      -1.198   0.020   0.390  1.00  0.00    -0.227 N 
HETATM    3  C2  UNL     1      -2.311  -0.725  -0.213  1.00  0.00     0.168 C 
HETATM    4  C3  UNL     1      -0.013  -0.670   0.753  1.00  0.00     0.671 C 
HETATM    5  N2  UNL     1      -0.020  -1.657   1.567  1.00  0.00    -0.235 N 
ATOM      6  H21 UNL     1       0.832  -2.153   1.828  1.00  0.00     0.174 HD
ATOM      7  H22 UNL     1      -0.897  -1.974   1.981  1.00  0.00     0.174 HD
HETATM    8  N3  UNL     1       1.203  -0.230   0.179  1.00  0.00    -0.215 N 
HETATM    9  C4  UNL     1       1.981   0.417  -0.918  1.00  0.00     0.161 A 
HETATM   10  C5  UNL     1       2.694  -0.070   0.235  1.00  0.00     0.161 A 
ENDROOT
TORSDOF 0
