REMARK  6 active torsions:
REMARK  status: ('A' for Active; 'I' for Inactive)
REMARK    1  A    between atoms: C2_2  and  C3_3 
REMARK    2  A    between atoms: N2_8  and  C6_9 
REMARK       I    between atoms: N3_12  and  C9_13 
REMARK    3  A    between atoms: C9_13  and  O2_15 
REMARK    4  A    between atoms: O2_15  and  C10_16 
REMARK    5  A    between atoms: C10_16  and  C11_17 
REMARK    6  A    between atoms: C11_17  and  N4_20 
ROOT
HETATM    1  C6  UNL     1       2.389   0.641   0.380  1.00  0.00     0.093 C 
HETATM    2  C7  UNL     1       1.852  -0.710   0.160  1.00  0.00     0.045 C 
HETATM    3  C8  UNL     1       0.354  -0.695   0.587  1.00  0.00     0.130 C 
HETATM    4  N3  UNL     1      -0.289   0.244  -0.286  1.00  0.00    -0.328 N 
HETATM    5  C9  UNL     1      -1.685   0.518  -0.230  1.00  0.00     0.362 C 
HETATM    6  O1  UNL     1      -2.156   1.354  -1.034  1.00  0.00    -0.238 OA
HETATM    7  C14 UNL     1       0.533   0.918  -1.247  1.00  0.00     0.130 C 
HETATM    8  C15 UNL     1       1.633   1.623  -0.495  1.00  0.00     0.045 C 
ENDROOT
BRANCH   5   9
HETATM    9  O2  UNL     1      -2.539  -0.067   0.637  1.00  0.00    -0.300 OA
BRANCH   9  10
HETATM   10  C10 UNL     1      -3.877   0.003   0.883  1.00  0.00     0.236 C 
BRANCH  10  11
HETATM   11  C11 UNL     1      -4.852  -0.460  -0.135  1.00  0.00     0.218 C 
HETATM   12  C12 UNL     1      -4.716  -1.945  -0.446  1.00  0.00     0.067 C 
HETATM   13 CL1  UNL     1      -4.908   0.506  -1.614  1.00  0.00    -0.086 Cl
BRANCH  11  14
HETATM   14  N4  UNL     1      -6.197  -0.302   0.471  1.00  0.00    -0.055 N 
HETATM   15  C13 UNL     1      -6.444   1.091   0.741  1.00  0.00     0.269 C 
ATOM     16  H42 UNL     1      -6.929  -0.718  -0.104  1.00  0.00     0.279 HD
ATOM     17  H41 UNL     1      -6.315  -0.882   1.302  1.00  0.00     0.279 HD
ENDBRANCH  11  14
ENDBRANCH  10  11
ENDBRANCH   9  10
ENDBRANCH   5   9
BRANCH   1  18
HETATM   18  N2  UNL     1       3.787   0.873   0.133  1.00  0.00    -0.341 N 
HETATM   19  C3  UNL     1       4.835   0.050   0.119  1.00  0.00     0.083 A 
HETATM   20  N1  UNL     1       5.947   0.804  -0.182  1.00  0.00    -0.354 N 
HETATM   21  C4  UNL     1       5.607   2.082  -0.356  1.00  0.00     0.106 A 
ATOM     22  H1  UNL     1       6.896   0.438  -0.261  1.00  0.00     0.166 HD
HETATM   23  C5  UNL     1       4.256   2.130  -0.159  1.00  0.00     0.110 A 
BRANCH  19  24
HETATM   24  C2  UNL     1       4.906  -1.425   0.379  1.00  0.00     0.072 C 
HETATM   25  C1  UNL     1       4.719  -2.259  -0.850  1.00  0.00     0.013 C 
ENDBRANCH  19  24
ENDBRANCH   1  18
TORSDOF 6
