REMARK  18 active torsions:
REMARK  status: ('A' for Active; 'I' for Inactive)
REMARK    1  A    between atoms: C1_4  and  C2_5 
REMARK    2  A    between atoms: C2_5  and  O1_6 
REMARK    3  A    between atoms: O1_6  and  N2_7 
REMARK    4  A    between atoms: N2_7  and  C3_8 
REMARK    5  A    between atoms: C3_8  and  C4_9 
REMARK    6  A    between atoms: C4_9  and  C5_10 
REMARK    7  A    between atoms: C5_10  and  C6_11 
REMARK       I    between atoms: C6_11  and  N3_13 
REMARK    8  A    between atoms: N3_13  and  C7_15 
REMARK    9  A    between atoms: C8_16  and  O3_17 
REMARK   10  A    between atoms: C9_19  and  O4_20 
REMARK   11  A    between atoms: C10_22  and  N4_23 
REMARK   12  A    between atoms: C11_27  and  O5_28 
REMARK   13  A    between atoms: O5_28  and  C12_29 
REMARK   14  A    between atoms: C13_31  and  C14_32 
REMARK   15  A    between atoms: C14_32  and  N5_33 
REMARK   16  A    between atoms: C17_39  and  N6_40 
REMARK   17  A    between atoms: C18_44  and  O7_45 
REMARK   18  A    between atoms: C19_47  and  O8_48 
ROOT
HETATM    1  C7  UNL     1       1.236  -0.869   0.031  1.00  0.00     0.147 C 
HETATM    2  C8  UNL     1       0.965  -0.934  -1.455  1.00  0.00     0.174 C 
HETATM    3  C9  UNL     1      -0.170   0.005  -1.856  1.00  0.00     0.182 C 
HETATM    4  C10 UNL     1      -1.469  -0.503  -1.334  1.00  0.00     0.246 C 
HETATM    5  C11 UNL     1      -1.889   0.149  -0.027  1.00  0.00     0.189 C 
HETATM    6  C18 UNL     1      -0.918  -0.126   1.095  1.00  0.00     0.180 C 
HETATM    7  C19 UNL     1       0.037  -1.245   0.858  1.00  0.00     0.174 C 
ENDROOT
BRANCH   5   8
HETATM    8  O5  UNL     1      -3.111  -0.326   0.405  1.00  0.00    -0.349 OA
BRANCH   8   9
HETATM    9  C12 UNL     1      -4.104   0.588   0.547  1.00  0.00     0.291 C 
HETATM   10  O6  UNL     1      -5.117   0.284  -0.365  1.00  0.00    -0.352 OA
HETATM   11  C13 UNL     1      -6.027   1.324  -0.517  1.00  0.00     0.150 C 
HETATM   12  C15 UNL     1      -6.644   1.704   0.792  1.00  0.00     0.036 C 
HETATM   13  C16 UNL     1      -5.643   1.900   1.886  1.00  0.00     0.040 C 
HETATM   14  C17 UNL     1      -4.734   0.676   1.901  1.00  0.00     0.238 C 
BRANCH  11  15
HETATM   15  C14 UNL     1      -7.142   0.793  -1.412  1.00  0.00     0.261 C 
BRANCH  15  16
HETATM   16  N5  UNL     1      -6.604   0.395  -2.690  1.00  0.00    -0.077 N 
ATOM     17  H53 UNL     1      -6.083   1.149  -3.136  1.00  0.00     0.274 HD
ATOM     18  H52 UNL     1      -5.842  -0.275  -2.591  1.00  0.00     0.274 HD
ATOM     19  H51 UNL     1      -7.350   0.040  -3.289  1.00  0.00     0.274 HD
ENDBRANCH  15  16
ENDBRANCH  11  15
BRANCH  14  20
HETATM   20  N6  UNL     1      -5.582  -0.464   2.198  1.00  0.00    -0.070 N 
ATOM     21  H63 UNL     1      -6.288  -0.594   1.473  1.00  0.00     0.274 HD
ATOM     22  H62 UNL     1      -5.070  -1.340   2.088  1.00  0.00     0.274 HD
ATOM     23  H61 UNL     1      -6.012  -0.404   3.121  1.00  0.00     0.274 HD
ENDBRANCH  14  20
ENDBRANCH   8   9
ENDBRANCH   5   8
BRANCH   4  24
HETATM   24  N4  UNL     1      -2.472  -0.282  -2.369  1.00  0.00    -0.070 N 
ATOM     25  H43 UNL     1      -2.519   0.689  -2.677  1.00  0.00     0.274 HD
ATOM     26  H42 UNL     1      -2.215  -0.693  -3.266  1.00  0.00     0.274 HD
ATOM     27  H41 UNL     1      -3.362  -0.630  -2.011  1.00  0.00     0.274 HD
ENDBRANCH   4  24
BRANCH   6  28
HETATM   28  O7  UNL     1      -0.175   1.030   1.402  1.00  0.00    -0.390 OA
ATOM     29  H7  UNL     1       0.436   0.857   2.108  1.00  0.00     0.210 HD
ENDBRANCH   6  28
BRANCH   3  30
HETATM   30  O4  UNL     1       0.178   1.268  -1.452  1.00  0.00    -0.391 OA
ATOM     31  H4  UNL     1      -0.528   1.852  -1.702  1.00  0.00     0.210 HD
ENDBRANCH   3  30
BRANCH   7  32
HETATM   32  O8  UNL     1       0.553  -1.589   2.133  1.00  0.00    -0.391 OA
ATOM     33  H8  UNL     1      -0.204  -1.826   2.655  1.00  0.00     0.210 HD
ENDBRANCH   7  32
BRANCH   2  34
HETATM   34  O3  UNL     1       2.090  -0.508  -2.137  1.00  0.00    -0.391 OA
ATOM     35  H3  UNL     1       1.920  -0.549  -3.071  1.00  0.00     0.210 HD
ENDBRANCH   2  34
BRANCH   1  36
HETATM   36  N3  UNL     1       2.278  -1.832   0.313  1.00  0.00    -0.351 N 
HETATM   37  C6  UNL     1       3.565  -1.457   0.814  1.00  0.00     0.218 C 
HETATM   38  O2  UNL     1       3.760  -0.240   1.004  1.00  0.00    -0.274 OA
ATOM     39  H3  UNL     1       2.087  -2.820   0.148  1.00  0.00     0.163 HD
BRANCH  37  40
HETATM   40  C5  UNL     1       4.627  -2.419   1.103  1.00  0.00     0.104 C 
BRANCH  40  41
HETATM   41  C4  UNL     1       5.921  -1.791   1.442  1.00  0.00     0.027 C 
BRANCH  41  42
HETATM   42  C3  UNL     1       6.512  -0.982   0.327  1.00  0.00     0.143 C 
BRANCH  42  43
HETATM   43  N2  UNL     1       7.792  -0.399   0.748  1.00  0.00    -0.101 NA
BRANCH  43  44
HETATM   44  O1  UNL     1       8.391   0.318  -0.184  1.00  0.00    -0.281 OA
BRANCH  44  45
HETATM   45  C2  UNL     1       7.514   0.840  -1.118  1.00  0.00     0.239 C 
BRANCH  45  46
HETATM   46  C1  UNL     1       8.233   1.646  -2.154  1.00  0.00     0.081 C 
HETATM   47  N1  UNL     1       7.686   2.715  -2.577  1.00  0.00    -0.409 N 
ATOM     48  H12 UNL     1       6.779   3.001  -2.208  1.00  0.00     0.155 HD
ATOM     49  H11 UNL     1       8.176   3.264  -3.283  1.00  0.00     0.155 HD
ENDBRANCH  45  46
ENDBRANCH  44  45
ENDBRANCH  43  44
ENDBRANCH  42  43
ENDBRANCH  41  42
ENDBRANCH  40  41
ENDBRANCH  37  40
ENDBRANCH   1  36
TORSDOF 18
