REMARK  16 active torsions:
REMARK  status: ('A' for Active; 'I' for Inactive)
REMARK    1  A    between atoms: N1_2  and  C2_5 
REMARK    2  A    between atoms: C7_12  and  C8_13 
REMARK    3  A    between atoms: C8_13  and  N2_14 
REMARK    4  A    between atoms: N2_14  and  C9_17 
REMARK    5  A    between atoms: C9_17  and  C10_18 
REMARK    6  A    between atoms: C10_18  and  N3_19 
REMARK    7  A    between atoms: N3_19  and  C11_21 
REMARK    8  A    between atoms: C11_21  and  C12_22 
REMARK    9  A    between atoms: C13_24  and  O2_25 
REMARK   10  A    between atoms: O2_25  and  C14_26 
REMARK   11  A    between atoms: C15_27  and  O3_28 
REMARK   12  A    between atoms: C16_30  and  N4_31 
REMARK   13  A    between atoms: C18_36  and  N5_37 
REMARK   14  A    between atoms: C19_41  and  O4_42 
REMARK   15  A    between atoms: C20_44  and  O5_45 
REMARK   16  A    between atoms: C21_47  and  O6_48 
ROOT
HETATM    1  C12 UNL     1       1.726  -1.453  -1.622  1.00  0.00     0.173 C 
HETATM    2  O1  UNL     1       2.900  -0.738  -1.657  1.00  0.00    -0.349 OA
HETATM    3  C13 UNL     1       3.340  -0.569  -0.357  1.00  0.00     0.292 C 
HETATM    4  C20 UNL     1       2.704  -1.650   0.484  1.00  0.00     0.204 C 
HETATM    5  C21 UNL     1       1.872  -2.445  -0.486  1.00  0.00     0.182 C 
ENDROOT
BRANCH   1   6
HETATM    6  C11 UNL     1       0.503  -0.587  -1.373  1.00  0.00     0.148 C 
BRANCH   6   7
HETATM    7  N3  UNL     1      -0.701  -1.363  -1.380  1.00  0.00    -0.417 N 
ATOM      8  H3  UNL     1      -0.704  -2.361  -1.590  1.00  0.00     0.153 HD
BRANCH   7   9
HETATM    9  C10 UNL     1      -1.904  -0.640  -1.071  1.00  0.00     0.141 C 
BRANCH   9  10
HETATM   10  C9  UNL     1      -3.062  -1.601  -1.191  1.00  0.00     0.251 C 
BRANCH  10  11
HETATM   11  N2  UNL     1      -4.347  -1.030  -0.882  1.00  0.00    -0.073 N 
ATOM     12  H22 UNL     1      -5.107  -1.633  -1.196  1.00  0.00     0.277 HD
ATOM     13  H21 UNL     1      -4.541  -0.214  -1.463  1.00  0.00     0.277 HD
BRANCH  11  14
HETATM   14  C8  UNL     1      -4.468  -0.716   0.531  1.00  0.00     0.239 C 
BRANCH  14  15
HETATM   15  C7  UNL     1      -5.850  -0.209   0.874  1.00  0.00     0.047 C 
HETATM   16  C2  UNL     1      -6.233   1.030   0.145  1.00  0.00     0.191 C 
HETATM   17  C3  UNL     1      -7.595   1.504   0.596  1.00  0.00     0.039 C 
HETATM   18  C4  UNL     1      -8.563   0.409   0.894  1.00  0.00     0.081 C 
HETATM   19  C5  UNL     1      -8.200  -0.896   0.246  1.00  0.00     0.244 C 
HETATM   20  F1  UNL     1      -8.490  -0.875  -1.112  1.00  0.00    -0.206 F 
HETATM   21  F2  UNL     1      -9.045  -1.877   0.783  1.00  0.00    -0.206 F 
HETATM   22  C6  UNL     1      -6.803  -1.327   0.527  1.00  0.00     0.087 C 
BRANCH  16  23
HETATM   23  N1  UNL     1      -5.317   2.137   0.447  1.00  0.00    -0.074 N 
HETATM   24  C1  UNL     1      -5.702   3.297  -0.327  1.00  0.00     0.267 C 
ATOM     25  H12 UNL     1      -4.340   1.882   0.303  1.00  0.00     0.277 HD
ATOM     26  H11 UNL     1      -5.267   2.337   1.446  1.00  0.00     0.277 HD
ENDBRANCH  16  23
ENDBRANCH  14  15
ENDBRANCH  11  14
ENDBRANCH  10  11
ENDBRANCH   9  10
ENDBRANCH   7   9
ENDBRANCH   6   7
ENDBRANCH   1   6
BRANCH   5  27
HETATM   27  O6  UNL     1       0.665  -2.717   0.147  1.00  0.00    -0.390 OA
ATOM     28  H6  UNL     1       0.757  -3.339   0.859  1.00  0.00     0.210 HD
ENDBRANCH   5  27
BRANCH   3  29
HETATM   29  O2  UNL     1       4.692  -0.675  -0.228  1.00  0.00    -0.348 OA
BRANCH  29  30
HETATM   30  C14 UNL     1       5.355   0.402   0.280  1.00  0.00     0.186 C 
HETATM   31  C15 UNL     1       6.081   0.191   1.564  1.00  0.00     0.180 C 
HETATM   32  C16 UNL     1       7.128   1.278   1.724  1.00  0.00     0.216 C 
HETATM   33  C17 UNL     1       8.198   1.107   0.684  1.00  0.00     0.071 C 
HETATM   34  C18 UNL     1       7.650   0.326  -0.488  1.00  0.00     0.216 C 
HETATM   35  C19 UNL     1       6.284   0.925  -0.793  1.00  0.00     0.180 C 
BRANCH  31  36
HETATM   36  O3  UNL     1       5.160   0.405   2.613  1.00  0.00    -0.391 OA
ATOM     37  H3  UNL     1       5.623   0.270   3.432  1.00  0.00     0.210 HD
ENDBRANCH  31  36
BRANCH  32  38
HETATM   38  N4  UNL     1       6.563   2.597   1.769  1.00  0.00    -0.072 N 
ATOM     39  H43 UNL     1       5.979   2.771   0.951  1.00  0.00     0.274 HD
ATOM     40  H42 UNL     1       5.853   2.665   2.498  1.00  0.00     0.274 HD
ATOM     41  H41 UNL     1       7.267   3.328   1.877  1.00  0.00     0.274 HD
ENDBRANCH  32  38
BRANCH  34  42
HETATM   42  N5  UNL     1       8.512   0.323  -1.631  1.00  0.00    -0.072 N 
ATOM     43  H53 UNL     1       8.743   1.277  -1.910  1.00  0.00     0.274 HD
ATOM     44  H52 UNL     1       9.442  -0.011  -1.379  1.00  0.00     0.274 HD
ATOM     45  H51 UNL     1       8.142  -0.204  -2.422  1.00  0.00     0.274 HD
ENDBRANCH  34  42
BRANCH  35  46
HETATM   46  O4  UNL     1       5.919   0.437  -2.064  1.00  0.00    -0.391 OA
ATOM     47  H4  UNL     1       6.502   0.765  -2.738  1.00  0.00     0.210 HD
ENDBRANCH  35  46
ENDBRANCH  29  30
ENDBRANCH   3  29
BRANCH   4  48
HETATM   48  O5  UNL     1       1.995  -1.165   1.571  1.00  0.00    -0.388 OA
ATOM     49  H5  UNL     1       1.595  -1.845   2.100  1.00  0.00     0.210 HD
ENDBRANCH   4  48
TORSDOF 16
