REMARK  4 active torsions:
REMARK  status: ('A' for Active; 'I' for Inactive)
REMARK    1  A    between atoms: C3_3  and  O1_4 
REMARK    2  A    between atoms: C3_3  and  C4_6 
REMARK    3  A    between atoms: C5_7  and  C6_8 
REMARK    4  A    between atoms: N2_15  and  C12_16 
ROOT
HETATM    1  C1  UNL     1       5.846   1.568   0.804  1.00  0.00     0.015 C 
HETATM    2  C2  UNL     1       5.237   0.535   0.679  1.00  0.00    -0.073 C 
HETATM    3  C3  UNL     1       4.483  -0.727   0.505  1.00  0.00     0.276 C 
ENDROOT
BRANCH   3   4
HETATM    4  O1  UNL     1       5.199  -1.593  -0.288  1.00  0.00    -0.372 OA
ATOM      5  H1  UNL     1       4.715  -2.403  -0.400  1.00  0.00     0.212 HD
ENDBRANCH   3   4
BRANCH   3   6
HETATM    6  C4  UNL     1       3.202  -0.465  -0.161  1.00  0.00    -0.057 C 
HETATM    7  C5  UNL     1       2.146  -0.236  -0.701  1.00  0.00    -0.075 C 
BRANCH   7   8
HETATM    8  C6  UNL     1       0.903   0.055  -1.354  1.00  0.00     0.069 C 
HETATM    9  C7  UNL     1      -0.208  -0.396  -0.812  1.00  0.00    -0.054 C 
HETATM   10  C8  UNL     1      -0.189  -1.175   0.424  1.00  0.00     0.039 C 
HETATM   11  C13 UNL     1      -1.521  -0.122  -1.448  1.00  0.00     0.161 C 
HETATM   12  C9  UNL     1      -1.454  -1.195   1.194  1.00  0.00     0.045 C 
HETATM   13  C10 UNL     1      -2.408  -0.097   0.916  1.00  0.00     0.194 C 
HETATM   14  C11 UNL     1      -3.770  -0.575   1.249  1.00  0.00     0.084 C 
HETATM   15  N2  UNL     1      -2.385   0.414  -0.416  1.00  0.00    -0.339 N 
HETATM   16  N1  UNL     1      -4.833  -0.963   1.497  1.00  0.00    -0.195 NA
BRANCH  15  17
HETATM   17  C12 UNL     1      -3.246   1.496  -0.748  1.00  0.00     0.184 C 
HETATM   18  N3  UNL     1      -4.129   2.088   0.194  1.00  0.00    -0.070 NA
HETATM   19  S1  UNL     1      -3.272   2.137  -2.269  1.00  0.00    -0.044 SA
ENDBRANCH  15  17
ENDBRANCH   7   8
ENDBRANCH   3   6
TORSDOF 4
