REMARK  12 active torsions:
REMARK  status: ('A' for Active; 'I' for Inactive)
REMARK    1  A    between atoms: C2_2  and  C4_4 
REMARK    2  A    between atoms: C4_4  and  C5_5 
REMARK    3  A    between atoms: C5_5  and  N1_6 
REMARK    4  A    between atoms: N1_6  and  N2_7 
REMARK    5  A    between atoms: N1_6  and  S1_38 
REMARK       I    between atoms: N2_7  and  C6_9 
REMARK    6  A    between atoms: C6_9  and  C7_11 
REMARK    7  A    between atoms: C7_11  and  C8_12 
REMARK    8  A    between atoms: C7_11  and  N6_24 
REMARK    9  A    between atoms: C8_12  and  C9_13 
REMARK       I    between atoms: N3_17  and  C13_18 
REMARK       I    between atoms: N6_24  and  C15_26 
REMARK   10  A    between atoms: C15_26  and  C16_28 
REMARK   11  A    between atoms: S1_38  and  C26_41 
REMARK   12  A    between atoms: C29_44  and  N7_45 
ROOT
HETATM    1  C7  UNL     1      -1.814   0.809   0.699  1.00  0.00     0.201 C 
ENDROOT
BRANCH   1   2
HETATM    2  C6  UNL     1      -0.357   0.653   0.825  1.00  0.00     0.259 C 
HETATM    3  N2  UNL     1       0.641   1.286   0.082  1.00  0.00    -0.270 N 
ATOM      4  H2  UNL     1       0.352   1.965  -0.622  1.00  0.00     0.185 HD
HETATM    5  O1  UNL     1       0.063  -0.174   1.715  1.00  0.00    -0.269 OA
BRANCH   3   6
HETATM    6  N1  UNL     1       2.045   1.046   0.242  1.00  0.00    -0.089 NA
BRANCH   6   7
HETATM    7  C5  UNL     1       2.689   2.245   0.495  1.00  0.00     0.101 C 
BRANCH   7   8
HETATM    8  C4  UNL     1       3.768   2.382   1.450  1.00  0.00     0.016 C 
BRANCH   8   9
HETATM    9  C2  UNL     1       4.292   1.523   2.255  1.00  0.00    -0.087 C 
HETATM   10  C1  UNL     1       5.443   1.971   3.156  1.00  0.00     0.043 C 
HETATM   11  C3  UNL     1       3.885   0.123   2.440  1.00  0.00     0.043 C 
ENDBRANCH   8   9
ENDBRANCH   7   8
ENDBRANCH   6   7
BRANCH   6  12
HETATM   12  S1  UNL     1       2.458   0.105  -1.111  1.00  0.00     0.267 S 
HETATM   13  O3  UNL     1       2.079   0.957  -2.346  1.00  0.00    -0.204 OA
HETATM   14  O4  UNL     1       1.449  -1.053  -1.174  1.00  0.00    -0.204 OA
BRANCH  12  15
HETATM   15  C26 UNL     1       4.024  -0.524  -1.274  1.00  0.00     0.115 A 
HETATM   16  C27 UNL     1       4.235  -1.901  -1.086  1.00  0.00     0.030 A 
HETATM   17  C28 UNL     1       5.485  -2.466  -1.164  1.00  0.00     0.031 A 
HETATM   18  C29 UNL     1       6.589  -1.700  -1.434  1.00  0.00     0.037 A 
HETATM   19  C31 UNL     1       6.387  -0.345  -1.621  1.00  0.00     0.073 A 
HETATM   20  C32 UNL     1       5.126   0.230  -1.542  1.00  0.00     0.141 A 
HETATM   21  F1  UNL     1       5.087   1.563  -1.796  1.00  0.00    -0.204 F 
BRANCH  18  22
HETATM   22  N7  UNL     1       7.884  -2.254  -1.538  1.00  0.00    -0.333 N 
HETATM   23  C30 UNL     1       8.113  -3.256  -2.289  1.00  0.00     0.201 C 
HETATM   24  N8  UNL     1       7.074  -3.837  -3.042  1.00  0.00    -0.066 NA
HETATM   25  N9  UNL     1       9.424  -3.781  -2.364  1.00  0.00    -0.066 NA
ATOM     26  H7  UNL     1       8.649  -1.844  -1.002  1.00  0.00     0.168 HD
ENDBRANCH  18  22
ENDBRANCH  12  15
ENDBRANCH   6  12
ENDBRANCH   3   6
ENDBRANCH   1   2
BRANCH   1  27
HETATM   27  C8  UNL     1      -2.504   1.752   1.558  1.00  0.00     0.012 C 
BRANCH  27  28
HETATM   28  C9  UNL     1      -2.272   3.192   1.588  1.00  0.00    -0.063 C 
HETATM   29  C10 UNL     1      -0.966   3.760   1.951  1.00  0.00     0.037 C 
HETATM   30  C11 UNL     1      -0.541   4.820   0.920  1.00  0.00     0.024 C 
HETATM   31  C12 UNL     1      -1.597   5.932   1.027  1.00  0.00     0.126 C 
HETATM   32  N3  UNL     1      -2.833   5.303   0.611  1.00  0.00    -0.352 N 
HETATM   33  C13 UNL     1      -3.993   6.090   0.488  1.00  0.00     0.184 C 
HETATM   34  C14 UNL     1      -2.860   3.887   0.324  1.00  0.00     0.159 C 
HETATM   35  N4  UNL     1      -4.868   5.776  -0.400  1.00  0.00    -0.374 N 
HETATM   36  N5  UNL     1      -4.245   7.227   1.308  1.00  0.00    -0.064 NA
ATOM     37  H42 UNL     1      -4.688   4.962  -0.987  1.00  0.00     0.158 HD
ATOM     38  H41 UNL     1      -5.709   6.346  -0.489  1.00  0.00     0.158 HD
ENDBRANCH  27  28
ENDBRANCH   1  27
BRANCH   1  39
HETATM   39  N6  UNL     1      -2.343  -0.566   0.877  1.00  0.00    -0.344 N 
HETATM   40  C15 UNL     1      -2.656  -1.404  -0.192  1.00  0.00     0.223 C 
HETATM   41  O2  UNL     1      -2.468  -0.946  -1.373  1.00  0.00    -0.273 OA
ATOM     42  H6  UNL     1      -2.484  -0.914   1.825  1.00  0.00     0.163 HD
BRANCH  40  43
HETATM   43  C16 UNL     1      -3.184  -2.766  -0.098  1.00  0.00     0.086 C 
HETATM   44  C17 UNL     1      -4.612  -2.854   0.382  1.00  0.00    -0.001 C 
HETATM   45  C18 UNL     1      -4.888  -4.285   0.783  1.00  0.00     0.010 C 
HETATM   46  C22 UNL     1      -5.590  -2.513  -0.728  1.00  0.00     0.010 C 
HETATM   47  C19 UNL     1      -4.606  -5.218  -0.379  1.00  0.00    -0.013 C 
HETATM   48  C20 UNL     1      -5.621  -4.909  -1.459  1.00  0.00     0.009 C 
HETATM   49  C25 UNL     1      -3.181  -5.063  -0.886  1.00  0.00     0.010 C 
HETATM   50  C21 UNL     1      -5.411  -3.466  -1.876  1.00  0.00    -0.013 C 
HETATM   51  C23 UNL     1      -4.010  -3.343  -2.392  1.00  0.00     0.010 C 
HETATM   52  C24 UNL     1      -2.988  -3.607  -1.310  1.00  0.00    -0.001 C 
ENDBRANCH  40  43
ENDBRANCH   1  39
TORSDOF 12
