REMARK  4 active torsions:
REMARK  status: ('A' for Active; 'I' for Inactive)
REMARK    1  A    between atoms: O1_3  and  C2_4 
REMARK    2  A    between atoms: C2_4  and  C3_6 
REMARK    3  A    between atoms: C4_7  and  O3_8 
REMARK    4  A    between atoms: C5_12  and  N3_13 
ROOT
HETATM    1  N1  UNL     1       5.173  -1.178  -0.451  1.00  0.00    -0.163 NA
HETATM    2  C1  UNL     1       4.022  -1.190  -0.315  1.00  0.00     0.237 C 
HETATM    3  O1  UNL     1       2.658  -1.201  -0.130  1.00  0.00    -0.200 OA
ENDROOT
BRANCH   3   4
HETATM    4  C2  UNL     1       1.887  -0.049  -0.200  1.00  0.00     0.317 C 
HETATM    5  O2  UNL     1       2.516   1.023  -0.445  1.00  0.00    -0.258 OA
BRANCH   4   6
HETATM    6  C3  UNL     1       0.448  -0.052  -0.006  1.00  0.00     0.160 A 
HETATM    7  C4  UNL     1      -0.320   1.083  -0.073  1.00  0.00     0.177 A 
HETATM    8  N2  UNL     1      -1.654   1.084   0.106  1.00  0.00    -0.170 N 
HETATM    9  C5  UNL     1      -2.248  -0.095   0.362  1.00  0.00     0.680 A 
ATOM     10  H2  UNL     1      -2.194   1.947   0.050  1.00  0.00     0.186 HD
HETATM   11  N4  UNL     1      -1.534  -1.238   0.438  1.00  0.00    -0.155 N 
HETATM   12  C6  UNL     1      -0.185  -1.244   0.258  1.00  0.00     0.280 A 
ATOM     13  H4  UNL     1      -2.016  -2.115   0.634  1.00  0.00     0.187 HD
HETATM   14  O4  UNL     1       0.445  -2.338   0.337  1.00  0.00    -0.266 OA
BRANCH   7  15
HETATM   15  O3  UNL     1       0.325   2.279  -0.339  1.00  0.00    -0.345 OA
ATOM     16  H3  UNL     1      -0.207   3.065  -0.385  1.00  0.00     0.219 HD
ENDBRANCH   7  15
BRANCH   9  17
HETATM   17  N3  UNL     1      -3.522  -0.134   0.539  1.00  0.00    -0.234 N 
ATOM     18  H32 UNL     1      -4.062   0.730   0.482  1.00  0.00     0.174 HD
ATOM     19  H31 UNL     1      -3.973  -1.028   0.733  1.00  0.00     0.174 HD
ENDBRANCH   9  17
ENDBRANCH   4   6
ENDBRANCH   3   4
TORSDOF 4
