REMARK  10 active torsions:
REMARK  status: ('A' for Active; 'I' for Inactive)
REMARK    1  A    between atoms: C3_3  and  C4_4 
REMARK    2  A    between atoms: C4_4  and  N1_5 
REMARK    3  A    between atoms: N1_5  and  C5_7 
REMARK    4  A    between atoms: C9_11  and  C10_12 
REMARK       I    between atoms: C10_12  and  N2_14 
REMARK    5  A    between atoms: C12_19  and  C13_20 
REMARK    6  A    between atoms: C13_20  and  C14_21 
REMARK    7  A    between atoms: N5_27  and  C20_28 
REMARK    8  A    between atoms: C20_28  and  C21_29 
REMARK    9  A    between atoms: C22_30  and  C23_31 
REMARK   10  A    between atoms: C23_31  and  N6_32 
ROOT
HETATM    1  C1  UNL     1       1.610   7.398   1.202  1.00  0.00     0.112 C 
HETATM    2  C2  UNL     1       0.558   6.507   0.709  1.00  0.00    -0.105 C 
HETATM    3  C3  UNL     1      -0.309   5.749   0.282  1.00  0.00    -0.062 C 
ENDROOT
BRANCH   3   4
HETATM    4  C4  UNL     1      -1.352   4.888  -0.243  1.00  0.00     0.149 C 
BRANCH   4   5
HETATM    5  N1  UNL     1      -1.393   3.608   0.262  1.00  0.00    -0.381 N 
ATOM      6  H1  UNL     1      -2.188   3.367   0.854  1.00  0.00     0.160 HD
BRANCH   5   7
HETATM    7  C5  UNL     1      -0.447   2.614   0.036  1.00  0.00     0.060 A 
HETATM    8  C6  UNL     1       0.954   2.880   0.612  1.00  0.00     0.042 A 
HETATM    9  C7  UNL     1       0.155   1.698   1.001  1.00  0.00     0.050 A 
HETATM   10  C8  UNL     1       0.307   0.387   0.279  1.00  0.00     0.212 C 
HETATM   11  C9  UNL     1      -0.872  -0.567   0.611  1.00  0.00     0.120 C 
HETATM   12  N5  UNL     1       0.266   0.628  -1.103  1.00  0.00    -0.044 N 
HETATM   13  C12 UNL     1      -1.463  -0.991  -0.655  1.00  0.00     0.006 C 
HETATM   14  C16 UNL     1      -1.251  -2.253  -1.336  1.00  0.00    -0.005 C 
HETATM   15  C19 UNL     1      -0.574  -0.343  -1.714  1.00  0.00     0.202 C 
HETATM   16  C17 UNL     1      -1.087  -3.562  -0.697  1.00  0.00     0.011 C 
HETATM   17  C18 UNL     1       0.021  -1.685  -1.994  1.00  0.00     0.039 C 
HETATM   18  C26 UNL     1      -0.329   1.937  -1.324  1.00  0.00     0.270 C 
BRANCH  11  19
HETATM   19  C10 UNL     1      -0.442  -1.549   1.605  1.00  0.00     0.230 C 
HETATM   20  O1  UNL     1       0.752  -2.013   1.419  1.00  0.00    -0.273 OA
HETATM   21  N2  UNL     1      -1.065  -2.067   2.693  1.00  0.00    -0.303 N 
HETATM   22  C11 UNL     1      -2.107  -2.506   3.153  1.00  0.00     0.203 C 
ATOM     23  H2  UNL     1      -0.372  -2.106   3.440  1.00  0.00     0.171 HD
HETATM   24  N3  UNL     1      -2.101  -2.937   4.534  1.00  0.00    -0.066 NA
HETATM   25  N4  UNL     1      -3.340  -2.645   2.480  1.00  0.00    -0.066 NA
ENDBRANCH  11  19
BRANCH  13  26
HETATM   26  C13 UNL     1      -2.902  -0.510  -0.756  1.00  0.00     0.012 C 
BRANCH  26  27
HETATM   27  C14 UNL     1      -3.655  -0.855  -1.964  1.00  0.00    -0.004 C 
HETATM   28  C15 UNL     1      -5.057  -0.215  -1.806  1.00  0.00     0.005 C 
ENDBRANCH  26  27
ENDBRANCH  13  26
BRANCH  12  29
HETATM   29  C20 UNL     1       1.535   0.610  -1.790  1.00  0.00     0.332 C 
BRANCH  29  30
HETATM   30  C21 UNL     1       2.615  -0.028  -1.073  1.00  0.00    -0.077 C 
HETATM   31  C22 UNL     1       3.518  -0.578  -0.490  1.00  0.00    -0.075 C 
BRANCH  31  32
HETATM   32  C23 UNL     1       4.611  -1.233   0.240  1.00  0.00     0.364 C 
BRANCH  32  33
HETATM   33  N6  UNL     1       4.310  -2.624   0.527  1.00  0.00     0.090 N 
HETATM   34  C24 UNL     1       4.309  -3.317  -0.759  1.00  0.00     0.310 C 
HETATM   35  C25 UNL     1       5.478  -3.142   1.254  1.00  0.00     0.310 C 
ENDBRANCH  32  33
ENDBRANCH  31  32
ENDBRANCH  29  30
ENDBRANCH  12  29
ENDBRANCH   5   7
ENDBRANCH   4   5
ENDBRANCH   3   4
TORSDOF 10
