REMARK  3 active torsions:
REMARK  status: ('A' for Active; 'I' for Inactive)
REMARK    1  A    between atoms: C8_10  and  O1_11 
REMARK    2  A    between atoms: C8_10  and  C9_13 
REMARK    3  A    between atoms: C10_14  and  C11_15 
ROOT
HETATM    1  N1  UNL     1       0.530   3.180   1.383  1.00  0.00    -0.191 NA
HETATM    2  C1  UNL     1      -0.491   2.663   1.091  1.00  0.00     0.100 C 
HETATM    3  C2  UNL     1      -1.734   2.061   0.718  1.00  0.00     0.058 A 
HETATM    4  C3  UNL     1      -2.799   2.776   0.236  1.00  0.00     0.026 A 
HETATM    5  C4  UNL     1      -3.994   2.200  -0.132  1.00  0.00     0.047 A 
HETATM    6  C5  UNL     1      -4.109   0.837  -0.003  1.00  0.00     0.150 A 
HETATM    7  F1  UNL     1      -5.274   0.206  -0.353  1.00  0.00    -0.203 F 
HETATM    8  C6  UNL     1      -3.048   0.049   0.487  1.00  0.00     0.128 A 
HETATM    9  C7  UNL     1      -1.869   0.667   0.844  1.00  0.00     0.048 A 
HETATM   10  C8  UNL     1      -0.771  -0.131   1.348  1.00  0.00     0.176 C 
HETATM   11  C17 UNL     1      -1.115  -1.481   1.918  1.00  0.00     0.219 C 
HETATM   12  C18 UNL     1       0.025  -2.352   2.063  1.00  0.00     0.076 C 
HETATM   13  N2  UNL     1       0.935  -3.053   2.192  1.00  0.00    -0.196 NA
HETATM   14  C19 UNL     1      -2.192  -2.102   1.074  1.00  0.00     0.140 C 
HETATM   15  N3  UNL     1      -2.095  -3.359   0.831  1.00  0.00    -0.382 N 
ATOM     16  H31 UNL     1      -2.826  -3.781   0.258  1.00  0.00     0.158 HD
ATOM     17  H32 UNL     1      -1.329  -3.931   1.186  1.00  0.00     0.158 HD
HETATM   18  O2  UNL     1      -3.233  -1.325   0.592  1.00  0.00    -0.293 OA
ENDROOT
BRANCH  10  19
HETATM   19  O1  UNL     1      -0.319   0.564   2.515  1.00  0.00    -0.371 OA
ATOM     20  H1  UNL     1       0.401   0.040   2.846  1.00  0.00     0.212 HD
ENDBRANCH  10  19
BRANCH  10  21
HETATM   21  C9  UNL     1       0.356  -0.177   0.427  1.00  0.00    -0.056 C 
HETATM   22  C10 UNL     1       1.309  -0.220  -0.326  1.00  0.00    -0.064 C 
BRANCH  22  23
HETATM   23  C11 UNL     1       2.433  -0.253  -1.198  1.00  0.00     0.017 A 
HETATM   24  C12 UNL     1       3.354   0.773  -1.155  1.00  0.00     0.020 A 
HETATM   25  C13 UNL     1       4.468   0.792  -1.981  1.00  0.00     0.001 A 
HETATM   26  C14 UNL     1       4.687  -0.228  -2.879  1.00  0.00     0.000 A 
HETATM   27  C15 UNL     1       3.786  -1.255  -2.938  1.00  0.00     0.001 A 
HETATM   28  C16 UNL     1       2.667  -1.270  -2.104  1.00  0.00     0.020 A 
ENDBRANCH  22  23
ENDBRANCH  10  21
TORSDOF 3
