REMARK  6 active torsions:
REMARK  status: ('A' for Active; 'I' for Inactive)
REMARK    1  A    between atoms: C2_2  and  C3_3 
REMARK    2  A    between atoms: C3_3  and  C4_4 
REMARK    3  A    between atoms: C4_4  and  N1_5 
REMARK       I    between atoms: C5_7  and  N3_9 
REMARK    4  A    between atoms: N3_9  and  C6_11 
REMARK    5  A    between atoms: C6_11  and  C7_12 
REMARK    6  A    between atoms: C7_12  and  N4_13 
ROOT
HETATM    1  N4  UNL     1      -1.230  -0.996   0.657  1.00  0.00     0.100 N 
HETATM    2  C8  UNL     1      -0.938  -0.209  -0.487  1.00  0.00     0.330 C 
HETATM    3  C9  UNL     1       0.530   0.006  -0.431  1.00  0.00     0.048 A 
HETATM    4  N5  UNL     1       1.611   0.481  -1.116  1.00  0.00    -0.355 N 
ATOM      5  H5  UNL     1       1.591   0.886  -2.052  1.00  0.00     0.166 HD
HETATM    6  C10 UNL     1       2.704   0.326  -0.353  1.00  0.00     0.068 A 
HETATM    7  C11 UNL     1       4.072   0.522  -0.290  1.00  0.00    -0.005 A 
HETATM    8  C12 UNL     1       4.534   0.062   0.936  1.00  0.00     0.020 A 
HETATM    9  N6  UNL     1       3.476  -0.398   1.594  1.00  0.00    -0.357 N 
ATOM     10  H6  UNL     1       3.502  -0.803   2.530  1.00  0.00     0.166 HD
HETATM   11  C13 UNL     1       2.367  -0.254   0.850  1.00  0.00     0.070 A 
HETATM   12  C14 UNL     1       0.985  -0.449   0.781  1.00  0.00     0.023 A 
HETATM   13  C15 UNL     1      -0.139  -0.975   1.570  1.00  0.00     0.316 C 
HETATM   14  C16 UNL     1       5.938   0.080   1.417  1.00  0.00     0.085 C 
HETATM   15  C17 UNL     1       6.856   0.709   0.419  1.00  0.00     0.242 C 
HETATM   16  N7  UNL     1       6.974  -0.029  -0.807  1.00  0.00    -0.074 N 
HETATM   17  C18 UNL     1       6.970  -1.463  -0.489  1.00  0.00     0.272 C 
HETATM   18  C19 UNL     1       8.302   0.249  -1.356  1.00  0.00     0.272 C 
HETATM   19  C20 UNL     1       6.017   0.277  -1.809  1.00  0.00     0.241 C 
HETATM   20  C21 UNL     1       4.869   1.125  -1.369  1.00  0.00     0.071 C 
ENDROOT
BRANCH   1  21
HETATM   21  C7  UNL     1      -2.444  -0.581   1.346  1.00  0.00     0.293 C 
BRANCH  21  22
HETATM   22  C6  UNL     1      -3.617  -0.899   0.470  1.00  0.00     0.152 C 
BRANCH  22  23
HETATM   23  N3  UNL     1      -4.861  -0.529   1.079  1.00  0.00    -0.363 N 
HETATM   24  C5  UNL     1      -5.193   0.832   1.259  1.00  0.00     0.184 C 
HETATM   25  N1  UNL     1      -6.121   1.347   0.512  1.00  0.00    -0.365 N 
HETATM   26  N2  UNL     1      -4.550   1.675   2.235  1.00  0.00    -0.064 NA
ATOM     27  H1  UNL     1      -6.385   2.326   0.618  1.00  0.00     0.162 HD
ATOM     28  H3  UNL     1      -5.511  -1.254   1.384  1.00  0.00     0.162 HD
BRANCH  25  29
HETATM   29  C4  UNL     1      -6.773   0.517  -0.469  1.00  0.00     0.122 C 
BRANCH  29  30
HETATM   30  C3  UNL     1      -8.271   0.827  -0.343  1.00  0.00     0.019 C 
BRANCH  30  31
HETATM   31  C2  UNL     1      -9.069   0.002  -1.333  1.00  0.00    -0.003 C 
HETATM   32  C1  UNL     1      -8.861  -1.473  -1.074  1.00  0.00     0.005 C 
ENDBRANCH  30  31
ENDBRANCH  29  30
ENDBRANCH  25  29
ENDBRANCH  22  23
ENDBRANCH  21  22
ENDBRANCH   1  21
TORSDOF 6
