REMARK  10 active torsions:
REMARK  status: ('A' for Active; 'I' for Inactive)
REMARK    1  A    between atoms: N2_4  and  C3_6 
REMARK    2  A    between atoms: C3_6  and  C4_7 
REMARK    3  A    between atoms: C4_7  and  C5_8 
REMARK    4  A    between atoms: C5_8  and  C6_9 
REMARK    5  A    between atoms: C6_9  and  C7_10 
REMARK    6  A    between atoms: C7_10  and  N3_12 
REMARK    7  A    between atoms: C10_15  and  N4_16 
REMARK    8  A    between atoms: N4_16  and  C11_18 
REMARK    9  A    between atoms: C11_18  and  N5_20 
REMARK   10  A    between atoms: N5_20  and  C12_22 
ROOT
HETATM    1  N3  UNL     1       0.612  -0.822   0.982  1.00  0.00    -0.375 N 
HETATM    2  C8  UNL     1       0.213  -1.466  -0.226  1.00  0.00     0.125 C 
HETATM    3  C9  UNL     1      -1.084  -2.263  -0.093  1.00  0.00     0.045 C 
HETATM    4  C10 UNL     1      -2.090  -1.549   0.752  1.00  0.00     0.087 C 
HETATM    5  C16 UNL     1      -1.657  -0.087   0.888  1.00  0.00     0.045 C 
HETATM    6  C17 UNL     1      -0.408  -0.145   1.785  1.00  0.00     0.125 C 
ENDROOT
BRANCH   4   7
HETATM    7  N4  UNL     1      -3.444  -1.647   0.318  1.00  0.00    -0.362 N 
ATOM      8  H4  UNL     1      -4.100  -2.064   0.978  1.00  0.00     0.162 HD
BRANCH   7   9
HETATM    9  C11 UNL     1      -3.981  -1.234  -0.917  1.00  0.00     0.173 C 
HETATM   10  S2  UNL     1      -2.983  -0.578  -2.023  1.00  0.00    -0.041 SA
BRANCH   9  11
HETATM   11  N5  UNL     1      -5.328  -1.384  -1.223  1.00  0.00    -0.318 N 
ATOM     12  H5  UNL     1      -5.605  -2.327  -1.497  1.00  0.00     0.170 HD
BRANCH  11  13
HETATM   13  C12 UNL     1      -6.275  -0.524  -1.215  1.00  0.00     0.129 A 
HETATM   14  N6  UNL     1      -7.577  -0.815  -1.545  1.00  0.00    -0.285 N 
HETATM   15  N7  UNL     1      -8.310   0.258  -1.445  1.00  0.00    -0.310 N 
ATOM     16  H6  UNL     1      -7.919  -1.734  -1.826  1.00  0.00     0.188 HD
HETATM   17  C13 UNL     1      -7.578   1.298  -1.058  1.00  0.00     0.117 A 
ATOM     18  H7  UNL     1      -9.311   0.295  -1.638  1.00  0.00     0.186 HD
HETATM   19  C14 UNL     1      -6.287   0.814  -0.909  1.00  0.00     0.000 A 
HETATM   20  C15 UNL     1      -5.170   1.676  -0.485  1.00  0.00     0.054 C 
ENDBRANCH  11  13
ENDBRANCH   9  11
ENDBRANCH   7   9
ENDBRANCH   4   7
BRANCH   1  21
HETATM   21  C7  UNL     1       1.948  -0.790   1.465  1.00  0.00     0.075 C 
HETATM   22  S1  UNL     1       2.330  -0.076   2.868  1.00  0.00    -0.066 SA
BRANCH  21  23
HETATM   23  C6  UNL     1       2.982  -1.463   0.668  1.00  0.00     0.069 C 
BRANCH  23  24
HETATM   24  C5  UNL     1       4.392  -1.132   1.003  1.00  0.00     0.008 C 
BRANCH  24  25
HETATM   25  C4  UNL     1       4.708   0.313   0.787  1.00  0.00     0.020 C 
BRANCH  25  26
HETATM   26  C3  UNL     1       4.482   0.656  -0.692  1.00  0.00     0.120 C 
BRANCH  26  27
HETATM   27  N2  UNL     1       4.840   2.059  -0.807  1.00  0.00    -0.382 N 
HETATM   28  C2  UNL     1       5.960   2.383  -1.334  1.00  0.00     0.085 C 
HETATM   29  C1  UNL     1       6.867   1.310  -1.813  1.00  0.00     0.085 C 
HETATM   30  N1  UNL     1       6.345   3.766  -1.463  1.00  0.00    -0.088 NA
ATOM     31  H2  UNL     1       4.203   2.781  -0.470  1.00  0.00     0.160 HD
ENDBRANCH  26  27
ENDBRANCH  25  26
ENDBRANCH  24  25
ENDBRANCH  23  24
ENDBRANCH  21  23
ENDBRANCH   1  21
TORSDOF 10
