REMARK  4 active torsions:
REMARK  status: ('A' for Active; 'I' for Inactive)
REMARK    1  A    between atoms: C2_2  and  C3_3 
REMARK    2  A    between atoms: C3_3  and  N1_4 
REMARK    3  A    between atoms: N1_4  and  C4_7 
REMARK    4  A    between atoms: C4_7  and  C5_8 
ROOT
HETATM    1  C4  UNL     1      -0.128   0.936   0.529  1.00  0.00     0.271 C 
ENDROOT
BRANCH   1   2
HETATM    2  N1  UNL     1      -1.218   0.097   0.089  1.00  0.00    -0.068 N 
ATOM      3  H12 UNL     1      -1.241  -0.812   0.551  1.00  0.00     0.277 HD
ATOM      4  H11 UNL     1      -1.103  -0.249  -0.864  1.00  0.00     0.277 HD
BRANCH   2   5
HETATM    5  C3  UNL     1      -2.442   0.878   0.280  1.00  0.00     0.259 C 
BRANCH   5   6
HETATM    6  C2  UNL     1      -3.649   0.129  -0.132  1.00  0.00    -0.010 C 
HETATM    7  C1  UNL     1      -3.613  -1.094  -0.610  1.00  0.00     0.008 C 
ENDBRANCH   5   6
ENDBRANCH   2   5
ENDBRANCH   1   2
BRANCH   1   8
HETATM    8  C5  UNL     1       1.187   0.293   0.402  1.00  0.00    -0.033 A 
HETATM    9  C6  UNL     1       1.344  -0.986  -0.090  1.00  0.00     0.009 A 
HETATM   10  C7  UNL     1       2.589  -1.583  -0.206  1.00  0.00     0.001 A 
HETATM   11  C8  UNL     1       3.712  -0.884   0.180  1.00  0.00     0.000 A 
HETATM   12  C9  UNL     1       3.591   0.406   0.680  1.00  0.00     0.001 A 
HETATM   13  C10 UNL     1       2.327   0.968   0.780  1.00  0.00     0.009 A 
ENDBRANCH   1   8
TORSDOF 4
