REMARK  14 active torsions:
REMARK  status: ('A' for Active; 'I' for Inactive)
REMARK    1  A    between atoms: C2_2  and  O2_4 
REMARK    2  A    between atoms: O2_4  and  C3_5 
REMARK    3  A    between atoms: C11_13  and  O3_14 
REMARK    4  A    between atoms: C13_17  and  C14_18 
REMARK    5  A    between atoms: C14_18  and  O4_19 
REMARK    6  A    between atoms: C15_21  and  C17_23 
REMARK    7  A    between atoms: C17_23  and  C18_24 
REMARK    8  A    between atoms: C18_24  and  C19_25 
REMARK    9  A    between atoms: C20_26  and  C22_28 
REMARK   10  A    between atoms: C22_28  and  C23_29 
REMARK   11  A    between atoms: C23_29  and  C24_30 
REMARK   12  A    between atoms: C25_31  and  C27_33 
REMARK   13  A    between atoms: C27_33  and  C28_34 
REMARK   14  A    between atoms: C28_34  and  C29_35 
ROOT
HETATM    1  C3  UNL     1      -2.899   1.046   1.050  1.00  0.00     0.141 C 
HETATM    2  C4  UNL     1      -3.879   2.038   0.393  1.00  0.00     0.034 C 
HETATM    3  C5  UNL     1      -5.059   1.328  -0.128  1.00  0.00     0.017 C 
HETATM    4  C6  UNL     1      -4.587   0.404  -1.235  1.00  0.00    -0.011 C 
HETATM    5  C7  UNL     1      -4.173   1.293  -2.402  1.00  0.00     0.021 C 
HETATM    6  C8  UNL     1      -5.853  -0.225  -1.717  1.00  0.00    -0.076 C 
HETATM    7  C9  UNL     1      -6.797   0.591  -2.580  1.00  0.00     0.044 C 
HETATM    8  C10 UNL     1      -6.192  -1.429  -1.434  1.00  0.00     0.007 C 
HETATM    9  C11 UNL     1      -5.398  -2.326  -0.618  1.00  0.00     0.142 C 
HETATM   10  C12 UNL     1      -4.222  -1.667   0.038  1.00  0.00     0.049 C 
HETATM   11  C13 UNL     1      -3.581  -0.566  -0.776  1.00  0.00     0.004 C 
HETATM   12  C15 UNL     1      -2.459  -0.018   0.114  1.00  0.00    -0.006 C 
HETATM   13  C16 UNL     1      -1.335   0.526  -0.741  1.00  0.00     0.019 C 
ENDROOT
BRANCH  12  14
HETATM   14  C17 UNL     1      -1.896  -1.103   0.980  1.00  0.00     0.016 C 
BRANCH  14  15
HETATM   15  C18 UNL     1      -0.734  -0.840   1.855  1.00  0.00     0.028 C 
BRANCH  15  16
HETATM   16  C19 UNL     1       0.570  -0.497   1.272  1.00  0.00    -0.024 C 
HETATM   17  C20 UNL     1       1.280   0.558   1.609  1.00  0.00    -0.087 C 
HETATM   18  C21 UNL     1       0.863   1.550   2.626  1.00  0.00     0.043 C 
BRANCH  17  19
HETATM   19  C22 UNL     1       2.619   0.843   0.951  1.00  0.00     0.037 C 
BRANCH  19  20
HETATM   20  C23 UNL     1       2.973  -0.165  -0.048  1.00  0.00     0.031 C 
BRANCH  20  21
HETATM   21  C24 UNL     1       4.251   0.068  -0.729  1.00  0.00    -0.024 C 
HETATM   22  C25 UNL     1       5.133   1.022  -0.675  1.00  0.00    -0.087 C 
HETATM   23  C26 UNL     1       5.110   2.253   0.150  1.00  0.00     0.043 C 
BRANCH  22  24
HETATM   24  C27 UNL     1       6.355   0.853  -1.586  1.00  0.00     0.037 C 
BRANCH  24  25
HETATM   25  C28 UNL     1       7.612   0.818  -0.741  1.00  0.00     0.031 C 
BRANCH  25  26
HETATM   26  C29 UNL     1       7.575  -0.316   0.225  1.00  0.00    -0.024 C 
HETATM   27  C30 UNL     1       8.489  -1.277   0.214  1.00  0.00    -0.091 C 
HETATM   28  C31 UNL     1       8.456  -2.399   1.166  1.00  0.00     0.042 C 
HETATM   29  C32 UNL     1       9.576  -1.203  -0.801  1.00  0.00     0.042 C 
ENDBRANCH  25  26
ENDBRANCH  24  25
ENDBRANCH  22  24
ENDBRANCH  20  21
ENDBRANCH  19  20
ENDBRANCH  17  19
ENDBRANCH  15  16
ENDBRANCH  14  15
ENDBRANCH  12  14
BRANCH   1  30
HETATM   30  O2  UNL     1      -3.655   0.590   2.174  1.00  0.00    -0.316 OA
BRANCH  30  31
HETATM   31  C2  UNL     1      -3.458   1.098   3.429  1.00  0.00     0.255 C 
HETATM   32  C1  UNL     1      -4.277   0.576   4.548  1.00  0.00     0.126 C 
HETATM   33  O1  UNL     1      -2.615   1.990   3.686  1.00  0.00    -0.266 OA
ENDBRANCH  30  31
ENDBRANCH   1  30
BRANCH  11  34
HETATM   34  C14 UNL     1      -3.028  -1.244  -2.001  1.00  0.00     0.175 C 
BRANCH  34  35
HETATM   35  O4  UNL     1      -2.071  -2.210  -1.799  1.00  0.00    -0.400 OA
ATOM     36  H4  UNL     1      -1.722  -2.638  -2.572  1.00  0.00     0.209 HD
ENDBRANCH  34  35
ENDBRANCH  11  34
BRANCH   9  37
HETATM   37  O3  UNL     1      -5.097  -3.476  -1.328  1.00  0.00    -0.392 OA
ATOM     38  H3  UNL     1      -4.577  -4.064  -0.793  1.00  0.00     0.210 HD
ENDBRANCH   9  37
TORSDOF 14
