REMARK  9 active torsions:
REMARK  status: ('A' for Active; 'I' for Inactive)
REMARK    1  A    between atoms: C2_3  and  N2_4 
REMARK    2  A    between atoms: C6_10  and  C7_11 
REMARK    3  A    between atoms: C7_11  and  C8_12 
REMARK    4  A    between atoms: C8_12  and  C9_13 
REMARK    5  A    between atoms: C9_13  and  C10_14 
REMARK    6  A    between atoms: C10_14  and  C11_15 
REMARK    7  A    between atoms: C11_15  and  N3_16 
REMARK    8  A    between atoms: C11_15  and  O1_20 
REMARK    9  A    between atoms: C13_26  and  N5_27 
ROOT
HETATM    1  C1  UNL     1      -4.361  -0.250  -0.047  1.00  0.00     0.177 C 
HETATM    2  N1  UNL     1      -3.231  -1.130  -0.260  1.00  0.00    -0.172 N 
HETATM    3  C2  UNL     1      -1.970  -0.715   0.087  1.00  0.00     0.133 A 
HETATM    4  C6  UNL     1      -0.887  -1.515  -0.089  1.00  0.00     0.055 A 
HETATM    5  C12 UNL     1      -1.123  -2.773  -0.638  1.00  0.00     0.269 A 
HETATM    6  O2  UNL     1      -0.193  -3.582  -0.840  1.00  0.00    -0.267 OA
HETATM    7  N4  UNL     1      -2.372  -3.178  -0.980  1.00  0.00    -0.156 N 
ATOM      8  H4  UNL     1      -2.520  -4.104  -1.381  1.00  0.00     0.187 HD
HETATM    9  C13 UNL     1      -3.414  -2.349  -0.786  1.00  0.00     0.682 A 
ENDROOT
BRANCH   4  10
HETATM   10  C7  UNL     1       0.467  -1.160   0.262  1.00  0.00     0.048 C 
BRANCH  10  11
HETATM   11  C8  UNL     1       1.206  -0.253  -0.688  1.00  0.00     0.005 C 
BRANCH  11  12
HETATM   12  C9  UNL     1       2.592  -0.065  -0.049  1.00  0.00     0.004 C 
BRANCH  12  13
HETATM   13  C10 UNL     1       3.473   0.841  -0.865  1.00  0.00     0.061 C 
BRANCH  13  14
HETATM   14  C11 UNL     1       4.803   0.928  -0.114  1.00  0.00     0.316 C 
BRANCH  14  15
HETATM   15  N3  UNL     1       5.759   1.774  -0.762  1.00  0.00    -0.053 N 
ATOM     16  H33 UNL     1       5.906   1.483  -1.729  1.00  0.00     0.277 HD
ATOM     17  H32 UNL     1       5.371   2.703  -0.924  1.00  0.00     0.277 HD
ATOM     18  H31 UNL     1       6.646   1.832  -0.261  1.00  0.00     0.277 HD
ENDBRANCH  14  15
BRANCH  14  19
HETATM   19  O1  UNL     1       4.629   1.349   1.199  1.00  0.00    -0.370 OA
ATOM     20  H1  UNL     1       5.455   1.403   1.665  1.00  0.00     0.212 HD
ENDBRANCH  14  19
ENDBRANCH  13  14
ENDBRANCH  12  13
ENDBRANCH  11  12
ENDBRANCH  10  11
ENDBRANCH   4  10
BRANCH   3  21
HETATM   21  N2  UNL     1      -1.857   0.568   0.646  1.00  0.00    -0.355 N 
HETATM   22  C3  UNL     1      -1.643   1.245   1.919  1.00  0.00     0.205 A 
HETATM   23  C4  UNL     1      -1.876   2.607   1.301  1.00  0.00     0.275 A 
HETATM   24  F1  UNL     1      -0.800   3.474   1.368  1.00  0.00    -0.203 F 
HETATM   25  F2  UNL     1      -3.049   3.218   1.750  1.00  0.00    -0.203 F 
HETATM   26  C5  UNL     1      -1.981   1.887  -0.003  1.00  0.00     0.205 A 
ENDBRANCH   3  21
BRANCH   9  27
HETATM   27  N5  UNL     1      -4.627  -2.694  -1.101  1.00  0.00    -0.234 N 
ATOM     28  H52 UNL     1      -5.417  -2.066  -0.954  1.00  0.00     0.174 HD
ATOM     29  H51 UNL     1      -4.766  -3.622  -1.501  1.00  0.00     0.174 HD
ENDBRANCH   9  27
TORSDOF 9
