REMARK  10 active torsions:
REMARK  status: ('A' for Active; 'I' for Inactive)
REMARK    1  A    between atoms: C2_2  and  S1_3 
REMARK    2  A    between atoms: C2_2  and  C10_26 
REMARK    3  A    between atoms: S1_3  and  S2_4 
REMARK    4  A    between atoms: S2_4  and  C3_5 
REMARK    5  A    between atoms: C3_5  and  C4_6 
REMARK    6  A    between atoms: C4_6  and  O1_7 
REMARK    7  A    between atoms: C4_6  and  C5_9 
REMARK    8  A    between atoms: C8_16  and  N2_17 
REMARK    9  A    between atoms: C8_16  and  C9_21 
REMARK   10  A    between atoms: C9_21  and  N3_22 
ROOT
HETATM    1  C5  UNL     1      -1.115   0.045   0.017  1.00  0.00     0.155 C 
HETATM    2  N1  UNL     1      -0.641  -1.129   0.776  1.00  0.00    -0.349 N 
ATOM      3  H1  UNL     1       0.110  -1.198   1.463  1.00  0.00     0.163 HD
HETATM    4  C6  UNL     1      -1.533  -2.156   0.280  1.00  0.00     0.255 C 
HETATM    5  O2  UNL     1      -1.183  -3.330   0.077  1.00  0.00    -0.270 OA
HETATM    6  C7  UNL     1      -2.850  -1.556   0.083  1.00  0.00     0.301 C 
HETATM    7  F1  UNL     1      -3.466  -1.799  -1.094  1.00  0.00    -0.236 F 
HETATM    8  C8  UNL     1      -2.556  -0.074   0.342  1.00  0.00     0.208 C 
ENDROOT
BRANCH   1   9
HETATM    9  C4  UNL     1      -0.648   0.051  -1.321  1.00  0.00     0.153 C 
BRANCH   9  10
HETATM   10  C3  UNL     1       0.665   0.648  -1.645  1.00  0.00     0.120 C 
BRANCH  10  11
HETATM   11  S2  UNL     1       2.103  -0.366  -1.580  1.00  0.00    -0.095 SA
BRANCH  11  12
HETATM   12  S1  UNL     1       2.751  -0.829   0.328  1.00  0.00    -0.090 SA
BRANCH  12  13
HETATM   13  C2  UNL     1       3.932   0.453   0.876  1.00  0.00     0.087 C 
HETATM   14  C1  UNL     1       4.374   0.069   2.269  1.00  0.00     0.025 C 
BRANCH  13  15
HETATM   15  C10 UNL     1       5.157   0.310  -0.025  1.00  0.00     0.192 C 
HETATM   16 CL1  UNL     1       6.458   1.378   0.529  1.00  0.00    -0.107 Cl
HETATM   17 CL2  UNL     1       4.764   0.623  -1.719  1.00  0.00    -0.107 Cl
ENDBRANCH  13  15
ENDBRANCH  12  13
ENDBRANCH  11  12
ENDBRANCH  10  11
ENDBRANCH   9  10
BRANCH   9  18
HETATM   18  O1  UNL     1      -0.892  -1.020  -2.176  1.00  0.00    -0.393 OA
ATOM     19  H1  UNL     1      -1.736  -1.404  -1.968  1.00  0.00     0.210 HD
ENDBRANCH   9  18
ENDBRANCH   1   9
BRANCH   8  20
HETATM   20  N2  UNL     1      -2.604   0.017   1.824  1.00  0.00    -0.063 N 
ATOM     21  H23 UNL     1      -2.010  -0.659   2.304  1.00  0.00     0.275 HD
ATOM     22  H22 UNL     1      -2.156   0.850   2.207  1.00  0.00     0.275 HD
ATOM     23  H21 UNL     1      -3.596  -0.065   2.048  1.00  0.00     0.275 HD
ENDBRANCH   8  20
BRANCH   8  24
HETATM   24  C9  UNL     1      -3.565   0.830  -0.158  1.00  0.00     0.274 C 
BRANCH  24  25
HETATM   25  N3  UNL     1      -3.818   0.989  -1.537  1.00  0.00    -0.077 N 
ATOM     26  H33 UNL     1      -2.935   1.231  -1.987  1.00  0.00     0.274 HD
ATOM     27  H32 UNL     1      -4.011   0.065  -1.924  1.00  0.00     0.274 HD
ATOM     28  H31 UNL     1      -4.531   1.628  -1.890  1.00  0.00     0.274 HD
ENDBRANCH  24  25
ENDBRANCH   8  24
TORSDOF 10
