REMARK  3 active torsions:
REMARK  status: ('A' for Active; 'I' for Inactive)
REMARK    1  A    between atoms: C2_2  and  C3_3 
REMARK    2  A    between atoms: C3_3  and  N1_4 
REMARK    3  A    between atoms: C6_7  and  N2_8 
ROOT
HETATM    1  N1  UNL     1      -1.112  -0.532  -0.053  1.00  0.00    -0.370 N 
HETATM    2  C4  UNL     1      -0.501   0.555  -0.690  1.00  0.00     0.065 C 
HETATM    3  C5  UNL     1       0.888   0.886  -0.216  1.00  0.00     0.078 C 
HETATM    4  C6  UNL     1       1.760  -0.329  -0.125  1.00  0.00     0.194 C 
HETATM    5  C8  UNL     1       1.058  -1.329   0.780  1.00  0.00     0.078 C 
HETATM    6  C9  UNL     1      -0.347  -1.635   0.338  1.00  0.00     0.065 C 
ENDROOT
BRANCH   4   7
HETATM    7  N2  UNL     1       3.009  -0.006   0.540  1.00  0.00    -0.074 N 
HETATM    8  C7  UNL     1       3.792   0.962  -0.183  1.00  0.00     0.267 C 
ATOM      9  H22 UNL     1       2.844   0.300   1.499  1.00  0.00     0.277 HD
ATOM     10  H21 UNL     1       3.552  -0.849   0.727  1.00  0.00     0.277 HD
ENDBRANCH   4   7
BRANCH   1  11
HETATM   11  C3  UNL     1      -2.425  -0.377   0.444  1.00  0.00     0.153 C 
BRANCH  11  12
HETATM   12  C2  UNL     1      -3.394  -0.239  -0.670  1.00  0.00    -0.017 C 
HETATM   13  C1  UNL     1      -4.135   0.822  -0.811  1.00  0.00     0.008 C 
ENDBRANCH  11  12
ENDBRANCH   1  11
TORSDOF 3
