REMARK  6 active torsions:
REMARK  status: ('A' for Active; 'I' for Inactive)
REMARK    1  A    between atoms: O1_2  and  C2_3 
REMARK    2  A    between atoms: C6_10  and  O3_11 
REMARK    3  A    between atoms: C11_17  and  C12_18 
REMARK    4  A    between atoms: C12_18  and  C14_20 
REMARK    5  A    between atoms: C14_20  and  C15_21 
REMARK    6  A    between atoms: C15_21  and  C16_22 
ROOT
HETATM    1  C2  UNL     1      -0.480   3.353  -0.115  1.00  0.00     0.137 C 
HETATM    2  N1  UNL     1       0.686   2.898  -0.371  1.00  0.00    -0.247 N 
ATOM      3  H1  UNL     1       1.400   3.500  -0.781  1.00  0.00     0.196 HD
HETATM    4  O2  UNL     1       0.950   1.629  -0.094  1.00  0.00    -0.267 OA
HETATM    5  C3  UNL     1       0.017   0.555  -0.087  1.00  0.00     0.097 C 
HETATM    6  C4  UNL     1      -0.379   0.276  -1.480  1.00  0.00     0.044 C 
HETATM    7  C5  UNL     1      -1.741   0.100  -2.050  1.00  0.00     0.035 C 
HETATM    8  C6  UNL     1      -2.479  -1.249  -1.753  1.00  0.00     0.123 C 
HETATM    9  C7  UNL     1      -2.136  -1.848  -0.535  1.00  0.00     0.028 A 
HETATM   10  C8  UNL     1      -1.768  -2.965   0.222  1.00  0.00     0.001 A 
HETATM   11  C9  UNL     1      -0.425  -2.849   0.999  1.00  0.00     0.006 C 
HETATM   12  C10 UNL     1       0.594  -1.948   0.318  1.00  0.00     0.008 C 
HETATM   13  C11 UNL     1       0.796  -0.544   0.658  1.00  0.00     0.027 C 
HETATM   14  C17 UNL     1      -2.821  -2.054   0.675  1.00  0.00    -0.034 A 
HETATM   15  C18 UNL     1      -4.274  -2.543   0.581  1.00  0.00     0.016 C 
HETATM   16  C19 UNL     1      -2.491  -0.946   1.652  1.00  0.00     0.010 C 
HETATM   17  C20 UNL     1      -2.341   0.394   1.034  1.00  0.00     0.009 C 
HETATM   18  C21 UNL     1      -1.074   1.076   0.813  1.00  0.00     0.031 C 
HETATM   19  C22 UNL     1      -1.477   2.491   0.463  1.00  0.00     0.093 C 
ENDROOT
BRANCH  13  20
HETATM   20  C12 UNL     1       2.286  -0.263   0.812  1.00  0.00    -0.011 C 
HETATM   21  C13 UNL     1       2.646   0.949   1.581  1.00  0.00     0.010 C 
BRANCH  20  22
HETATM   22  C14 UNL     1       3.050  -0.468  -0.458  1.00  0.00     0.015 C 
BRANCH  22  23
HETATM   23  C15 UNL     1       4.496  -0.179  -0.209  1.00  0.00     0.113 C 
BRANCH  23  24
HETATM   24  C16 UNL     1       5.303  -0.374  -1.463  1.00  0.00     0.172 C 
HETATM   25  O4  UNL     1       4.691  -0.735  -2.499  1.00  0.00    -0.648 OA
HETATM   26  O5  UNL     1       6.651  -0.176  -1.509  1.00  0.00    -0.648 OA
ENDBRANCH  23  24
ENDBRANCH  22  23
ENDBRANCH  20  22
ENDBRANCH  13  20
BRANCH   1  27
HETATM   27  O1  UNL     1      -0.798   4.689  -0.394  1.00  0.00    -0.343 OA
HETATM   28  C1  UNL     1       0.313   5.579  -0.586  1.00  0.00     0.211 C 
ENDBRANCH   1  27
BRANCH   8  29
HETATM   29  O3  UNL     1      -2.317  -2.145  -2.813  1.00  0.00    -0.395 OA
ATOM     30  H3  UNL     1      -2.765  -2.963  -2.633  1.00  0.00     0.210 HD
ENDBRANCH   8  29
TORSDOF 6
