REMARK  4 active torsions:
REMARK  status: ('A' for Active; 'I' for Inactive)
REMARK    1  A    between atoms: N1_1  and  C1_4 
REMARK    2  A    between atoms: C2_7  and  N3_8 
REMARK    3  A    between atoms: N3_8  and  C3_10 
REMARK    4  A    between atoms: N5_14  and  N6_15 
ROOT
HETATM    1  C1  UNL     1      -0.284   0.997  -1.136  1.00  0.00     0.727 A 
HETATM    2  N2  UNL     1       0.998   0.708  -0.791  1.00  0.00    -0.018 N 
ATOM      3  H2  UNL     1       1.824   1.115  -1.229  1.00  0.00     0.203 HD
HETATM    4  C2  UNL     1       1.024  -0.190   0.210  1.00  0.00     0.715 A 
HETATM    5  N4  UNL     1      -0.289  -0.453   0.478  1.00  0.00    -0.095 N 
ATOM      6  H4  UNL     1      -0.628  -1.099   1.191  1.00  0.00     0.208 HD
HETATM    7  N5  UNL     1      -1.049   0.258  -0.328  1.00  0.00    -0.012 N 
ENDROOT
BRANCH   4   8
HETATM    8  N3  UNL     1       2.059  -0.697   0.794  1.00  0.00    -0.165 N 
ATOM      9  H3  UNL     1       3.001  -0.428   0.512  1.00  0.00     0.186 HD
BRANCH   8  10
HETATM   10  C3  UNL     1       1.856  -1.629   1.828  1.00  0.00     0.368 C 
HETATM   11  O1  UNL     1       1.503  -1.215   2.943  1.00  0.00    -0.283 OA
ENDBRANCH   8  10
ENDBRANCH   4   8
BRANCH   1  12
HETATM   12  N1  UNL     1      -0.681   1.818  -2.058  1.00  0.00    -0.231 N 
ATOM     13  H12 UNL     1      -0.097   2.382  -2.675  1.00  0.00     0.174 HD
ATOM     14  H11 UNL     1      -1.643   2.035  -2.317  1.00  0.00     0.174 HD
ENDBRANCH   1  12
BRANCH   7  15
HETATM   15  N6  UNL     1      -2.437   0.241  -0.336  1.00  0.00    -0.309 N 
ATOM     16  H62 UNL     1      -3.026   0.792  -0.961  1.00  0.00     0.179 HD
ATOM     17  H61 UNL     1      -3.021  -0.323   0.281  1.00  0.00     0.179 HD
ENDBRANCH   7  15
TORSDOF 4
