REMARK  2 active torsions:
REMARK  status: ('A' for Active; 'I' for Inactive)
REMARK    1  A    between atoms: O1_1  and  C1_3 
REMARK    2  A    between atoms: N4_8  and  O2_9 
ROOT
HETATM    1  C1  UNL     1      -0.373   0.790  -0.068  1.00  0.00     0.275 A 
HETATM    2  N1  UNL     1      -1.652   0.456  -0.336  1.00  0.00    -0.248 N 
ATOM      3  H1  UNL     1      -2.412   1.126  -0.449  1.00  0.00     0.187 HD
HETATM    4  N2  UNL     1      -1.790  -0.856  -0.433  1.00  0.00    -0.003 NA
HETATM    5  N3  UNL     1      -0.583  -1.357  -0.225  1.00  0.00     0.024 NA
HETATM    6  N4  UNL     1       0.281  -0.381  -0.004  1.00  0.00    -0.106 N 
ENDROOT
BRANCH   1   7
HETATM    7  O1  UNL     1       0.155   2.065   0.104  1.00  0.00    -0.329 OA
ATOM      8  H1  UNL     1       1.056   2.300   0.293  1.00  0.00     0.221 HD
ENDBRANCH   1   7
BRANCH   6   9
HETATM    9  O2  UNL     1       1.613  -0.544   0.247  1.00  0.00    -0.266 OA
ATOM     10  H2  UNL     1       2.076  -1.372   0.292  1.00  0.00     0.246 HD
ENDBRANCH   6   9
TORSDOF 2
