REMARK  5 active torsions:
REMARK  status: ('A' for Active; 'I' for Inactive)
REMARK    1  A    between atoms: N1_1  and  C1_4 
REMARK    2  A    between atoms: C2_7  and  N3_8 
REMARK    3  A    between atoms: N3_8  and  N4_10 
REMARK    4  A    between atoms: C3_17  and  C4_18 
REMARK       I    between atoms: C4_18  and  N7_20 
REMARK    5  A    between atoms: N7_20  and  N8_22 
ROOT
HETATM    1  C1  UNL     1       0.112  -1.444   0.402  1.00  0.00     0.148 A 
HETATM    2  N2  UNL     1       1.441  -1.454   0.194  1.00  0.00    -0.172 N 
ATOM      3  H2  UNL     1       1.940  -2.342   0.250  1.00  0.00     0.186 HD
HETATM    4  C2  UNL     1       2.136  -0.338  -0.085  1.00  0.00     0.712 A 
HETATM    5  N5  UNL     1       1.452   0.816  -0.152  1.00  0.00    -0.130 N 
ATOM      6  H5  UNL     1       1.953   1.679  -0.363  1.00  0.00     0.205 HD
HETATM    7  N6  UNL     1       0.132   0.863   0.050  1.00  0.00    -0.278 N 
ATOM      8  H6  UNL     1      -0.351   1.759  -0.009  1.00  0.00     0.188 HD
HETATM    9  C3  UNL     1      -0.566  -0.239   0.327  1.00  0.00     0.162 A 
ENDROOT
BRANCH   9  10
HETATM   10  C4  UNL     1      -2.005  -0.218   0.551  1.00  0.00     0.291 C 
HETATM   11  O1  UNL     1      -2.626  -1.274   0.809  1.00  0.00    -0.264 OA
HETATM   12  N7  UNL     1      -2.748   0.984   0.487  1.00  0.00    -0.271 N 
ATOM     13  H7  UNL     1      -2.248   1.848   0.278  1.00  0.00     0.189 HD
BRANCH  12  14
HETATM   14  N8  UNL     1      -4.122   1.053   0.693  1.00  0.00    -0.342 N 
ATOM     15  H82 UNL     1      -4.605   0.179   0.901  1.00  0.00     0.176 HD
ATOM     16  H81 UNL     1      -4.658   1.920   0.647  1.00  0.00     0.176 HD
ENDBRANCH  12  14
ENDBRANCH   9  10
BRANCH   1  17
HETATM   17  N1  UNL     1      -0.577  -2.502   0.671  1.00  0.00    -0.383 N 
ATOM     18  H12 UNL     1      -0.078  -3.390   0.726  1.00  0.00     0.157 HD
ATOM     19  H11 UNL     1      -1.585  -2.494   0.829  1.00  0.00     0.157 HD
ENDBRANCH   1  17
BRANCH   4  20
HETATM   20  N3  UNL     1       3.406  -0.406  -0.276  1.00  0.00    -0.137 N 
ATOM     21  H3  UNL     1       3.850  -1.322  -0.208  1.00  0.00     0.205 HD
BRANCH  20  22
HETATM   22  N4  UNL     1       4.206   0.677  -0.566  1.00  0.00    -0.331 N 
ATOM     23  H42 UNL     1       3.745   1.585  -0.630  1.00  0.00     0.177 HD
ATOM     24  H41 UNL     1       5.213   0.623  -0.717  1.00  0.00     0.177 HD
ENDBRANCH  20  22
ENDBRANCH   4  20
TORSDOF 5
