REMARK  6 active torsions:
REMARK  status: ('A' for Active; 'I' for Inactive)
REMARK    1  A    between atoms: C3_5  and  C4_6 
REMARK    2  A    between atoms: C5_7  and  N2_8 
REMARK    3  A    between atoms: N2_8  and  C6_10 
REMARK    4  A    between atoms: C9_15  and  C10_16 
REMARK    5  A    between atoms: C10_16  and  N4_17 
REMARK    6  A    between atoms: N4_17  and  S1_19 
ROOT
HETATM    1  C6  UNL     1      -0.421  -1.372   0.126  1.00  0.00     0.697 A 
HETATM    2  N3  UNL     1      -0.066  -0.143  -0.351  1.00  0.00    -0.192 N 
ATOM      3  H3  UNL     1      -0.802   0.443  -0.744  1.00  0.00     0.184 HD
HETATM    4  C7  UNL     1       1.116   0.323  -0.340  1.00  0.00     0.052 A 
HETATM    5  C8  UNL     1       1.479   1.718  -0.743  1.00  0.00     0.071 C 
HETATM    6  C9  UNL     1       2.167  -0.492   0.222  1.00  0.00     0.087 A 
HETATM    7  N5  UNL     1       1.801  -1.669   0.695  1.00  0.00    -0.283 N 
ATOM      8  H5  UNL     1       2.516  -2.265   1.113  1.00  0.00     0.187 HD
HETATM    9  N6  UNL     1       0.519  -2.130   0.655  1.00  0.00    -0.131 N 
ATOM     10  H6  UNL     1       0.290  -3.050   1.030  1.00  0.00     0.205 HD
ENDROOT
BRANCH   1  11
HETATM   11  N2  UNL     1      -1.669  -1.743  -0.036  1.00  0.00    -0.200 N 
ATOM     12  H2  UNL     1      -2.060  -2.633   0.272  1.00  0.00     0.183 HD
BRANCH  11  13
HETATM   13  C5  UNL     1      -2.405  -0.706  -0.714  1.00  0.00     0.108 C 
HETATM   14  C4  UNL     1      -3.539  -0.209  -0.692  1.00  0.00     0.047 C 
BRANCH  14  15
HETATM   15  C3  UNL     1      -4.712  -0.525   0.121  1.00  0.00     0.040 A 
HETATM   16  N1  UNL     1      -5.769   0.257   0.069  1.00  0.00    -0.354 N 
HETATM   17  C2  UNL     1      -6.866  -0.065   0.758  1.00  0.00     0.047 A 
ATOM     18  H1  UNL     1      -5.750   1.106  -0.496  1.00  0.00     0.166 HD
HETATM   19  C1  UNL     1      -8.147   0.740   0.792  1.00  0.00     0.076 C 
HETATM   20  S2  UNL     1      -6.409  -1.520   1.502  1.00  0.00    -0.087 SA
HETATM   21  C12 UNL     1      -4.819  -1.658   0.902  1.00  0.00     0.081 A 
ENDBRANCH  14  15
ENDBRANCH  11  13
ENDBRANCH   1  11
BRANCH   6  22
HETATM   22  C10 UNL     1       3.524   0.014  -0.133  1.00  0.00     0.132 C 
BRANCH  22  23
HETATM   23  N4  UNL     1       4.372   0.515   0.848  1.00  0.00    -0.293 N 
ATOM     24  H4  UNL     1       4.152   0.551   1.843  1.00  0.00     0.177 HD
BRANCH  23  25
HETATM   25  S1  UNL     1       5.846   1.066   0.148  1.00  0.00     0.226 S 
HETATM   26  C11 UNL     1       7.240   0.326   0.881  1.00  0.00     0.186 C 
HETATM   27  O1  UNL     1       5.920   2.542  -0.000  1.00  0.00    -0.206 OA
HETATM   28  O2  UNL     1       5.849   0.477  -1.321  1.00  0.00    -0.206 OA
ENDBRANCH  23  25
ENDBRANCH  22  23
ENDBRANCH   6  22
TORSDOF 6
