REMARK  14 active torsions:
REMARK  status: ('A' for Active; 'I' for Inactive)
REMARK    1  A    between atoms: C2_2  and  C3_4 
REMARK    2  A    between atoms: C6_7  and  N1_8 
REMARK    3  A    between atoms: C8_10  and  C9_11 
REMARK    4  A    between atoms: C9_11  and  N4_17 
REMARK    5  A    between atoms: N2_12  and  N3_14 
REMARK    6  A    between atoms: N4_17  and  N5_19 
REMARK       I    between atoms: N5_19  and  C10_21 
REMARK    7  A    between atoms: C10_21  and  C11_23 
REMARK    8  A    between atoms: C12_24  and  O3_25 
REMARK    9  A    between atoms: C13_30  and  N7_31 
REMARK   10  A    between atoms: N7_31  and  N8_33 
REMARK   11  A    between atoms: C14_35  and  C16_37 
REMARK   12  A    between atoms: C16_37  and  N9_38 
REMARK   13  A    between atoms: C16_37  and  O5_42 
REMARK   14  A    between atoms: C17_47  and  N12_48 
ROOT
HETATM    1  N4  UNL     1       0.903  -0.856  -0.573  1.00  0.00    -0.280 N 
ATOM      2  H4  UNL     1       1.154  -1.822  -0.782  1.00  0.00     0.189 HD
ENDROOT
BRANCH   1   3
HETATM    3  C9  UNL     1      -0.094  -0.654   0.400  1.00  0.00     0.164 C 
HETATM    4  N2  UNL     1       0.238  -0.165   1.533  1.00  0.00    -0.289 N 
ATOM      5  H2  UNL     1       1.224   0.072   1.641  1.00  0.00     0.188 HD
BRANCH   3   6
HETATM    6  C8  UNL     1      -1.463  -1.038   0.090  1.00  0.00     0.110 A 
HETATM    7  C7  UNL     1      -2.652  -0.605   0.628  1.00  0.00     0.149 A 
HETATM    8  N1  UNL     1      -3.685  -1.249   0.045  1.00  0.00    -0.246 N 
HETATM    9  N11 UNL     1      -3.169  -2.077  -0.851  1.00  0.00    -0.015 NA
HETATM   10  N10 UNL     1      -1.853  -1.968  -0.841  1.00  0.00    -0.279 N 
ATOM     11  H10 UNL     1      -1.218  -2.498  -1.438  1.00  0.00     0.184 HD
BRANCH   8  12
HETATM   12  C6  UNL     1      -5.036  -1.039   0.406  1.00  0.00     0.087 A 
HETATM   13  C5  UNL     1      -5.567  -1.551   1.583  1.00  0.00     0.034 A 
HETATM   14  C4  UNL     1      -6.876  -1.377   1.965  1.00  0.00     0.017 A 
HETATM   15  C3  UNL     1      -7.691  -0.659   1.134  1.00  0.00     0.012 A 
HETATM   16  C18 UNL     1      -7.217  -0.131  -0.041  1.00  0.00     0.053 A 
HETATM   17  C17 UNL     1      -5.870  -0.324  -0.410  1.00  0.00     0.132 A 
BRANCH  15  18
HETATM   18  C2  UNL     1      -9.083  -0.483   1.550  1.00  0.00     0.155 C 
HETATM   19  C1  UNL     1     -10.097   0.251   0.756  1.00  0.00     0.096 C 
HETATM   20  O1  UNL     1      -9.493  -0.971   2.650  1.00  0.00    -0.293 OA
ENDBRANCH  15  18
BRANCH  17  21
HETATM   21  N12 UNL     1      -5.436   0.245  -1.630  1.00  0.00    -0.113 N 
HETATM   22  O6  UNL     1      -6.255   0.417  -2.539  1.00  0.00    -0.532 OA
HETATM   23  O7  UNL     1      -4.133   0.594  -1.787  1.00  0.00    -0.532 OA
ENDBRANCH  17  21
ENDBRANCH   8  12
ENDBRANCH   3   6
BRANCH   4  24
HETATM   24  N3  UNL     1      -0.555   0.083   2.621  1.00  0.00    -0.344 N 
ATOM     25  H32 UNL     1      -1.537  -0.160   2.493  1.00  0.00     0.176 HD
ATOM     26  H31 UNL     1      -0.290   0.473   3.525  1.00  0.00     0.176 HD
ENDBRANCH   4  24
ENDBRANCH   1   3
BRANCH   1  27
HETATM   27  N5  UNL     1       1.577   0.133  -1.276  1.00  0.00    -0.264 N 
HETATM   28  C10 UNL     1       2.920   0.475  -0.986  1.00  0.00     0.278 C 
HETATM   29  O2  UNL     1       3.453  -0.175  -0.036  1.00  0.00    -0.266 OA
ATOM     30  H5  UNL     1       1.090   0.628  -2.023  1.00  0.00     0.190 HD
BRANCH  28  31
HETATM   31  C11 UNL     1       3.677   1.486  -1.694  1.00  0.00     0.140 A 
HETATM   32  C12 UNL     1       3.275   2.279  -2.738  1.00  0.00     0.224 A 
HETATM   33  O4  UNL     1       4.275   3.029  -3.062  1.00  0.00    -0.210 OA
HETATM   34  N6  UNL     1       5.316   2.843  -2.361  1.00  0.00    -0.240 N 
HETATM   35  C13 UNL     1       5.008   1.849  -1.442  1.00  0.00     0.161 A 
ATOM     36  H6  UNL     1       6.207   3.330  -2.455  1.00  0.00     0.196 HD
BRANCH  32  37
HETATM   37  O3  UNL     1       2.024   2.288  -3.352  1.00  0.00    -0.339 OA
ATOM     38  H3  UNL     1       1.745   2.837  -4.075  1.00  0.00     0.220 HD
ENDBRANCH  32  37
BRANCH  35  39
HETATM   39  N7  UNL     1       5.806   1.446  -0.605  1.00  0.00    -0.283 N 
ATOM     40  H7  UNL     1       6.643   1.997  -0.798  1.00  0.00     0.188 HD
BRANCH  39  41
HETATM   41  N8  UNL     1       6.166   0.703   0.390  1.00  0.00    -0.303 N 
HETATM   42  C14 UNL     1       7.269   0.203   0.759  1.00  0.00     0.055 C 
HETATM   43  C15 UNL     1       8.517   0.428  -0.021  1.00  0.00     0.069 C 
ATOM     44  H8  UNL     1       5.393   0.469   1.013  1.00  0.00     0.186 HD
BRANCH  42  45
HETATM   45  C16 UNL     1       7.347  -0.620   1.986  1.00  0.00     0.364 C 
BRANCH  45  46
HETATM   46  N9  UNL     1       7.795  -1.948   1.641  1.00  0.00    -0.048 N 
ATOM     47  H93 UNL     1       7.212  -2.378   0.923  1.00  0.00     0.277 HD
ATOM     48  H92 UNL     1       8.675  -1.938   1.126  1.00  0.00     0.277 HD
ATOM     49  H91 UNL     1       7.849  -2.515   2.487  1.00  0.00     0.277 HD
ENDBRANCH  45  46
BRANCH  45  50
HETATM   50  O5  UNL     1       8.337  -0.066   2.833  1.00  0.00    -0.366 OA
ATOM     51  H5  UNL     1       8.387  -0.594   3.621  1.00  0.00     0.212 HD
ENDBRANCH  45  50
ENDBRANCH  42  45
ENDBRANCH  39  41
ENDBRANCH  35  39
ENDBRANCH  28  31
ENDBRANCH   1  27
TORSDOF 14
