REMARK  16 active torsions:
REMARK  status: ('A' for Active; 'I' for Inactive)
REMARK    1  A    between atoms: C2_2  and  C3_3 
REMARK    2  A    between atoms: C3_3  and  C4_4 
REMARK    3  A    between atoms: C4_4  and  C5_5 
REMARK    4  A    between atoms: C5_5  and  C6_6 
REMARK    5  A    between atoms: C6_6  and  C7_7 
REMARK    6  A    between atoms: C10_12  and  C11_13 
REMARK    7  A    between atoms: C12_15  and  C13_16 
REMARK    8  A    between atoms: C13_16  and  O2_17 
REMARK    9  A    between atoms: C13_16  and  C14_19 
REMARK   10  A    between atoms: C14_19  and  O3_20 
REMARK   11  A    between atoms: O3_20  and  C15_21 
REMARK   12  A    between atoms: C18_26  and  O4_27 
REMARK   13  A    between atoms: C19_29  and  O5_30 
REMARK   14  A    between atoms: C20_32  and  O6_33 
REMARK   15  A    between atoms: C21_35  and  O7_36 
REMARK   16  A    between atoms: C22_38  and  O8_39 
ROOT
HETATM    1  C11 UNL     1      -0.026   0.432   0.639  1.00  0.00     0.188 C 
HETATM    2  O1  UNL     1      -1.064   0.129  -0.198  1.00  0.00    -0.368 OA
HETATM    3  C12 UNL     1      -2.315   0.087   0.396  1.00  0.00     0.184 C 
HETATM    4  C20 UNL     1      -2.323   0.755   1.750  1.00  0.00     0.181 C 
HETATM    5  C21 UNL     1      -1.549   2.074   1.584  1.00  0.00     0.181 C 
HETATM    6  C22 UNL     1      -0.106   1.813   1.246  1.00  0.00     0.183 C 
ENDROOT
BRANCH   3   7
HETATM    7  C13 UNL     1      -2.745  -1.353   0.443  1.00  0.00     0.173 C 
BRANCH   7   8
HETATM    8  O2  UNL     1      -1.815  -2.100   1.224  1.00  0.00    -0.391 OA
ATOM      9  H2  UNL     1      -2.087  -3.010   1.254  1.00  0.00     0.210 HD
ENDBRANCH   7   8
BRANCH   7  10
HETATM   10  C14 UNL     1      -4.069  -1.599   1.048  1.00  0.00     0.205 C 
BRANCH  10  11
HETATM   11  O3  UNL     1      -5.167  -1.049   0.468  1.00  0.00    -0.361 OA
BRANCH  11  12
HETATM   12  C15 UNL     1      -5.442  -1.451  -0.808  1.00  0.00     0.251 C 
HETATM   13  N2  UNL     1      -6.657  -2.281  -0.664  1.00  0.00    -0.374 N 
HETATM   14  C16 UNL     1      -7.801  -1.712  -0.595  1.00  0.00     0.060 C 
ATOM     15  H2  UNL     1      -6.584  -3.297  -0.620  1.00  0.00     0.161 HD
HETATM   16  C17 UNL     1      -8.039  -0.255  -0.647  1.00  0.00     0.078 C 
HETATM   17  C18 UNL     1      -6.840   0.554  -1.033  1.00  0.00     0.156 C 
HETATM   18  C19 UNL     1      -5.880  -0.368  -1.759  1.00  0.00     0.195 C 
BRANCH  17  19
HETATM   19  O4  UNL     1      -6.293   1.165   0.067  1.00  0.00    -0.393 OA
ATOM     20  H4  UNL     1      -5.532   1.678  -0.178  1.00  0.00     0.210 HD
ENDBRANCH  17  19
BRANCH  18  21
HETATM   21  O5  UNL     1      -4.871   0.318  -2.378  1.00  0.00    -0.389 OA
ATOM     22  H5  UNL     1      -5.147   1.001  -2.978  1.00  0.00     0.210 HD
ENDBRANCH  18  21
ENDBRANCH  11  12
ENDBRANCH  10  11
ENDBRANCH   7  10
ENDBRANCH   3   7
BRANCH   4  23
HETATM   23  O6  UNL     1      -3.600   1.175   2.124  1.00  0.00    -0.390 OA
ATOM     24  H6  UNL     1      -3.605   1.595   2.976  1.00  0.00     0.210 HD
ENDBRANCH   4  23
BRANCH   1  25
HETATM   25  C10 UNL     1       1.226   0.389  -0.181  1.00  0.00    -0.011 A 
HETATM   26  C9  UNL     1       1.259   0.986  -1.434  1.00  0.00     0.097 A 
HETATM   27  N1  UNL     1       2.385   0.952  -2.178  1.00  0.00    -0.374 N 
HETATM   28  C8  UNL     1       3.506   0.349  -1.745  1.00  0.00     0.094 A 
ATOM     29  H1  UNL     1       2.385   1.397  -3.096  1.00  0.00     0.164 HD
HETATM   30  C7  UNL     1       3.530  -0.262  -0.505  1.00  0.00    -0.042 A 
HETATM   31  C23 UNL     1       2.377  -0.228   0.259  1.00  0.00     0.019 A 
BRANCH  30  32
HETATM   32  C6  UNL     1       4.741  -0.942   0.020  1.00  0.00     0.040 C 
BRANCH  32  33
HETATM   33  C5  UNL     1       5.564   0.074   0.790  1.00  0.00     0.005 C 
BRANCH  33  34
HETATM   34  C4  UNL     1       6.811  -0.528   1.358  1.00  0.00     0.000 C 
BRANCH  34  35
HETATM   35  C3  UNL     1       7.713  -1.096   0.294  1.00  0.00    -0.000 C 
BRANCH  35  36
HETATM   36  C2  UNL     1       8.131  -0.030  -0.663  1.00  0.00    -0.005 C 
HETATM   37  C1  UNL     1       9.038  -0.680  -1.700  1.00  0.00     0.005 C 
ENDBRANCH  35  36
ENDBRANCH  34  35
ENDBRANCH  33  34
ENDBRANCH  32  33
ENDBRANCH  30  32
ENDBRANCH   1  25
BRANCH   5  38
HETATM   38  O7  UNL     1      -2.142   2.717   0.499  1.00  0.00    -0.390 OA
ATOM     39  H7  UNL     1      -1.664   3.532   0.396  1.00  0.00     0.210 HD
ENDBRANCH   5  38
BRANCH   6  40
HETATM   40  O8  UNL     1       0.290   2.764   0.307  1.00  0.00    -0.390 OA
ATOM     41  H8  UNL     1       0.240   3.632   0.689  1.00  0.00     0.210 HD
ENDBRANCH   6  40
TORSDOF 16
