REMARK  6 active torsions:
REMARK  status: ('A' for Active; 'I' for Inactive)
REMARK    1  A    between atoms: S1_2  and  C2_3 
REMARK    2  A    between atoms: C4_11  and  C5_12 
REMARK    3  A    between atoms: C5_12  and  O3_14 
REMARK    4  A    between atoms: O3_14  and  C6_15 
REMARK    5  A    between atoms: C7_18  and  N4_19 
REMARK    6  A    between atoms: C8_24  and  N6_25 
REMARK       I    between atoms: N6_25  and  C9_27 
REMARK       I    between atoms: C9_27  and  N7_28 
REMARK       I    between atoms: C9_27  and  N8_32 
ROOT
HETATM    1  C6  UNL     1      -0.385  -0.696  -0.469  1.00  0.00     0.260 A 
HETATM    2  N3  UNL     1      -1.090  -1.716  -0.980  1.00  0.00    -0.154 N 
ATOM      3  H3  UNL     1      -0.602  -2.500  -1.413  1.00  0.00     0.188 HD
HETATM    4  C7  UNL     1      -2.432  -1.715  -0.927  1.00  0.00     0.693 A 
HETATM    5  N5  UNL     1      -3.093  -0.697  -0.363  1.00  0.00    -0.022 N 
ATOM      6  H5  UNL     1      -4.112  -0.708  -0.328  1.00  0.00     0.203 HD
HETATM    7  C8  UNL     1      -2.417   0.336   0.156  1.00  0.00     0.698 A 
HETATM    8  N9  UNL     1      -1.076   0.314   0.092  1.00  0.00    -0.153 N 
ATOM      9  H9  UNL     1      -0.557   1.099   0.487  1.00  0.00     0.188 HD
ENDROOT
BRANCH   1  10
HETATM   10  O3  UNL     1       1.017  -0.695  -0.523  1.00  0.00    -0.239 OA
BRANCH  10  11
HETATM   11  C5  UNL     1       1.761  -1.260   0.521  1.00  0.00     0.327 C 
HETATM   12  O2  UNL     1       1.098  -1.745   1.465  1.00  0.00    -0.256 OA
BRANCH  11  13
HETATM   13  C4  UNL     1       3.210  -1.284   0.513  1.00  0.00     0.188 A 
HETATM   14  C2  UNL     1       4.063  -0.801  -0.433  1.00  0.00     0.113 A 
HETATM   15  N1  UNL     1       5.349  -1.032  -0.041  1.00  0.00    -0.314 N 
HETATM   16  C3  UNL     1       5.233  -1.659   1.151  1.00  0.00     0.223 A 
ATOM     17  H1  UNL     1       6.206  -0.787  -0.536  1.00  0.00     0.170 HD
HETATM   18  N2  UNL     1       6.186  -2.080   1.915  1.00  0.00    -0.365 N 
HETATM   19  O1  UNL     1       3.952  -1.798   1.462  1.00  0.00    -0.270 OA
ATOM     20  H22 UNL     1       7.172  -1.973   1.676  1.00  0.00     0.159 HD
ATOM     21  H21 UNL     1       6.098  -2.553   2.814  1.00  0.00     0.159 HD
BRANCH  14  22
HETATM   22  S1  UNL     1       3.572  -0.000  -1.934  1.00  0.00    -0.114 SA
HETATM   23  C1  UNL     1       3.438   1.766  -1.642  1.00  0.00     0.097 C 
ENDBRANCH  14  22
ENDBRANCH  11  13
ENDBRANCH  10  11
ENDBRANCH   1  10
BRANCH   4  24
HETATM   24  N4  UNL     1      -3.104  -2.710  -1.426  1.00  0.00    -0.234 N 
ATOM     25  H42 UNL     1      -2.600  -3.486  -1.856  1.00  0.00     0.174 HD
ATOM     26  H41 UNL     1      -4.123  -2.709  -1.386  1.00  0.00     0.174 HD
ENDBRANCH   4  24
BRANCH   7  27
HETATM   27  N6  UNL     1      -3.001   1.322   0.699  1.00  0.00    -0.173 N 
HETATM   28  C9  UNL     1      -4.403   1.512   0.854  1.00  0.00     0.494 C 
HETATM   29  N7  UNL     1      -4.730   2.384   1.970  1.00  0.00    -0.032 N 
HETATM   30  N8  UNL     1      -5.091   1.970  -0.308  1.00  0.00    -0.032 N 
ATOM     31  H73 UNL     1      -4.309   2.045   2.835  1.00  0.00     0.278 HD
ATOM     32  H72 UNL     1      -4.246   3.278   1.890  1.00  0.00     0.278 HD
ATOM     33  H71 UNL     1      -5.735   2.520   2.081  1.00  0.00     0.278 HD
ATOM     34  H83 UNL     1      -4.659   2.826  -0.656  1.00  0.00     0.278 HD
ATOM     35  H82 UNL     1      -4.908   1.344  -1.092  1.00  0.00     0.278 HD
ATOM     36  H81 UNL     1      -6.096   2.106  -0.197  1.00  0.00     0.278 HD
ATOM     37  H6  UNL     1      -2.400   2.060   1.065  1.00  0.00     0.181 HD
ENDBRANCH   7  27
TORSDOF 6
