REMARK  3 active torsions:
REMARK  status: ('A' for Active; 'I' for Inactive)
REMARK    1  A    between atoms: C5_12  and  C15_25 
REMARK    2  A    between atoms: C10_18  and  C11_19 
REMARK    3  A    between atoms: C11_19  and  O1_20 
ROOT
HETATM    1  C1  UNL     1       0.851   3.530   0.927  1.00  0.00     0.022 C 
HETATM    2  C2  UNL     1       0.379   2.118   1.020  1.00  0.00     0.058 C 
HETATM    3  S1  UNL     1      -1.474   2.086   1.332  1.00  0.00    -0.111 SA
HETATM    4  C3  UNL     1      -1.783   0.357   0.799  1.00  0.00     0.058 C 
HETATM    5  N1  UNL     1      -2.109  -0.409   1.774  1.00  0.00    -0.334 N 
ATOM      6  H1  UNL     1      -2.176  -0.006   2.709  1.00  0.00     0.168 HD
HETATM    7  C4  UNL     1      -2.387  -1.821   1.608  1.00  0.00     0.138 C 
HETATM    8  N2  UNL     1      -3.449  -2.261   2.128  1.00  0.00    -0.380 N 
ATOM      9  H21 UNL     1      -3.645  -3.255   2.011  1.00  0.00     0.158 HD
ATOM     10  H22 UNL     1      -4.063  -1.608   2.615  1.00  0.00     0.158 HD
HETATM   11  S2  UNL     1      -1.289  -2.988   0.738  1.00  0.00    -0.089 SA
HETATM   12  C5  UNL     1      -0.245  -1.904  -0.334  1.00  0.00     0.063 C 
HETATM   13  C6  UNL     1      -1.216  -1.131  -1.148  1.00  0.00     0.033 C 
HETATM   14  C7  UNL     1      -1.581   0.209  -0.659  1.00  0.00     0.023 C 
HETATM   15  C8  UNL     1      -2.900   0.605  -1.311  1.00  0.00     0.024 C 
HETATM   16  C9  UNL     1      -0.570   1.231  -1.124  1.00  0.00     0.105 C 
HETATM   17 CL1  UNL     1      -0.082   0.948  -2.788  1.00  0.00    -0.123 Cl
HETATM   18  C10 UNL     1       0.634   1.299  -0.232  1.00  0.00     0.054 C 
ENDROOT
BRANCH  12  19
HETATM   19  C15 UNL     1       0.654  -1.145   0.547  1.00  0.00     0.035 C 
HETATM   20  C11 UNL     1       1.336   0.062   0.060  1.00  0.00     0.069 C 
HETATM   21  C12 UNL     1       2.160  -0.491  -1.099  1.00  0.00     0.038 C 
HETATM   22  C13 UNL     1       2.867  -1.610  -0.359  1.00  0.00     0.004 C 
HETATM   23  C14 UNL     1       1.905  -2.052   0.722  1.00  0.00     0.009 C 
BRANCH  20  24
HETATM   24  O1  UNL     1       2.317   0.388   1.041  1.00  0.00    -0.389 OA
ATOM     25  H1  UNL     1       2.776  -0.421   1.232  1.00  0.00     0.210 HD
ENDBRANCH  20  24
ENDBRANCH  12  19
TORSDOF 3
