REMARK  3 active torsions:
REMARK  status: ('A' for Active; 'I' for Inactive)
REMARK    1  A    between atoms: C3_3  and  O1_4 
REMARK    2  A    between atoms: C7_10  and  C8_11 
REMARK    3  A    between atoms: C8_11  and  O3_14 
ROOT
HETATM    1  C1  UNL     1       3.114   0.589   0.903  1.00  0.00     0.016 C 
HETATM    2  C2  UNL     1       2.443  -0.049  -0.304  1.00  0.00     0.058 C 
HETATM    3  C3  UNL     1       1.864  -1.366  -0.080  1.00  0.00     0.159 C 
HETATM    4  C4  UNL     1       0.811  -1.649   0.887  1.00  0.00     0.083 C 
HETATM    5  C5  UNL     1       1.221  -1.355   2.343  1.00  0.00     0.048 C 
HETATM    6  C6  UNL     1       0.762  -3.207   0.968  1.00  0.00     0.048 C 
HETATM    7  O2  UNL     1      -0.443  -1.301   0.751  1.00  0.00    -0.339 OA
HETATM    8  C7  UNL     1      -1.082  -0.577  -0.120  1.00  0.00     0.201 C 
HETATM    9  C11 UNL     1      -1.908   0.475   0.640  1.00  0.00     0.109 C 
HETATM   10  C12 UNL     1      -1.213   1.782   0.797  1.00  0.00     0.062 C 
HETATM   11  C13 UNL     1      -1.122   2.071   2.306  1.00  0.00     0.046 C 
HETATM   12  C14 UNL     1      -2.081   2.928   0.277  1.00  0.00     0.046 C 
HETATM   13  O4  UNL     1       0.053   1.789   0.317  1.00  0.00    -0.342 OA
HETATM   14  C15 UNL     1       0.271   1.167  -0.896  1.00  0.00     0.201 C 
HETATM   15  C16 UNL     1      -0.147   2.209  -1.955  1.00  0.00     0.083 C 
HETATM   16  O5  UNL     1      -0.442   0.050  -1.138  1.00  0.00    -0.313 OA
HETATM   17  C17 UNL     1       1.711   0.931  -1.144  1.00  0.00     0.161 C 
HETATM   18  C18 UNL     1       2.409   2.293  -1.008  1.00  0.00     0.058 C 
HETATM   19  F1  UNL     1       1.827   0.589  -2.504  1.00  0.00    -0.237 F 
ENDROOT
BRANCH   8  20
HETATM   20  C8  UNL     1      -2.189  -1.437  -0.769  1.00  0.00     0.107 C 
HETATM   21  C9  UNL     1      -1.679  -2.673  -1.407  1.00  0.00     0.051 C 
HETATM   22  C10 UNL     1      -3.012  -0.669  -1.753  1.00  0.00     0.051 C 
BRANCH  20  23
HETATM   23  O3  UNL     1      -3.011  -1.825   0.316  1.00  0.00    -0.385 OA
ATOM     24  H3  UNL     1      -3.692  -2.354  -0.083  1.00  0.00     0.210 HD
ENDBRANCH  20  23
ENDBRANCH   8  20
BRANCH   3  25
HETATM   25  O1  UNL     1       2.946  -2.237   0.252  1.00  0.00    -0.392 OA
ATOM     26  H1  UNL     1       2.568  -3.096   0.398  1.00  0.00     0.210 HD
ENDBRANCH   3  25
TORSDOF 3
