REMARK  2 active torsions:
REMARK  status: ('A' for Active; 'I' for Inactive)
REMARK       I    between atoms: N1_12  and  C9_13 
REMARK    1  A    between atoms: C9_13  and  C10_15 
REMARK    2  A    between atoms: C10_15  and  N2_16 
REMARK       I    between atoms: N2_16  and  C11_18 
ROOT
HETATM    1  C1  UNL     1      -2.190  -1.407  -1.097  1.00  0.00     0.012 C 
HETATM    2  C2  UNL     1      -2.372  -0.361  -0.067  1.00  0.00     0.016 C 
HETATM    3  C3  UNL     1      -1.761  -0.612   1.251  1.00  0.00    -0.022 C 
HETATM    4  C4  UNL     1      -2.567  -1.699   1.962  1.00  0.00     0.017 C 
HETATM    5  C5  UNL     1      -2.028   0.716   1.964  1.00  0.00     0.013 C 
HETATM    6  C6  UNL     1      -2.014   1.766   0.860  1.00  0.00     0.028 C 
HETATM    7  C7  UNL     1      -1.828   0.992  -0.439  1.00  0.00     0.084 C 
HETATM    8  C8  UNL     1      -2.573   1.652  -1.552  1.00  0.00     0.034 C 
HETATM    9  S1  UNL     1      -0.093   0.873  -0.737  1.00  0.00     0.243 S 
HETATM   10  O1  UNL     1       0.564   2.196  -0.386  1.00  0.00    -0.205 OA
HETATM   11  O2  UNL     1       0.170   0.517  -2.169  1.00  0.00    -0.205 OA
HETATM   12  N1  UNL     1       0.534  -0.292   0.362  1.00  0.00    -0.243 N 
HETATM   13  C9  UNL     1       1.899  -0.650   0.333  1.00  0.00     0.251 C 
HETATM   14  O3  UNL     1       2.403  -1.498   1.119  1.00  0.00    -0.271 OA
HETATM   15  C12 UNL     1      -0.328  -0.899   1.309  1.00  0.00     0.154 C 
ENDROOT
BRANCH  13  16
HETATM   16  C10 UNL     1       2.802  -0.013  -0.658  1.00  0.00     0.227 C 
BRANCH  16  17
HETATM   17  N2  UNL     1       4.166  -0.525  -0.514  1.00  0.00    -0.337 N 
HETATM   18  C11 UNL     1       5.215  -0.068  -1.351  1.00  0.00     0.329 C 
HETATM   19  N3  UNL     1       6.516  -0.606  -1.158  1.00  0.00    -0.040 NA
HETATM   20  O4  UNL     1       5.019   0.800  -2.257  1.00  0.00    -0.251 OA
ATOM     21  H2  UNL     1       4.365  -1.224   0.202  1.00  0.00     0.164 HD
ENDBRANCH  16  17
ENDBRANCH  13  16
TORSDOF 2
