REMARK  9 active torsions:
REMARK  status: ('A' for Active; 'I' for Inactive)
REMARK    1  A    between atoms: N1_1  and  C1_5 
REMARK    2  A    between atoms: C1_5  and  C2_6 
REMARK    3  A    between atoms: C1_5  and  C13_30 
REMARK    4  A    between atoms: C3_11  and  C4_12 
REMARK    5  A    between atoms: C4_12  and  N4_13 
REMARK    6  A    between atoms: N5_16  and  C7_17 
REMARK    7  A    between atoms: C7_17  and  N6_18 
REMARK    8  A    between atoms: C8_19  and  O1_20 
REMARK    9  A    between atoms: C14_31  and  O3_32 
ROOT
HETATM    1  C2  UNL     1      -3.380   1.417  -0.074  1.00  0.00     0.103 A 
HETATM    2  N2  UNL     1      -3.401   1.702   1.220  1.00  0.00    -0.295 N 
ATOM      3  H2  UNL     1      -4.293   1.824   1.699  1.00  0.00     0.187 HD
HETATM    4  N3  UNL     1      -2.324   1.823   1.861  1.00  0.00    -0.292 N 
ATOM      5  H3  UNL     1      -2.345   2.041   2.857  1.00  0.00     0.187 HD
HETATM    6  C3  UNL     1      -1.157   1.666   1.239  1.00  0.00     0.106 A 
HETATM    7  S1  UNL     1      -1.686   1.326  -0.353  1.00  0.00    -0.052 SA
ENDROOT
BRANCH   1   8
HETATM    8  C1  UNL     1      -4.536   1.229  -1.009  1.00  0.00     0.284 C 
BRANCH   8   9
HETATM    9  N1  UNL     1      -5.548   2.247  -0.793  1.00  0.00    -0.065 N 
ATOM     10  H13 UNL     1      -5.852   2.276   0.180  1.00  0.00     0.275 HD
ATOM     11  H12 UNL     1      -5.157   3.187  -0.861  1.00  0.00     0.275 HD
ATOM     12  H11 UNL     1      -6.335   2.119  -1.429  1.00  0.00     0.275 HD
ENDBRANCH   8   9
BRANCH   8  13
HETATM   13  C13 UNL     1      -5.042  -0.149  -0.805  1.00  0.00     0.098 A 
HETATM   14  C14 UNL     1      -5.751  -0.568   0.285  1.00  0.00     0.158 A 
HETATM   15  N8  UNL     1      -6.176  -1.857   0.407  1.00  0.00    -0.288 N 
HETATM   16  C15 UNL     1      -5.897  -2.745  -0.561  1.00  0.00     0.329 A 
ATOM     17  H8  UNL     1      -6.704  -2.146   1.230  1.00  0.00     0.172 HD
HETATM   18  O4  UNL     1      -6.283  -3.933  -0.460  1.00  0.00    -0.247 OA
HETATM   19  N9  UNL     1      -5.204  -2.368  -1.643  1.00  0.00    -0.275 N 
HETATM   20  C16 UNL     1      -4.780  -1.099  -1.775  1.00  0.00     0.262 A 
ATOM     21  H9  UNL     1      -4.996  -3.049  -2.373  1.00  0.00     0.173 HD
HETATM   22  O5  UNL     1      -4.134  -0.834  -2.828  1.00  0.00    -0.267 OA
BRANCH  14  23
HETATM   23  O3  UNL     1      -6.051   0.316   1.287  1.00  0.00    -0.345 OA
ATOM     24  H3  UNL     1      -6.544   0.025   2.045  1.00  0.00     0.219 HD
ENDBRANCH  14  23
ENDBRANCH   8  13
ENDBRANCH   1   8
BRANCH   6  25
HETATM   25  C4  UNL     1       0.205   1.783   1.854  1.00  0.00     0.128 C 
BRANCH  25  26
HETATM   26  N4  UNL     1       1.201   1.212   1.049  1.00  0.00    -0.364 N 
HETATM   27  C5  UNL     1       1.147  -0.162   0.744  1.00  0.00     0.083 C 
HETATM   28  C6  UNL     1       2.447  -0.720   0.207  1.00  0.00     0.163 C 
HETATM   29  N5  UNL     1       3.138   0.197  -0.638  1.00  0.00    -0.390 N 
HETATM   30  C11 UNL     1       3.231   1.535  -0.125  1.00  0.00     0.139 C 
HETATM   31  C12 UNL     1       1.786   2.032   0.051  1.00  0.00     0.147 C 
BRANCH  29  32
HETATM   32  C7  UNL     1       4.315  -0.297  -1.263  1.00  0.00     0.256 C 
BRANCH  32  33
HETATM   33  N6  UNL     1       5.345  -0.746  -0.347  1.00  0.00    -0.262 N 
HETATM   34  C8  UNL     1       5.494  -1.989   0.143  1.00  0.00     0.163 A 
HETATM   35  C9  UNL     1       6.587  -2.050   0.990  1.00  0.00     0.149 A 
HETATM   36  N7  UNL     1       7.097  -0.808   1.000  1.00  0.00    -0.314 N 
HETATM   37  C10 UNL     1       6.356  -0.028   0.202  1.00  0.00     0.329 A 
ATOM     38  H7  UNL     1       7.916  -0.507   1.529  1.00  0.00     0.170 HD
HETATM   39  O2  UNL     1       6.535   1.178  -0.028  1.00  0.00    -0.246 OA
BRANCH  34  40
HETATM   40  O1  UNL     1       4.693  -3.108  -0.126  1.00  0.00    -0.345 OA
ATOM     41  H1  UNL     1       4.798  -3.986   0.220  1.00  0.00     0.219 HD
ENDBRANCH  34  40
ENDBRANCH  32  33
ENDBRANCH  29  32
ENDBRANCH  25  26
ENDBRANCH   6  25
TORSDOF 9
