REMARK  6 active torsions:
REMARK  status: ('A' for Active; 'I' for Inactive)
REMARK    1  A    between atoms: C2_7  and  C3_8 
REMARK    2  A    between atoms: C3_8  and  N3_9 
REMARK    3  A    between atoms: N3_9  and  C4_10 
REMARK    4  A    between atoms: N3_9  and  C10_20 
REMARK    5  A    between atoms: C4_10  and  C5_11 
REMARK       I    between atoms: C5_11  and  N4_13 
REMARK    6  A    between atoms: C10_20  and  C11_21 
ROOT
HETATM    1  N3  UNL     1      -0.695   0.538  -0.500  1.00  0.00    -0.341 N 
ENDROOT
BRANCH   1   2
HETATM    2  C3  UNL     1      -0.841   1.655   0.314  1.00  0.00     0.096 C 
BRANCH   2   3
HETATM    3  C2  UNL     1      -2.187   2.336   0.365  1.00  0.00     0.148 C 
HETATM    4  N2  UNL     1      -2.080   3.454   1.319  1.00  0.00    -0.345 N 
HETATM    5  C1  UNL     1      -2.806   4.534   0.764  1.00  0.00     0.213 C 
ATOM      6  H2  UNL     1      -1.579   3.450   2.208  1.00  0.00     0.163 HD
HETATM    7  N1  UNL     1      -3.166   5.634   1.355  1.00  0.00    -0.365 N 
HETATM    8  O3  UNL     1      -3.099   4.257  -0.553  1.00  0.00    -0.320 OA
ATOM      9  H12 UNL     1      -2.949   5.839   2.330  1.00  0.00     0.159 HD
ATOM     10  H11 UNL     1      -3.689   6.413   0.955  1.00  0.00     0.159 HD
HETATM   11  C15 UNL     1      -2.495   3.044  -0.935  1.00  0.00     0.209 C 
ENDBRANCH   2   3
ENDBRANCH   1   2
BRANCH   1  12
HETATM   12  C4  UNL     1       0.605   0.088  -0.777  1.00  0.00     0.169 C 
BRANCH  12  13
HETATM   13  C5  UNL     1       1.461  -0.394   0.288  1.00  0.00     0.259 C 
HETATM   14  O1  UNL     1       1.101  -0.379   1.480  1.00  0.00    -0.267 OA
HETATM   15  N4  UNL     1       2.744  -0.895  -0.036  1.00  0.00    -0.344 N 
HETATM   16  C6  UNL     1       3.295  -0.964  -1.377  1.00  0.00     0.145 C 
HETATM   17  C9  UNL     1       3.654  -1.415   0.994  1.00  0.00     0.145 C 
HETATM   18  C7  UNL     1       4.801  -1.033  -1.269  1.00  0.00     0.133 C 
HETATM   19  N5  UNL     1       5.359  -0.217  -0.242  1.00  0.00    -0.418 N 
HETATM   20  C8  UNL     1       4.771  -0.375   1.062  1.00  0.00     0.133 C 
ATOM     21  H5  UNL     1       6.123   0.435  -0.419  1.00  0.00     0.153 HD
ENDBRANCH  12  13
ENDBRANCH   1  12
BRANCH   1  22
HETATM   22  C10 UNL     1      -1.793  -0.221  -0.929  1.00  0.00     0.100 C 
BRANCH  22  23
HETATM   23  C11 UNL     1      -2.510  -1.093   0.065  1.00  0.00     0.160 C 
HETATM   24  C12 UNL     1      -1.602  -2.286   0.325  1.00  0.00     0.039 C 
HETATM   25  C13 UNL     1      -2.478  -3.500   0.154  1.00  0.00     0.029 C 
HETATM   26  C14 UNL     1      -3.853  -2.861   0.096  1.00  0.00     0.168 C 
HETATM   27  O2  UNL     1      -3.638  -1.648  -0.561  1.00  0.00    -0.381 OA
ENDBRANCH  22  23
ENDBRANCH   1  22
TORSDOF 6
