REMARK  4 active torsions:
REMARK  status: ('A' for Active; 'I' for Inactive)
REMARK    1  A    between atoms: C3_4  and  C4_5 
REMARK    2  A    between atoms: C7_10  and  N3_11 
REMARK    3  A    between atoms: C9_18  and  S1_19 
REMARK    4  A    between atoms: S1_19  and  C10_20 
ROOT
HETATM    1  N1  UNL     1      -4.047  -1.666   2.980  1.00  0.00    -0.191 NA
HETATM    2  C1  UNL     1      -3.205  -1.235   2.313  1.00  0.00     0.104 C 
HETATM    3  C2  UNL     1      -2.166  -0.683   1.466  1.00  0.00     0.102 A 
HETATM    4  C3  UNL     1      -2.551  -0.059   0.299  1.00  0.00     0.043 A 
HETATM    5  C8  UNL     1      -1.543   0.473  -0.516  1.00  0.00     0.094 A 
HETATM    6  N5  UNL     1      -1.865   1.131  -1.734  1.00  0.00    -0.098 NA
HETATM    7  C9  UNL     1      -0.215   0.376  -0.163  1.00  0.00     0.103 A 
HETATM    8  N7  UNL     1       0.108  -0.244   0.988  1.00  0.00    -0.334 N 
ATOM      9  H7  UNL     1       1.090  -0.319   1.254  1.00  0.00     0.168 HD
HETATM   10  C19 UNL     1      -0.839  -0.771   1.801  1.00  0.00     0.121 A 
HETATM   11  N8  UNL     1      -0.505  -1.355   2.890  1.00  0.00    -0.384 N 
ATOM     12  H81 UNL     1       0.482  -1.420   3.139  1.00  0.00     0.157 HD
ATOM     13  H82 UNL     1      -1.218  -1.752   3.502  1.00  0.00     0.157 HD
ENDROOT
BRANCH   4  14
HETATM   14  C4  UNL     1      -3.949   0.061  -0.103  1.00  0.00     0.064 A 
HETATM   15  C5  UNL     1      -4.586  -0.884  -0.872  1.00  0.00     0.048 A 
HETATM   16  C6  UNL     1      -5.896  -0.685  -1.199  1.00  0.00     0.108 A 
HETATM   17  N2  UNL     1      -6.575   0.398  -0.795  1.00  0.00    -0.202 N 
HETATM   18  C7  UNL     1      -5.937   1.304  -0.048  1.00  0.00     0.676 A 
ATOM     19  H2  UNL     1      -7.554   0.527  -1.051  1.00  0.00     0.183 HD
HETATM   20  N4  UNL     1      -4.629   1.141   0.299  1.00  0.00    -0.191 N 
ATOM     21  H4  UNL     1      -4.165   1.848   0.870  1.00  0.00     0.184 HD
BRANCH  18  22
HETATM   22  N3  UNL     1      -6.545   2.372   0.372  1.00  0.00    -0.234 N 
ATOM     23  H32 UNL     1      -7.524   2.494   0.112  1.00  0.00     0.174 HD
ATOM     24  H31 UNL     1      -6.058   3.064   0.942  1.00  0.00     0.174 HD
ENDBRANCH  18  22
ENDBRANCH   4  14
BRANCH   7  25
HETATM   25  S1  UNL     1       1.015   1.075  -1.247  1.00  0.00    -0.053 SA
BRANCH  25  26
HETATM   26  C10 UNL     1       2.657   0.863  -0.647  1.00  0.00     0.076 A 
HETATM   27  C11 UNL     1       3.280   1.779   0.171  1.00  0.00     0.038 A 
HETATM   28  C12 UNL     1       4.573   1.570   0.618  1.00  0.00     0.016 A 
HETATM   29  C13 UNL     1       5.216   0.420   0.220  1.00  0.00    -0.009 A 
HETATM   30  C14 UNL     1       6.512   0.123   0.616  1.00  0.00     0.013 A 
HETATM   31  C18 UNL     1       4.582  -0.499  -0.606  1.00  0.00     0.043 A 
HETATM   32  C15 UNL     1       7.130  -1.038   0.200  1.00  0.00     0.001 A 
HETATM   33  C16 UNL     1       6.498  -1.944  -0.616  1.00  0.00     0.002 A 
HETATM   34  C17 UNL     1       5.214  -1.665  -1.018  1.00  0.00     0.030 A 
HETATM   35  N6  UNL     1       3.338  -0.236  -0.999  1.00  0.00    -0.350 N 
ATOM     36  H6  UNL     1       2.874  -0.913  -1.605  1.00  0.00     0.166 HD
ENDBRANCH  25  26
ENDBRANCH   7  25
TORSDOF 4
