REMARK  2 active torsions:
REMARK  status: ('A' for Active; 'I' for Inactive)
REMARK    1  A    between atoms: N1_9  and  C8_11 
REMARK    2  A    between atoms: C8_11  and  C9_12 
ROOT
HETATM    1  C1  UNL     1       0.355   1.922   1.139  1.00  0.00     0.075 C 
HETATM    2  C2  UNL     1      -0.108   1.350  -0.152  1.00  0.00     0.259 C 
HETATM    3 CL1  UNL     1      -0.021   2.603  -1.412  1.00  0.00    -0.078 Cl
HETATM    4  C3  UNL     1      -1.559   0.891  -0.088  1.00  0.00     0.049 C 
HETATM    5  C4  UNL     1      -1.728  -0.233   0.902  1.00  0.00     0.011 C 
HETATM    6  C5  UNL     1      -1.064  -1.459   0.261  1.00  0.00     0.043 C 
HETATM    7  C6  UNL     1      -0.400  -0.828  -0.947  1.00  0.00     0.258 C 
HETATM    8  C7  UNL     1      -1.552   0.091  -1.403  1.00  0.00     0.051 C 
HETATM    9  N1  UNL     1       0.580   0.158  -0.560  1.00  0.00     0.042 N 
HETATM   10  O1  UNL     1       1.293   0.461  -1.694  1.00  0.00    -0.062 OA
ENDROOT
BRANCH   9  11
HETATM   11  C8  UNL     1       1.527  -0.333   0.399  1.00  0.00     0.330 C 
BRANCH  11  12
HETATM   12  C9  UNL     1       2.329  -1.447  -0.251  1.00  0.00     0.151 C 
HETATM   13 CL2  UNL     1       3.491  -2.027   0.973  1.00  0.00    -0.128 Cl
ENDBRANCH  11  12
ENDBRANCH   9  11
TORSDOF 2
