REMARK  2 active torsions:
REMARK  status: ('A' for Active; 'I' for Inactive)
REMARK    1  A    between atoms: N1_1  and  C1_5 
REMARK    2  A    between atoms: C1_5  and  C2_6 
REMARK       I    between atoms: C2_6  and  N2_8 
ROOT
HETATM    1  C2  UNL     1       1.949   1.015   0.069  1.00  0.00     0.247 C 
HETATM    2  O1  UNL     1       2.234   1.814  -0.852  1.00  0.00    -0.271 OA
HETATM    3  N2  UNL     1       0.637   0.984   0.576  1.00  0.00    -0.321 N 
ATOM      4  H2  UNL     1       0.459   1.547   1.408  1.00  0.00     0.169 HD
HETATM    5  C3  UNL     1      -0.353   0.331   0.112  1.00  0.00     0.108 A 
HETATM    6  C4  UNL     1      -1.566   0.465   0.798  1.00  0.00     0.082 A 
HETATM    7  C5  UNL     1      -2.649  -0.231   0.317  1.00  0.00     0.133 A 
HETATM    8  N3  UNL     1      -3.933  -0.143   0.971  1.00  0.00    -0.081 NA
HETATM    9  N4  UNL     1      -2.498  -0.997  -0.776  1.00  0.00    -0.285 N 
ATOM     10  H4  UNL     1      -3.308  -1.509  -1.126  1.00  0.00     0.188 HD
HETATM   11  N5  UNL     1      -1.351  -1.118  -1.418  1.00  0.00    -0.263 N 
ATOM     12  H5  UNL     1      -1.302  -1.716  -2.243  1.00  0.00     0.190 HD
HETATM   13  C6  UNL     1      -0.234  -0.463  -1.004  1.00  0.00     0.286 A 
HETATM   14  O2  UNL     1       0.854  -0.585  -1.623  1.00  0.00    -0.264 OA
ENDROOT
BRANCH   1  15
HETATM   15  C1  UNL     1       2.967   0.106   0.634  1.00  0.00     0.332 C 
BRANCH  15  16
HETATM   16  N1  UNL     1       4.264   0.287  -0.022  1.00  0.00    -0.071 N 
ATOM     17  H13 UNL     1       4.190   0.183  -1.034  1.00  0.00     0.274 HD
ATOM     18  H12 UNL     1       4.569   1.260   0.014  1.00  0.00     0.274 HD
ATOM     19  H11 UNL     1       4.967  -0.341   0.368  1.00  0.00     0.274 HD
ENDBRANCH  15  16
ENDBRANCH   1  15
TORSDOF 2
