REMARK  13 active torsions:
REMARK  status: ('A' for Active; 'I' for Inactive)
REMARK    1  A    between atoms: C6_6  and  N1_7 
REMARK    2  A    between atoms: N1_7  and  C7_9 
REMARK    3  A    between atoms: C13_21  and  C14_22 
REMARK       I    between atoms: C14_22  and  N5_24 
REMARK    4  A    between atoms: N5_24  and  C15_26 
REMARK    5  A    between atoms: C15_26  and  C16_27 
REMARK    6  A    between atoms: C16_27  and  N6_28 
REMARK    7  A    between atoms: N7_31  and  C19_32 
REMARK    8  A    between atoms: C19_32  and  C20_33 
REMARK    9  A    between atoms: C20_33  and  C21_34 
REMARK   10  A    between atoms: C21_34  and  C22_35 
REMARK   11  A    between atoms: C22_35  and  C23_36 
REMARK   12  A    between atoms: C23_36  and  C24_37 
REMARK   13  A    between atoms: C24_37  and  O3_38 
ROOT
HETATM    1  C7  UNL     1      -4.344   1.542   0.556  1.00  0.00     0.120 A 
HETATM    2  N2  UNL     1      -5.621   1.905   0.381  1.00  0.00    -0.338 N 
ATOM      3  H2  UNL     1      -6.176   1.468  -0.355  1.00  0.00     0.168 HD
HETATM    4  C8  UNL     1      -6.171   2.836   1.165  1.00  0.00     0.182 A 
HETATM    5  N3  UNL     1      -5.482   3.436   2.144  1.00  0.00    -0.347 N 
ATOM      6  H3  UNL     1      -5.931   4.143   2.726  1.00  0.00     0.167 HD
HETATM    7  C9  UNL     1      -4.214   3.109   2.356  1.00  0.00     0.117 A 
HETATM    8  C10 UNL     1      -3.470   3.746   3.353  1.00  0.00     0.275 A 
HETATM    9  O1  UNL     1      -4.044   4.621   4.063  1.00  0.00    -0.265 OA
HETATM   10  N4  UNL     1      -2.186   3.430   3.543  1.00  0.00    -0.326 N 
HETATM   11  C11 UNL     1      -1.388   4.083   4.582  1.00  0.00     0.159 C 
HETATM   12  C12 UNL     1      -1.570   2.505   2.800  1.00  0.00     0.112 A 
HETATM   13  C13 UNL     1      -2.284   1.839   1.785  1.00  0.00     0.064 A 
HETATM   14  C27 UNL     1      -3.602   2.129   1.548  1.00  0.00     0.057 A 
ENDROOT
BRANCH  13  15
HETATM   15  C14 UNL     1      -1.578   0.755   1.080  1.00  0.00     0.258 C 
HETATM   16  O2  UNL     1      -0.789   1.133   0.206  1.00  0.00    -0.267 OA
HETATM   17  N5  UNL     1      -1.782  -0.598   1.396  1.00  0.00    -0.332 N 
ATOM     18  H5  UNL     1      -2.473  -0.768   2.126  1.00  0.00     0.168 HD
BRANCH  17  19
HETATM   19  C15 UNL     1      -1.184  -1.757   0.865  1.00  0.00     0.108 C 
BRANCH  19  20
HETATM   20  C16 UNL     1       0.272  -1.962   1.007  1.00  0.00     0.102 C 
BRANCH  20  21
HETATM   21  N6  UNL     1       1.189  -1.113   0.359  1.00  0.00    -0.385 N 
HETATM   22  C17 UNL     1       1.322  -1.256  -1.053  1.00  0.00     0.152 C 
HETATM   23  C18 UNL     1       2.593  -1.866  -1.535  1.00  0.00     0.292 C 
HETATM   24  N7  UNL     1       3.771  -1.408  -0.840  1.00  0.00     0.091 N 
HETATM   25  C25 UNL     1       3.575  -1.691   0.560  1.00  0.00     0.292 C 
HETATM   26  C26 UNL     1       2.374  -0.930   1.115  1.00  0.00     0.152 C 
BRANCH  24  27
HETATM   27  C19 UNL     1       3.984   0.004  -1.050  1.00  0.00     0.272 C 
BRANCH  27  28
HETATM   28  C20 UNL     1       5.205   0.489  -0.302  1.00  0.00     0.030 C 
BRANCH  28  29
HETATM   29  C21 UNL     1       6.468  -0.248  -0.763  1.00  0.00     0.002 C 
BRANCH  29  30
HETATM   30  C22 UNL     1       7.601   0.317   0.051  1.00  0.00     0.002 C 
BRANCH  30  31
HETATM   31  C23 UNL     1       8.880  -0.362  -0.347  1.00  0.00     0.026 C 
BRANCH  31  32
HETATM   32  C24 UNL     1       8.799  -1.850  -0.102  1.00  0.00     0.164 C 
BRANCH  32  33
HETATM   33  O3  UNL     1       8.565  -2.099   1.248  1.00  0.00    -0.401 OA
ATOM     34  H3  UNL     1       8.514  -3.035   1.402  1.00  0.00     0.209 HD
ENDBRANCH  32  33
ENDBRANCH  31  32
ENDBRANCH  30  31
ENDBRANCH  29  30
ENDBRANCH  28  29
ENDBRANCH  27  28
ENDBRANCH  24  27
ENDBRANCH  20  21
ENDBRANCH  19  20
ENDBRANCH  17  19
ENDBRANCH  13  15
BRANCH   1  35
HETATM   35  N1  UNL     1      -3.779   0.689  -0.209  1.00  0.00    -0.341 N 
ATOM     36  H1  UNL     1      -2.804   0.470  -0.003  1.00  0.00     0.167 HD
BRANCH  35  37
HETATM   37  C6  UNL     1      -4.349   0.022  -1.298  1.00  0.00     0.045 A 
HETATM   38  C4  UNL     1      -5.172  -1.062  -1.135  1.00  0.00    -0.034 A 
HETATM   39  C3  UNL     1      -5.708  -1.677  -2.269  1.00  0.00     0.015 A 
HETATM   40  C5  UNL     1      -5.460  -1.539   0.216  1.00  0.00     0.050 C 
HETATM   41  C2  UNL     1      -5.438  -1.230  -3.551  1.00  0.00    -0.061 A 
HETATM   42  C1  UNL     1      -6.062  -1.958  -4.674  1.00  0.00     0.048 C 
HETATM   43  C30 UNL     1      -4.608  -0.136  -3.701  1.00  0.00     0.015 A 
HETATM   44  C28 UNL     1      -4.069   0.484  -2.584  1.00  0.00    -0.034 A 
HETATM   45  C29 UNL     1      -3.181   1.656  -2.797  1.00  0.00     0.050 C 
ENDBRANCH  35  37
ENDBRANCH   1  35
TORSDOF 13
