REMARK  12 active torsions:
REMARK  status: ('A' for Active; 'I' for Inactive)
REMARK    1  A    between atoms: C2_2  and  C3_3 
REMARK    2  A    between atoms: C5_7  and  N2_8 
REMARK    3  A    between atoms: N2_8  and  C6_10 
REMARK    4  A    between atoms: C7_13  and  N4_14 
REMARK    5  A    between atoms: N4_14  and  C8_16 
REMARK    6  A    between atoms: C8_16  and  C9_17 
REMARK    7  A    between atoms: C9_17  and  O1_18 
REMARK    8  A    between atoms: C12_22  and  C13_23 
REMARK       I    between atoms: C13_23  and  N5_25 
REMARK    9  A    between atoms: C21_35  and  N7_36 
REMARK       I    between atoms: N7_36  and  C22_38 
REMARK   10  A    between atoms: C22_38  and  C23_40 
REMARK   11  A    between atoms: C24_41  and  C25_42 
REMARK   12  A    between atoms: C25_42  and  N8_43 
ROOT
HETATM    1  C6  UNL     1      -0.746   2.373  -0.245  1.00  0.00     0.684 A 
HETATM    2  N3  UNL     1      -1.262   3.094  -1.246  1.00  0.00    -0.175 N 
ATOM      3  H3  UNL     1      -0.844   3.974  -1.548  1.00  0.00     0.186 HD
HETATM    4  C7  UNL     1      -2.391   2.580  -1.847  1.00  0.00     0.136 A 
HETATM    5  C11 UNL     1      -2.921   1.366  -1.390  1.00  0.00     0.077 A 
HETATM    6  S1  UNL     1      -4.258   0.409  -1.830  1.00  0.00    -0.079 SA
HETATM    7  C12 UNL     1      -4.083  -0.887  -0.688  1.00  0.00     0.075 A 
HETATM    8  C18 UNL     1      -2.969  -0.501  -0.008  1.00  0.00     0.056 A 
HETATM    9  C19 UNL     1      -2.370   0.654  -0.365  1.00  0.00     0.071 A 
HETATM   10  N6  UNL     1      -1.249   1.217   0.191  1.00  0.00    -0.190 N 
ATOM     11  H6  UNL     1      -0.786   0.736   0.962  1.00  0.00     0.184 HD
ENDROOT
BRANCH   1  12
HETATM   12  N2  UNL     1       0.338   2.855   0.340  1.00  0.00    -0.190 N 
ATOM     13  H2  UNL     1       0.727   3.739   0.010  1.00  0.00     0.184 HD
BRANCH  12  14
HETATM   14  C5  UNL     1       0.981   2.175   1.420  1.00  0.00     0.066 A 
HETATM   15  C4  UNL     1       0.541   2.277   2.716  1.00  0.00     0.118 A 
HETATM   16  N1  UNL     1       1.175   1.626   3.698  1.00  0.00    -0.365 N 
HETATM   17  C3  UNL     1       2.251   0.855   3.486  1.00  0.00     0.035 A 
ATOM     18  H1  UNL     1       0.824   1.721   4.651  1.00  0.00     0.165 HD
HETATM   19  C21 UNL     1       2.733   0.725   2.166  1.00  0.00     0.059 A 
HETATM   20  C20 UNL     1       2.093   1.387   1.139  1.00  0.00     0.063 A 
BRANCH  17  21
HETATM   21  C2  UNL     1       2.917   0.150   4.620  1.00  0.00     0.055 C 
HETATM   22  C1  UNL     1       2.525  -1.300   4.572  1.00  0.00     0.011 C 
ENDBRANCH  17  21
BRANCH  19  23
HETATM   23  N7  UNL     1       3.852  -0.077   1.996  1.00  0.00    -0.322 N 
HETATM   24  C22 UNL     1       4.515  -0.350   0.772  1.00  0.00     0.245 C 
HETATM   25  O3  UNL     1       4.138   0.126  -0.321  1.00  0.00    -0.268 OA
ATOM     26  H7  UNL     1       4.236  -0.514   2.834  1.00  0.00     0.169 HD
BRANCH  24  27
HETATM   27  C23 UNL     1       5.683  -1.208   0.722  1.00  0.00     0.072 C 
HETATM   28  C24 UNL     1       6.385  -1.547  -0.287  1.00  0.00     0.008 C 
BRANCH  28  29
HETATM   29  C25 UNL     1       6.297  -1.227  -1.714  1.00  0.00     0.299 C 
BRANCH  29  30
HETATM   30  N8  UNL     1       7.497  -0.551  -2.199  1.00  0.00     0.083 N 
HETATM   31  C26 UNL     1       8.649  -1.419  -2.200  1.00  0.00     0.309 C 
HETATM   32  C27 UNL     1       7.217  -0.157  -3.563  1.00  0.00     0.309 C 
ENDBRANCH  29  30
ENDBRANCH  28  29
ENDBRANCH  24  27
ENDBRANCH  19  23
ENDBRANCH  12  14
ENDBRANCH   1  12
BRANCH   4  33
HETATM   33  N4  UNL     1      -2.938   3.184  -2.785  1.00  0.00    -0.373 N 
ATOM     34  H4  UNL     1      -2.417   4.040  -2.974  1.00  0.00     0.161 HD
BRANCH  33  35
HETATM   35  C8  UNL     1      -4.000   3.106  -3.660  1.00  0.00     0.147 C 
BRANCH  35  36
HETATM   36  C9  UNL     1      -4.908   4.338  -3.438  1.00  0.00     0.186 C 
BRANCH  36  37
HETATM   37  O1  UNL     1      -5.375   4.353  -2.138  1.00  0.00    -0.394 OA
HETATM   38  C10 UNL     1      -6.199   5.441  -1.884  1.00  0.00     0.201 C 
ENDBRANCH  36  37
ENDBRANCH  35  36
ENDBRANCH  33  35
ENDBRANCH   4  33
BRANCH   7  39
HETATM   39  C13 UNL     1      -4.952  -2.061  -0.564  1.00  0.00     0.260 C 
HETATM   40  O2  UNL     1      -5.912  -2.097  -1.432  1.00  0.00    -0.267 OA
HETATM   41  N5  UNL     1      -4.858  -3.107   0.360  1.00  0.00    -0.347 N 
HETATM   42  C14 UNL     1      -3.921  -3.315   1.417  1.00  0.00     0.126 C 
HETATM   43  C17 UNL     1      -5.790  -4.263   0.386  1.00  0.00     0.126 C 
HETATM   44  C15 UNL     1      -4.355  -4.553   2.193  1.00  0.00     0.021 C 
HETATM   45  C16 UNL     1      -5.828  -4.671   1.845  1.00  0.00     0.021 C 
ENDBRANCH   7  39
TORSDOF 12
