REMARK  7 active torsions:
REMARK  status: ('A' for Active; 'I' for Inactive)
REMARK    1  A    between atoms: O1_2  and  C2_3 
REMARK    2  A    between atoms: C2_3  and  N2_7 
REMARK    3  A    between atoms: N2_7  and  C3_9 
REMARK    4  A    between atoms: C4_10  and  C5_11 
REMARK    5  A    between atoms: C6_14  and  S1_15 
REMARK    6  A    between atoms: S1_15  and  C7_16 
REMARK    7  A    between atoms: C8_20  and  N4_21 
ROOT
HETATM    1  C3  UNL     1       1.188   0.083  -0.260  1.00  0.00     0.121 C 
HETATM    2  C4  UNL     1       0.323  -0.292   0.654  1.00  0.00     0.095 C 
HETATM    3  C6  UNL     1      -0.150   1.058   0.912  1.00  0.00     0.193 C 
HETATM    4  N5  UNL     1       1.035   1.449   0.102  1.00  0.00    -0.358 N 
ATOM      5  H5  UNL     1       1.525   2.320  -0.104  1.00  0.00     0.162 HD
ENDROOT
BRANCH   3   6
HETATM    6  S1  UNL     1      -1.645   1.651   0.105  1.00  0.00    -0.079 SA
BRANCH   6   7
HETATM    7  C7  UNL     1      -2.742   0.450  -0.572  1.00  0.00     0.396 C 
HETATM    8  N3  UNL     1      -3.488  -0.419   0.297  1.00  0.00     0.013 N 
HETATM    9  C8  UNL     1      -4.486   0.616   0.275  1.00  0.00     0.528 C 
ATOM     10  H32 UNL     1      -3.702  -1.384   0.046  1.00  0.00     0.286 HD
ATOM     11  H31 UNL     1      -3.099  -0.779   1.168  1.00  0.00     0.286 HD
HETATM   12  O4  UNL     1      -3.974   1.057  -0.928  1.00  0.00    -0.296 OA
BRANCH   9  13
HETATM   13  N4  UNL     1      -5.859   0.109   0.120  1.00  0.00    -0.027 N 
ATOM     14  H43 UNL     1      -5.934  -0.481  -0.709  1.00  0.00     0.279 HD
ATOM     15  H42 UNL     1      -6.072  -0.581   0.840  1.00  0.00     0.279 HD
ATOM     16  H41 UNL     1      -6.567   0.843   0.104  1.00  0.00     0.279 HD
ENDBRANCH   9  13
ENDBRANCH   6   7
ENDBRANCH   3   6
BRANCH   2  17
HETATM   17  C5  UNL     1      -0.077  -1.607   1.129  1.00  0.00     0.212 C 
HETATM   18  O2  UNL     1       0.416  -2.664   0.641  1.00  0.00    -0.644 OA
HETATM   19  O3  UNL     1      -1.018  -1.785   2.149  1.00  0.00    -0.644 OA
ENDBRANCH   2  17
BRANCH   1  20
HETATM   20  N2  UNL     1       2.103  -0.488  -1.201  1.00  0.00    -0.308 N 
ATOM     21  H2  UNL     1       1.748  -0.861  -2.082  1.00  0.00     0.171 HD
BRANCH  20  22
HETATM   22  C2  UNL     1       3.496  -0.544  -0.930  1.00  0.00     0.218 C 
HETATM   23  N1  UNL     1       4.016  -1.669  -0.649  1.00  0.00    -0.365 N 
ATOM     24  H12 UNL     1       5.016  -1.709  -0.454  1.00  0.00     0.159 HD
ATOM     25  H11 UNL     1       3.404  -2.485  -0.631  1.00  0.00     0.159 HD
BRANCH  22  26
HETATM   26  O1  UNL     1       4.329   0.566  -0.955  1.00  0.00    -0.327 OA
HETATM   27  C1  UNL     1       5.308   0.757   0.081  1.00  0.00     0.213 C 
ENDBRANCH  22  26
ENDBRANCH  20  22
ENDBRANCH   1  20
TORSDOF 7
