REMARK  2 active torsions:
REMARK  status: ('A' for Active; 'I' for Inactive)
REMARK    1  A    between atoms: C2_2  and  C9_11 
REMARK    2  A    between atoms: N1_3  and  C3_5 
ROOT
HETATM    1  C1  UNL     1       2.795  -1.412   0.420  1.00  0.00     0.075 C 
HETATM    2  C2  UNL     1       1.981  -0.218  -0.019  1.00  0.00     0.079 C 
HETATM    3  N1  UNL     1       0.785  -0.404  -0.289  1.00  0.00    -0.383 N 
ATOM      4  H1  UNL     1       0.505  -1.378  -0.172  1.00  0.00     0.160 HD
ENDROOT
BRANCH   3   5
HETATM    5  C3  UNL     1      -0.288   0.423  -0.724  1.00  0.00     0.081 C 
HETATM    6  C4  UNL     1      -1.341  -0.420  -1.389  1.00  0.00     0.025 C 
HETATM    7  C5  UNL     1      -2.273  -1.115  -0.462  1.00  0.00     0.002 C 
HETATM    8  C6  UNL     1      -2.214  -0.584   0.956  1.00  0.00     0.000 C 
HETATM    9  C7  UNL     1      -2.209   0.926   0.817  1.00  0.00     0.002 C 
HETATM   10  C8  UNL     1      -0.814   1.286   0.387  1.00  0.00     0.025 C 
ENDBRANCH   3   5
BRANCH   2  11
HETATM   11  C9  UNL     1       2.659   1.047  -0.091  1.00  0.00     0.221 C 
HETATM   12  O1  UNL     1       2.021   2.069  -0.452  1.00  0.00    -0.643 OA
HETATM   13  O2  UNL     1       4.019   1.188   0.230  1.00  0.00    -0.643 OA
ENDBRANCH   2  11
TORSDOF 2
