REMARK  5 active torsions:
REMARK  status: ('A' for Active; 'I' for Inactive)
REMARK    1  A    between atoms: C2_2  and  N1_4 
REMARK       I    between atoms: N1_4  and  C4_6 
REMARK    2  A    between atoms: C4_6  and  C5_8 
REMARK    3  A    between atoms: C8_11  and  C9_12 
REMARK       I    between atoms: C9_12  and  N2_14 
REMARK    4  A    between atoms: N2_14  and  N3_16 
REMARK    5  A    between atoms: N3_16  and  C10_18 
ROOT
HETATM    1  C9  UNL     1      -0.236   0.662  -0.600  1.00  0.00     0.269 C 
HETATM    2  O2  UNL     1      -0.711   1.735  -0.173  1.00  0.00    -0.266 OA
HETATM    3  N2  UNL     1      -1.124  -0.328  -1.120  1.00  0.00    -0.269 N 
ATOM      4  H2  UNL     1      -0.705  -1.204  -1.432  1.00  0.00     0.190 HD
ENDROOT
BRANCH   1   5
HETATM    5  C8  UNL     1       1.194   0.408  -0.588  1.00  0.00     0.033 A 
HETATM    6  C7  UNL     1       2.043   1.468  -0.867  1.00  0.00     0.018 A 
HETATM    7  C6  UNL     1       3.396   1.270  -0.929  1.00  0.00     0.018 A 
HETATM    8  C5  UNL     1       3.916   0.012  -0.716  1.00  0.00     0.032 A 
HETATM    9  C21 UNL     1       3.049  -1.025  -0.441  1.00  0.00     0.018 A 
HETATM   10  C20 UNL     1       1.687  -0.844  -0.373  1.00  0.00     0.018 A 
BRANCH   8  11
HETATM   11  C4  UNL     1       5.344  -0.231  -0.789  1.00  0.00     0.251 C 
HETATM   12  N1  UNL     1       6.271   0.218   0.209  1.00  0.00    -0.353 N 
ATOM     13  H1  UNL     1       5.912   0.710   1.027  1.00  0.00     0.163 HD
HETATM   14  O1  UNL     1       5.762  -0.874  -1.811  1.00  0.00    -0.268 OA
BRANCH  12  15
HETATM   15  C2  UNL     1       7.684   0.001   0.099  1.00  0.00     0.076 C 
HETATM   16  C1  UNL     1       8.387   1.346  -0.123  1.00  0.00     0.032 C 
HETATM   17  C3  UNL     1       8.360  -0.702   1.215  1.00  0.00     0.032 C 
ENDBRANCH  12  15
ENDBRANCH   8  11
ENDBRANCH   1   5
BRANCH   3  18
HETATM   18  N3  UNL     1      -2.410  -0.222  -1.234  1.00  0.00    -0.324 N 
ATOM     19  H3  UNL     1      -2.684  -0.094  -2.208  1.00  0.00     0.181 HD
BRANCH  18  20
HETATM   20  C10 UNL     1      -3.508  -0.234  -0.406  1.00  0.00     0.047 C 
HETATM   21  C11 UNL     1      -4.335  -1.511  -0.665  1.00  0.00     0.037 C 
HETATM   22  C12 UNL     1      -5.629  -1.429   0.058  1.00  0.00    -0.012 C 
HETATM   23  C13 UNL     1      -5.454  -1.270   1.538  1.00  0.00     0.009 C 
HETATM   24  C17 UNL     1      -6.452  -0.247  -0.428  1.00  0.00     0.009 C 
HETATM   25  C14 UNL     1      -4.673  -0.004   1.764  1.00  0.00    -0.012 C 
HETATM   26  C15 UNL     1      -5.420   1.188   1.282  1.00  0.00     0.009 C 
HETATM   27  C19 UNL     1      -3.332  -0.175   1.078  1.00  0.00     0.037 C 
HETATM   28  C16 UNL     1      -5.674   1.043  -0.216  1.00  0.00    -0.012 C 
HETATM   29  C18 UNL     1      -4.391   0.931  -0.928  1.00  0.00     0.037 C 
ENDBRANCH  18  20
ENDBRANCH   3  18
TORSDOF 5
