REMARK  8 active torsions:
REMARK  status: ('A' for Active; 'I' for Inactive)
REMARK    1  A    between atoms: N1_1  and  N2_4 
REMARK    2  A    between atoms: N2_4  and  C1_6 
REMARK    3  A    between atoms: N4_9  and  N5_10 
REMARK    4  A    between atoms: C3_14  and  N6_15 
REMARK    5  A    between atoms: N6_15  and  N7_16 
REMARK    6  A    between atoms: N6_15  and  O1_19 
REMARK    7  A    between atoms: C4_21  and  S1_22 
REMARK    8  A    between atoms: S1_22  and  N8_23 
ROOT
HETATM    1  C1  UNL     1       2.783   0.502   0.405  1.00  0.00     0.155 A 
HETATM    2  N3  UNL     1       2.923  -0.793   0.147  1.00  0.00    -0.262 N 
ATOM      3  H3  UNL     1       3.816  -1.286   0.135  1.00  0.00     0.191 HD
HETATM    4  N4  UNL     1       1.754  -1.357  -0.092  1.00  0.00    -0.198 N 
HETATM    5  C2  UNL     1       0.760  -0.414   0.004  1.00  0.00     0.128 A 
HETATM    6  C3  UNL     1      -0.594  -0.345  -0.121  1.00  0.00     0.142 A 
HETATM    7  C4  UNL     1      -1.182   0.879   0.076  1.00  0.00     0.154 A 
HETATM    8  S2  UNL     1       0.146   1.887   0.424  1.00  0.00    -0.068 SA
HETATM    9  C5  UNL     1       1.405   0.753   0.316  1.00  0.00     0.086 A 
ENDROOT
BRANCH   6  10
HETATM   10  N6  UNL     1      -1.435  -1.502  -0.455  1.00  0.00    -0.166 N 
BRANCH  10  11
HETATM   11  N7  UNL     1      -1.900  -2.365   0.519  1.00  0.00    -0.319 N 
ATOM     12  H72 UNL     1      -1.645  -2.181   1.489  1.00  0.00     0.179 HD
ATOM     13  H71 UNL     1      -2.484  -3.168   0.287  1.00  0.00     0.179 HD
ENDBRANCH  10  11
BRANCH  10  14
HETATM   14  O1  UNL     1      -1.748  -1.728  -1.646  1.00  0.00    -0.268 OA
ATOM     15  H1  UNL     1      -2.292  -2.476  -1.862  1.00  0.00     0.247 HD
ENDBRANCH  10  14
ENDBRANCH   6  10
BRANCH   7  16
HETATM   16  S1  UNL     1      -2.905   1.275  -0.020  1.00  0.00     0.265 S 
HETATM   17  O2  UNL     1      -3.772   0.153   0.448  1.00  0.00    -0.200 OA
HETATM   18  O3  UNL     1      -3.129   2.430   0.949  1.00  0.00    -0.200 OA
BRANCH  16  19
HETATM   19  N8  UNL     1      -3.285   1.720  -1.621  1.00  0.00    -0.324 N 
ATOM     20  H82 UNL     1      -2.615   1.749  -2.390  1.00  0.00     0.169 HD
ATOM     21  H81 UNL     1      -4.278   1.948  -1.676  1.00  0.00     0.169 HD
ENDBRANCH  16  19
ENDBRANCH   7  16
BRANCH   4  22
HETATM   22  N5  UNL     1       1.615  -2.706  -0.389  1.00  0.00    -0.324 N 
ATOM     23  H52 UNL     1       2.353  -3.406  -0.460  1.00  0.00     0.179 HD
ATOM     24  H51 UNL     1       0.712  -3.142  -0.574  1.00  0.00     0.179 HD
ENDBRANCH   4  22
BRANCH   1  25
HETATM   25  N2  UNL     1       3.633   1.414   0.684  1.00  0.00    -0.290 N 
ATOM     26  H2  UNL     1       4.619   1.159   0.732  1.00  0.00     0.188 HD
BRANCH  25  27
HETATM   27  N1  UNL     1       3.281   2.732   0.925  1.00  0.00    -0.344 N 
ATOM     28  H12 UNL     1       2.290   2.969   0.873  1.00  0.00     0.176 HD
ATOM     29  H11 UNL     1       3.960   3.460   1.148  1.00  0.00     0.176 HD
ENDBRANCH  25  27
ENDBRANCH   1  25
TORSDOF 8
