REMARK  6 active torsions:
REMARK  status: ('A' for Active; 'I' for Inactive)
REMARK    1  A    between atoms: N1_2  and  C2_5 
REMARK    2  A    between atoms: C2_5  and  C3_6 
REMARK    3  A    between atoms: C3_6  and  N2_7 
REMARK    4  A    between atoms: N2_7  and  C4_9 
REMARK    5  A    between atoms: C4_9  and  C5_10 
REMARK    6  A    between atoms: C7_14  and  N4_15 
ROOT
HETATM    1  C5  UNL     1      -1.949  -0.771   0.129  1.00  0.00     0.011 A 
HETATM    2  C6  UNL     1      -2.578  -0.406   1.289  1.00  0.00     0.120 A 
HETATM    3  N3  UNL     1      -3.815   0.137   1.240  1.00  0.00    -0.201 N 
ATOM      4  H3  UNL     1      -4.284   0.409   2.104  1.00  0.00     0.183 HD
HETATM    5  C7  UNL     1      -4.431   0.321   0.061  1.00  0.00     0.675 A 
HETATM    6  N5  UNL     1      -3.825  -0.033  -1.086  1.00  0.00    -0.201 N 
ATOM      7  H5  UNL     1      -4.303   0.112  -1.975  1.00  0.00     0.183 HD
HETATM    8  C8  UNL     1      -2.580  -0.583  -1.071  1.00  0.00     0.120 A 
ENDROOT
BRANCH   1   9
HETATM    9  C4  UNL     1      -0.602  -1.363   0.185  1.00  0.00     0.097 C 
BRANCH   9  10
HETATM   10  N2  UNL     1       0.376  -0.367   0.115  1.00  0.00    -0.396 N 
ATOM     11  H2  UNL     1       0.112   0.615   0.037  1.00  0.00     0.158 HD
BRANCH  10  12
HETATM   12  C3  UNL     1       1.730  -0.744   0.154  1.00  0.00     0.146 C 
BRANCH  12  13
HETATM   13  C2  UNL     1       2.583   0.524   0.061  1.00  0.00     0.251 C 
BRANCH  13  14
HETATM   14  N1  UNL     1       3.997   0.212   0.097  1.00  0.00    -0.077 N 
HETATM   15  C1  UNL     1       4.725   1.442   0.006  1.00  0.00     0.267 C 
ATOM     16  H12 UNL     1       4.270  -0.462  -0.618  1.00  0.00     0.276 HD
ATOM     17  H11 UNL     1       4.258  -0.341   0.913  1.00  0.00     0.276 HD
ENDBRANCH  13  14
ENDBRANCH  12  13
ENDBRANCH  10  12
ENDBRANCH   9  10
ENDBRANCH   1   9
BRANCH   5  18
HETATM   18  N4  UNL     1      -5.621   0.842  -0.005  1.00  0.00    -0.234 N 
ATOM     19  H42 UNL     1      -6.081   1.111   0.865  1.00  0.00     0.174 HD
ATOM     20  H41 UNL     1      -6.089   0.982  -0.901  1.00  0.00     0.174 HD
ENDBRANCH   5  18
TORSDOF 6
