REMARK  12 active torsions:
REMARK  status: ('A' for Active; 'I' for Inactive)
REMARK    1  A    between atoms: C5_10  and  N3_11 
REMARK    2  A    between atoms: N3_11  and  C6_13 
REMARK    3  A    between atoms: C6_13  and  C7_14 
REMARK    4  A    between atoms: C7_14  and  N4_15 
REMARK    5  A    between atoms: C8_21  and  N6_22 
REMARK    6  A    between atoms: N6_22  and  C9_24 
REMARK    7  A    between atoms: C9_24  and  C10_25 
REMARK    8  A    between atoms: C10_25  and  C11_26 
REMARK    9  A    between atoms: C11_26  and  C12_27 
REMARK   10  A    between atoms: C12_27  and  N7_28 
REMARK   11  A    between atoms: N7_28  and  C13_30 
REMARK   12  A    between atoms: C14_35  and  N10_36 
ROOT
HETATM    1  C1  UNL     1      -2.612  -2.770  -2.277  1.00  0.00     0.035 C 
HETATM    2  C2  UNL     1      -2.263  -2.817  -0.799  1.00  0.00     0.065 C 
HETATM    3  S1  UNL     1      -0.636  -3.558  -0.528  1.00  0.00    -0.080 SA
HETATM    4  C3  UNL     1      -3.354  -3.565  -0.095  1.00  0.00     0.147 C 
HETATM    5  N1  UNL     1      -4.352  -2.546   0.114  1.00  0.00    -0.373 N 
ATOM      6  H1  UNL     1      -5.363  -2.678   0.154  1.00  0.00     0.161 HD
HETATM    7  C4  UNL     1      -3.645  -1.321   0.253  1.00  0.00     0.128 A 
HETATM    8  N2  UNL     1      -3.963  -0.113   0.786  1.00  0.00    -0.176 N 
ATOM      9  H2  UNL     1      -4.892   0.013   1.187  1.00  0.00     0.186 HD
HETATM   10  C5  UNL     1      -3.110   0.923   0.809  1.00  0.00     0.681 A 
HETATM   11  N5  UNL     1      -1.879   0.761   0.278  1.00  0.00    -0.176 N 
ATOM     12  H5  UNL     1      -1.230   1.548   0.294  1.00  0.00     0.186 HD
HETATM   13  C8  UNL     1      -1.477  -0.396  -0.270  1.00  0.00     0.128 A 
HETATM   14  C15 UNL     1      -2.377  -1.450  -0.281  1.00  0.00     0.051 A 
ENDROOT
BRANCH  13  15
HETATM   15  N6  UNL     1      -0.315  -0.589  -0.787  1.00  0.00    -0.375 N 
ATOM     16  H6  UNL     1      -0.047  -1.485  -1.194  1.00  0.00     0.161 HD
BRANCH  15  17
HETATM   17  C9  UNL     1       0.592   0.545  -0.756  1.00  0.00     0.121 C 
BRANCH  17  18
HETATM   18  C10 UNL     1       1.907   0.286  -1.421  1.00  0.00     0.021 C 
BRANCH  18  19
HETATM   19  C11 UNL     1       2.608  -0.848  -0.743  1.00  0.00     0.022 C 
BRANCH  19  20
HETATM   20  C12 UNL     1       3.948  -1.108  -1.425  1.00  0.00     0.138 C 
BRANCH  20  21
HETATM   21  N7  UNL     1       4.794   0.041  -1.366  1.00  0.00    -0.224 N 
ATOM     22  H7  UNL     1       4.593   0.801  -2.016  1.00  0.00     0.177 HD
BRANCH  21  23
HETATM   23  C13 UNL     1       5.794   0.201  -0.559  1.00  0.00     0.707 A 
HETATM   24  N8  UNL     1       6.187  -0.702   0.352  1.00  0.00    -0.117 N 
HETATM   25  N9  UNL     1       7.227  -0.207   0.988  1.00  0.00    -0.118 N 
ATOM     26  H8  UNL     1       5.756  -1.611   0.521  1.00  0.00     0.206 HD
HETATM   27  C14 UNL     1       7.519   1.008   0.504  1.00  0.00     0.705 A 
ATOM     28  H9  UNL     1       7.735  -0.677   1.737  1.00  0.00     0.206 HD
HETATM   29  N11 UNL     1       6.621   1.246  -0.454  1.00  0.00    -0.020 N 
ATOM     30  H11 UNL     1       6.573   2.094  -1.019  1.00  0.00     0.203 HD
BRANCH  27  31
HETATM   31  N10 UNL     1       8.487   1.764   0.915  1.00  0.00    -0.233 N 
ATOM     32 2H10 UNL     1       9.173   1.582   1.647  1.00  0.00     0.174 HD
ATOM     33 1H10 UNL     1       8.709   2.689   0.547  1.00  0.00     0.174 HD
ENDBRANCH  27  31
ENDBRANCH  21  23
ENDBRANCH  20  21
ENDBRANCH  19  20
ENDBRANCH  18  19
ENDBRANCH  17  18
ENDBRANCH  15  17
ENDBRANCH  13  15
BRANCH  10  34
HETATM   34  N3  UNL     1      -3.477   2.185   1.379  1.00  0.00    -0.224 N 
ATOM     35  H3  UNL     1      -2.810   2.957   1.384  1.00  0.00     0.177 HD
BRANCH  34  36
HETATM   36  C6  UNL     1      -4.791   2.361   1.945  1.00  0.00     0.165 C 
BRANCH  36  37
HETATM   37  C7  UNL     1      -4.991   3.738   2.489  1.00  0.00     0.249 C 
BRANCH  37  38
HETATM   38  N4  UNL     1      -4.840   4.766   1.474  1.00  0.00    -0.078 N 
ATOM     39  H43 UNL     1      -3.939   4.686   1.002  1.00  0.00     0.274 HD
ATOM     40  H42 UNL     1      -5.457   4.592   0.681  1.00  0.00     0.274 HD
ATOM     41  H41 UNL     1      -4.977   5.706   1.845  1.00  0.00     0.274 HD
ENDBRANCH  37  38
ENDBRANCH  36  37
ENDBRANCH  34  36
ENDBRANCH  10  34
TORSDOF 12
