REMARK  13 active torsions:
REMARK  status: ('A' for Active; 'I' for Inactive)
REMARK    1  A    between atoms: C2_2  and  C3_3 
REMARK    2  A    between atoms: C3_3  and  C4_4 
REMARK    3  A    between atoms: C4_4  and  C5_5 
REMARK    4  A    between atoms: C5_5  and  C6_6 
REMARK    5  A    between atoms: C6_6  and  N1_7 
REMARK    6  A    between atoms: N1_7  and  C7_9 
REMARK    7  A    between atoms: C8_12  and  N3_13 
REMARK    8  A    between atoms: C10_17  and  N4_18 
REMARK    9  A    between atoms: N8_30  and  C13_31 
REMARK   10  A    between atoms: C14_33  and  C15_34 
REMARK   11  A    between atoms: C15_34  and  O2_35 
REMARK   12  A    between atoms: C16_37  and  O3_38 
REMARK   13  A    between atoms: C17_40  and  O4_41 
ROOT
HETATM    1  C7  UNL     1       0.511  -0.419   0.939  1.00  0.00     0.693 A 
HETATM    2  N2  UNL     1       1.232  -1.514   1.054  1.00  0.00    -0.175 N 
ATOM      3  H2  UNL     1       2.250  -1.445   1.046  1.00  0.00     0.186 HD
HETATM    4  C8  UNL     1       0.654  -2.725   1.182  1.00  0.00     0.132 A 
HETATM    5  C9  UNL     1      -0.731  -2.773   1.188  1.00  0.00     0.098 A 
HETATM    6  C10 UNL     1      -1.361  -3.982   1.310  1.00  0.00     0.132 A 
HETATM    7  N5  UNL     1      -2.708  -4.042   1.313  1.00  0.00    -0.176 N 
ATOM      8  H5  UNL     1      -3.178  -4.942   1.405  1.00  0.00     0.186 HD
HETATM    9  C11 UNL     1      -3.429  -2.918   1.195  1.00  0.00     0.679 A 
HETATM   10  N6  UNL     1      -4.724  -2.948   1.196  1.00  0.00    -0.234 N 
ATOM     11  H61 UNL     1      -5.273  -2.093   1.106  1.00  0.00     0.174 HD
ATOM     12  H62 UNL     1      -5.201  -3.845   1.287  1.00  0.00     0.174 HD
HETATM   13  N7  UNL     1      -2.788  -1.712   1.073  1.00  0.00    -0.175 N 
ATOM     14  H7  UNL     1      -3.354  -0.868   0.984  1.00  0.00     0.186 HD
HETATM   15  C12 UNL     1      -1.466  -1.590   1.065  1.00  0.00     0.164 A 
HETATM   16  N8  UNL     1      -0.879  -0.400   0.939  1.00  0.00    -0.111 N 
ENDROOT
BRANCH  16  17
HETATM   17  C13 UNL     1      -1.585   0.798   0.817  1.00  0.00     0.175 C 
HETATM   18  O1  UNL     1      -2.544   1.146   1.744  1.00  0.00    -0.326 OA
HETATM   19  C14 UNL     1      -3.181   2.244   1.255  1.00  0.00     0.185 C 
HETATM   20  C16 UNL     1      -2.916   2.390  -0.202  1.00  0.00     0.186 C 
HETATM   21  C17 UNL     1      -1.960   1.264  -0.541  1.00  0.00     0.225 C 
BRANCH  19  22
HETATM   22  C15 UNL     1      -2.763   3.457   2.070  1.00  0.00     0.199 C 
BRANCH  22  23
HETATM   23  O2  UNL     1      -3.393   4.615   1.606  1.00  0.00    -0.398 OA
ATOM     24  H2  UNL     1      -3.132   5.373   2.115  1.00  0.00     0.209 HD
ENDBRANCH  22  23
ENDBRANCH  19  22
BRANCH  20  25
HETATM   25  O3  UNL     1      -2.255   3.587  -0.420  1.00  0.00    -0.390 OA
ATOM     26  H3  UNL     1      -2.086   3.680  -1.350  1.00  0.00     0.210 HD
ENDBRANCH  20  25
BRANCH  21  27
HETATM   27  O4  UNL     1      -2.558   0.421  -1.408  1.00  0.00    -0.385 OA
ATOM     28  H4  UNL     1      -2.798   0.719  -2.277  1.00  0.00     0.210 HD
ENDBRANCH  21  27
ENDBRANCH  16  17
BRANCH   1  29
HETATM   29  N1  UNL     1       1.058   0.735   0.808  1.00  0.00    -0.205 N 
ATOM     30  H1  UNL     1       0.416   1.523   0.727  1.00  0.00     0.183 HD
BRANCH  29  31
HETATM   31  C6  UNL     1       2.430   1.055   0.761  1.00  0.00     0.079 C 
BRANCH  31  32
HETATM   32  C5  UNL     1       2.906   1.427  -0.643  1.00  0.00     0.045 C 
BRANCH  32  33
HETATM   33  C4  UNL     1       2.664   0.270  -1.550  1.00  0.00     0.005 C 
BRANCH  33  34
HETATM   34  C3  UNL     1       3.104   0.522  -2.965  1.00  0.00     0.000 C 
BRANCH  34  35
HETATM   35  C2  UNL     1       4.569   0.820  -3.078  1.00  0.00    -0.005 C 
HETATM   36  C1  UNL     1       5.331  -0.375  -2.538  1.00  0.00     0.005 C 
ENDBRANCH  34  35
ENDBRANCH  33  34
ENDBRANCH  32  33
ENDBRANCH  31  32
ENDBRANCH  29  31
ENDBRANCH   1  29
BRANCH   4  37
HETATM   37  N3  UNL     1       1.369  -3.787   1.292  1.00  0.00    -0.384 N 
ATOM     38  H32 UNL     1       2.388  -3.752   1.288  1.00  0.00     0.157 HD
ATOM     39  H31 UNL     1       0.932  -4.703   1.389  1.00  0.00     0.157 HD
ENDBRANCH   4  37
BRANCH   6  40
HETATM   40  N4  UNL     1      -0.624  -5.040   1.426  1.00  0.00    -0.384 N 
ATOM     41  H42 UNL     1       0.395  -4.995   1.424  1.00  0.00     0.157 HD
ATOM     42  H41 UNL     1      -1.093  -5.941   1.517  1.00  0.00     0.157 HD
ENDBRANCH   6  40
TORSDOF 13
