REMARK  9 active torsions:
REMARK  status: ('A' for Active; 'I' for Inactive)
REMARK    1  A    between atoms: C2_2  and  N1_3 
REMARK    2  A    between atoms: C2_2  and  C3_7 
REMARK    3  A    between atoms: C3_7  and  N2_8 
REMARK    4  A    between atoms: C3_7  and  C4_12 
REMARK       I    between atoms: C4_12  and  N3_14 
REMARK    5  A    between atoms: N3_14  and  C5_16 
REMARK    6  A    between atoms: C5_16  and  C6_17 
REMARK    7  A    between atoms: C6_17  and  C7_18 
REMARK    8  A    between atoms: C7_18  and  C8_19 
REMARK    9  A    between atoms: C8_19  and  C9_20 
ROOT
HETATM    1  C9  UNL     1       0.207   0.218   0.131  1.00  0.00     0.192 C 
HETATM    2  N4  UNL     1       1.233   0.178   1.122  1.00  0.00    -0.399 N 
ATOM      3  H4  UNL     1       1.541   1.017   1.614  1.00  0.00     0.155 HD
HETATM    4  C10 UNL     1       1.801  -1.097   1.383  1.00  0.00     0.143 C 
HETATM    5  C11 UNL     1       2.629  -0.974   2.670  1.00  0.00     0.251 C 
HETATM    6  N5  UNL     1       3.911  -1.586   2.538  1.00  0.00    -0.072 N 
ATOM      7  H51 UNL     1       3.913  -2.254   1.767  1.00  0.00     0.277 HD
ATOM      8  H52 UNL     1       4.088  -2.222   3.316  1.00  0.00     0.277 HD
HETATM    9  C12 UNL     1       5.000  -0.637   2.395  1.00  0.00     0.259 C 
HETATM   10  C13 UNL     1       6.090  -1.160   1.493  1.00  0.00     0.259 C 
HETATM   11  N6  UNL     1       6.678  -0.137   0.665  1.00  0.00    -0.074 N 
ATOM     12  H61 UNL     1       7.581   0.170   1.027  1.00  0.00     0.277 HD
ATOM     13  H62 UNL     1       6.174   0.746   0.741  1.00  0.00     0.277 HD
HETATM   14  C14 UNL     1       6.777  -0.590  -0.732  1.00  0.00     0.232 C 
HETATM   15  C15 UNL     1       5.408  -0.715  -1.332  1.00  0.00     0.027 C 
HETATM   16  C16 UNL     1       5.122   0.278  -2.404  1.00  0.00     0.002 C 
HETATM   17  C17 UNL     1       4.773   1.643  -1.930  1.00  0.00     0.002 C 
HETATM   18  C18 UNL     1       3.620   1.705  -0.990  1.00  0.00     0.021 C 
HETATM   19  C19 UNL     1       2.298   1.385  -1.591  1.00  0.00     0.139 C 
HETATM   20  N7  UNL     1       1.900   0.025  -1.515  1.00  0.00    -0.339 N 
ATOM     21  H7  UNL     1       2.551  -0.736  -1.706  1.00  0.00     0.179 HD
HETATM   22  N8  UNL     1       0.597  -0.211  -1.172  1.00  0.00    -0.318 N 
ATOM     23  H8  UNL     1      -0.056  -0.666  -1.810  1.00  0.00     0.182 HD
ENDROOT
BRANCH   1  24
HETATM   24  C8  UNL     1      -1.012  -0.481   0.658  1.00  0.00     0.048 C 
BRANCH  24  25
HETATM   25  C7  UNL     1      -2.164  -0.501  -0.305  1.00  0.00     0.005 C 
BRANCH  25  26
HETATM   26  C6  UNL     1      -2.591   0.926  -0.654  1.00  0.00     0.020 C 
BRANCH  26  27
HETATM   27  C5  UNL     1      -3.746   0.921  -1.619  1.00  0.00     0.122 C 
BRANCH  27  28
HETATM   28  N3  UNL     1      -4.882   0.232  -1.059  1.00  0.00    -0.359 N 
HETATM   29  C4  UNL     1      -5.564   0.636   0.116  1.00  0.00     0.250 C 
HETATM   30  O1  UNL     1      -5.172   1.659   0.719  1.00  0.00    -0.271 OA
ATOM     31  H3  UNL     1      -5.217  -0.602  -1.541  1.00  0.00     0.162 HD
BRANCH  29  32
HETATM   32  C3  UNL     1      -6.732  -0.128   0.648  1.00  0.00     0.304 C 
BRANCH  32  33
HETATM   33  C2  UNL     1      -7.777  -0.175  -0.439  1.00  0.00     0.219 C 
HETATM   34  C1  UNL     1      -9.016  -0.913  -0.011  1.00  0.00     0.042 C 
BRANCH  33  35
HETATM   35  N1  UNL     1      -8.144   1.179  -0.811  1.00  0.00    -0.073 N 
ATOM     36  H13 UNL     1      -8.876   1.203  -1.520  1.00  0.00     0.274 HD
ATOM     37  H12 UNL     1      -8.649   1.663  -0.069  1.00  0.00     0.274 HD
ATOM     38  H11 UNL     1      -7.304   1.679  -1.101  1.00  0.00     0.274 HD
ENDBRANCH  33  35
ENDBRANCH  32  33
BRANCH  32  39
HETATM   39  N2  UNL     1      -7.199   0.525   1.835  1.00  0.00    -0.064 N 
ATOM     40  H23 UNL     1      -7.551   1.459   1.625  1.00  0.00     0.275 HD
ATOM     41  H22 UNL     1      -8.061   0.097   2.174  1.00  0.00     0.275 HD
ATOM     42  H21 UNL     1      -6.492   0.557   2.570  1.00  0.00     0.275 HD
ENDBRANCH  32  39
ENDBRANCH  29  32
ENDBRANCH  27  28
ENDBRANCH  26  27
ENDBRANCH  25  26
ENDBRANCH  24  25
ENDBRANCH   1  24
TORSDOF 9
