REMARK  2 active torsions:
REMARK  status: ('A' for Active; 'I' for Inactive)
REMARK    1  A    between atoms: C2_2  and  C4_4 
REMARK    2  A    between atoms: C9_11  and  C10_12 
ROOT
HETATM    1  C4  UNL     1       1.521   0.135   0.044  1.00  0.00     0.010 A 
HETATM    2  C5  UNL     1       0.141   0.160   0.344  1.00  0.00     0.049 A 
HETATM    3  C6  UNL     1      -0.539   1.324   0.616  1.00  0.00     0.010 A 
HETATM    4  C7  UNL     1       0.162   2.524   0.594  1.00  0.00     0.149 A 
HETATM    5  F1  UNL     1      -0.532   3.672   0.868  1.00  0.00    -0.203 F 
HETATM    6  C8  UNL     1       1.504   2.515   0.302  1.00  0.00     0.101 A 
HETATM    7  N1  UNL     1       2.177   3.788   0.289  1.00  0.00    -0.098 NA
HETATM    8  C9  UNL     1       2.213   1.336   0.026  1.00  0.00     0.087 A 
HETATM    9  C11 UNL     1      -1.969   1.341   0.920  1.00  0.00     0.051 C 
HETATM   10  C12 UNL     1      -2.785   0.213   0.412  1.00  0.00     0.013 C 
HETATM   11  C13 UNL     1      -3.579   0.701  -0.810  1.00  0.00     0.012 C 
HETATM   12  C14 UNL     1      -2.082  -1.066   0.156  1.00  0.00     0.026 C 
HETATM   13  C15 UNL     1      -2.622  -2.155   1.073  1.00  0.00     0.038 C 
HETATM   14  C16 UNL     1      -2.371  -1.529  -1.249  1.00  0.00     0.038 C 
HETATM   15  N2  UNL     1      -0.631  -1.015   0.316  1.00  0.00    -0.380 N 
ATOM     16  H2  UNL     1      -0.138  -1.903   0.415  1.00  0.00     0.160 HD
ENDROOT
BRANCH   8  17
HETATM   17  C10 UNL     1       3.620   1.418  -0.155  1.00  0.00     0.420 C 
HETATM   18  F2  UNL     1       4.251   0.804   0.974  1.00  0.00    -0.166 F 
HETATM   19  F3  UNL     1       4.302   1.031  -1.219  1.00  0.00    -0.166 F 
HETATM   20  F4  UNL     1       4.034   2.760   0.056  1.00  0.00    -0.166 F 
ENDBRANCH   8  17
BRANCH   1  21
HETATM   21  C2  UNL     1       2.187  -1.126  -0.169  1.00  0.00    -0.074 C 
HETATM   22  C1  UNL     1       2.328  -1.487  -1.661  1.00  0.00     0.044 C 
HETATM   23  C3  UNL     1       2.123  -2.292   0.720  1.00  0.00     0.044 C 
ENDBRANCH   1  21
TORSDOF 2
