REMARK  3 active torsions:
REMARK  status: ('A' for Active; 'I' for Inactive)
REMARK    1  A    between atoms: C2_2  and  C5_5 
REMARK    2  A    between atoms: C7_12  and  C8_13 
REMARK    3  A    between atoms: C9_15  and  C10_16 
ROOT
HETATM    1  C5  UNL     1      -1.453   0.613   0.052  1.00  0.00     0.047 A 
HETATM    2  N1  UNL     1      -2.455   1.497   0.259  1.00  0.00    -0.334 N 
ATOM      3  H1  UNL     1      -3.443   1.284   0.122  1.00  0.00     0.168 HD
HETATM    4  C6  UNL     1      -1.995   2.679   0.664  1.00  0.00     0.176 A 
HETATM    5  S1  UNL     1      -2.806   4.056   1.038  1.00  0.00    -0.041 SA
HETATM    6  N2  UNL     1      -0.665   2.528   0.709  1.00  0.00    -0.330 N 
ATOM      7  H2  UNL     1      -0.013   3.262   0.985  1.00  0.00     0.168 HD
HETATM    8  C7  UNL     1      -0.299   1.293   0.347  1.00  0.00     0.078 A 
ENDROOT
BRANCH   8   9
HETATM    9  C8  UNL     1       1.093   0.812   0.282  1.00  0.00     0.073 A 
HETATM   10  S2  UNL     1       1.781  -0.596  -0.352  1.00  0.00    -0.080 SA
HETATM   11  C9  UNL     1       3.402  -0.396   0.134  1.00  0.00     0.092 A 
HETATM   12  C11 UNL     1       3.381   0.778   0.800  1.00  0.00     0.067 A 
HETATM   13  C12 UNL     1       2.172   1.413   0.878  1.00  0.00     0.137 A 
HETATM   14  F4  UNL     1       2.120   2.640   1.557  1.00  0.00    -0.205 F 
BRANCH  11  15
HETATM   15  C10 UNL     1       4.575  -1.295  -0.094  1.00  0.00     0.423 C 
HETATM   16  F1  UNL     1       4.821  -1.991   1.076  1.00  0.00    -0.166 F 
HETATM   17  F2  UNL     1       4.236  -2.186  -1.096  1.00  0.00    -0.166 F 
HETATM   18  F3  UNL     1       5.725  -0.609  -0.442  1.00  0.00    -0.166 F 
ENDBRANCH  11  15
ENDBRANCH   8   9
BRANCH   1  19
HETATM   19  C2  UNL     1      -1.635  -0.768  -0.402  1.00  0.00    -0.006 C 
HETATM   20  C1  UNL     1      -3.179  -0.972  -0.508  1.00  0.00     0.021 C 
HETATM   21  C3  UNL     1      -1.178  -0.940  -1.859  1.00  0.00     0.021 C 
HETATM   22  C4  UNL     1      -1.199  -1.849   0.530  1.00  0.00     0.021 C 
ENDBRANCH   1  19
TORSDOF 3
