REMARK  3 active torsions:
REMARK  status: ('A' for Active; 'I' for Inactive)
REMARK    1  A    between atoms: N1_1  and  N2_4 
REMARK    2  A    between atoms: N2_4  and  C1_6 
REMARK    3  A    between atoms: C1_6  and  N3_8 
ROOT
HETATM    1  N3  UNL     1       0.245  -0.451   0.282  1.00  0.00    -0.173 N 
HETATM    2  N4  UNL     1       1.083   0.345   0.965  1.00  0.00    -0.238 N 
ATOM      3  H4  UNL     1       0.888   0.753   1.879  1.00  0.00     0.192 HD
HETATM    4  C2  UNL     1       2.217   0.524   0.266  1.00  0.00     0.343 A 
HETATM    5  O1  UNL     1       3.228   1.201   0.577  1.00  0.00    -0.245 OA
HETATM    6  N5  UNL     1       2.122  -0.161  -0.885  1.00  0.00    -0.258 N 
ATOM      7  H5  UNL     1       2.818  -0.225  -1.628  1.00  0.00     0.175 HD
HETATM    8  C3  UNL     1       0.912  -0.744  -0.848  1.00  0.00     0.352 A 
HETATM    9  O2  UNL     1       0.454  -1.479  -1.760  1.00  0.00    -0.244 OA
ENDROOT
BRANCH   1  10
HETATM   10  C1  UNL     1      -1.053  -0.883   0.672  1.00  0.00     0.216 C 
HETATM   11  S1  UNL     1      -1.291  -2.284   1.485  1.00  0.00    -0.037 SA
BRANCH  10  12
HETATM   12  N2  UNL     1      -2.170  -0.075   0.347  1.00  0.00    -0.281 N 
ATOM     13  H2  UNL     1      -3.110  -0.366   0.618  1.00  0.00     0.189 HD
BRANCH  12  14
HETATM   14  N1  UNL     1      -1.978   1.118  -0.344  1.00  0.00    -0.343 N 
ATOM     15  H12 UNL     1      -1.032   1.394  -0.607  1.00  0.00     0.176 HD
ATOM     16  H11 UNL     1      -2.782   1.700  -0.578  1.00  0.00     0.176 HD
ENDBRANCH  12  14
ENDBRANCH  10  12
ENDBRANCH   1  10
TORSDOF 3
