REMARK  15 active torsions:
REMARK  status: ('A' for Active; 'I' for Inactive)
REMARK       I    between atoms: C2_2  and  N1_4 
REMARK    1  A    between atoms: N1_4  and  C3_6 
REMARK    2  A    between atoms: C4_7  and  C5_8 
REMARK    3  A    between atoms: C5_8  and  O2_9 
REMARK    4  A    between atoms: C5_8  and  C6_11 
REMARK    5  A    between atoms: C6_11  and  O3_12 
REMARK    6  A    between atoms: C6_11  and  C7_14 
REMARK    7  A    between atoms: C7_14  and  O4_15 
REMARK    8  A    between atoms: C8_18  and  O6_19 
REMARK    9  A    between atoms: C9_21  and  N2_22 
REMARK   10  A    between atoms: C10_25  and  C11_26 
REMARK   11  A    between atoms: C12_29  and  N5_30 
REMARK       I    between atoms: N5_30  and  C13_31 
REMARK       I    between atoms: C13_31  and  N7_35 
REMARK   12  A    between atoms: N7_35  and  N8_37 
REMARK   13  A    between atoms: N8_37  and  N9_38 
REMARK   14  A    between atoms: N8_37  and  O8_41 
REMARK   15  A    between atoms: N11_47  and  O10_48 
ROOT
HETATM    1  N2  UNL     1       1.290  -0.089  -0.674  1.00  0.00    -0.204 N 
HETATM    2  N3  UNL     1       1.945   0.066   0.459  1.00  0.00    -0.274 N 
ATOM      3  H3  UNL     1       1.427   0.358   1.288  1.00  0.00     0.189 HD
HETATM    4  C10 UNL     1       3.268  -0.145   0.565  1.00  0.00     0.161 A 
HETATM    5  C12 UNL     1       3.999  -0.539  -0.531  1.00  0.00     0.213 A 
HETATM    6  C14 UNL     1       3.267  -0.698  -1.739  1.00  0.00     0.304 A 
HETATM    7  O9  UNL     1       3.889  -1.057  -2.771  1.00  0.00    -0.263 OA
HETATM    8  N10 UNL     1       1.946  -0.466  -1.756  1.00  0.00    -0.245 N 
ATOM      9  H10 UNL     1       1.434  -0.584  -2.630  1.00  0.00     0.192 HD
ENDROOT
BRANCH   1  10
HETATM   10  C9  UNL     1      -0.126   0.144  -0.756  1.00  0.00     0.283 C 
HETATM   11  C8  UNL     1      -0.566   0.898   0.483  1.00  0.00     0.300 C 
HETATM   12  O5  UNL     1      -1.921   1.111   0.517  1.00  0.00    -0.346 OA
HETATM   13  C4  UNL     1      -2.622   0.632  -0.546  1.00  0.00     0.195 C 
HETATM   14  C3  UNL     1      -2.284  -0.811  -0.880  1.00  0.00     0.219 C 
HETATM   15  N11 UNL     1      -0.880  -1.072  -0.805  1.00  0.00    -0.142 NA
BRANCH  11  16
HETATM   16  O6  UNL     1      -0.230   0.194   1.651  1.00  0.00    -0.368 OA
ATOM     17  H6  UNL     1       0.708   0.047   1.627  1.00  0.00     0.212 HD
ENDBRANCH  11  16
BRANCH  13  18
HETATM   18  C5  UNL     1      -4.093   0.728  -0.335  1.00  0.00     0.181 C 
BRANCH  18  19
HETATM   19  O2  UNL     1      -4.567   0.093   0.807  1.00  0.00    -0.390 OA
ATOM     20  H2  UNL     1      -5.505   0.154   0.942  1.00  0.00     0.210 HD
ENDBRANCH  18  19
BRANCH  18  21
HETATM   21  C6  UNL     1      -4.735   2.073  -0.475  1.00  0.00     0.173 C 
BRANCH  21  22
HETATM   22  O3  UNL     1      -6.147   1.869  -0.634  1.00  0.00    -0.391 OA
ATOM     23  H3  UNL     1      -6.554   2.723  -0.723  1.00  0.00     0.210 HD
ENDBRANCH  21  22
BRANCH  21  24
HETATM   24  C7  UNL     1      -4.539   3.029   0.657  1.00  0.00     0.198 C 
BRANCH  24  25
HETATM   25  O4  UNL     1      -3.265   3.414   0.945  1.00  0.00    -0.398 OA
ATOM     26  H4  UNL     1      -3.140   4.022   1.665  1.00  0.00     0.209 HD
ENDBRANCH  24  25
ENDBRANCH  21  24
ENDBRANCH  18  21
ENDBRANCH  13  18
BRANCH  14  27
HETATM   27  N1  UNL     1      -3.035  -1.751  -0.088  1.00  0.00    -0.340 N 
HETATM   28  C2  UNL     1      -3.946  -2.684  -0.659  1.00  0.00     0.214 C 
HETATM   29  C1  UNL     1      -4.717  -3.646   0.130  1.00  0.00     0.117 C 
HETATM   30  O1  UNL     1      -4.092  -2.679  -1.906  1.00  0.00    -0.274 OA
ATOM     31  H1  UNL     1      -2.909  -1.748   0.924  1.00  0.00     0.164 HD
ENDBRANCH  14  27
BRANCH  15  32
HETATM   32  O10 UNL     1      -0.648  -1.794   0.324  1.00  0.00    -0.309 OA
ATOM     33  H10 UNL     1       0.285  -1.967   0.374  1.00  0.00     0.237 HD
ENDBRANCH  15  32
ENDBRANCH   1  10
BRANCH   4  34
HETATM   34  C11 UNL     1       3.922   0.042   1.838  1.00  0.00     0.286 C 
HETATM   35  N4  UNL     1       3.138   0.456   2.950  1.00  0.00    -0.056 NA
HETATM   36  O7  UNL     1       5.144  -0.130   2.058  1.00  0.00    -0.269 OA
ENDBRANCH   4  34
BRANCH   5  37
HETATM   37  N5  UNL     1       5.159  -0.746  -0.534  1.00  0.00    -0.362 NA
HETATM   38  C13 UNL     1       6.457  -0.977  -0.538  1.00  0.00     0.271 C 
HETATM   39  N6  UNL     1       6.894  -2.223  -0.508  1.00  0.00    -0.358 N 
HETATM   40  N7  UNL     1       7.514   0.012  -0.575  1.00  0.00    -0.218 N 
ATOM     41  H62 UNL     1       6.149  -2.920  -0.482  1.00  0.00     0.160 HD
ATOM     42  H61 UNL     1       7.898  -2.402  -0.511  1.00  0.00     0.160 HD
ATOM     43  H7  UNL     1       8.387  -0.177  -0.083  1.00  0.00     0.195 HD
BRANCH  40  44
HETATM   44  N8  UNL     1       7.372   1.205  -1.258  1.00  0.00    -0.098 N 
BRANCH  44  45
HETATM   45  N9  UNL     1       6.863   2.209  -0.630  1.00  0.00    -0.303 N 
ATOM     46  H92 UNL     1       6.596   2.050   0.342  1.00  0.00     0.181 HD
ATOM     47  H91 UNL     1       6.758   3.090  -1.134  1.00  0.00     0.181 HD
ENDBRANCH  44  45
BRANCH  44  48
HETATM   48  O8  UNL     1       7.730   1.419  -2.562  1.00  0.00    -0.254 OA
ATOM     49  H8  UNL     1       7.632   2.239  -3.032  1.00  0.00     0.248 HD
ENDBRANCH  44  48
ENDBRANCH  40  44
ENDBRANCH   5  37
TORSDOF 15
