REMARK  3 active torsions:
REMARK  status: ('A' for Active; 'I' for Inactive)
REMARK       I    between atoms: C1_2  and  N2_4 
REMARK    1  A    between atoms: N2_4  and  N3_6 
REMARK    2  A    between atoms: C2_8  and  C3_9 
REMARK    3  A    between atoms: N6_19  and  O3_20 
ROOT
HETATM    1  C3  UNL     1      -0.861  -0.286  -0.055  1.00  0.00     0.081 A 
HETATM    2  C4  UNL     1      -1.438   0.978  -0.154  1.00  0.00     0.090 A 
HETATM    3  N4  UNL     1      -0.806   2.127  -0.428  1.00  0.00    -0.309 N 
ATOM      4  H4  UNL     1       0.189   2.265  -0.608  1.00  0.00     0.176 HD
HETATM    5  S1  UNL     1      -2.037   3.307  -0.409  1.00  0.00     0.068 SA
HETATM    6  N5  UNL     1      -3.349   2.333  -0.052  1.00  0.00    -0.306 N 
ATOM      7  H5  UNL     1      -4.323   2.615   0.061  1.00  0.00     0.176 HD
HETATM    8  C5  UNL     1      -2.836   1.100   0.052  1.00  0.00     0.139 A 
HETATM    9  C6  UNL     1      -3.590  -0.037   0.344  1.00  0.00     0.304 A 
HETATM   10  O2  UNL     1      -4.854   0.032   0.536  1.00  0.00    -0.263 OA
HETATM   11  N6  UNL     1      -3.031  -1.248   0.437  1.00  0.00    -0.146 N 
HETATM   12  C7  UNL     1      -1.719  -1.353   0.243  1.00  0.00     0.288 A 
HETATM   13  O4  UNL     1      -1.198  -2.522   0.336  1.00  0.00    -0.265 OA
ENDROOT
BRANCH   1  14
HETATM   14  C2  UNL     1       0.560  -0.556  -0.241  1.00  0.00     0.126 C 
HETATM   15  N3  UNL     1       1.462   0.272  -0.511  1.00  0.00    -0.307 N 
ATOM     16  H3  UNL     1       1.183   1.248  -0.615  1.00  0.00     0.186 HD
BRANCH  15  17
HETATM   17  N2  UNL     1       2.793  -0.022  -0.679  1.00  0.00    -0.254 N 
HETATM   18  C1  UNL     1       3.821   0.390   0.207  1.00  0.00     0.347 C 
HETATM   19  N1  UNL     1       5.168   0.031  -0.060  1.00  0.00    -0.038 NA
HETATM   20  O1  UNL     1       3.598   1.068   1.235  1.00  0.00    -0.249 OA
ATOM     21  H2  UNL     1       3.060  -0.573  -1.495  1.00  0.00     0.191 HD
ENDBRANCH  15  17
ENDBRANCH   1  14
BRANCH  11  22
HETATM   22  O3  UNL     1      -3.799  -2.367   0.729  1.00  0.00    -0.277 OA
ATOM     23  H3  UNL     1      -3.402  -3.227   0.795  1.00  0.00     0.245 HD
ENDBRANCH  11  22
TORSDOF 3
