REMARK  5 active torsions:
REMARK  status: ('A' for Active; 'I' for Inactive)
REMARK    1  A    between atoms: O1_2  and  C2_3 
REMARK    2  A    between atoms: C2_3  and  C3_5 
REMARK    3  A    between atoms: N3_9  and  C4_10 
REMARK    4  A    between atoms: C5_13  and  N5_14 
REMARK    5  A    between atoms: C6_19  and  N7_20 
ROOT
HETATM    1  C4  UNL     1      -1.411   0.232   0.585  1.00  0.00     0.183 A 
HETATM    2  N4  UNL     1      -1.948   1.412   0.944  1.00  0.00    -0.172 N 
ATOM      3  H4  UNL     1      -1.316   2.147   1.261  1.00  0.00     0.186 HD
HETATM    4  C5  UNL     1      -3.264   1.685   0.912  1.00  0.00     0.679 A 
HETATM    5  N6  UNL     1      -4.100   0.740   0.503  1.00  0.00    -0.176 N 
ATOM      6  H6  UNL     1      -5.103   0.923   0.471  1.00  0.00     0.186 HD
HETATM    7  C6  UNL     1      -3.620  -0.466   0.129  1.00  0.00     0.139 A 
HETATM    8  C7  UNL     1      -2.276  -0.762   0.155  1.00  0.00     0.136 A 
HETATM    9  C8  UNL     1      -1.720  -2.026  -0.231  1.00  0.00     0.107 C 
HETATM   10  N8  UNL     1      -1.287  -3.059  -0.546  1.00  0.00    -0.191 NA
ENDROOT
BRANCH   1  11
HETATM   11  N3  UNL     1      -0.004   0.023   0.647  1.00  0.00    -0.159 N 
HETATM   12  N2  UNL     1       0.627  -0.323   1.754  1.00  0.00     0.004 NA
HETATM   13  N1  UNL     1       1.923  -0.449   1.529  1.00  0.00    -0.261 N 
HETATM   14  C3  UNL     1       2.136  -0.177   0.241  1.00  0.00     0.211 A 
ATOM     15  H1  UNL     1       2.632  -0.707   2.216  1.00  0.00     0.186 HD
HETATM   16  N9  UNL     1       0.922   0.113  -0.283  1.00  0.00    -0.258 N 
ATOM     17  H9  UNL     1       0.750   0.364  -1.256  1.00  0.00     0.190 HD
BRANCH  14  18
HETATM   18  C2  UNL     1       3.419  -0.200  -0.419  1.00  0.00     0.329 C 
HETATM   19  O2  UNL     1       3.538   0.070  -1.645  1.00  0.00    -0.256 OA
BRANCH  18  20
HETATM   20  O1  UNL     1       4.574  -0.521   0.271  1.00  0.00    -0.320 OA
HETATM   21  C1  UNL     1       5.838  -0.547  -0.364  1.00  0.00     0.213 C 
ENDBRANCH  18  20
ENDBRANCH  14  18
ENDBRANCH   1  11
BRANCH   7  22
HETATM   22  N7  UNL     1      -4.430  -1.384  -0.268  1.00  0.00    -0.384 N 
ATOM     23  H72 UNL     1      -5.426  -1.165  -0.287  1.00  0.00     0.157 HD
ATOM     24  H71 UNL     1      -4.068  -2.295  -0.550  1.00  0.00     0.157 HD
ENDBRANCH   7  22
BRANCH   4  25
HETATM   25  N5  UNL     1      -3.728   2.851   1.274  1.00  0.00    -0.234 N 
ATOM     26  H52 UNL     1      -3.085   3.578   1.589  1.00  0.00     0.174 HD
ATOM     27  H51 UNL     1      -4.726   3.058   1.250  1.00  0.00     0.174 HD
ENDBRANCH   4  25
TORSDOF 5
