REMARK  4 active torsions:
REMARK  status: ('A' for Active; 'I' for Inactive)
REMARK    1  A    between atoms: C2_4  and  C3_5 
REMARK    2  A    between atoms: C3_5  and  C4_6 
REMARK    3  A    between atoms: C4_6  and  N2_7 
REMARK    4  A    between atoms: N2_7  and  C5_9 
ROOT
HETATM    1  N2  UNL     1      -0.464  -0.112  -0.083  1.00  0.00    -0.378 N 
ATOM      2  H2  UNL     1       0.047  -0.593   0.657  1.00  0.00     0.160 HD
ENDROOT
BRANCH   1   3
HETATM    3  C4  UNL     1       0.238   0.468  -1.219  1.00  0.00     0.127 C 
BRANCH   3   4
HETATM    4  C3  UNL     1       1.631  -0.025  -1.344  1.00  0.00     0.078 C 
BRANCH   4   5
HETATM    5  C2  UNL     1       2.541   0.241  -0.212  1.00  0.00     0.027 A 
HETATM    6  N1  UNL     1       2.647  -0.565   0.887  1.00  0.00    -0.355 N 
HETATM    7  C1  UNL     1       3.606  -0.074   1.709  1.00  0.00     0.180 A 
ATOM      8  H1  UNL     1       2.092  -1.403   1.061  1.00  0.00     0.166 HD
HETATM    9  N5  UNL     1       4.129   1.041   1.167  1.00  0.00    -0.360 N 
HETATM   10  C8  UNL     1       3.477   1.227  -0.001  1.00  0.00     0.114 A 
ATOM     11  H5  UNL     1       4.867   1.626   1.558  1.00  0.00     0.166 HD
ENDBRANCH   4   5
ENDBRANCH   3   4
ENDBRANCH   1   3
BRANCH   1  12
HETATM   12  C5  UNL     1      -1.886   0.010  -0.032  1.00  0.00     0.100 C 
HETATM   13  N3  UNL     1      -2.650  -0.425  -1.023  1.00  0.00    -0.356 N 
HETATM   14  C6  UNL     1      -4.025  -0.176  -0.703  1.00  0.00     0.356 C 
ATOM     15  H3  UNL     1      -2.313  -0.867  -1.878  1.00  0.00     0.162 HD
HETATM   16  N4  UNL     1      -4.061  -0.097   0.760  1.00  0.00    -0.053 N 
HETATM   17  C7  UNL     1      -2.763   0.571   0.985  1.00  0.00     0.309 C 
ATOM     18  H42 UNL     1      -4.879   0.356   1.168  1.00  0.00     0.279 HD
ATOM     19  H41 UNL     1      -4.209  -0.976   1.256  1.00  0.00     0.279 HD
ENDBRANCH   1  12
TORSDOF 4
