REMARK  3 active torsions:
REMARK  status: ('A' for Active; 'I' for Inactive)
REMARK    1  A    between atoms: C2_4  and  C3_5 
REMARK    2  A    between atoms: C3_5  and  N2_6 
REMARK    3  A    between atoms: N2_6  and  C4_9 
ROOT
HETATM    1  N2  UNL     1      -0.114  -0.732  -0.660  1.00  0.00    -0.064 N 
ATOM      2  H21 UNL     1      -0.373  -1.255  -1.496  1.00  0.00     0.278 HD
ATOM      3  H22 UNL     1       0.188   0.133  -1.109  1.00  0.00     0.278 HD
ENDROOT
BRANCH   1   4
HETATM    4  C3  UNL     1       0.977  -1.376   0.066  1.00  0.00     0.291 C 
BRANCH   4   5
HETATM    5  C2  UNL     1       2.125  -0.425   0.090  1.00  0.00     0.051 A 
HETATM    6  N1  UNL     1       2.024   0.935   0.151  1.00  0.00    -0.353 N 
HETATM    7  C1  UNL     1       3.206   1.477   0.189  1.00  0.00     0.180 A 
ATOM      8  H1  UNL     1       1.146   1.453   0.165  1.00  0.00     0.166 HD
HETATM    9  N4  UNL     1       4.177   0.510   0.131  1.00  0.00    -0.360 N 
HETATM   10  C8  UNL     1       3.458  -0.650   0.082  1.00  0.00     0.115 A 
ATOM     11  H4  UNL     1       5.190   0.629   0.126  1.00  0.00     0.166 HD
ENDBRANCH   4   5
ENDBRANCH   1   4
BRANCH   1  12
HETATM   12  C4  UNL     1      -1.245  -0.517   0.210  1.00  0.00     0.213 C 
HETATM   13  C5  UNL     1      -2.539  -0.790  -0.463  1.00  0.00     0.062 C 
HETATM   14  C6  UNL     1      -3.330   0.499  -0.366  1.00  0.00     0.234 C 
HETATM   15  N3  UNL     1      -2.732   1.187   0.741  1.00  0.00    -0.073 N 
HETATM   16  C7  UNL     1      -1.330   0.993   0.494  1.00  0.00     0.265 C 
ATOM     17  H32 UNL     1      -3.020   2.159   0.851  1.00  0.00     0.277 HD
ATOM     18  H31 UNL     1      -3.054   0.886   1.661  1.00  0.00     0.277 HD
ENDBRANCH   1  12
TORSDOF 3
