REMARK  10 active torsions:
REMARK  status: ('A' for Active; 'I' for Inactive)
REMARK    1  A    between atoms: C2_2  and  C3_3 
REMARK    2  A    between atoms: C3_3  and  C4_4 
REMARK    3  A    between atoms: C4_4  and  N1_5 
REMARK    4  A    between atoms: N1_5  and  C5_6 
REMARK    5  A    between atoms: N1_5  and  C14_16 
REMARK    6  A    between atoms: C5_6  and  C6_7 
REMARK    7  A    between atoms: C6_7  and  C7_8 
REMARK    8  A    between atoms: C7_8  and  N2_9 
REMARK    9  A    between atoms: C14_16  and  N3_18 
REMARK   10  A    between atoms: N3_18  and  C15_20 
ROOT
HETATM    1  N1  UNL     1       0.040  -2.036   0.515  1.00  0.00    -0.358 N 
ENDROOT
BRANCH   1   2
HETATM    2  C4  UNL     1      -0.049  -3.521   0.818  1.00  0.00     0.125 C 
BRANCH   2   3
HETATM    3  C3  UNL     1       0.243  -4.329  -0.396  1.00  0.00     0.019 C 
BRANCH   3   4
HETATM    4  C2  UNL     1       0.124  -5.800   0.006  1.00  0.00    -0.003 C 
HETATM    5  C1  UNL     1      -1.281  -6.033   0.498  1.00  0.00     0.005 C 
ENDBRANCH   3   4
ENDBRANCH   2   3
ENDBRANCH   1   2
BRANCH   1   6
HETATM    6  C5  UNL     1       1.378  -1.658   0.261  1.00  0.00     0.127 C 
BRANCH   6   7
HETATM    7  C6  UNL     1       1.675  -0.268  -0.102  1.00  0.00     0.050 C 
BRANCH   7   8
HETATM    8  C7  UNL     1       3.203  -0.107  -0.325  1.00  0.00     0.274 C 
BRANCH   8   9
HETATM    9  N2  UNL     1       3.485   1.268  -0.688  1.00  0.00     0.088 N 
HETATM   10  C8  UNL     1       3.221   2.104   0.457  1.00  0.00     0.272 C 
HETATM   11  C9  UNL     1       4.067   3.359   0.454  1.00  0.00     0.031 C 
HETATM   12  C10 UNL     1       5.546   3.033   0.508  1.00  0.00     0.007 C 
HETATM   13  C11 UNL     1       5.689   1.537   0.202  1.00  0.00     0.010 C 
HETATM   14  C12 UNL     1       7.127   1.144   0.042  1.00  0.00     0.011 C 
HETATM   15  C13 UNL     1       4.882   1.312  -1.084  1.00  0.00     0.276 C 
ENDBRANCH   8   9
ENDBRANCH   7   8
ENDBRANCH   6   7
ENDBRANCH   1   6
BRANCH   1  16
HETATM   16  C14 UNL     1      -1.124  -1.288   0.520  1.00  0.00     0.170 C 
HETATM   17  S1  UNL     1      -2.534  -2.176   0.891  1.00  0.00    -0.041 SA
BRANCH  16  18
HETATM   18  N3  UNL     1      -1.390   0.065   0.298  1.00  0.00    -0.361 N 
ATOM     19  H3  UNL     1      -0.618   0.700   0.094  1.00  0.00     0.162 HD
BRANCH  18  20
HETATM   20  C15 UNL     1      -2.753   0.587   0.353  1.00  0.00     0.113 C 
HETATM   21  C16 UNL     1      -2.663   2.100   0.319  1.00  0.00     0.296 C 
HETATM   22  N4  UNL     1      -3.898   2.780   0.210  1.00  0.00     0.086 N 
HETATM   23  C17 UNL     1      -3.625   4.171  -0.101  1.00  0.00     0.310 C 
HETATM   24  C18 UNL     1      -4.795   2.270  -0.791  1.00  0.00     0.280 C 
HETATM   25  C19 UNL     1      -4.880   0.770  -0.803  1.00  0.00    -0.019 C 
HETATM   26  C20 UNL     1      -5.627   0.366  -2.064  1.00  0.00     0.016 C 
HETATM   27  C21 UNL     1      -5.606   0.205   0.367  1.00  0.00     0.016 C 
HETATM   28  C22 UNL     1      -3.476   0.228  -0.941  1.00  0.00     0.037 C 
ENDBRANCH  18  20
ENDBRANCH  16  18
ENDBRANCH   1  16
TORSDOF 10
