REMARK  3 active torsions:
REMARK  status: ('A' for Active; 'I' for Inactive)
REMARK    1  A    between atoms: C2_5  and  O1_6 
REMARK    2  A    between atoms: O1_6  and  C3_7 
REMARK    3  A    between atoms: C3_7  and  N2_8 
ROOT
HETATM    1  C3  UNL     1       0.682   0.262  -0.583  1.00  0.00     0.338 C 
ENDROOT
BRANCH   1   2
HETATM    2  O1  UNL     1      -0.443  -0.096   0.151  1.00  0.00    -0.335 OA
BRANCH   2   3
HETATM    3  C2  UNL     1      -1.567   0.279  -0.532  1.00  0.00     0.348 A 
HETATM    4  C1  UNL     1      -2.906  -0.153  -0.221  1.00  0.00     0.296 A 
HETATM    5  N1  UNL     1      -2.492   1.068   0.389  1.00  0.00    -0.043 N 
ATOM      6  H12 UNL     1      -2.845   2.024   0.430  1.00  0.00     0.280 HD
ATOM      7  H11 UNL     1      -2.443   1.433   1.340  1.00  0.00     0.280 HD
ENDBRANCH   2   3
ENDBRANCH   1   2
BRANCH   1   8
HETATM    8  N2  UNL     1       1.878  -0.131   0.131  1.00  0.00    -0.183 N 
HETATM    9  N3  UNL     1       2.534   0.609   1.003  1.00  0.00    -0.211 N 
HETATM   10  N4  UNL     1       3.588  -0.043   1.479  1.00  0.00     0.006 NA
ATOM     11  H3  UNL     1       2.268   1.555   1.275  1.00  0.00     0.206 HD
HETATM   12  N5  UNL     1       3.563  -1.226   0.866  1.00  0.00     0.008 NA
HETATM   13  N6  UNL     1       2.525  -1.279   0.048  1.00  0.00     0.010 NA
ENDBRANCH   1   8
TORSDOF 3
