REMARK  5 active torsions:
REMARK  status: ('A' for Active; 'I' for Inactive)
REMARK    1  A    between atoms: C2_2  and  C3_3 
REMARK    2  A    between atoms: C8_11  and  C9_12 
REMARK    3  A    between atoms: N2_14  and  C11_15 
REMARK    4  A    between atoms: C11_15  and  C12_16 
REMARK    5  A    between atoms: C12_16  and  C13_17 
ROOT
HETATM    1  C3  UNL     1      -3.358  -0.781  -0.012  1.00  0.00    -0.018 C 
HETATM    2  C4  UNL     1      -4.777  -0.286  -0.326  1.00  0.00     0.049 C 
HETATM    3  C5  UNL     1      -4.481   1.220  -0.423  1.00  0.00     0.217 C 
HETATM    4  N1  UNL     1      -3.919   1.392  -1.754  1.00  0.00    -0.062 N 
ATOM      5  H11 UNL     1      -4.023   2.336  -2.125  1.00  0.00     0.278 HD
ATOM      6  H12 UNL     1      -4.446   0.917  -2.487  1.00  0.00     0.278 HD
HETATM    7  C6  UNL     1      -2.528   0.951  -1.649  1.00  0.00     0.224 C 
HETATM    8  C7  UNL     1      -2.378  -0.402  -1.072  1.00  0.00     0.049 C 
HETATM    9  C8  UNL     1      -1.817   2.055  -0.910  1.00  0.00     0.267 C 
HETATM   10  N4  UNL     1      -2.375   2.232   0.413  1.00  0.00    -0.057 N 
ATOM     11  H41 UNL     1      -2.574   3.218   0.584  1.00  0.00     0.278 HD
ATOM     12  H42 UNL     1      -1.660   2.071   1.123  1.00  0.00     0.278 HD
HETATM   13  C20 UNL     1      -3.523   1.445   0.684  1.00  0.00     0.218 C 
HETATM   14  C21 UNL     1      -3.070   0.100   1.210  1.00  0.00     0.049 C 
ENDROOT
BRANCH   9  15
HETATM   15  C9  UNL     1      -0.358   1.977  -0.945  1.00  0.00     0.058 A 
HETATM   16  C10 UNL     1       0.530   1.292  -0.136  1.00  0.00     0.119 A 
HETATM   17  N2  UNL     1       1.804   1.526  -0.566  1.00  0.00    -0.351 N 
HETATM   18  C19 UNL     1       1.711   2.342  -1.623  1.00  0.00     0.183 A 
HETATM   19  N3  UNL     1       0.427   2.618  -1.859  1.00  0.00    -0.353 N 
ATOM     20  H3  UNL     1       0.084   3.218  -2.609  1.00  0.00     0.166 HD
BRANCH  17  21
HETATM   21  C11 UNL     1       2.978   0.979   0.034  1.00  0.00     0.134 C 
BRANCH  21  22
HETATM   22  C12 UNL     1       3.378  -0.352  -0.565  1.00  0.00     0.058 C 
BRANCH  22  23
HETATM   23  C13 UNL     1       4.601  -0.894   0.080  1.00  0.00    -0.056 A 
HETATM   24  C14 UNL     1       5.835  -0.566  -0.444  1.00  0.00     0.010 A 
HETATM   25  C15 UNL     1       6.969  -1.071   0.158  1.00  0.00     0.043 A 
HETATM   26  C16 UNL     1       6.890  -1.900   1.276  1.00  0.00     0.116 A 
HETATM   27  F1  UNL     1       7.977  -2.403   1.877  1.00  0.00    -0.206 F 
HETATM   28  C17 UNL     1       5.648  -2.224   1.794  1.00  0.00     0.043 A 
HETATM   29  C18 UNL     1       4.519  -1.718   1.191  1.00  0.00     0.010 A 
ENDBRANCH  22  23
ENDBRANCH  21  22
ENDBRANCH  17  21
ENDBRANCH   9  15
BRANCH   1  30
HETATM   30  C2  UNL     1      -3.312  -2.207   0.294  1.00  0.00    -0.027 C 
HETATM   31  C1  UNL     1      -4.243  -2.770   1.063  1.00  0.00     0.007 C 
ENDBRANCH   1  30
TORSDOF 5
