REMARK  2 active torsions:
REMARK  status: ('A' for Active; 'I' for Inactive)
REMARK    1  A    between atoms: C2_2  and  N1_4 
REMARK    2  A    between atoms: C8_10  and  O1_11 
ROOT
HETATM    1  N1  UNL     1      -1.710  -0.446   0.654  1.00  0.00    -0.392 N 
ATOM      2  H1  UNL     1      -2.230  -0.589   1.519  1.00  0.00     0.159 HD
HETATM    3  C4  UNL     1      -0.347  -0.479   0.734  1.00  0.00    -0.005 C 
HETATM    4  C5  UNL     1       0.311  -1.653  -0.079  1.00  0.00     0.132 C 
HETATM    5  C6  UNL     1       1.663  -1.284  -0.226  1.00  0.00    -0.175 C 
HETATM    6  C7  UNL     1       2.989  -0.851  -0.347  1.00  0.00     0.114 C 
HETATM    7  C8  UNL     1       3.020   0.604   0.240  1.00  0.00     0.162 C 
HETATM    8  C9  UNL     1       1.809   0.902   1.096  1.00  0.00     0.205 C 
HETATM    9  F1  UNL     1       2.030   2.269   1.412  1.00  0.00    -0.246 F 
HETATM   10  C10 UNL     1       0.444   0.807   0.596  1.00  0.00     0.092 C 
ENDROOT
BRANCH   1  11
HETATM   11  C2  UNL     1      -2.452  -0.234  -0.506  1.00  0.00     0.073 C 
HETATM   12  C1  UNL     1      -2.263   1.156  -1.055  1.00  0.00     0.031 C 
HETATM   13  C3  UNL     1      -3.943  -0.348  -0.150  1.00  0.00     0.031 C 
ENDBRANCH   1  11
BRANCH   7  14
HETATM   14  O1  UNL     1       2.936   1.462  -0.876  1.00  0.00    -0.392 OA
ATOM     15  H1  UNL     1       2.955   2.343  -0.521  1.00  0.00     0.210 HD
ENDBRANCH   7  14
TORSDOF 2
