REMARK  3 active torsions:
REMARK  status: ('A' for Active; 'I' for Inactive)
REMARK    1  A    between atoms: C2_2  and  N1_3 
REMARK    2  A    between atoms: N1_3  and  C3_5 
REMARK    3  A    between atoms: C6_8  and  O1_9 
ROOT
HETATM    1  C1  UNL     1       0.297   1.697  -0.321  1.00  0.00     0.043 C 
HETATM    2  C2  UNL     1       0.009   0.297   0.237  1.00  0.00     0.079 C 
HETATM    3  C6  UNL     1       0.918   0.223   1.477  1.00  0.00     0.148 C 
HETATM    4  C7  UNL     1       2.326   0.542   1.125  1.00  0.00     0.034 C 
HETATM    5  C8  UNL     1       2.744   0.248  -0.267  1.00  0.00     0.006 C 
HETATM    6  C9  UNL     1       1.924  -0.724  -1.033  1.00  0.00     0.040 C 
HETATM    7  C10 UNL     1       0.446  -0.703  -0.779  1.00  0.00     0.200 C 
HETATM    8  F1  UNL     1       0.138  -2.012  -0.358  1.00  0.00    -0.247 F 
ENDROOT
BRANCH   2   9
HETATM    9  N1  UNL     1      -1.329   0.141   0.613  1.00  0.00    -0.404 N 
ATOM     10  H1  UNL     1      -1.529  -0.065   1.592  1.00  0.00     0.154 HD
BRANCH   9  11
HETATM   11  C3  UNL     1      -2.405   0.249  -0.263  1.00  0.00     0.077 A 
HETATM   12  C4  UNL     1      -2.788  -0.565  -1.405  1.00  0.00     0.027 A 
HETATM   13  C5  UNL     1      -3.480  -0.851  -0.117  1.00  0.00     0.027 A 
ENDBRANCH   9  11
ENDBRANCH   2   9
BRANCH   3  14
HETATM   14  O1  UNL     1       0.851  -0.971   2.128  1.00  0.00    -0.393 OA
ATOM     15  H1  UNL     1       1.412  -1.017   2.893  1.00  0.00     0.210 HD
ENDBRANCH   3  14
TORSDOF 3
