REMARK  2 active torsions:
REMARK  status: ('A' for Active; 'I' for Inactive)
REMARK    1  A    between atoms: C2_2  and  C3_3 
REMARK       I    between atoms: C3_3  and  N1_5 
REMARK    2  A    between atoms: N1_5  and  C4_7 
ROOT
HETATM    1  C3  UNL     1       0.881  -0.672  -0.598  1.00  0.00     0.241 C 
HETATM    2  O1  UNL     1       0.687  -1.730  -1.237  1.00  0.00    -0.269 OA
HETATM    3  N1  UNL     1      -0.228  -0.009  -0.033  1.00  0.00    -0.347 N 
ATOM      4  H1  UNL     1      -0.081   0.854   0.490  1.00  0.00     0.163 HD
ENDROOT
BRANCH   3   5
HETATM    5  C4  UNL     1      -1.590  -0.537  -0.183  1.00  0.00     0.130 A 
HETATM    6  C5  UNL     1      -2.681   0.416  -0.065  1.00  0.00     0.000 A 
HETATM    7  C6  UNL     1      -2.429  -0.395   1.027  1.00  0.00     0.000 A 
ENDBRANCH   3   5
BRANCH   1   8
HETATM    8  C2  UNL     1       2.230  -0.162  -0.459  1.00  0.00     0.064 C 
HETATM    9  C1  UNL     1       2.510   0.945   0.199  1.00  0.00     0.017 C 
ENDBRANCH   1   8
TORSDOF 2
