REMARK  4 active torsions:
REMARK  status: ('A' for Active; 'I' for Inactive)
REMARK    1  A    between atoms: C2_2  and  C3_3 
REMARK    2  A    between atoms: C3_3  and  C4_4 
REMARK    3  A    between atoms: C4_4  and  C5_5 
REMARK    4  A    between atoms: C8_14  and  N3_15 
ROOT
HETATM    1  C5  UNL     1       1.884  -0.562  -0.362  1.00  0.00     0.084 A 
HETATM    2  N1  UNL     1       2.161  -0.885   0.903  1.00  0.00    -0.331 N 
ATOM      3  H1  UNL     1       3.127  -1.110   1.142  1.00  0.00     0.168 HD
HETATM    4  C6  UNL     1       1.242  -0.931   1.878  1.00  0.00     0.126 A 
HETATM    5  N2  UNL     1       1.510  -1.238   3.078  1.00  0.00    -0.384 N 
ATOM      6  H21 UNL     1       0.811  -1.273   3.820  1.00  0.00     0.157 HD
ATOM      7  H22 UNL     1       2.466  -1.464   3.352  1.00  0.00     0.157 HD
HETATM    8  C7  UNL     1      -0.072  -0.620   1.501  1.00  0.00     0.121 A 
HETATM    9 CL1  UNL     1      -1.280  -0.668   2.743  1.00  0.00    -0.076 Cl
HETATM   10  C8  UNL     1      -0.380  -0.288   0.209  1.00  0.00     0.130 A 
HETATM   11  N5  UNL     1       0.617  -0.271  -0.675  1.00  0.00    -0.331 N 
ATOM     12  H5  UNL     1       0.402  -0.023  -1.641  1.00  0.00     0.168 HD
ENDROOT
BRANCH  10  13
HETATM   13  N3  UNL     1      -1.737  -0.033  -0.120  1.00  0.00    -0.362 N 
HETATM   14  C9  UNL     1      -2.369   1.167   0.311  1.00  0.00     0.154 C 
HETATM   15  C10 UNL     1      -3.464   1.526  -0.674  1.00  0.00     0.291 C 
HETATM   16  N4  UNL     1      -4.375   0.404  -0.776  1.00  0.00     0.087 N 
HETATM   17  C11 UNL     1      -5.113   0.168   0.445  1.00  0.00     0.310 C 
HETATM   18  C12 UNL     1      -3.774  -0.757  -1.330  1.00  0.00     0.291 C 
HETATM   19  C13 UNL     1      -2.386  -1.062  -0.913  1.00  0.00     0.154 C 
ENDBRANCH  10  13
BRANCH   1  20
HETATM   20  C4  UNL     1       2.987  -0.579  -1.346  1.00  0.00     0.076 C 
BRANCH  20  21
HETATM   21  C3  UNL     1       3.764   0.691  -1.408  1.00  0.00     0.007 C 
BRANCH  21  22
HETATM   22  C2  UNL     1       4.420   1.032  -0.083  1.00  0.00    -0.004 C 
HETATM   23  C1  UNL     1       5.397  -0.009   0.389  1.00  0.00     0.005 C 
ENDBRANCH  21  22
ENDBRANCH  20  21
ENDBRANCH   1  20
TORSDOF 4
