REMARK  6 active torsions:
REMARK  status: ('A' for Active; 'I' for Inactive)
REMARK    1  A    between atoms: C2_2  and  C3_3 
REMARK    2  A    between atoms: C2_2  and  C4_6 
REMARK    3  A    between atoms: C3_3  and  O1_4 
REMARK    4  A    between atoms: C5_7  and  O2_8 
REMARK    5  A    between atoms: C16_20  and  N1_21 
REMARK    6  A    between atoms: N1_21  and  C17_23 
ROOT
HETATM    1  C4  UNL     1       3.545   0.990   0.498  1.00  0.00     0.049 C 
HETATM    2  C5  UNL     1       3.167   1.949  -0.549  1.00  0.00     0.127 C 
HETATM    3  C6  UNL     1       2.637   1.044  -1.638  1.00  0.00     0.042 C 
HETATM    4  C7  UNL     1       2.071  -0.191  -1.062  1.00  0.00    -0.030 C 
HETATM    5  C8  UNL     1       2.534  -1.320  -2.023  1.00  0.00     0.016 C 
HETATM    6  C9  UNL     1       2.836  -0.341   0.181  1.00  0.00     0.005 C 
HETATM    7  C10 UNL     1       2.185  -0.753   1.429  1.00  0.00     0.006 C 
HETATM    8  C11 UNL     1       0.864  -1.374   1.078  1.00  0.00     0.006 C 
HETATM    9  C12 UNL     1       0.063  -0.271   0.379  1.00  0.00     0.003 C 
HETATM   10  C13 UNL     1      -1.390  -0.418   0.643  1.00  0.00    -0.034 C 
HETATM   11  C14 UNL     1      -1.520  -0.832   2.107  1.00  0.00     0.016 C 
HETATM   12  C15 UNL     1      -2.166   0.925   0.623  1.00  0.00     0.035 C 
HETATM   13  C16 UNL     1      -3.587   0.766   0.280  1.00  0.00     0.082 C 
HETATM   14  C19 UNL     1      -4.232  -0.577   0.561  1.00  0.00     0.034 C 
HETATM   15  C20 UNL     1      -3.445  -1.765   0.065  1.00  0.00    -0.042 C 
HETATM   16  C21 UNL     1      -3.519  -2.948   0.968  1.00  0.00     0.015 C 
HETATM   17  C22 UNL     1      -4.142  -2.256  -1.229  1.00  0.00     0.015 C 
HETATM   18  C23 UNL     1      -2.114  -1.263  -0.330  1.00  0.00     0.002 C 
HETATM   19  C24 UNL     1      -1.171  -2.211  -0.967  1.00  0.00     0.007 C 
HETATM   20  C25 UNL     1       0.037  -1.626  -1.591  1.00  0.00     0.011 C 
HETATM   21  C26 UNL     1       0.555  -0.327  -1.026  1.00  0.00    -0.032 C 
HETATM   22  C27 UNL     1       0.098   0.767  -1.952  1.00  0.00     0.016 C 
ENDROOT
BRANCH   1  23
HETATM   23  C2  UNL     1       4.963   0.806   0.831  1.00  0.00    -0.059 C 
HETATM   24  C1  UNL     1       5.403   1.238   2.038  1.00  0.00     0.017 C 
BRANCH  23  25
HETATM   25  C3  UNL     1       5.982   0.146  -0.000  1.00  0.00     0.198 C 
BRANCH  25  26
HETATM   26  O1  UNL     1       6.251   0.724  -1.218  1.00  0.00    -0.397 OA
ATOM     27  H1  UNL     1       6.909   0.298  -1.755  1.00  0.00     0.209 HD
ENDBRANCH  25  26
ENDBRANCH  23  25
ENDBRANCH   1  23
BRANCH   2  28
HETATM   28  O2  UNL     1       4.244   2.686  -0.991  1.00  0.00    -0.395 OA
ATOM     29  H2  UNL     1       4.000   3.306  -1.668  1.00  0.00     0.210 HD
ENDBRANCH   2  28
BRANCH  13  30
HETATM   30  N1  UNL     1      -4.442   1.732   0.876  1.00  0.00    -0.398 N 
ATOM     31  H1  UNL     1      -5.143   1.431   1.553  1.00  0.00     0.159 HD
BRANCH  30  32
HETATM   32  C17 UNL     1      -4.337   3.097   0.548  1.00  0.00     0.051 C 
HETATM   33  C18 UNL     1      -3.129   3.829   1.056  1.00  0.00     0.054 C 
ENDBRANCH  30  32
ENDBRANCH  13  30
TORSDOF 6
