REMARK  6 active torsions:
REMARK  status: ('A' for Active; 'I' for Inactive)
REMARK    1  A    between atoms: C2_2  and  N1_4 
REMARK    2  A    between atoms: N1_4  and  C4_6 
REMARK    3  A    between atoms: C4_6  and  C6_8 
REMARK    4  A    between atoms: C12_14  and  O1_15 
REMARK    5  A    between atoms: C19_23  and  C20_24 
REMARK    6  A    between atoms: C20_24  and  O2_27 
ROOT
HETATM    1  C6  UNL     1       2.196   0.827  -0.193  1.00  0.00    -0.020 C 
HETATM    2  C7  UNL     1       2.964   0.661  -1.460  1.00  0.00     0.018 C 
HETATM    3  C8  UNL     1       2.310   2.189   0.457  1.00  0.00     0.012 C 
HETATM    4  C9  UNL     1       0.888   2.667   0.746  1.00  0.00     0.011 C 
HETATM    5  C10 UNL     1       0.064   1.995  -0.366  1.00  0.00    -0.030 C 
HETATM    6  C11 UNL     1       0.488   2.811  -1.586  1.00  0.00     0.042 C 
HETATM    7  C12 UNL     1       0.004   4.249  -1.453  1.00  0.00     0.118 C 
HETATM    8  C13 UNL     1      -1.402   4.342  -0.902  1.00  0.00     0.032 C 
HETATM    9  C14 UNL     1      -2.009   2.969  -1.188  1.00  0.00     0.008 C 
HETATM   10  C15 UNL     1      -1.378   2.018  -0.145  1.00  0.00    -0.001 C 
HETATM   11  C16 UNL     1      -2.223   0.874   0.068  1.00  0.00    -0.001 C 
HETATM   12  C17 UNL     1      -2.293   0.497   1.557  1.00  0.00     0.006 C 
HETATM   13  C18 UNL     1      -2.541  -0.986   1.583  1.00  0.00     0.009 C 
HETATM   14  C19 UNL     1      -3.069  -1.241   0.186  1.00  0.00     0.028 C 
HETATM   15  C23 UNL     1      -2.164  -0.401  -0.650  1.00  0.00    -0.034 C 
HETATM   16  C24 UNL     1      -2.842  -0.280  -2.020  1.00  0.00     0.016 C 
HETATM   17  C25 UNL     1      -0.870  -1.056  -0.853  1.00  0.00     0.010 C 
HETATM   18  C26 UNL     1       0.206  -0.145  -1.449  1.00  0.00     0.007 C 
HETATM   19  C27 UNL     1       0.736   0.644  -0.304  1.00  0.00     0.005 C 
ENDROOT
BRANCH   1  20
HETATM   20  C4  UNL     1       2.885  -0.121   0.819  1.00  0.00     0.081 C 
HETATM   21  C5  UNL     1       4.290   0.412   0.986  1.00  0.00     0.032 C 
BRANCH  20  22
HETATM   22  N1  UNL     1       2.857  -1.443   0.414  1.00  0.00    -0.413 N 
ATOM     23  H1  UNL     1       2.461  -1.648  -0.504  1.00  0.00     0.153 HD
BRANCH  22  24
HETATM   24  C2  UNL     1       3.330  -2.517   1.168  1.00  0.00     0.068 C 
HETATM   25  C1  UNL     1       4.809  -2.558   1.435  1.00  0.00     0.031 C 
HETATM   26  C3  UNL     1       2.997  -3.869   0.492  1.00  0.00     0.031 C 
ENDBRANCH  22  24
ENDBRANCH  20  22
ENDBRANCH   1  20
BRANCH   7  27
HETATM   27  O1  UNL     1      -0.095   4.721  -2.785  1.00  0.00    -0.396 OA
ATOM     28  H1  UNL     1      -0.397   5.618  -2.702  1.00  0.00     0.210 HD
ENDBRANCH   7  27
BRANCH  14  29
HETATM   29  C20 UNL     1      -3.193  -2.673  -0.021  1.00  0.00     0.055 C 
HETATM   30  C21 UNL     1      -4.179  -3.176   1.052  1.00  0.00     0.045 C 
HETATM   31  C22 UNL     1      -3.721  -3.164  -1.322  1.00  0.00     0.045 C 
BRANCH  29  32
HETATM   32  O2  UNL     1      -2.004  -3.397   0.232  1.00  0.00    -0.390 OA
ATOM     33  H2  UNL     1      -2.085  -4.334   0.097  1.00  0.00     0.210 HD
ENDBRANCH  29  32
ENDBRANCH  14  29
TORSDOF 6
