REMARK  1 active torsions:
REMARK  status: ('A' for Active; 'I' for Inactive)
REMARK    1  A    between atoms: C4_4  and  N1_5 
ROOT
HETATM    1  N1  UNL     1      -0.898  -0.787   0.111  1.00  0.00    -0.215 N 
HETATM    2  O1  UNL     1      -0.101  -1.880   0.141  1.00  0.00    -0.228 OA
HETATM    3  C5  UNL     1       1.176  -1.501   0.063  1.00  0.00     0.125 A 
HETATM    4  C6  UNL     1       1.129  -0.161  -0.013  1.00  0.00     0.059 A 
HETATM    5  C7  UNL     1       2.292   0.511  -0.103  1.00  0.00     0.059 A 
HETATM    6  N2  UNL     1       2.173   1.870  -0.178  1.00  0.00    -0.354 N 
ATOM      7  H2  UNL     1       3.001   2.461  -0.249  1.00  0.00     0.166 HD
HETATM    8  C8  UNL     1       0.916   2.425  -0.156  1.00  0.00     0.045 A 
HETATM    9  C9  UNL     1       0.759   3.791  -0.229  1.00  0.00     0.030 A 
HETATM   10  C10 UNL     1      -0.500   4.343  -0.207  1.00  0.00     0.002 A 
HETATM   11  C11 UNL     1      -1.638   3.571  -0.112  1.00  0.00     0.001 A 
HETATM   12  C12 UNL     1      -1.515   2.175  -0.036  1.00  0.00     0.016 A 
HETATM   13  C13 UNL     1      -0.271   1.673  -0.060  1.00  0.00     0.021 A 
HETATM   14  C14 UNL     1      -0.135   0.300   0.014  1.00  0.00     0.091 A 
HETATM   15  C15 UNL     1       3.289  -0.543  -0.085  1.00  0.00     0.005 A 
HETATM   16  C16 UNL     1       4.639  -0.465  -0.148  1.00  0.00     0.014 A 
HETATM   17  C17 UNL     1       5.347  -1.661  -0.108  1.00  0.00     0.001 A 
HETATM   18  C18 UNL     1       4.693  -2.898  -0.007  1.00  0.00     0.001 A 
HETATM   19  C19 UNL     1       3.305  -2.956   0.056  1.00  0.00     0.015 A 
HETATM   20  C20 UNL     1       2.622  -1.794   0.018  1.00  0.00     0.013 A 
ENDROOT
BRANCH   1  21
HETATM   21  C4  UNL     1      -2.290  -0.920   0.179  1.00  0.00     0.063 A 
HETATM   22  C3  UNL     1      -2.975  -1.093  -1.000  1.00  0.00     0.032 A 
HETATM   23  C2  UNL     1      -4.332  -1.283  -0.996  1.00  0.00     0.002 A 
HETATM   24  C1  UNL     1      -5.066  -1.309   0.179  1.00  0.00     0.000 A 
HETATM   25  C22 UNL     1      -4.360  -1.134   1.348  1.00  0.00     0.002 A 
HETATM   26  C21 UNL     1      -3.002  -0.942   1.363  1.00  0.00     0.032 A 
ENDBRANCH   1  21
TORSDOF 1
