REMARK  7 active torsions:
REMARK  status: ('A' for Active; 'I' for Inactive)
REMARK    1  A    between atoms: N1_1  and  C1_4 
REMARK    2  A    between atoms: C2_9  and  C3_10 
REMARK    3  A    between atoms: C3_10  and  S1_11 
REMARK    4  A    between atoms: S1_11  and  C4_12 
REMARK    5  A    between atoms: C4_12  and  C5_13 
REMARK    6  A    between atoms: C5_13  and  C6_14 
REMARK    7  A    between atoms: C9_21  and  N7_22 
ROOT
HETATM    1  C5  UNL     1      -0.217  -0.423   0.738  1.00  0.00     0.087 C 
ENDROOT
BRANCH   1   2
HETATM    2  C4  UNL     1       0.419   0.929   0.405  1.00  0.00     0.082 C 
BRANCH   2   3
HETATM    3  S1  UNL     1       2.208   0.878   0.696  1.00  0.00    -0.161 SA
BRANCH   3   4
HETATM    4  C3  UNL     1       2.917  -0.279  -0.520  1.00  0.00     0.160 C 
BRANCH   4   5
HETATM    5  C2  UNL     1       4.382  -0.314  -0.271  1.00  0.00     0.151 A 
HETATM    6  N3  UNL     1       5.086  -1.118   0.533  1.00  0.00    -0.279 N 
HETATM    7  N2  UNL     1       6.365  -0.813   0.460  1.00  0.00    -0.263 N 
ATOM      8  H3  UNL     1       4.691  -1.857   1.115  1.00  0.00     0.189 HD
HETATM    9  C1  UNL     1       6.444   0.208  -0.417  1.00  0.00     0.238 A 
ATOM     10  H2  UNL     1       7.135  -1.256   0.962  1.00  0.00     0.190 HD
HETATM   11  O1  UNL     1       5.236   0.490  -0.843  1.00  0.00    -0.263 OA
BRANCH   9  12
HETATM   12  N1  UNL     1       7.549   0.773  -0.743  1.00  0.00    -0.364 N 
ATOM     13  H12 UNL     1       8.488   0.554  -0.412  1.00  0.00     0.159 HD
ATOM     14  H11 UNL     1       7.609   1.545  -1.406  1.00  0.00     0.159 HD
ENDBRANCH   9  12
ENDBRANCH   4   5
ENDBRANCH   3   4
ENDBRANCH   2   3
ENDBRANCH   1   2
BRANCH   1  15
HETATM   15  C6  UNL     1      -1.684  -0.343   0.490  1.00  0.00     0.084 A 
HETATM   16  N4  UNL     1      -2.219   0.796   0.043  1.00  0.00    -0.333 N 
HETATM   17  C7  UNL     1      -3.523   0.949  -0.202  1.00  0.00     0.145 A 
ATOM     18  H4  UNL     1      -1.600   1.590  -0.120  1.00  0.00     0.168 HD
HETATM   19  N5  UNL     1      -3.953   2.207  -0.671  1.00  0.00    -0.081 NA
HETATM   20  C8  UNL     1      -4.363  -0.115   0.014  1.00  0.00     0.131 A 
HETATM   21  N6  UNL     1      -5.745   0.029  -0.238  1.00  0.00    -0.095 NA
HETATM   22  C9  UNL     1      -3.810  -1.289   0.474  1.00  0.00     0.128 A 
HETATM   23  N8  UNL     1      -2.479  -1.388   0.706  1.00  0.00    -0.331 N 
ATOM     24  H8  UNL     1      -2.086  -2.265   1.047  1.00  0.00     0.168 HD
BRANCH  22  25
HETATM   25  N7  UNL     1      -4.544  -2.323   0.697  1.00  0.00    -0.384 N 
ATOM     26  H72 UNL     1      -5.546  -2.248   0.522  1.00  0.00     0.157 HD
ATOM     27  H71 UNL     1      -4.134  -3.193   1.038  1.00  0.00     0.157 HD
ENDBRANCH  22  25
ENDBRANCH   1  15
TORSDOF 7
