REMARK  9 active torsions:
REMARK  status: ('A' for Active; 'I' for Inactive)
REMARK    1  A    between atoms: S1_2  and  C2_3 
REMARK    2  A    between atoms: C2_3  and  C3_4 
REMARK    3  A    between atoms: C4_6  and  O2_7 
REMARK    4  A    between atoms: O2_7  and  C5_8 
REMARK    5  A    between atoms: C6_10  and  O4_11 
REMARK    6  A    between atoms: O4_11  and  C7_12 
REMARK    7  A    between atoms: C10_16  and  N1_17 
REMARK       I    between atoms: N1_17  and  C11_19 
REMARK    8  A    between atoms: C12_24  and  N4_25 
REMARK       I    between atoms: N4_25  and  C13_27 
REMARK    9  A    between atoms: C16_32  and  O8_34 
ROOT
HETATM    1  C5  UNL     1      -0.848   0.336  -0.208  1.00  0.00     0.293 C 
HETATM    2  O3  UNL     1      -1.092   1.582  -0.795  1.00  0.00    -0.329 OA
HETATM    3  C6  UNL     1      -2.264   2.166  -0.270  1.00  0.00     0.274 C 
HETATM    4  C9  UNL     1      -3.480   1.350  -0.546  1.00  0.00     0.088 C 
HETATM    5  C10 UNL     1      -3.221  -0.054   0.021  1.00  0.00     0.116 C 
HETATM    6  C12 UNL     1      -1.960  -0.559  -0.634  1.00  0.00     0.162 C 
ENDROOT
BRANCH   1   7
HETATM    7  O2  UNL     1       0.398  -0.077  -0.672  1.00  0.00    -0.306 OA
BRANCH   7   8
HETATM    8  C4  UNL     1       1.301  -0.264   0.365  1.00  0.00     0.415 C 
HETATM    9  O1  UNL     1       2.416   0.561   0.209  1.00  0.00    -0.330 OA
HETATM   10  C3  UNL     1       3.529  -0.075   0.872  1.00  0.00     0.172 C 
HETATM   11  C16 UNL     1       4.008  -1.128  -0.046  1.00  0.00     0.102 C 
HETATM   12  C15 UNL     1       2.706  -1.907  -0.436  1.00  0.00     0.213 C 
HETATM   13  C17 UNL     1       4.574  -0.628  -1.337  1.00  0.00     0.051 C 
HETATM   14  O7  UNL     1       1.704  -1.612   0.479  1.00  0.00    -0.336 OA
BRANCH  10  15
HETATM   15  C2  UNL     1       4.421   0.945   1.427  1.00  0.00     0.108 C 
BRANCH  15  16
HETATM   16  S1  UNL     1       5.821   0.356   2.317  1.00  0.00    -0.171 SA
HETATM   17  C1  UNL     1       7.163  -0.317   1.386  1.00  0.00     0.089 C 
ENDBRANCH  15  16
ENDBRANCH  10  15
BRANCH  11  18
HETATM   18  O8  UNL     1       4.863  -2.053   0.515  1.00  0.00    -0.385 OA
ATOM     19  H8  UNL     1       5.171  -2.730  -0.076  1.00  0.00     0.210 HD
ENDBRANCH  11  18
ENDBRANCH   7   8
ENDBRANCH   1   7
BRANCH   6  20
HETATM   20  N4  UNL     1      -1.721  -1.958  -0.432  1.00  0.00    -0.350 N 
HETATM   21  C13 UNL     1      -1.674  -2.935  -1.430  1.00  0.00     0.214 C 
HETATM   22  C14 UNL     1      -1.420  -4.343  -1.093  1.00  0.00     0.117 C 
HETATM   23  O6  UNL     1      -1.849  -2.605  -2.619  1.00  0.00    -0.274 OA
ATOM     24  H4  UNL     1      -1.572  -2.269   0.528  1.00  0.00     0.163 HD
ENDBRANCH   6  20
BRANCH   3  25
HETATM   25  O4  UNL     1      -2.290   3.472  -0.707  1.00  0.00    -0.290 OA
BRANCH  25  26
HETATM   26  C7  UNL     1      -2.151   4.604   0.069  1.00  0.00     0.257 C 
HETATM   27  C8  UNL     1      -2.186   5.981  -0.445  1.00  0.00     0.126 C 
HETATM   28  O5  UNL     1      -1.986   4.425   1.292  1.00  0.00    -0.266 OA
ENDBRANCH  25  26
ENDBRANCH   3  25
BRANCH   5  29
HETATM   29  N1  UNL     1      -4.351  -0.919  -0.238  1.00  0.00    -0.358 N 
HETATM   30  C11 UNL     1      -5.613  -0.532   0.307  1.00  0.00     0.182 C 
HETATM   31  N2  UNL     1      -6.413   0.195  -0.368  1.00  0.00    -0.374 N 
HETATM   32  N3  UNL     1      -6.020  -0.935   1.605  1.00  0.00    -0.064 NA
ATOM     33  H22 UNL     1      -6.120   0.485  -1.301  1.00  0.00     0.158 HD
ATOM     34  H21 UNL     1      -7.314   0.471   0.021  1.00  0.00     0.158 HD
ATOM     35  H1  UNL     1      -4.250  -1.772  -0.788  1.00  0.00     0.162 HD
ENDBRANCH   5  29
TORSDOF 9
