REMARK  10 active torsions:
REMARK  status: ('A' for Active; 'I' for Inactive)
REMARK    1  A    between atoms: S1_2  and  C2_3 
REMARK    2  A    between atoms: C2_3  and  C3_4 
REMARK       I    between atoms: C3_4  and  N1_6 
REMARK    3  A    between atoms: N1_6  and  C4_8 
REMARK    4  A    between atoms: C7_14  and  O2_15 
REMARK    5  A    between atoms: O2_15  and  C8_16 
REMARK    6  A    between atoms: C10_18  and  O3_19 
REMARK    7  A    between atoms: C12_23  and  O5_24 
REMARK    8  A    between atoms: C13_26  and  O6_27 
REMARK    9  A    between atoms: O6_27  and  C14_28 
REMARK   10  A    between atoms: C20_35  and  O8_36 
ROOT
HETATM    1  C4  UNL     1       1.291  -1.038  -0.593  1.00  0.00     0.146 C 
HETATM    2  C5  UNL     1       0.442  -2.088   0.063  1.00  0.00     0.210 C 
HETATM    3  C6  UNL     1       1.361  -3.054   0.781  1.00  0.00     0.042 C 
HETATM    4  N2  UNL     1      -0.495  -1.579   1.004  1.00  0.00    -0.040 N 
ATOM      5  H21 UNL     1      -0.080  -0.846   1.580  1.00  0.00     0.280 HD
ATOM      6  H22 UNL     1      -0.695  -2.263   1.734  1.00  0.00     0.280 HD
HETATM    7  C7  UNL     1      -1.692  -1.128   0.376  1.00  0.00     0.355 C 
HETATM    8  C12 UNL     1      -1.640   0.336  -0.054  1.00  0.00     0.206 C 
HETATM    9  C13 UNL     1      -0.225   0.839  -0.217  1.00  0.00     0.185 C 
HETATM   10  C20 UNL     1       0.472   0.037  -1.269  1.00  0.00     0.174 C 
ENDROOT
BRANCH   7  11
HETATM   11  O2  UNL     1      -2.821  -1.331   1.130  1.00  0.00    -0.326 OA
BRANCH  11  12
HETATM   12  C8  UNL     1      -3.689  -2.165   0.472  1.00  0.00     0.265 C 
HETATM   13  C9  UNL     1      -5.050  -1.552   0.250  1.00  0.00     0.094 C 
HETATM   14  C10 UNL     1      -5.978  -2.613   0.794  1.00  0.00     0.146 C 
HETATM   15  C11 UNL     1      -5.083  -3.285   1.822  1.00  0.00     0.202 C 
HETATM   16  O4  UNL     1      -3.861  -3.327   1.206  1.00  0.00    -0.359 OA
BRANCH  14  17
HETATM   17  O3  UNL     1      -6.378  -3.524  -0.168  1.00  0.00    -0.393 OA
ATOM     18  H3  UNL     1      -6.961  -4.191   0.174  1.00  0.00     0.210 HD
ENDBRANCH  14  17
ENDBRANCH  11  12
ENDBRANCH   7  11
BRANCH   8  19
HETATM   19  O5  UNL     1      -2.297   1.042   0.952  1.00  0.00    -0.388 OA
ATOM     20  H5  UNL     1      -2.265   1.953   0.684  1.00  0.00     0.210 HD
ENDBRANCH   8  19
BRANCH   9  21
HETATM   21  O6  UNL     1      -0.223   2.193  -0.417  1.00  0.00    -0.373 OA
BRANCH  21  22
HETATM   22  C14 UNL     1       0.399   2.971   0.516  1.00  0.00     0.145 C 
HETATM   23  C15 UNL     1       1.570   3.630  -0.232  1.00  0.00     0.034 C 
HETATM   24  C16 UNL     1       2.223   4.721   0.544  1.00  0.00     0.005 C 
HETATM   25  C17 UNL     1       1.587   6.025   0.093  1.00  0.00     0.026 C 
HETATM   26  C18 UNL     1       0.268   6.174   0.789  1.00  0.00     0.167 C 
HETATM   27  O7  UNL     1       0.065   5.100   1.629  1.00  0.00    -0.389 OA
HETATM   28  C19 UNL     1      -0.567   4.021   1.014  1.00  0.00     0.199 C 
ENDBRANCH  21  22
ENDBRANCH   9  21
BRANCH   1  29
HETATM   29  N1  UNL     1       2.125  -1.698  -1.592  1.00  0.00    -0.351 N 
HETATM   30  C3  UNL     1       3.541  -1.734  -1.490  1.00  0.00     0.227 C 
HETATM   31  O1  UNL     1       4.141  -1.196  -0.531  1.00  0.00    -0.273 OA
ATOM     32  H1  UNL     1       1.676  -2.148  -2.390  1.00  0.00     0.163 HD
BRANCH  30  33
HETATM   33  C2  UNL     1       4.339  -2.418  -2.532  1.00  0.00     0.176 C 
BRANCH  33  34
HETATM   34  S1  UNL     1       6.102  -2.349  -2.220  1.00  0.00    -0.164 SA
HETATM   35  C1  UNL     1       6.454  -3.325  -0.706  1.00  0.00     0.090 C 
ENDBRANCH  33  34
ENDBRANCH  30  33
ENDBRANCH   1  29
BRANCH  10  36
HETATM   36  O8  UNL     1      -0.335  -0.538  -2.208  1.00  0.00    -0.391 OA
ATOM     37  H8  UNL     1      -0.850   0.138  -2.633  1.00  0.00     0.210 HD
ENDBRANCH  10  36
TORSDOF 10
