REMARK  2 active torsions:
REMARK  status: ('A' for Active; 'I' for Inactive)
REMARK    1  A    between atoms: C3_6  and  C4_7 
REMARK    2  A    between atoms: C4_7  and  N2_8 
REMARK       I    between atoms: N2_8  and  C5_11 
REMARK       I    between atoms: C5_11  and  N3_12 
REMARK       I    between atoms: C5_11  and  N4_16 
ROOT
HETATM    1  N2  UNL     1       0.931   0.224   0.282  1.00  0.00    -0.018 N 
ATOM      2  H21 UNL     1       0.619  -0.579   0.828  1.00  0.00     0.281 HD
ATOM      3  H22 UNL     1       0.556   0.947   0.896  1.00  0.00     0.281 HD
HETATM    4  C5  UNL     1       2.391   0.291   0.126  1.00  0.00     0.575 C 
HETATM    5  N3  UNL     1       2.773  -0.863  -0.660  1.00  0.00    -0.026 N 
ATOM      6  H31 UNL     1       3.786  -0.817  -0.768  1.00  0.00     0.278 HD
ATOM      7  H32 UNL     1       2.275  -0.930  -1.547  1.00  0.00     0.278 HD
ATOM      8  H33 UNL     1       2.449  -1.746  -0.265  1.00  0.00     0.278 HD
HETATM    9  N4  UNL     1       3.010   0.302   1.437  1.00  0.00    -0.026 N 
ATOM     10  H41 UNL     1       4.023   0.348   1.329  1.00  0.00     0.278 HD
ATOM     11  H42 UNL     1       2.718  -0.490   2.010  1.00  0.00     0.278 HD
ATOM     12  H43 UNL     1       2.649   1.050   2.030  1.00  0.00     0.278 HD
ENDROOT
BRANCH   1  13
HETATM   13  C4  UNL     1       0.379   0.261  -1.045  1.00  0.00     0.298 C 
BRANCH  13  14
HETATM   14  C3  UNL     1      -1.114   0.191  -1.053  1.00  0.00     0.351 C 
HETATM   15  N1  UNL     1      -1.787   0.910   0.012  1.00  0.00    -0.021 N 
HETATM   16  C2  UNL     1      -2.770  -0.175  -0.158  1.00  0.00     0.322 C 
ATOM     17  H12 UNL     1      -2.025   1.901  -0.038  1.00  0.00     0.283 HD
ATOM     18  H11 UNL     1      -1.348   1.140   0.904  1.00  0.00     0.283 HD
HETATM   19  C1  UNL     1      -3.477  -0.574   1.102  1.00  0.00     0.071 C 
HETATM   20  O1  UNL     1      -1.648  -0.982  -0.469  1.00  0.00    -0.325 OA
ENDBRANCH  13  14
ENDBRANCH   1  13
TORSDOF 2
