REMARK  3 active torsions:
REMARK  status: ('A' for Active; 'I' for Inactive)
REMARK    1  A    between atoms: C1_2  and  N1_3 
REMARK    2  A    between atoms: N1_3  and  N2_5 
REMARK    3  A    between atoms: N2_5  and  C2_7 
ROOT
HETATM    1  C2  UNL     1      -0.349  -0.313  -0.324  1.00  0.00     0.715 A 
HETATM    2  N3  UNL     1      -0.687   0.784  -1.031  1.00  0.00    -0.127 N 
ATOM      3  H3  UNL     1      -0.061   1.280  -1.666  1.00  0.00     0.206 HD
HETATM    4  N4  UNL     1      -1.947   1.132  -0.788  1.00  0.00    -0.237 N 
ATOM      5  H4  UNL     1      -2.446   1.923  -1.195  1.00  0.00     0.192 HD
HETATM    6  C3  UNL     1      -2.440   0.243   0.097  1.00  0.00     0.353 A 
HETATM    7  O2  UNL     1      -3.593   0.200   0.598  1.00  0.00    -0.245 OA
HETATM    8  N5  UNL     1      -1.456  -0.634   0.373  1.00  0.00    -0.137 N 
ATOM      9  H5  UNL     1      -1.537  -1.423   1.014  1.00  0.00     0.189 HD
ENDROOT
BRANCH   1  10
HETATM   10  N2  UNL     1       0.910  -1.000  -0.309  1.00  0.00    -0.128 N 
ATOM     11  H2  UNL     1       1.106  -1.771  -0.948  1.00  0.00     0.205 HD
BRANCH  10  12
HETATM   12  N1  UNL     1       1.845  -0.567   0.613  1.00  0.00    -0.263 N 
ATOM     13  H1  UNL     1       1.916  -1.026   1.521  1.00  0.00     0.190 HD
BRANCH  12  14
HETATM   14  C1  UNL     1       2.700   0.509   0.299  1.00  0.00     0.369 C 
HETATM   15  O1  UNL     1       2.589   1.074  -0.848  1.00  0.00    -0.282 OA
ENDBRANCH  12  14
ENDBRANCH  10  12
ENDBRANCH   1  10
TORSDOF 3
