REMARK  9 active torsions:
REMARK  status: ('A' for Active; 'I' for Inactive)
REMARK    1  A    between atoms: C3_4  and  C4_5 
REMARK       I    between atoms: C4_5  and  N2_7 
REMARK    2  A    between atoms: N2_7  and  C5_9 
REMARK    3  A    between atoms: C5_9  and  C6_10 
REMARK    4  A    between atoms: C5_9  and  C7_13 
REMARK    5  A    between atoms: C7_13  and  N4_14 
REMARK    6  A    between atoms: C7_13  and  C8_18 
REMARK    7  A    between atoms: C13_28  and  N7_29 
REMARK    8  A    between atoms: N7_29  and  C14_31 
REMARK    9  A    between atoms: N10_45  and  N11_47 
REMARK       I    between atoms: N11_47  and  C23_49 
ROOT
HETATM    1  C1  UNL     1      -2.053  -1.476   0.416  1.00  0.00     0.175 C 
HETATM    2  N1  UNL     1      -1.214  -0.574  -0.336  1.00  0.00    -0.196 N 
HETATM    3  C2  UNL     1       0.151  -0.771  -0.401  1.00  0.00     0.144 A 
HETATM    4  C3  UNL     1       0.664   0.224  -1.178  1.00  0.00     0.132 A 
HETATM    5  N6  UNL     1      -0.361   0.982  -1.556  1.00  0.00    -0.185 N 
ATOM      6  H6  UNL     1      -0.279   1.808  -2.148  1.00  0.00     0.184 HD
HETATM    7  C13 UNL     1      -1.547   0.507  -1.044  1.00  0.00     0.681 A 
ENDROOT
BRANCH   7   8
HETATM    8  N7  UNL     1      -2.776   1.153  -1.300  1.00  0.00    -0.215 N 
ATOM      9  H7  UNL     1      -2.710   1.965  -1.913  1.00  0.00     0.178 HD
BRANCH   8  10
HETATM   10  C14 UNL     1      -4.085   0.861  -0.847  1.00  0.00     0.156 C 
HETATM   11  C15 UNL     1      -5.125   1.688  -1.595  1.00  0.00     0.060 C 
HETATM   12  C16 UNL     1      -5.980   1.003  -2.561  1.00  0.00    -0.008 C 
HETATM   13  C17 UNL     1      -6.969  -0.004  -2.200  1.00  0.00     0.079 C 
HETATM   14  N8  UNL     1      -8.116   0.245  -1.475  1.00  0.00    -0.393 N 
HETATM   15  C18 UNL     1      -8.520  -0.577  -0.377  1.00  0.00     0.184 C 
ATOM     16  H8  UNL     1      -8.696   1.044  -1.731  1.00  0.00     0.159 HD
HETATM   17  C19 UNL     1      -7.498  -0.460   0.753  1.00  0.00     0.069 A 
HETATM   18  N9  UNL     1      -6.386   0.136   0.457  1.00  0.00    -0.350 N 
HETATM   19  S1  UNL     1      -7.219  -0.830   2.381  1.00  0.00    -0.085 SA
HETATM   20  C20 UNL     1      -5.409   0.327   1.288  1.00  0.00     0.065 A 
ATOM     21  H9  UNL     1      -6.271   0.479  -0.497  1.00  0.00     0.166 HD
HETATM   22  C21 UNL     1      -5.623  -0.155   2.550  1.00  0.00     0.083 A 
HETATM   23  C22 UNL     1      -4.242   1.073   0.621  1.00  0.00     0.076 C 
HETATM   24  N10 UNL     1      -3.597   1.811   1.397  1.00  0.00    -0.296 N 
ATOM     25  H10 UNL     1      -3.888   1.787   2.374  1.00  0.00     0.187 HD
BRANCH  24  26
HETATM   26  N11 UNL     1      -2.549   2.649   1.108  1.00  0.00    -0.243 N 
HETATM   27  C23 UNL     1      -1.450   2.858   2.011  1.00  0.00     0.303 C 
HETATM   28  O3  UNL     1      -1.393   2.277   3.123  1.00  0.00    -0.628 OA
HETATM   29  O4  UNL     1      -0.428   3.715   1.655  1.00  0.00    -0.628 OA
ATOM     30  H11 UNL     1      -2.550   3.144   0.216  1.00  0.00     0.193 HD
ENDBRANCH  24  26
ENDBRANCH   8  10
ENDBRANCH   7   8
BRANCH   4  31
HETATM   31  C4  UNL     1       2.051   0.470  -1.554  1.00  0.00     0.270 C 
HETATM   32  O1  UNL     1       2.303   1.449  -2.299  1.00  0.00    -0.266 OA
HETATM   33  N2  UNL     1       3.100  -0.380  -1.089  1.00  0.00    -0.341 N 
ATOM     34  H2  UNL     1       2.864  -1.167  -0.485  1.00  0.00     0.163 HD
BRANCH  33  35
HETATM   35  C5  UNL     1       4.487  -0.163  -1.445  1.00  0.00     0.204 C 
BRANCH  35  36
HETATM   36  C6  UNL     1       5.003  -1.285  -2.226  1.00  0.00     0.256 C 
HETATM   37  N3  UNL     1       6.325  -1.342  -2.733  1.00  0.00    -0.060 NA
HETATM   38  O2  UNL     1       4.263  -2.277  -2.488  1.00  0.00    -0.275 OA
ENDBRANCH  35  36
BRANCH  35  39
HETATM   39  C7  UNL     1       5.304   0.339  -0.306  1.00  0.00     0.219 C 
BRANCH  39  40
HETATM   40  N4  UNL     1       4.774   1.652   0.152  1.00  0.00    -0.072 N 
ATOM     41  H43 UNL     1       4.718   2.330  -0.608  1.00  0.00     0.274 HD
ATOM     42  H42 UNL     1       3.781   1.606   0.382  1.00  0.00     0.274 HD
ATOM     43  H41 UNL     1       5.334   1.996   0.932  1.00  0.00     0.274 HD
ENDBRANCH  39  40
BRANCH  39  44
HETATM   44  C8  UNL     1       5.390  -0.551   0.907  1.00  0.00     0.022 C 
HETATM   45  C9  UNL     1       6.255   0.232   1.911  1.00  0.00     0.034 C 
HETATM   46  C10 UNL     1       6.526  -0.592   3.138  1.00  0.00     0.232 C 
HETATM   47  N5  UNL     1       7.283  -1.760   2.738  1.00  0.00    -0.075 N 
HETATM   48  C11 UNL     1       6.405  -2.587   1.932  1.00  0.00     0.232 C 
ATOM     49  H52 UNL     1       8.156  -1.527   2.266  1.00  0.00     0.277 HD
ATOM     50  H51 UNL     1       7.690  -2.261   3.528  1.00  0.00     0.277 HD
HETATM   51  C12 UNL     1       6.046  -1.878   0.625  1.00  0.00     0.034 C 
ENDBRANCH  39  44
ENDBRANCH  35  39
ENDBRANCH  33  35
ENDBRANCH   4  31
TORSDOF 9
