REMARK  5 active torsions:
REMARK  status: ('A' for Active; 'I' for Inactive)
REMARK    1  A    between atoms: N1_1  and  C1_4 
REMARK    2  A    between atoms: C2_7  and  C3_8 
REMARK    3  A    between atoms: N3_9  and  N4_11 
REMARK    4  A    between atoms: N4_11  and  C4_13 
REMARK    5  A    between atoms: C4_13  and  N5_14 
ROOT
HETATM    1  C1  UNL     1      -3.664   0.240   0.189  1.00  0.00     0.698 A 
HETATM    2  N2  UNL     1      -2.460   0.844   0.060  1.00  0.00    -0.166 N 
ATOM      3  H2  UNL     1      -2.317   1.800  -0.265  1.00  0.00     0.186 HD
HETATM    4  C2  UNL     1      -1.486   0.002   0.421  1.00  0.00     0.202 A 
HETATM    5  O1  UNL     1      -2.079  -1.102   0.767  1.00  0.00    -0.203 OA
HETATM    6  N6  UNL     1      -3.378  -0.994   0.641  1.00  0.00    -0.089 N 
ATOM      7  H6  UNL     1      -4.059  -1.724   0.851  1.00  0.00     0.213 HD
ENDROOT
BRANCH   4   8
HETATM    8  C3  UNL     1      -0.043   0.214   0.445  1.00  0.00     0.165 C 
HETATM    9  N3  UNL     1       0.763  -0.705   0.822  1.00  0.00    -0.310 N 
ATOM     10  H3  UNL     1       0.397  -1.611   1.115  1.00  0.00     0.185 HD
BRANCH   9  11
HETATM   11  N4  UNL     1       2.133  -0.479   0.836  1.00  0.00    -0.311 N 
ATOM     12  H4  UNL     1       2.684  -0.730   1.657  1.00  0.00     0.182 HD
BRANCH  11  13
HETATM   13  C4  UNL     1       2.768   0.104  -0.297  1.00  0.00     0.368 C 
BRANCH  13  14
HETATM   14  N5  UNL     1       4.178   0.285  -0.159  1.00  0.00    -0.062 N 
ATOM     15  H53 UNL     1       4.386   0.825   0.681  1.00  0.00     0.276 HD
ATOM     16  H52 UNL     1       4.627  -0.598   0.084  1.00  0.00     0.276 HD
ATOM     17  H51 UNL     1       4.633   0.703  -0.971  1.00  0.00     0.276 HD
ENDBRANCH  13  14
ENDBRANCH  11  13
ENDBRANCH   9  11
ENDBRANCH   4   8
BRANCH   1  18
HETATM   18  N1  UNL     1      -4.849   0.689  -0.049  1.00  0.00    -0.233 N 
ATOM     19  H12 UNL     1      -5.066   1.625  -0.392  1.00  0.00     0.174 HD
ATOM     20  H11 UNL     1      -5.757   0.234   0.048  1.00  0.00     0.174 HD
ENDBRANCH   1  18
TORSDOF 5
