REMARK  6 active torsions:
REMARK  status: ('A' for Active; 'I' for Inactive)
REMARK    1  A    between atoms: C3_4  and  C4_5 
REMARK    2  A    between atoms: C4_5  and  O1_6 
REMARK    3  A    between atoms: C4_5  and  N2_8 
REMARK    4  A    between atoms: N2_8  and  N3_10 
REMARK    5  A    between atoms: C5_15  and  N5_16 
REMARK    6  A    between atoms: C6_21  and  N7_22 
ROOT
HETATM    1  N1  UNL     1      -0.784   2.648  -1.699  1.00  0.00    -0.191 NA
HETATM    2  C1  UNL     1      -0.238   1.823  -1.141  1.00  0.00     0.106 C 
HETATM    3  C2  UNL     1       0.490   0.781  -0.468  1.00  0.00     0.120 A 
HETATM    4  C3  UNL     1      -0.127  -0.351  -0.043  1.00  0.00     0.125 A 
HETATM    5  N4  UNL     1       0.681  -1.310   0.521  1.00  0.00    -0.186 N 
ATOM      6  H4  UNL     1       0.246  -2.173   0.848  1.00  0.00     0.184 HD
HETATM    7  C5  UNL     1       2.000  -1.179   0.666  1.00  0.00     0.678 A 
HETATM    8  N6  UNL     1       2.579  -0.033   0.231  1.00  0.00    -0.176 N 
ATOM      9  H6  UNL     1       3.587   0.080   0.336  1.00  0.00     0.186 HD
HETATM   10  C6  UNL     1       1.877   0.949  -0.328  1.00  0.00     0.138 A 
ENDROOT
BRANCH   4  11
HETATM   11  C4  UNL     1      -1.562  -0.611  -0.067  1.00  0.00     0.184 C 
BRANCH  11  12
HETATM   12  O1  UNL     1      -1.935  -1.860  -0.134  1.00  0.00    -0.343 OA
ATOM     13  H1  UNL     1      -2.870  -2.029  -0.150  1.00  0.00     0.219 HD
ENDBRANCH  11  12
BRANCH  11  14
HETATM   14  N2  UNL     1      -2.616   0.298  -0.020  1.00  0.00    -0.285 N 
ATOM     15  H2  UNL     1      -2.442   1.301   0.048  1.00  0.00     0.188 HD
BRANCH  14  16
HETATM   16  N3  UNL     1      -3.939  -0.212  -0.070  1.00  0.00    -0.343 N 
ATOM     17  H32 UNL     1      -4.096  -1.217  -0.138  1.00  0.00     0.176 HD
ATOM     18  H31 UNL     1      -4.711   0.454  -0.036  1.00  0.00     0.176 HD
ENDBRANCH  14  16
ENDBRANCH  11  14
ENDBRANCH   4  11
BRANCH  10  19
HETATM   19  N7  UNL     1       2.435   2.028  -0.734  1.00  0.00    -0.384 N 
ATOM     20  H72 UNL     1       1.897   2.781  -1.163  1.00  0.00     0.157 HD
ATOM     21  H71 UNL     1       3.443   2.150  -0.632  1.00  0.00     0.157 HD
ENDBRANCH  10  19
BRANCH   7  22
HETATM   22  N5  UNL     1       2.734  -2.109   1.204  1.00  0.00    -0.234 N 
ATOM     23  H52 UNL     1       2.298  -2.971   1.531  1.00  0.00     0.174 HD
ATOM     24  H51 UNL     1       3.743  -2.009   1.315  1.00  0.00     0.174 HD
ENDBRANCH   7  22
TORSDOF 6
