REMARK  4 active torsions:
REMARK  status: ('A' for Active; 'I' for Inactive)
REMARK    1  A    between atoms: N1_1  and  C1_5 
REMARK    2  A    between atoms: C1_5  and  C2_6 
REMARK       I    between atoms: C2_6  and  N2_8 
REMARK    3  A    between atoms: N2_8  and  N3_10 
REMARK       I    between atoms: N3_10  and  C3_12 
REMARK       I    between atoms: C3_12  and  N4_14 
REMARK    4  A    between atoms: N5_16  and  C4_18 
ROOT
HETATM    1  N3  UNL     1      -1.546  -1.206   0.008  1.00  0.00    -0.248 N 
ATOM      2  H3  UNL     1      -1.868  -2.157   0.186  1.00  0.00     0.192 HD
HETATM    3  C3  UNL     1      -0.328  -0.986  -0.655  1.00  0.00     0.353 C 
HETATM    4  O2  UNL     1       0.068   0.172  -0.873  1.00  0.00    -0.244 OA
HETATM    5  N4  UNL     1       0.459  -2.074  -1.080  1.00  0.00    -0.250 N 
ATOM      6  H4  UNL     1      -0.005  -2.775  -1.657  1.00  0.00     0.192 HD
HETATM    7  N5  UNL     1       1.672  -2.271  -0.823  1.00  0.00    -0.291 N 
ATOM      8  H5  UNL     1       2.150  -3.097  -1.183  1.00  0.00     0.187 HD
ENDROOT
BRANCH   7   9
HETATM    9  C4  UNL     1       2.367  -1.327  -0.025  1.00  0.00     0.130 A 
HETATM   10  C5  UNL     1       3.498  -0.607  -0.128  1.00  0.00     0.098 A 
HETATM   11  N6  UNL     1       4.633  -0.284  -0.915  1.00  0.00    -0.347 N 
HETATM   12  C7  UNL     1       3.317   0.019   1.161  1.00  0.00     0.130 A 
HETATM   13  C6  UNL     1       5.492   0.564  -0.476  1.00  0.00     0.197 A 
ATOM     14  H6  UNL     1       4.766  -0.723  -1.826  1.00  0.00     0.167 HD
HETATM   15  N7  UNL     1       5.311   1.177   0.791  1.00  0.00    -0.296 N 
HETATM   16  N8  UNL     1       4.203   0.862   1.561  1.00  0.00    -0.294 N 
ATOM     17  H7  UNL     1       5.997   1.849   1.135  1.00  0.00     0.187 HD
ATOM     18  H8  UNL     1       4.087   1.311   2.470  1.00  0.00     0.187 HD
HETATM   19  C8  UNL     1       2.095  -0.752   1.284  1.00  0.00     0.232 A 
HETATM   20  O3  UNL     1       1.227  -0.825   2.187  1.00  0.00    -0.283 OA
ENDBRANCH   7   9
BRANCH   1  21
HETATM   21  N2  UNL     1      -2.319  -0.109   0.425  1.00  0.00    -0.265 N 
HETATM   22  C2  UNL     1      -3.649   0.038  -0.053  1.00  0.00     0.261 C 
HETATM   23  O1  UNL     1      -4.155  -0.792  -0.844  1.00  0.00    -0.270 OA
ATOM     24  H2  UNL     1      -1.927   0.579   1.068  1.00  0.00     0.190 HD
BRANCH  22  25
HETATM   25  C1  UNL     1      -4.479   1.186   0.374  1.00  0.00     0.333 C 
BRANCH  25  26
HETATM   26  N1  UNL     1      -5.796   1.159  -0.216  1.00  0.00    -0.071 N 
ATOM     27  H13 UNL     1      -5.743   1.101  -1.233  1.00  0.00     0.274 HD
ATOM     28  H12 UNL     1      -6.266   0.274  -0.027  1.00  0.00     0.274 HD
ATOM     29  H11 UNL     1      -6.368   1.950   0.078  1.00  0.00     0.274 HD
ENDBRANCH  25  26
ENDBRANCH  22  25
ENDBRANCH   1  21
TORSDOF 4
