REMARK  6 active torsions:
REMARK  status: ('A' for Active; 'I' for Inactive)
REMARK    1  A    between atoms: O1_2  and  C2_3 
REMARK    2  A    between atoms: C5_7  and  S1_8 
REMARK    3  A    between atoms: C8_13  and  O4_14 
REMARK    4  A    between atoms: O4_14  and  C9_15 
REMARK    5  A    between atoms: C14_20  and  N1_21 
REMARK    6  A    between atoms: N1_21  and  S2_23 
ROOT
HETATM    1  C9  UNL     1      -0.006   0.415  -0.166  1.00  0.00     0.104 A 
HETATM    2  C10 UNL     1      -0.798  -0.806  -0.185  1.00  0.00     0.047 A 
HETATM    3  C11 UNL     1      -2.126  -0.787  -0.375  1.00  0.00    -0.039 A 
HETATM    4  C12 UNL     1      -2.759   0.422  -0.557  1.00  0.00     0.040 A 
HETATM    5  C13 UNL     1      -2.043   1.586  -0.544  1.00  0.00     0.050 A 
HETATM    6  C14 UNL     1      -0.652   1.606  -0.349  1.00  0.00     0.079 A 
HETATM    7  C17 UNL     1      -4.174   0.620  -0.774  1.00  0.00     0.252 C 
HETATM    8  O7  UNL     1      -4.561   1.799  -0.479  1.00  0.00    -0.268 OA
HETATM    9  N2  UNL     1      -5.157  -0.284  -1.253  1.00  0.00    -0.356 N 
ATOM     10  H2  UNL     1      -6.059   0.095  -1.542  1.00  0.00     0.162 HD
HETATM   11  C18 UNL     1      -4.950  -1.728  -1.356  1.00  0.00     0.132 C 
HETATM   12  C19 UNL     1      -4.171  -2.200  -0.119  1.00  0.00    -0.028 C 
HETATM   13  C20 UNL     1      -4.554  -3.673   0.058  1.00  0.00     0.016 C 
HETATM   14  C21 UNL     1      -4.591  -1.494   1.130  1.00  0.00     0.016 C 
HETATM   15  C22 UNL     1      -2.690  -2.176  -0.348  1.00  0.00     0.050 C 
ENDROOT
BRANCH   1  16
HETATM   16  O4  UNL     1       1.254   0.249   0.026  1.00  0.00    -0.306 OA
BRANCH  16  17
HETATM   17  C8  UNL     1       2.523   0.081   0.220  1.00  0.00     0.111 A 
HETATM   18  C2  UNL     1       3.531   1.000   0.355  1.00  0.00     0.105 A 
HETATM   19  C3  UNL     1       4.854   0.609   0.560  1.00  0.00     0.083 A 
HETATM   20  C4  UNL     1       5.209  -0.709   0.637  1.00  0.00     0.140 A 
HETATM   21  F1  UNL     1       6.487  -1.115   0.835  1.00  0.00    -0.204 F 
HETATM   22  C5  UNL     1       4.243  -1.680   0.509  1.00  0.00     0.100 A 
HETATM   23  C7  UNL     1       2.974  -1.295   0.312  1.00  0.00     0.066 A 
BRANCH  18  24
HETATM   24  O1  UNL     1       3.268   2.348   0.292  1.00  0.00    -0.353 OA
HETATM   25  C1  UNL     1       4.271   3.325   0.426  1.00  0.00     0.210 C 
ENDBRANCH  18  24
BRANCH  22  26
HETATM   26  S1  UNL     1       4.693  -3.398   0.602  1.00  0.00     0.174 S 
HETATM   27  C6  UNL     1       5.423  -3.778   2.168  1.00  0.00     0.167 C 
HETATM   28  O2  UNL     1       3.429  -4.189   0.453  1.00  0.00    -0.223 OA
HETATM   29  O3  UNL     1       5.639  -3.714  -0.537  1.00  0.00    -0.223 OA
ENDBRANCH  22  26
ENDBRANCH  16  17
ENDBRANCH   1  16
BRANCH   6  30
HETATM   30  N1  UNL     1      -0.034   2.888  -0.377  1.00  0.00    -0.278 N 
HETATM   31  C15 UNL     1       0.048   3.615   0.872  1.00  0.00     0.169 C 
BRANCH  30  32
HETATM   32  S2  UNL     1       0.553   3.624  -1.800  1.00  0.00     0.228 S 
HETATM   33  C16 UNL     1      -0.824   3.880  -2.944  1.00  0.00     0.186 C 
HETATM   34  O5  UNL     1       1.069   4.994  -1.481  1.00  0.00    -0.206 OA
HETATM   35  O6  UNL     1       1.562   2.788  -2.543  1.00  0.00    -0.206 OA
ENDBRANCH  30  32
ENDBRANCH   6  30
TORSDOF 6
