REMARK  2 active torsions:
REMARK  status: ('A' for Active; 'I' for Inactive)
REMARK    1  A    between atoms: C4_8  and  S1_9 
REMARK    2  A    between atoms: S1_9  and  N3_10 
ROOT
HETATM    1  N1  UNL     1      -2.517  -1.562  -0.104  1.00  0.00    -0.083 NA
HETATM    2  C1  UNL     1      -1.581  -0.490  -0.071  1.00  0.00     0.123 A 
HETATM    3  C2  UNL     1      -1.953   0.795  -0.415  1.00  0.00     0.119 A 
HETATM    4  C3  UNL     1      -1.019   1.809  -0.372  1.00  0.00     0.250 A 
HETATM    5  O1  UNL     1      -1.390   2.972  -0.691  1.00  0.00    -0.268 OA
HETATM    6  N2  UNL     1       0.248   1.530   0.007  1.00  0.00    -0.298 N 
ATOM      7  H2  UNL     1       0.937   2.282   0.039  1.00  0.00     0.171 HD
HETATM    8  C4  UNL     1       0.614   0.300   0.338  1.00  0.00     0.227 A 
HETATM    9  N4  UNL     1      -0.301  -0.686   0.294  1.00  0.00    -0.320 N 
ATOM     10  H4  UNL     1      -0.009  -1.629   0.550  1.00  0.00     0.169 HD
ENDROOT
BRANCH   8  11
HETATM   11  S1  UNL     1       2.259  -0.096   0.836  1.00  0.00     0.289 S 
HETATM   12  O2  UNL     1       2.386  -1.576   1.057  1.00  0.00    -0.198 OA
HETATM   13  O3  UNL     1       2.633   0.594   2.105  1.00  0.00    -0.198 OA
BRANCH  11  14
HETATM   14  N3  UNL     1       3.299   0.317  -0.476  1.00  0.00    -0.322 N 
ATOM     15  H32 UNL     1       3.003   0.715  -1.367  1.00  0.00     0.169 HD
ATOM     16  H31 UNL     1       4.250   0.088  -0.188  1.00  0.00     0.169 HD
ENDBRANCH  11  14
ENDBRANCH   8  11
TORSDOF 2
