REMARK  11 active torsions:
REMARK  status: ('A' for Active; 'I' for Inactive)
REMARK       I    between atoms: N3_8  and  C4_10 
REMARK       I    between atoms: C4_10  and  N4_12 
REMARK    1  A    between atoms: N4_12  and  C5_14 
REMARK    2  A    between atoms: C5_14  and  C6_19 
REMARK    3  A    between atoms: N5_15  and  O2_17 
REMARK    4  A    between atoms: C7_24  and  C8_25 
REMARK    5  A    between atoms: C8_25  and  N8_27 
REMARK       I    between atoms: N8_27  and  C10_29 
REMARK    6  A    between atoms: C10_29  and  C11_31 
REMARK    7  A    between atoms: C11_31  and  C12_32 
REMARK    8  A    between atoms: C12_32  and  N9_33 
REMARK    9  A    between atoms: C12_32  and  C16_46 
REMARK       I    between atoms: N9_33  and  C13_34 
REMARK   10  A    between atoms: C13_34  and  C14_36 
REMARK   11  A    between atoms: C15_42  and  N12_43 
ROOT
HETATM    1  C6  UNL     1       1.337  -1.915   2.328  1.00  0.00     0.211 A 
HETATM    2  N6  UNL     1       0.029  -2.174   2.142  1.00  0.00    -0.275 N 
ATOM      3  H6  UNL     1      -0.452  -3.039   2.388  1.00  0.00     0.189 HD
HETATM    4  N7  UNL     1      -0.520  -1.117   1.588  1.00  0.00    -0.279 N 
ATOM      5  H7  UNL     1      -1.504  -1.031   1.335  1.00  0.00     0.189 HD
HETATM    6  C7  UNL     1       0.426  -0.153   1.402  1.00  0.00     0.163 A 
HETATM    7  O8  UNL     1       1.516  -0.701   1.871  1.00  0.00    -0.272 OA
ENDROOT
BRANCH   6   8
HETATM    8  C8  UNL     1       0.331   1.190   0.832  1.00  0.00     0.157 C 
HETATM    9  C9  UNL     1      -0.077   2.196   1.932  1.00  0.00     0.041 C 
BRANCH   8  10
HETATM   10  N8  UNL     1      -0.371   1.337  -0.371  1.00  0.00    -0.349 N 
HETATM   11  C10 UNL     1      -1.632   1.933  -0.580  1.00  0.00     0.221 C 
HETATM   12  O3  UNL     1      -2.277   2.355   0.449  1.00  0.00    -0.273 OA
ATOM     13  H8  UNL     1       0.089   0.965  -1.202  1.00  0.00     0.163 HD
BRANCH  11  14
HETATM   14  C11 UNL     1      -2.242   2.121  -1.893  1.00  0.00     0.153 C 
BRANCH  14  15
HETATM   15  C12 UNL     1      -3.603   2.778  -1.878  1.00  0.00     0.276 C 
BRANCH  15  16
HETATM   16  N9  UNL     1      -4.595   2.077  -1.294  1.00  0.00    -0.393 NA
HETATM   17  C13 UNL     1      -5.576   1.451  -0.574  1.00  0.00     0.344 C 
HETATM   18  O4  UNL     1      -5.853   1.733   0.656  1.00  0.00    -0.249 OA
BRANCH  17  19
HETATM   19  C14 UNL     1      -6.402   0.396  -1.208  1.00  0.00     0.183 A 
HETATM   20  N10 UNL     1      -5.960  -0.279  -2.341  1.00  0.00    -0.231 N 
HETATM   21  O5  UNL     1      -6.982  -1.008  -2.763  1.00  0.00    -0.155 OA
ATOM     22  H10 UNL     1      -5.033  -0.224  -2.763  1.00  0.00     0.197 HD
HETATM   23  N11 UNL     1      -7.983  -0.835  -1.999  1.00  0.00    -0.224 N 
HETATM   24  C15 UNL     1      -7.650   0.048  -0.993  1.00  0.00     0.157 A 
ATOM     25  H11 UNL     1      -8.893  -1.281  -2.112  1.00  0.00     0.198 HD
BRANCH  24  26
HETATM   26  N12 UNL     1      -8.513   0.341   0.007  1.00  0.00    -0.382 N 
ATOM     27 2H12 UNL     1      -8.267   0.994   0.751  1.00  0.00     0.157 HD
ATOM     28 1H12 UNL     1      -9.482   0.071   0.174  1.00  0.00     0.157 HD
ENDBRANCH  24  26
ENDBRANCH  17  19
ENDBRANCH  15  16
BRANCH  15  29
HETATM   29  C16 UNL     1      -3.392   4.179  -1.227  1.00  0.00     0.210 C 
HETATM   30  O6  UNL     1      -4.120   4.395  -0.206  1.00  0.00    -0.646 OA
HETATM   31  O7  UNL     1      -2.523   5.027  -1.742  1.00  0.00    -0.646 OA
ENDBRANCH  15  29
ENDBRANCH  14  15
ENDBRANCH  11  14
ENDBRANCH   8  10
ENDBRANCH   6   8
BRANCH   1  32
HETATM   32  C5  UNL     1       2.426  -2.675   2.887  1.00  0.00     0.183 C 
HETATM   33  N5  UNL     1       2.099  -3.434   3.904  1.00  0.00    -0.249 N 
ATOM     34  H5  UNL     1       2.851  -3.957   4.354  1.00  0.00     0.196 HD
BRANCH  32  35
HETATM   35  N4  UNL     1       3.753  -2.652   2.522  1.00  0.00    -0.289 N 
HETATM   36  C4  UNL     1       4.324  -1.960   1.449  1.00  0.00     0.328 C 
HETATM   37  N3  UNL     1       5.678  -1.905   1.176  1.00  0.00    -0.287 N 
HETATM   38  O1  UNL     1       3.596  -1.298   0.631  1.00  0.00    -0.247 OA
HETATM   39  C3  UNL     1       6.192  -2.309   0.025  1.00  0.00     0.169 A 
ATOM     40  H3  UNL     1       6.307  -1.538   1.891  1.00  0.00     0.172 HD
HETATM   41  N2  UNL     1       6.251  -2.765  -1.097  1.00  0.00    -0.279 N 
HETATM   42  S1  UNL     1       7.997  -1.707   0.039  1.00  0.00    -0.038 SA
HETATM   43  N1  UNL     1       7.245  -2.767  -1.884  1.00  0.00    -0.296 N 
ATOM     44  H2  UNL     1       5.398  -3.199  -1.450  1.00  0.00     0.189 HD
HETATM   45  C2  UNL     1       8.366  -2.242  -1.529  1.00  0.00     0.066 A 
ATOM     46  H1  UNL     1       7.156  -3.189  -2.808  1.00  0.00     0.187 HD
HETATM   47  C1  UNL     1       9.648  -2.096  -2.326  1.00  0.00     0.078 C 
ATOM     48  H4  UNL     1       4.391  -3.201   3.098  1.00  0.00     0.172 HD
ENDBRANCH  32  35
BRANCH  33  49
HETATM   49  O2  UNL     1       0.857  -3.586   4.409  1.00  0.00    -0.288 OA
ATOM     50  H2  UNL     1       0.620  -4.136   5.146  1.00  0.00     0.244 HD
ENDBRANCH  33  49
ENDBRANCH   1  32
TORSDOF 11
