REMARK  11 active torsions:
REMARK  status: ('A' for Active; 'I' for Inactive)
REMARK    1  A    between atoms: N1_1  and  C1_5 
REMARK    2  A    between atoms: C1_5  and  O1_6 
REMARK    3  A    between atoms: C1_5  and  C2_8 
REMARK    4  A    between atoms: C2_8  and  C3_9 
REMARK    5  A    between atoms: C2_8  and  N2_11 
REMARK    6  A    between atoms: N6_24  and  C9_25 
REMARK    7  A    between atoms: C9_25  and  C10_26 
REMARK       I    between atoms: C10_26  and  N7_28 
REMARK    8  A    between atoms: N7_28  and  C11_30 
REMARK    9  A    between atoms: C15_34  and  N8_35 
REMARK   10  A    between atoms: N8_35  and  N9_37 
REMARK   11  A    between atoms: C21_51  and  O6_52 
ROOT
HETATM    1  C10 UNL     1      -0.437   1.252  -2.645  1.00  0.00     0.240 C 
HETATM    2  O3  UNL     1       0.520   1.759  -3.261  1.00  0.00    -0.271 OA
HETATM    3  N7  UNL     1      -0.283   0.354  -1.589  1.00  0.00    -0.323 N 
ATOM      4  H7  UNL     1      -1.147   0.012  -1.168  1.00  0.00     0.169 HD
ENDROOT
BRANCH   1   5
HETATM    5  C9  UNL     1      -1.847   1.640  -3.076  1.00  0.00     0.234 C 
BRANCH   5   6
HETATM    6  N6  UNL     1      -2.852   0.985  -2.285  1.00  0.00    -0.318 N 
HETATM    7  C6  UNL     1      -3.406   1.444  -1.135  1.00  0.00     0.141 A 
HETATM    8  N4  UNL     1      -3.245   2.546  -0.382  1.00  0.00    -0.336 N 
HETATM    9  C7  UNL     1      -4.336   0.511  -0.704  1.00  0.00     0.122 A 
HETATM   10  C5  UNL     1      -3.949   2.756   0.750  1.00  0.00     0.183 A 
ATOM     11  H4  UNL     1      -2.567   3.248  -0.677  1.00  0.00     0.168 HD
HETATM   12  N3  UNL     1      -4.848   1.821   1.137  1.00  0.00    -0.337 N 
HETATM   13  C4  UNL     1      -5.076   0.693   0.451  1.00  0.00     0.134 A 
ATOM     14  H3  UNL     1      -5.378   1.983   1.993  1.00  0.00     0.168 HD
HETATM   15  N2  UNL     1      -5.905  -0.215   0.768  1.00  0.00    -0.359 N 
ATOM     16  H2  UNL     1      -5.959  -1.014   0.137  1.00  0.00     0.162 HD
HETATM   17  N5  UNL     1      -4.300  -0.474  -1.620  1.00  0.00    -0.346 N 
HETATM   18  C8  UNL     1      -3.402  -0.204  -2.591  1.00  0.00     0.185 A 
ATOM     19  H5  UNL     1      -4.876  -1.315  -1.585  1.00  0.00     0.167 HD
BRANCH  15  20
HETATM   20  C2  UNL     1      -6.770  -0.250   1.903  1.00  0.00     0.200 C 
BRANCH  20  21
HETATM   21  C1  UNL     1      -8.192   0.047   1.432  1.00  0.00     0.345 C 
BRANCH  21  22
HETATM   22  N1  UNL     1      -8.483  -0.924   0.385  1.00  0.00    -0.051 N 
ATOM     23  H13 UNL     1      -9.359  -0.737  -0.103  1.00  0.00     0.277 HD
ATOM     24  H12 UNL     1      -7.864  -0.841  -0.422  1.00  0.00     0.277 HD
ATOM     25  H11 UNL     1      -8.455  -1.847   0.819  1.00  0.00     0.277 HD
ENDBRANCH  21  22
BRANCH  21  26
HETATM   26  O1  UNL     1      -8.230   1.306   0.840  1.00  0.00    -0.368 OA
ATOM     27  H1  UNL     1      -8.040   1.939   1.523  1.00  0.00     0.212 HD
ENDBRANCH  21  26
ENDBRANCH  20  21
BRANCH  20  28
HETATM   28  C3  UNL     1      -6.693  -1.603   2.519  1.00  0.00     0.260 C 
HETATM   29  O2  UNL     1      -5.980  -2.486   2.065  1.00  0.00    -0.304 OA
ENDBRANCH  20  28
ENDBRANCH  15  20
ENDBRANCH   5   6
ENDBRANCH   1   5
BRANCH   3  30
HETATM   30  C11 UNL     1       0.899  -0.137  -1.033  1.00  0.00     0.071 A 
HETATM   31  C12 UNL     1       2.135   0.204  -1.459  1.00  0.00     0.062 A 
HETATM   32  C13 UNL     1       3.289  -0.315  -0.869  1.00  0.00     0.043 A 
HETATM   33  C14 UNL     1       4.607  -0.098  -1.151  1.00  0.00     0.062 A 
HETATM   34  N12 UNL     1       3.162  -1.171   0.142  1.00  0.00    -0.328 N 
HETATM   35  C15 UNL     1       5.339  -0.862  -0.264  1.00  0.00     0.066 A 
HETATM   36  C19 UNL     1       4.415  -1.510   0.519  1.00  0.00     0.127 A 
HETATM   37  C20 UNL     1       1.962  -1.527   0.585  1.00  0.00     0.135 A 
HETATM   38  C21 UNL     1       0.821  -1.043   0.037  1.00  0.00     0.108 A 
BRANCH  35  39
HETATM   39  N8  UNL     1       6.762  -0.927  -0.215  1.00  0.00    -0.298 N 
ATOM     40  H8  UNL     1       7.270  -1.620  -0.765  1.00  0.00     0.187 HD
BRANCH  39  41
HETATM   41  N9  UNL     1       7.440  -0.035   0.590  1.00  0.00    -0.280 N 
HETATM   42  C16 UNL     1       8.708  -0.146   0.804  1.00  0.00     0.193 A 
HETATM   43  N10 UNL     1       9.583  -1.138   0.287  1.00  0.00    -0.289 N 
HETATM   44  C18 UNL     1       9.542   0.720   1.626  1.00  0.00     0.295 A 
HETATM   45  C17 UNL     1      10.912  -0.925   0.749  1.00  0.00     0.328 A 
ATOM     46  H10 UNL     1       9.298  -1.898  -0.330  1.00  0.00     0.172 HD
HETATM   47  O4  UNL     1      11.950  -1.616   0.489  1.00  0.00    -0.247 OA
HETATM   48  N11 UNL     1      10.888   0.227   1.580  1.00  0.00    -0.272 N 
ATOM     49  H11 UNL     1      11.690   0.634   2.061  1.00  0.00     0.174 HD
HETATM   50  O5  UNL     1       9.125   1.733   2.263  1.00  0.00    -0.264 OA
ATOM     51  H9  UNL     1       6.927   0.731   1.027  1.00  0.00     0.188 HD
ENDBRANCH  39  41
ENDBRANCH  35  39
BRANCH  38  52
HETATM   52  O6  UNL     1      -0.431  -1.446   0.536  1.00  0.00    -0.357 OA
ATOM     53  H6  UNL     1      -0.484  -2.059   1.260  1.00  0.00     0.217 HD
ENDBRANCH  38  52
ENDBRANCH   3  30
TORSDOF 11
