REMARK  7 active torsions:
REMARK  status: ('A' for Active; 'I' for Inactive)
REMARK    1  A    between atoms: N1_1  and  C1_5 
REMARK    2  A    between atoms: C1_5  and  C2_6 
REMARK    3  A    between atoms: C1_5  and  C10_14 
REMARK    4  A    between atoms: C3_7  and  C4_8 
REMARK    5  A    between atoms: C10_14  and  C11_15 
REMARK    6  A    between atoms: C10_14  and  N2_18 
REMARK    7  A    between atoms: C11_15  and  O1_16 
ROOT
HETATM    1  C1  UNL     1      -0.572   0.681   0.883  1.00  0.00     0.241 C 
ENDROOT
BRANCH   1   2
HETATM    2  N1  UNL     1      -0.618   0.392   2.272  1.00  0.00    -0.070 N 
ATOM      3  H13 UNL     1      -0.592  -0.607   2.475  1.00  0.00     0.275 HD
ATOM      4  H12 UNL     1       0.239   0.646   2.763  1.00  0.00     0.275 HD
ATOM      5  H11 UNL     1      -1.446   0.856   2.645  1.00  0.00     0.275 HD
ENDBRANCH   1   2
BRANCH   1   6
HETATM    6  C2  UNL     1       0.661  -0.009   0.327  1.00  0.00     0.009 C 
HETATM    7  C3  UNL     1       1.811   0.612   0.279  1.00  0.00     0.009 C 
BRANCH   7   8
HETATM    8  C4  UNL     1       3.001  -0.010  -0.241  1.00  0.00    -0.036 A 
HETATM    9  C5  UNL     1       4.195   0.693  -0.267  1.00  0.00     0.011 A 
HETATM   10  C6  UNL     1       5.381   0.188  -0.743  1.00  0.00     0.001 A 
HETATM   11  C7  UNL     1       5.367  -1.105  -1.223  1.00  0.00     0.000 A 
HETATM   12  C8  UNL     1       4.225  -1.876  -1.236  1.00  0.00     0.001 A 
HETATM   13  C9  UNL     1       3.066  -1.296  -0.738  1.00  0.00     0.011 A 
ENDBRANCH   7   8
ENDBRANCH   1   6
BRANCH   1  14
HETATM   14  C10 UNL     1      -1.704   0.196   0.040  1.00  0.00     0.280 C 
BRANCH  14  15
HETATM   15  C11 UNL     1      -1.388   0.661  -1.396  1.00  0.00     0.202 C 
BRANCH  15  16
HETATM   16  O1  UNL     1      -1.546   2.045  -1.523  1.00  0.00    -0.399 OA
ATOM     17  H1  UNL     1      -1.351   2.331  -2.408  1.00  0.00     0.209 HD
ENDBRANCH  15  16
ENDBRANCH  14  15
BRANCH  14  18
HETATM   18  N2  UNL     1      -3.012   0.501   0.424  1.00  0.00     0.097 N 
HETATM   19  C12 UNL     1      -3.549  -0.045   1.614  1.00  0.00     0.275 C 
HETATM   20  C13 UNL     1      -4.341  -1.021   0.728  1.00  0.00     0.060 C 
HETATM   21  C14 UNL     1      -4.130   0.052  -0.323  1.00  0.00     0.275 C 
ENDBRANCH  14  18
ENDBRANCH   1  14
TORSDOF 7
