REMARK  6 active torsions:
REMARK  status: ('A' for Active; 'I' for Inactive)
REMARK    1  A    between atoms: N1_2  and  S1_4 
REMARK    2  A    between atoms: S1_4  and  C3_7 
REMARK    3  A    between atoms: C7_11  and  N2_12 
REMARK       I    between atoms: N2_12  and  C8_14 
REMARK    4  A    between atoms: C8_14  and  C9_16 
REMARK    5  A    between atoms: C10_17  and  S2_18 
REMARK    6  A    between atoms: S2_18  and  C11_21 
ROOT
HETATM    1  N2  UNL     1       0.137   0.117   0.125  1.00  0.00    -0.324 N 
ATOM      2  H2  UNL     1       0.809   0.395  -0.590  1.00  0.00     0.169 HD
HETATM    3  C8  UNL     1       0.527  -0.867   1.045  1.00  0.00     0.246 C 
HETATM    4  O3  UNL     1      -0.257  -1.236   1.948  1.00  0.00    -0.268 OA
ENDROOT
BRANCH   1   5
HETATM    5  C7  UNL     1      -1.129   0.748   0.126  1.00  0.00     0.036 A 
HETATM    6  C6  UNL     1      -1.235   2.048  -0.371  1.00  0.00     0.029 A 
HETATM    7  C5  UNL     1      -2.435   2.670  -0.413  1.00  0.00     0.004 A 
HETATM    8  C4  UNL     1      -3.568   2.029   0.034  1.00  0.00     0.025 A 
HETATM    9  C3  UNL     1      -3.486   0.755   0.524  1.00  0.00     0.076 A 
HETATM   10  C17 UNL     1      -2.250   0.128   0.561  1.00  0.00     0.054 A 
BRANCH   9  11
HETATM   11  S1  UNL     1      -4.941  -0.069   1.099  1.00  0.00     0.243 S 
HETATM   12  O1  UNL     1      -5.853   0.944   1.691  1.00  0.00    -0.206 OA
HETATM   13  O2  UNL     1      -4.525  -1.112   2.113  1.00  0.00    -0.206 OA
BRANCH  11  14
HETATM   14  N1  UNL     1      -5.607  -0.896  -0.242  1.00  0.00    -0.215 NA
HETATM   15  C1  UNL     1      -5.994  -0.007  -1.312  1.00  0.00     0.129 C 
HETATM   16  C2  UNL     1      -6.655  -1.818   0.123  1.00  0.00     0.129 C 
ENDBRANCH  11  14
ENDBRANCH   9  11
ENDBRANCH   1   5
BRANCH   3  17
HETATM   17  C9  UNL     1       1.829  -1.490   0.994  1.00  0.00     0.086 C 
HETATM   18  C10 UNL     1       2.712  -1.170   0.090  1.00  0.00     0.120 C 
BRANCH  18  19
HETATM   19  S2  UNL     1       4.303  -1.932   0.029  1.00  0.00     0.197 S 
HETATM   20  O4  UNL     1       4.585  -2.722   1.261  1.00  0.00    -0.218 OA
HETATM   21  O5  UNL     1       4.403  -2.838  -1.176  1.00  0.00    -0.218 OA
BRANCH  19  22
HETATM   22  C11 UNL     1       5.476  -0.640  -0.067  1.00  0.00     0.063 A 
HETATM   23  C12 UNL     1       5.973  -0.127   1.107  1.00  0.00     0.025 A 
HETATM   24  C13 UNL     1       6.903   0.897   1.076  1.00  0.00     0.020 A 
HETATM   25  C14 UNL     1       7.329   1.399  -0.141  1.00  0.00     0.011 A 
HETATM   26 BR1  UNL     1       8.613   2.810  -0.162  1.00  0.00    -0.051 Br
HETATM   27  C15 UNL     1       6.830   0.884  -1.313  1.00  0.00     0.020 A 
HETATM   28  C16 UNL     1       5.905  -0.135  -1.271  1.00  0.00     0.025 A 
ENDBRANCH  19  22
ENDBRANCH  18  19
ENDBRANCH   3  17
TORSDOF 6
