REMARK  15 active torsions:
REMARK  status: ('A' for Active; 'I' for Inactive)
REMARK    1  A    between atoms: C2_2  and  C3_3 
REMARK    2  A    between atoms: C3_3  and  C5_5 
REMARK    3  A    between atoms: C5_5  and  C6_6 
REMARK    4  A    between atoms: C6_6  and  C7_7 
REMARK    5  A    between atoms: C7_7  and  O7_35 
REMARK    6  A    between atoms: C8_8  and  C9_9 
REMARK    7  A    between atoms: C10_10  and  C11_11 
REMARK    8  A    between atoms: C11_11  and  C12_12 
REMARK    9  A    between atoms: C12_12  and  C14_14 
REMARK   10  A    between atoms: C14_14  and  C20_21 
REMARK   11  A    between atoms: C21_23  and  O3_24 
REMARK   12  A    between atoms: C22_26  and  O4_27 
REMARK   13  A    between atoms: C23_29  and  O5_30 
REMARK   14  A    between atoms: C24_32  and  O6_33 
REMARK   15  A    between atoms: O7_35  and  C25_36 
ROOT
HETATM    1  C14 UNL     1      -2.489  -0.391   0.615  1.00  0.00     0.020 C 
HETATM    2  C15 UNL     1      -3.213  -0.013   1.721  1.00  0.00     0.002 C 
HETATM    3  C16 UNL     1      -2.850   0.796   2.893  1.00  0.00     0.044 C 
HETATM    4  C17 UNL     1      -4.239   1.239   3.435  1.00  0.00     0.012 C 
HETATM    5  C18 UNL     1      -5.045   0.006   3.275  1.00  0.00     0.084 C 
HETATM    6  C19 UNL     1      -4.474  -0.673   2.057  1.00  0.00     0.156 C 
HETATM    7  O1  UNL     1      -5.075  -1.645   1.514  1.00  0.00    -0.293 OA
ENDROOT
BRANCH   1   8
HETATM    8  C12 UNL     1      -1.116   0.084   0.654  1.00  0.00    -0.003 C 
HETATM    9  C13 UNL     1      -0.527  -1.573   0.036  1.00  0.00     0.059 C 
BRANCH   8  10
HETATM   10  C11 UNL     1      -0.014   0.460   0.679  1.00  0.00    -0.120 C 
BRANCH  10  11
HETATM   11  C10 UNL     1       1.259   1.075   0.765  1.00  0.00     0.056 C 
HETATM   12  C9  UNL     1       2.471   0.718   0.528  1.00  0.00     0.011 C 
BRANCH  12  13
HETATM   13  C8  UNL     1       3.031  -0.497   0.052  1.00  0.00     0.033 C 
HETATM   14  C7  UNL     1       4.347  -0.782  -0.036  1.00  0.00     0.056 C 
BRANCH  14  15
HETATM   15  C6  UNL     1       5.366   0.210   0.394  1.00  0.00     0.069 C 
BRANCH  15  16
HETATM   16  C5  UNL     1       6.418   0.594  -0.614  1.00  0.00     0.044 C 
BRANCH  16  17
HETATM   17  C3  UNL     1       7.404   1.459   0.170  1.00  0.00    -0.068 C 
HETATM   18  C4  UNL     1       7.187   1.671   1.480  1.00  0.00     0.019 C 
BRANCH  17  19
HETATM   19  C2  UNL     1       8.612   1.936  -0.417  1.00  0.00    -0.004 C 
HETATM   20  C1  UNL     1       9.024   1.822  -1.668  1.00  0.00     0.012 C 
ENDBRANCH  17  19
ENDBRANCH  16  17
ENDBRANCH  15  16
ENDBRANCH  14  15
BRANCH  14  21
HETATM   21  O7  UNL     1       4.885  -1.953  -0.514  1.00  0.00    -0.290 OA
BRANCH  21  22
HETATM   22  C25 UNL     1       4.260  -3.002  -1.065  1.00  0.00     0.403 C 
HETATM   23  O8  UNL     1       3.048  -3.098  -1.246  1.00  0.00    -0.276 OA
ENDBRANCH  21  22
ENDBRANCH  14  21
ENDBRANCH  12  13
ENDBRANCH  10  11
ENDBRANCH   8  10
ENDBRANCH   1   8
BRANCH   1  24
HETATM   24  C20 UNL     1      -3.152  -0.756  -0.626  1.00  0.00     0.093 C 
HETATM   25  O2  UNL     1      -3.837  -1.910  -0.773  1.00  0.00    -0.319 OA
HETATM   26  C21 UNL     1      -4.334  -1.933  -2.084  1.00  0.00     0.294 C 
HETATM   27  C22 UNL     1      -5.615  -1.164  -2.073  1.00  0.00     0.205 C 
HETATM   28  C23 UNL     1      -5.297   0.226  -1.655  1.00  0.00     0.186 C 
HETATM   29  C24 UNL     1      -3.902   0.453  -1.209  1.00  0.00     0.207 C 
BRANCH  26  30
HETATM   30  O3  UNL     1      -4.495  -3.189  -2.615  1.00  0.00    -0.368 OA
ATOM     31  H3  UNL     1      -4.832  -3.205  -3.503  1.00  0.00     0.212 HD
ENDBRANCH  26  30
BRANCH  27  32
HETATM   32  O4  UNL     1      -6.154  -1.131  -3.338  1.00  0.00    -0.388 OA
ATOM     33  H4  UNL     1      -6.968  -0.642  -3.331  1.00  0.00     0.210 HD
ENDBRANCH  27  32
BRANCH  28  34
HETATM   34  O5  UNL     1      -6.242   0.588  -0.714  1.00  0.00    -0.390 OA
ATOM     35  H5  UNL     1      -6.039   1.477  -0.447  1.00  0.00     0.210 HD
ENDBRANCH  28  34
BRANCH  29  36
HETATM   36  O6  UNL     1      -3.963   1.463  -0.230  1.00  0.00    -0.386 OA
ATOM     37  H6  UNL     1      -4.426   2.210  -0.590  1.00  0.00     0.210 HD
ENDBRANCH  29  36
ENDBRANCH   1  24
TORSDOF 15
