REMARK  4 active torsions:
REMARK  status: ('A' for Active; 'I' for Inactive)
REMARK    1  A    between atoms: N1_2  and  C2_4 
REMARK    2  A    between atoms: C2_4  and  N2_6 
REMARK    3  A    between atoms: N2_6  and  N3_8 
REMARK       I    between atoms: N3_8  and  C3_10 
REMARK       I    between atoms: C3_10  and  N5_14 
REMARK    4  A    between atoms: N5_14  and  N6_16 
ROOT
HETATM    1  N3  UNL     1       1.796   1.575   0.353  1.00  0.00    -0.129 N 
ATOM      2  H3  UNL     1       2.249   1.566   1.267  1.00  0.00     0.205 HD
HETATM    3  C3  UNL     1       0.386   1.745   0.287  1.00  0.00     0.705 C 
HETATM    4  N4  UNL     1      -0.176   2.691   0.933  1.00  0.00    -0.232 N 
ATOM      5  H41 UNL     1      -1.188   2.813   0.886  1.00  0.00     0.174 HD
ATOM      6  H42 UNL     1       0.413   3.311   1.488  1.00  0.00     0.174 HD
HETATM    7  N5  UNL     1      -0.437   0.879  -0.488  1.00  0.00    -0.126 N 
ATOM      8  H5  UNL     1      -0.041   0.474  -1.337  1.00  0.00     0.206 HD
ENDROOT
BRANCH   1   9
HETATM    9  N2  UNL     1       2.581   1.420  -0.788  1.00  0.00    -0.262 N 
ATOM     10  H2  UNL     1       2.496   2.095  -1.548  1.00  0.00     0.190 HD
BRANCH   9  11
HETATM   11  C2  UNL     1       3.492   0.349  -0.914  1.00  0.00     0.186 C 
HETATM   12  S1  UNL     1       4.404   0.174  -2.248  1.00  0.00    -0.040 SA
BRANCH  11  13
HETATM   13  N1  UNL     1       3.609  -0.585   0.143  1.00  0.00    -0.370 N 
HETATM   14  C1  UNL     1       4.540  -1.688   0.026  1.00  0.00     0.148 C 
ATOM     15  H1  UNL     1       3.040  -0.482   0.983  1.00  0.00     0.161 HD
ENDBRANCH  11  13
ENDBRANCH   9  11
ENDBRANCH   1   9
BRANCH   7  16
HETATM   16  N6  UNL     1      -1.725   0.557  -0.164  1.00  0.00    -0.265 N 
HETATM   17  C4  UNL     1      -2.622   0.322  -1.211  1.00  0.00     0.108 C 
HETATM   18  C5  UNL     1      -3.780  -0.556  -0.903  1.00  0.00     0.165 C 
HETATM   19  N7  UNL     1      -3.555  -1.572   0.050  1.00  0.00    -0.393 N 
HETATM   20  C6  UNL     1      -2.756  -1.256   1.163  1.00  0.00     0.102 C 
ATOM     21  H7  UNL     1      -3.958  -2.502  -0.064  1.00  0.00     0.159 HD
HETATM   22  C7  UNL     1      -1.960  -0.004   1.095  1.00  0.00     0.132 C 
ENDBRANCH   7  16
TORSDOF 4
