REMARK  2 active torsions:
REMARK  status: ('A' for Active; 'I' for Inactive)
REMARK    1  A    between atoms: C2_2  and  N1_4 
REMARK       I    between atoms: N1_4  and  C4_6 
REMARK       I    between atoms: C4_6  and  N6_18 
REMARK    2  A    between atoms: N2_7  and  C5_9 
ROOT
HETATM    1  N1  UNL     1      -1.643  -0.609  -0.838  1.00  0.00    -0.222 N 
ATOM      2  H1  UNL     1      -2.090  -0.932  -1.696  1.00  0.00     0.178 HD
HETATM    3  C4  UNL     1      -0.266  -0.274  -0.897  1.00  0.00     0.686 C 
HETATM    4  N2  UNL     1       0.589  -0.652  -0.018  1.00  0.00    -0.182 N 
ATOM      5  H2  UNL     1       0.226  -1.220   0.747  1.00  0.00     0.181 HD
HETATM    6  N6  UNL     1       0.150   0.522  -2.000  1.00  0.00    -0.126 N 
ATOM      7  H6  UNL     1       0.542   0.044  -2.811  1.00  0.00     0.197 HD
HETATM    8  C8  UNL     1       0.059   1.902  -2.046  1.00  0.00     0.196 C 
HETATM    9  N7  UNL     1      -0.038   3.065  -2.084  1.00  0.00    -0.171 NA
ENDROOT
BRANCH   1  10
HETATM   10  C2  UNL     1      -2.449  -0.526   0.341  1.00  0.00     0.091 C 
HETATM   11  C1  UNL     1      -3.879  -0.952   0.086  1.00  0.00     0.032 C 
HETATM   12  C3  UNL     1      -2.492   0.853   0.948  1.00  0.00     0.032 C 
ENDBRANCH   1  10
BRANCH   4  13
HETATM   13  C5  UNL     1       1.971  -0.374   0.014  1.00  0.00     0.213 C 
HETATM   14  C6  UNL     1       2.727  -0.601  -1.245  1.00  0.00     0.086 C 
HETATM   15  N3  UNL     1       2.581  -1.244   1.034  1.00  0.00    -0.083 NA
HETATM   16  N4  UNL     1       2.488  -0.541   2.223  1.00  0.00    -0.252 N 
HETATM   17  C7  UNL     1       2.242   0.843   1.947  1.00  0.00     0.334 C 
ATOM     18  H4  UNL     1       2.581  -0.947   3.154  1.00  0.00     0.187 HD
HETATM   19  O1  UNL     1       2.053   1.760   2.801  1.00  0.00    -0.246 OA
HETATM   20  N5  UNL     1       2.255   0.956   0.527  1.00  0.00    -0.300 N 
ATOM     21  H5  UNL     1       2.429   1.800  -0.019  1.00  0.00     0.168 HD
ENDBRANCH   4  13
TORSDOF 2
