REMARK  2 active torsions:
REMARK  status: ('A' for Active; 'I' for Inactive)
REMARK    1  A    between atoms: C2_2  and  C3_3 
REMARK    2  A    between atoms: C3_3  and  N1_4 
ROOT
HETATM    1  N1  UNL     1       1.603   0.560  -0.326  1.00  0.00    -0.290 NA
HETATM    2  C4  UNL     1       1.325  -0.844  -0.671  1.00  0.00     0.122 C 
HETATM    3  C5  UNL     1       0.399  -1.516   0.300  1.00  0.00     0.247 C 
HETATM    4  N2  UNL     1      -0.734  -2.172  -0.320  1.00  0.00    -0.073 N 
ATOM      5  H21 UNL     1      -0.519  -3.136  -0.574  1.00  0.00     0.277 HD
ATOM      6  H22 UNL     1      -0.919  -1.805  -1.253  1.00  0.00     0.277 HD
HETATM    7  C6  UNL     1      -1.922  -2.088   0.543  1.00  0.00     0.250 C 
HETATM    8  C7  UNL     1      -3.067  -1.558  -0.249  1.00  0.00     0.163 C 
HETATM    9  N3  UNL     1      -3.249  -0.130  -0.174  1.00  0.00    -0.125 NA
HETATM   10  N4  UNL     1      -2.793   0.445   1.008  1.00  0.00    -0.137 N 
ATOM     11  H4  UNL     1      -3.016  -0.047   1.873  1.00  0.00     0.201 HD
HETATM   12  C8  UNL     1      -2.051   1.645   1.131  1.00  0.00     0.683 C 
HETATM   13  N5  UNL     1      -2.445   2.524   2.031  1.00  0.00    -0.234 N 
ATOM     14  H51 UNL     1      -1.911   3.388   2.120  1.00  0.00     0.174 HD
ATOM     15  H52 UNL     1      -3.268   2.263   2.575  1.00  0.00     0.174 HD
HETATM   16  N6  UNL     1      -0.908   2.007   0.375  1.00  0.00    -0.224 N 
ATOM     17  H6  UNL     1      -0.248   2.650   0.813  1.00  0.00     0.177 HD
HETATM   18  C9  UNL     1      -0.592   1.551  -0.956  1.00  0.00     0.153 C 
HETATM   19  C10 UNL     1       0.864   1.446  -1.244  1.00  0.00     0.115 C 
ENDROOT
BRANCH   1  20
HETATM   20  C3  UNL     1       2.979   0.826  -0.651  1.00  0.00     0.059 C 
BRANCH  20  21
HETATM   21  C2  UNL     1       4.015   0.207   0.149  1.00  0.00     0.001 C 
HETATM   22  C1  UNL     1       3.940  -0.578   1.188  1.00  0.00     0.012 C 
ENDBRANCH  20  21
ENDBRANCH   1  20
TORSDOF 2
