REMARK  14 active torsions:
REMARK  status: ('A' for Active; 'I' for Inactive)
REMARK    1  A    between atoms: C2_2  and  C4_4 
REMARK    2  A    between atoms: C4_4  and  C5_5 
REMARK    3  A    between atoms: C7_10  and  C8_11 
REMARK    4  A    between atoms: C8_11  and  C9_12 
REMARK    5  A    between atoms: C17_24  and  O2_25 
REMARK    6  A    between atoms: C18_27  and  C19_28 
REMARK    7  A    between atoms: C22_33  and  O3_34 
REMARK    8  A    between atoms: C23_36  and  C24_37 
REMARK    9  A    between atoms: C24_37  and  C25_38 
REMARK   10  A    between atoms: C25_38  and  C26_39 
REMARK   11  A    between atoms: C26_39  and  C27_40 
REMARK   12  A    between atoms: C27_40  and  N5_41 
REMARK   13  A    between atoms: C31_49  and  C32_50 
REMARK   14  A    between atoms: C32_50  and  C33_51 
ROOT
HETATM    1  C5  UNL     1      -2.212   2.023  -0.770  1.00  0.00     0.177 C 
HETATM    2  N1  UNL     1      -2.888   0.992  -1.532  1.00  0.00    -0.346 N 
ATOM      3  H1  UNL     1      -3.754   1.269  -1.995  1.00  0.00     0.163 HD
HETATM    4  C6  UNL     1      -2.496  -0.324  -1.705  1.00  0.00     0.241 C 
HETATM    5  O1  UNL     1      -2.507  -0.785  -2.901  1.00  0.00    -0.271 OA
HETATM    6  C7  UNL     1      -2.049  -1.291  -0.634  1.00  0.00     0.180 C 
HETATM    7  N3  UNL     1      -0.616  -1.393  -0.710  1.00  0.00    -0.356 N 
ATOM      8  H3  UNL     1      -0.241  -0.955  -1.552  1.00  0.00     0.162 HD
HETATM    9  C17 UNL     1       0.375  -1.940   0.081  1.00  0.00     0.164 C 
HETATM   10  C18 UNL     1       0.876  -1.780   1.425  1.00  0.00     0.086 C 
HETATM   11  N4  UNL     1       2.138  -1.093   1.609  1.00  0.00    -0.332 N 
ATOM     12  H4  UNL     1       2.689  -1.549   2.336  1.00  0.00     0.168 HD
HETATM   13  C22 UNL     1       2.818  -0.012   1.100  1.00  0.00     0.164 C 
HETATM   14  C23 UNL     1       3.671   0.317  -0.035  1.00  0.00     0.065 C 
HETATM   15  N7  UNL     1       3.144   0.755  -1.276  1.00  0.00    -0.320 N 
HETATM   16  C29 UNL     1       4.074   0.583  -2.424  1.00  0.00     0.159 C 
HETATM   17  C30 UNL     1       1.931   1.333  -1.625  1.00  0.00     0.246 C 
HETATM   18  O4  UNL     1       1.504   0.964  -2.790  1.00  0.00    -0.271 OA
HETATM   19  C31 UNL     1       1.073   2.298  -0.863  1.00  0.00     0.177 C 
HETATM   20  N8  UNL     1       0.046   2.753  -1.812  1.00  0.00    -0.346 N 
ATOM     21  H8  UNL     1       0.411   3.115  -2.693  1.00  0.00     0.163 HD
HETATM   22  C36 UNL     1      -1.311   2.771  -1.709  1.00  0.00     0.241 C 
HETATM   23  O5  UNL     1      -1.951   3.535  -2.527  1.00  0.00    -0.271 OA
ENDROOT
BRANCH   6  24
HETATM   24  C8  UNL     1      -2.734  -2.609  -0.977  1.00  0.00     0.075 C 
BRANCH  24  25
HETATM   25  C9  UNL     1      -4.209  -2.510  -1.021  1.00  0.00    -0.028 A 
HETATM   26  C10 UNL     1      -5.017  -2.540  -2.165  1.00  0.00     0.096 A 
HETATM   27  N2  UNL     1      -6.305  -2.443  -1.821  1.00  0.00    -0.365 N 
HETATM   28  C11 UNL     1      -6.408  -2.348  -0.484  1.00  0.00     0.042 A 
ATOM     29  H2  UNL     1      -7.089  -2.441  -2.473  1.00  0.00     0.165 HD
HETATM   30  C12 UNL     1      -7.546  -2.232   0.278  1.00  0.00     0.030 A 
HETATM   31  C16 UNL     1      -5.127  -2.389   0.004  1.00  0.00    -0.002 A 
HETATM   32  C13 UNL     1      -7.350  -2.149   1.655  1.00  0.00     0.002 A 
HETATM   33  C14 UNL     1      -6.093  -2.186   2.192  1.00  0.00     0.001 A 
HETATM   34  C15 UNL     1      -4.980  -2.305   1.378  1.00  0.00     0.014 A 
ENDBRANCH  24  25
ENDBRANCH   6  24
BRANCH   9  35
HETATM   35  O2  UNL     1       1.057  -2.870  -0.580  1.00  0.00    -0.345 OA
ATOM     36  H2  UNL     1       1.739  -3.246  -0.036  1.00  0.00     0.219 HD
ENDBRANCH   9  35
BRANCH   1  37
HETATM   37  C4  UNL     1      -3.225   3.037  -0.321  1.00  0.00     0.038 C 
BRANCH  37  38
HETATM   38  C2  UNL     1      -4.318   2.577   0.552  1.00  0.00    -0.020 C 
HETATM   39  C1  UNL     1      -3.780   1.978   1.846  1.00  0.00     0.009 C 
HETATM   40  C3  UNL     1      -5.404   1.764  -0.049  1.00  0.00     0.009 C 
ENDBRANCH  37  38
ENDBRANCH   1  37
BRANCH  10  41
HETATM   41  C19 UNL     1      -0.073  -1.527   2.567  1.00  0.00    -0.057 C 
HETATM   42  C20 UNL     1      -1.080  -2.629   2.796  1.00  0.00     0.045 C 
HETATM   43  C21 UNL     1      -0.671  -0.200   2.688  1.00  0.00     0.045 C 
ENDBRANCH  10  41
BRANCH  13  44
HETATM   44  O3  UNL     1       2.667   1.072   1.857  1.00  0.00    -0.345 OA
ATOM     45  H3  UNL     1       3.137   1.819   1.505  1.00  0.00     0.219 HD
ENDBRANCH  13  44
BRANCH  19  46
HETATM   46  C32 UNL     1       1.836   3.576  -0.530  1.00  0.00     0.038 C 
BRANCH  46  47
HETATM   47  C33 UNL     1       0.979   4.550   0.240  1.00  0.00    -0.020 C 
HETATM   48  C34 UNL     1       0.492   3.979   1.551  1.00  0.00     0.009 C 
HETATM   49  C35 UNL     1       1.830   5.753   0.583  1.00  0.00     0.009 C 
ENDBRANCH  46  47
ENDBRANCH  19  46
BRANCH  14  50
HETATM   50  C24 UNL     1       4.867  -0.628  -0.213  1.00  0.00     0.062 C 
BRANCH  50  51
HETATM   51  C25 UNL     1       4.546  -2.052  -0.426  1.00  0.00     0.008 C 
BRANCH  51  52
HETATM   52  C26 UNL     1       5.825  -2.850  -0.583  1.00  0.00     0.020 C 
BRANCH  52  53
HETATM   53  C27 UNL     1       6.677  -2.396  -1.746  1.00  0.00     0.120 C 
BRANCH  53  54
HETATM   54  N5  UNL     1       7.851  -3.270  -1.757  1.00  0.00    -0.388 N 
HETATM   55  C28 UNL     1       8.884  -3.035  -1.025  1.00  0.00     0.185 C 
HETATM   56  N6  UNL     1       9.988  -3.915  -1.076  1.00  0.00    -0.097 NA
ATOM     57  H5  UNL     1       7.851  -4.090  -2.363  1.00  0.00     0.159 HD
ENDBRANCH  53  54
ENDBRANCH  52  53
ENDBRANCH  51  52
ENDBRANCH  50  51
ENDBRANCH  14  50
TORSDOF 14
