REMARK  14 active torsions:
REMARK  status: ('A' for Active; 'I' for Inactive)
REMARK    1  A    between atoms: C2_2  and  C3_3 
REMARK    2  A    between atoms: C3_3  and  C4_4 
REMARK    3  A    between atoms: C10_16  and  C11_17 
REMARK    4  A    between atoms: C11_17  and  C12_18 
REMARK    5  A    between atoms: C17_24  and  C18_25 
REMARK    6  A    between atoms: C19_26  and  C20_27 
REMARK    7  A    between atoms: N4_32  and  C25_33 
REMARK    8  A    between atoms: C28_39  and  C29_40 
REMARK    9  A    between atoms: C29_40  and  C30_41 
REMARK   10  A    between atoms: C30_41  and  C31_42 
REMARK   11  A    between atoms: C31_42  and  C32_43 
REMARK   12  A    between atoms: C32_43  and  C33_44 
REMARK   13  A    between atoms: C33_44  and  N6_45 
REMARK   14  A    between atoms: C34_51  and  O3_52 
ROOT
HETATM    1  C4  UNL     1      -4.042  -2.987   0.097  1.00  0.00     0.176 C 
HETATM    2  N1  UNL     1      -3.031  -3.790  -0.449  1.00  0.00    -0.346 N 
ATOM      3  H1  UNL     1      -3.403  -4.537  -1.036  1.00  0.00     0.163 HD
HETATM    4  C5  UNL     1      -1.590  -3.813  -0.380  1.00  0.00     0.246 C 
HETATM    5  O1  UNL     1      -0.893  -4.824  -0.512  1.00  0.00    -0.271 OA
HETATM    6  C6  UNL     1      -0.955  -2.500  -0.129  1.00  0.00     0.106 C 
HETATM    7  C7  UNL     1      -1.241  -1.764  -1.361  1.00  0.00     0.048 C 
HETATM    8  C8  UNL     1      -1.477  -2.213   1.221  1.00  0.00     0.048 C 
HETATM    9  N2  UNL     1       0.457  -2.351   0.025  1.00  0.00    -0.343 N 
ATOM     10  H2  UNL     1       1.097  -3.119  -0.178  1.00  0.00     0.163 HD
HETATM   11  C9  UNL     1       0.948  -1.054   0.485  1.00  0.00     0.228 C 
HETATM   12  O2  UNL     1       1.908  -1.224   1.342  1.00  0.00    -0.273 OA
HETATM   13  C10 UNL     1       0.577   0.278   0.173  1.00  0.00     0.129 C 
HETATM   14  C27 UNL     1      -0.355   1.058   1.062  1.00  0.00     0.016 C 
HETATM   15  N5  UNL     1      -0.120   1.164   2.309  1.00  0.00    -0.403 N 
ATOM     16  H51 UNL     1      -0.751   1.692   2.911  1.00  0.00     0.155 HD
ATOM     17  H52 UNL     1       0.723   0.695   2.641  1.00  0.00     0.155 HD
HETATM   18  C28 UNL     1      -1.605   1.753   0.569  1.00  0.00     0.129 C 
HETATM   19  N7  UNL     1      -2.739   1.692   1.433  1.00  0.00    -0.363 N 
ATOM     20  H7  UNL     1      -2.790   2.499   2.054  1.00  0.00     0.162 HD
HETATM   21  C34 UNL     1      -3.795   0.806   1.641  1.00  0.00     0.135 C 
HETATM   22  C35 UNL     1      -4.893   0.284   0.834  1.00  0.00     0.157 C 
HETATM   23  C36 UNL     1      -5.934   1.406   0.539  1.00  0.00     0.041 C 
HETATM   24  N8  UNL     1      -4.658  -0.457  -0.355  1.00  0.00    -0.343 N 
HETATM   25  C37 UNL     1      -4.579   0.454  -1.543  1.00  0.00     0.153 C 
HETATM   26  C38 UNL     1      -4.532  -1.804  -0.650  1.00  0.00     0.243 C 
HETATM   27  O4  UNL     1      -4.921  -2.140  -1.844  1.00  0.00    -0.271 OA
ENDROOT
BRANCH  13  28
HETATM   28  C11 UNL     1       1.709   1.277  -0.137  1.00  0.00     0.059 C 
BRANCH  28  29
HETATM   29  C12 UNL     1       2.510   0.936  -1.297  1.00  0.00    -0.045 A 
HETATM   30  C13 UNL     1       1.914   1.091  -2.562  1.00  0.00     0.034 A 
HETATM   31  C14 UNL     1       2.552   0.670  -3.701  1.00  0.00     0.046 A 
HETATM   32  N3  UNL     1       1.866   0.862  -4.934  1.00  0.00    -0.102 NA
HETATM   33  C15 UNL     1       3.800   0.087  -3.596  1.00  0.00     0.027 A 
HETATM   34  C16 UNL     1       4.406  -0.071  -2.364  1.00  0.00     0.014 A 
HETATM   35  C17 UNL     1       3.756   0.358  -1.196  1.00  0.00    -0.030 A 
BRANCH  35  36
HETATM   36  C18 UNL     1       4.525   0.427   0.018  1.00  0.00     0.014 C 
HETATM   37  C19 UNL     1       5.390  -0.341   0.556  1.00  0.00     0.030 C 
BRANCH  37  38
HETATM   38  C20 UNL     1       6.011  -1.607   0.287  1.00  0.00     0.034 A 
HETATM   39  C21 UNL     1       5.388  -2.602  -0.435  1.00  0.00     0.029 A 
HETATM   40  C22 UNL     1       6.030  -3.781  -0.737  1.00  0.00     0.004 A 
HETATM   41  C23 UNL     1       7.313  -4.003  -0.327  1.00  0.00     0.017 A 
HETATM   42  C24 UNL     1       7.918  -2.990   0.399  1.00  0.00     0.091 A 
HETATM   43  N4  UNL     1       7.302  -1.848   0.693  1.00  0.00    -0.357 N 
BRANCH  43  44
HETATM   44  C25 UNL     1       8.012  -0.844   1.442  1.00  0.00     0.124 C 
HETATM   45  C26 UNL     1       7.780  -1.067   2.918  1.00  0.00     0.027 C 
ENDBRANCH  43  44
ENDBRANCH  37  38
ENDBRANCH  35  36
ENDBRANCH  28  29
ENDBRANCH  13  28
BRANCH  18  46
HETATM   46  C29 UNL     1      -1.303   3.186   0.133  1.00  0.00     0.031 C 
BRANCH  46  47
HETATM   47  C30 UNL     1      -0.743   4.046   1.198  1.00  0.00     0.002 C 
BRANCH  47  48
HETATM   48  C31 UNL     1      -0.421   5.414   0.673  1.00  0.00     0.002 C 
BRANCH  48  49
HETATM   49  C32 UNL     1      -1.667   6.062   0.140  1.00  0.00     0.027 C 
BRANCH  49  50
HETATM   50  C33 UNL     1      -1.299   7.456  -0.363  1.00  0.00     0.229 C 
BRANCH  50  51
HETATM   51  N6  UNL     1      -2.451   8.129  -0.891  1.00  0.00    -0.079 N 
ATOM     52  H63 UNL     1      -2.912   7.577  -1.614  1.00  0.00     0.274 HD
ATOM     53  H62 UNL     1      -3.212   8.162  -0.213  1.00  0.00     0.274 HD
ATOM     54  H61 UNL     1      -2.205   9.060  -1.227  1.00  0.00     0.274 HD
ENDBRANCH  50  51
ENDBRANCH  49  50
ENDBRANCH  48  49
ENDBRANCH  47  48
ENDBRANCH  46  47
ENDBRANCH  18  46
BRANCH  21  55
HETATM   55  O3  UNL     1      -3.825   0.305   2.868  1.00  0.00    -0.348 OA
ATOM     56  H3  UNL     1      -4.545  -0.299   3.010  1.00  0.00     0.219 HD
ENDBRANCH  21  55
BRANCH   1  57
HETATM   57  C3  UNL     1      -5.370  -3.854   0.100  1.00  0.00     0.034 C 
BRANCH  57  58
HETATM   58  C2  UNL     1      -5.147  -5.072   0.929  1.00  0.00    -0.002 C 
HETATM   59  C1  UNL     1      -4.794  -4.740   2.359  1.00  0.00     0.005 C 
ENDBRANCH  57  58
ENDBRANCH   1  57
TORSDOF 14
