REMARK  5 active torsions:
REMARK  status: ('A' for Active; 'I' for Inactive)
REMARK       I    between atoms: C1_2  and  N1_3 
REMARK    1  A    between atoms: C1_2  and  C6_9 
REMARK    2  A    between atoms: N1_3  and  C2_5 
REMARK    3  A    between atoms: C8_13  and  N3_14 
REMARK    4  A    between atoms: C13_21  and  C14_22 
REMARK    5  A    between atoms: C17_26  and  C18_27 
ROOT
HETATM    1  C6  UNL     1      -0.860   0.022  -1.034  1.00  0.00     0.076 A 
HETATM    2  C7  UNL     1      -0.457  -0.996  -1.920  1.00  0.00     0.125 A 
HETATM    3  N2  UNL     1       0.815  -1.218  -2.117  1.00  0.00    -0.201 N 
ATOM      4  H2  UNL     1       1.080  -1.960  -2.764  1.00  0.00     0.183 HD
HETATM    5  C8  UNL     1       1.792  -0.522  -1.514  1.00  0.00     0.680 A 
HETATM    6  N4  UNL     1       1.396   0.441  -0.678  1.00  0.00    -0.189 N 
ATOM      7  H4  UNL     1       2.125   0.981  -0.212  1.00  0.00     0.184 HD
HETATM    8  C13 UNL     1       0.135   0.757  -0.400  1.00  0.00     0.084 A 
ENDROOT
BRANCH   8   9
HETATM    9  C14 UNL     1      -0.262   1.893   0.466  1.00  0.00     0.048 A 
HETATM   10  S1  UNL     1      -1.834   2.547   0.656  1.00  0.00    -0.099 SA
HETATM   11  C15 UNL     1      -1.520   3.764   1.782  1.00  0.00     0.051 A 
HETATM   12  C16 UNL     1      -0.180   3.639   1.992  1.00  0.00     0.025 A 
HETATM   13  C17 UNL     1       0.485   2.670   1.315  1.00  0.00     0.067 A 
BRANCH  13  14
HETATM   14  C18 UNL     1       1.986   2.488   1.540  1.00  0.00     0.418 C 
HETATM   15  F1  UNL     1       2.439   3.414   2.474  1.00  0.00    -0.166 F 
HETATM   16  F2  UNL     1       2.710   2.720   0.404  1.00  0.00    -0.166 F 
HETATM   17  F3  UNL     1       2.237   1.249   2.029  1.00  0.00    -0.166 F 
ENDBRANCH  13  14
ENDBRANCH   8   9
BRANCH   1  18
HETATM   18  C1  UNL     1      -2.272   0.139  -0.802  1.00  0.00     0.255 C 
HETATM   19  O1  UNL     1      -3.012   0.732  -1.630  1.00  0.00    -0.268 OA
HETATM   20  N1  UNL     1      -2.928  -0.402   0.340  1.00  0.00    -0.352 N 
ATOM     21  H1  UNL     1      -2.361  -0.887   1.036  1.00  0.00     0.163 HD
BRANCH  20  22
HETATM   22  C2  UNL     1      -4.341  -0.304   0.568  1.00  0.00     0.084 C 
HETATM   23  C3  UNL     1      -5.074  -1.662   0.586  1.00  0.00     0.025 C 
HETATM   24  C4  UNL     1      -4.874  -1.671   2.088  1.00  0.00     0.004 C 
HETATM   25  C5  UNL     1      -4.670  -0.171   2.023  1.00  0.00     0.025 C 
ENDBRANCH  20  22
ENDBRANCH   1  18
BRANCH   5  26
HETATM   26  N3  UNL     1       3.147  -0.831  -1.781  1.00  0.00    -0.218 N 
HETATM   27  C9  UNL     1       4.370  -0.103  -1.515  1.00  0.00     0.141 C 
HETATM   28  C10 UNL     1       5.402  -1.191  -1.228  1.00  0.00     0.022 C 
HETATM   29  C11 UNL     1       4.658  -2.502  -1.410  1.00  0.00     0.022 C 
HETATM   30  C12 UNL     1       3.600  -2.065  -2.424  1.00  0.00     0.141 C 
ENDBRANCH   5  26
TORSDOF 5
