REMARK  5 active torsions:
REMARK  status: ('A' for Active; 'I' for Inactive)
REMARK    1  A    between atoms: O1_1  and  C1_3 
REMARK    2  A    between atoms: C3_5  and  C4_6 
REMARK    3  A    between atoms: C4_6  and  C5_7 
REMARK    4  A    between atoms: C5_7  and  C6_8 
REMARK    5  A    between atoms: C12_17  and  C13_18 
ROOT
HETATM    1  C1  UNL     1       0.681  -0.386  -3.151  1.00  0.00     0.123 C 
HETATM    2  C2  UNL     1       1.080  -1.560  -2.294  1.00  0.00     0.063 C 
HETATM    3  C3  UNL     1       1.239  -1.022  -0.874  1.00  0.00     0.125 C 
HETATM    4  O2  UNL     1      -0.023  -0.637  -0.455  1.00  0.00    -0.373 OA
HETATM    5  C12 UNL     1      -0.368   0.542  -1.064  1.00  0.00     0.193 C 
HETATM    6  C19 UNL     1       0.291   0.815  -2.362  1.00  0.00     0.071 C 
ENDROOT
BRANCH   5   7
HETATM    7  C13 UNL     1      -1.860   0.677  -1.191  1.00  0.00     0.129 A 
HETATM    8  N1  UNL     1      -2.562   1.080  -2.263  1.00  0.00    -0.285 N 
HETATM    9  N2  UNL     1      -3.868   1.065  -1.976  1.00  0.00    -0.287 N 
ATOM     10  H1  UNL     1      -2.160   1.355  -3.159  1.00  0.00     0.188 HD
HETATM   11  C14 UNL     1      -4.021   0.648  -0.705  1.00  0.00     0.099 A 
ATOM     12  H2  UNL     1      -4.621   1.326  -2.613  1.00  0.00     0.188 HD
HETATM   13  N3  UNL     1      -2.777   0.416  -0.242  1.00  0.00    -0.322 N 
HETATM   14  C18 UNL     1      -5.155   0.411   0.212  1.00  0.00     0.078 C 
HETATM   15  C15 UNL     1      -2.665  -0.049   1.125  1.00  0.00     0.132 C 
HETATM   16  C16 UNL     1      -3.484   0.842   2.034  1.00  0.00     0.021 C 
HETATM   17  C17 UNL     1      -4.894   1.000   1.570  1.00  0.00     0.009 C 
ENDBRANCH   5   7
BRANCH   3  18
HETATM   18  C4  UNL     1       1.814  -2.126  -0.020  1.00  0.00     0.036 C 
BRANCH  18  19
HETATM   19  C5  UNL     1       2.011  -1.696   1.406  1.00  0.00     0.041 C 
BRANCH  19  20
HETATM   20  C6  UNL     1       2.921  -0.559   1.564  1.00  0.00    -0.053 A 
HETATM   21  C7  UNL     1       4.275  -0.808   1.736  1.00  0.00     0.049 A 
HETATM   22  C8  UNL     1       5.195   0.206   1.891  1.00  0.00     0.118 A 
HETATM   23  F1  UNL     1       6.522  -0.007   2.061  1.00  0.00    -0.206 F 
HETATM   24  C9  UNL     1       4.753   1.512   1.874  1.00  0.00     0.066 A 
HETATM   25  C10 UNL     1       3.412   1.817   1.706  1.00  0.00     0.037 A 
HETATM   26 CL1  UNL     1       2.868   3.493   1.688  1.00  0.00    -0.084 Cl
HETATM   27  C11 UNL     1       2.540   0.764   1.556  1.00  0.00     0.031 A 
ENDBRANCH  19  20
ENDBRANCH  18  19
ENDBRANCH   3  18
BRANCH   1  28
HETATM   28  O1  UNL     1      -0.271  -0.764  -4.093  1.00  0.00    -0.395 OA
ATOM     29  H1  UNL     1      -0.522  -0.024  -4.633  1.00  0.00     0.210 HD
ENDBRANCH   1  28
TORSDOF 5
