REMARK  8 active torsions:
REMARK  status: ('A' for Active; 'I' for Inactive)
REMARK    1  A    between atoms: C2_2  and  C3_3 
REMARK    2  A    between atoms: C3_3  and  C4_4 
REMARK    3  A    between atoms: C11_11  and  C12_12 
REMARK    4  A    between atoms: C12_12  and  O1_14 
REMARK    5  A    between atoms: C12_12  and  C14_16 
REMARK    6  A    between atoms: C14_16  and  O2_17 
REMARK    7  A    between atoms: O2_17  and  S1_18 
REMARK    8  A    between atoms: S1_18  and  O5_21 
ROOT
HETATM    1  C4  UNL     1      -4.123  -0.268  -0.280  1.00  0.00    -0.006 C 
HETATM    2  C5  UNL     1      -3.688  -0.020  -1.687  1.00  0.00     0.006 C 
HETATM    3  C6  UNL     1      -2.190  -0.164  -1.933  1.00  0.00     0.011 C 
HETATM    4  C7  UNL     1      -1.403  -1.072  -1.132  1.00  0.00    -0.029 C 
HETATM    5  C8  UNL     1      -0.210  -1.250  -1.956  1.00  0.00     0.037 C 
HETATM    6  C9  UNL     1       0.758  -0.091  -1.669  1.00  0.00    -0.022 C 
HETATM    7  C10 UNL     1       1.255   0.455  -0.466  1.00  0.00    -0.072 C 
HETATM    8  C11 UNL     1       2.666  -0.004  -0.098  1.00  0.00     0.051 C 
HETATM    9  C16 UNL     1       2.645  -0.650   1.223  1.00  0.00     0.013 C 
HETATM   10  C17 UNL     1       1.352  -0.217   1.893  1.00  0.00     0.010 C 
HETATM   11  C18 UNL     1       0.556   0.574   0.918  1.00  0.00     0.023 C 
HETATM   12  C19 UNL     1      -0.837   0.315   0.664  1.00  0.00    -0.032 C 
HETATM   13  C20 UNL     1      -1.125   1.595   0.030  1.00  0.00     0.016 C 
HETATM   14  C21 UNL     1      -2.112   0.017   1.268  1.00  0.00     0.020 C 
HETATM   15  C22 UNL     1      -3.031  -0.945   0.570  1.00  0.00    -0.035 C 
HETATM   16  C23 UNL     1      -3.825  -1.707   1.602  1.00  0.00     0.016 C 
HETATM   17  C24 UNL     1      -2.438  -1.867  -0.527  1.00  0.00     0.003 C 
HETATM   18  C25 UNL     1      -1.795  -3.039   0.100  1.00  0.00     0.006 C 
HETATM   19  C26 UNL     1      -1.007  -2.204   1.028  1.00  0.00     0.006 C 
HETATM   20  C27 UNL     1      -0.652  -1.026   0.116  1.00  0.00     0.004 C 
ENDROOT
BRANCH   8  21
HETATM   21  C12 UNL     1       3.708   1.063  -0.238  1.00  0.00     0.084 C 
HETATM   22  C13 UNL     1       3.455   2.267   0.629  1.00  0.00     0.049 C 
BRANCH  21  23
HETATM   23  O1  UNL     1       3.645   1.504  -1.582  1.00  0.00    -0.387 OA
ATOM     24  H1  UNL     1       4.306   2.181  -1.671  1.00  0.00     0.210 HD
ENDBRANCH  21  23
BRANCH  21  25
HETATM   25  C14 UNL     1       5.073   0.557  -0.006  1.00  0.00     0.230 C 
BRANCH  25  26
HETATM   26  O2  UNL     1       5.968   1.627  -0.243  1.00  0.00    -0.251 OA
BRANCH  26  27
HETATM   27  S1  UNL     1       7.548   1.165  -0.009  1.00  0.00     0.401 S 
HETATM   28  O3  UNL     1       8.082   0.576  -1.285  1.00  0.00    -0.169 OA
HETATM   29  O4  UNL     1       8.361   2.413   0.267  1.00  0.00    -0.169 OA
BRANCH  27  30
HETATM   30  O5  UNL     1       7.752   0.143   1.290  1.00  0.00    -0.259 OA
HETATM   31  C15 UNL     1       8.122  -1.133   0.829  1.00  0.00     0.228 C 
ENDBRANCH  27  30
ENDBRANCH  26  27
ENDBRANCH  25  26
ENDBRANCH  21  25
ENDBRANCH   8  21
BRANCH   1  32
HETATM   32  C3  UNL     1      -4.913   0.764   0.406  1.00  0.00     0.005 C 
BRANCH  32  33
HETATM   33  C2  UNL     1      -6.204   1.001  -0.365  1.00  0.00    -0.004 C 
HETATM   34  C1  UNL     1      -6.975   2.056   0.367  1.00  0.00     0.005 C 
ENDBRANCH  32  33
ENDBRANCH   1  32
TORSDOF 8
