REMARK  8 active torsions:
REMARK  status: ('A' for Active; 'I' for Inactive)
REMARK    1  A    between atoms: C2_2  and  N1_3 
REMARK    2  A    between atoms: N1_3  and  C3_4 
REMARK    3  A    between atoms: N1_3  and  C10_30 
REMARK    4  A    between atoms: C3_4  and  C4_5 
REMARK    5  A    between atoms: C4_5  and  O1_6 
REMARK    6  A    between atoms: N2_9  and  O2_10 
REMARK    7  A    between atoms: C8_16  and  N5_17 
REMARK    8  A    between atoms: C8_16  and  C9_21 
ROOT
HETATM    1  C4  UNL     1      -0.244  -0.496  -0.422  1.00  0.00     0.152 C 
HETATM    2  C5  UNL     1      -0.404   0.794  -1.165  1.00  0.00     0.203 C 
HETATM    3  N2  UNL     1      -1.320   1.686  -0.475  1.00  0.00    -0.227 N 
HETATM    4  C7  UNL     1      -1.885   1.371   0.792  1.00  0.00     0.212 C 
HETATM    5  N3  UNL     1      -2.293   2.364   1.739  1.00  0.00    -0.062 NA
HETATM    6  N4  UNL     1      -2.041   0.107   1.076  1.00  0.00    -0.321 N 
ATOM      7  H4  UNL     1      -2.442  -0.177   1.970  1.00  0.00     0.165 HD
HETATM    8  C8  UNL     1      -1.646  -0.864   0.125  1.00  0.00     0.292 C 
ENDROOT
BRANCH   1   9
HETATM    9  C3  UNL     1       0.727  -0.455   0.693  1.00  0.00     0.185 C 
BRANCH   9  10
HETATM   10  N1  UNL     1       2.112  -0.371   0.398  1.00  0.00    -0.212 N 
BRANCH  10  11
HETATM   11  C2  UNL     1       3.022  -0.360   1.531  1.00  0.00     0.137 C 
HETATM   12  C1  UNL     1       2.874   0.946   2.314  1.00  0.00     0.027 C 
ENDBRANCH  10  11
BRANCH  10  13
HETATM   13  C10 UNL     1       2.715  -0.307  -0.880  1.00  0.00     0.711 A 
HETATM   14  N10 UNL     1       2.832  -1.037  -1.992  1.00  0.00    -0.116 N 
HETATM   15  N11 UNL     1       3.592  -0.144  -2.577  1.00  0.00    -0.214 N 
ATOM     16  H10 UNL     1       2.468  -1.946  -2.278  1.00  0.00     0.207 HD
HETATM   17  N12 UNL     1       3.503   0.607  -1.501  1.00  0.00    -0.116 N 
ATOM     18  H11 UNL     1       4.056  -0.065  -3.482  1.00  0.00     0.209 HD
ATOM     19  H12 UNL     1       3.878   1.518  -1.237  1.00  0.00     0.207 HD
ENDBRANCH  10  13
ENDBRANCH   9  10
ENDBRANCH   1   9
BRANCH   1  20
HETATM   20  O1  UNL     1       0.045  -1.592  -1.251  1.00  0.00    -0.381 OA
ATOM     21  H1  UNL     1      -0.579  -1.618  -1.967  1.00  0.00     0.211 HD
ENDBRANCH   1  20
BRANCH   8  22
HETATM   22  N5  UNL     1      -2.535  -0.867  -1.006  1.00  0.00    -0.042 N 
ATOM     23  H53 UNL     1      -2.523   0.007  -1.533  1.00  0.00     0.278 HD
ATOM     24  H52 UNL     1      -2.224  -1.475  -1.763  1.00  0.00     0.278 HD
ATOM     25  H51 UNL     1      -3.458  -1.109  -0.646  1.00  0.00     0.278 HD
ENDBRANCH   8  22
BRANCH   8  26
HETATM   26  C9  UNL     1      -1.574  -2.224   0.734  1.00  0.00     0.174 A 
HETATM   27  N6  UNL     1      -1.790  -2.567   2.004  1.00  0.00    -0.268 N 
HETATM   28  N7  UNL     1      -1.605  -3.866   2.090  1.00  0.00    -0.227 N 
ATOM     29  H6  UNL     1      -2.050  -1.940   2.765  1.00  0.00     0.190 HD
HETATM   30  N8  UNL     1      -1.278  -4.362   0.912  1.00  0.00    -0.227 N 
ATOM     31  H7  UNL     1      -1.701  -4.413   2.946  1.00  0.00     0.210 HD
HETATM   32  N9  UNL     1      -1.258  -3.349   0.075  1.00  0.00    -0.268 N 
ATOM     33  H8  UNL     1      -1.080  -5.339   0.694  1.00  0.00     0.210 HD
ATOM     34  H9  UNL     1      -1.037  -3.409  -0.919  1.00  0.00     0.190 HD
ENDBRANCH   8  26
BRANCH   3  35
HETATM   35  O2  UNL     1      -1.672   2.874  -1.020  1.00  0.00    -0.281 OA
HETATM   36  C6  UNL     1      -2.788   2.829  -1.819  1.00  0.00     0.238 C 
ENDBRANCH   3  35
TORSDOF 8
