REMARK  6 active torsions:
REMARK  status: ('A' for Active; 'I' for Inactive)
REMARK    1  A    between atoms: C2_10  and  C3_11 
REMARK    2  A    between atoms: N7_21  and  N8_23 
REMARK    3  A    between atoms: N8_23  and  N9_25 
REMARK    4  A    between atoms: N10_29  and  C8_30 
REMARK    5  A    between atoms: C8_30  and  C9_31 
REMARK    6  A    between atoms: C9_31  and  C10_32 
ROOT
HETATM    1  C3  UNL     1       1.884  -0.692   0.231  1.00  0.00     0.143 A 
HETATM    2  N4  UNL     1       2.746   0.287   0.599  1.00  0.00    -0.324 N 
ATOM      3  H4  UNL     1       3.686   0.133   0.963  1.00  0.00     0.169 HD
HETATM    4  C4  UNL     1       2.188   1.468   0.416  1.00  0.00     0.139 A 
HETATM    5  N5  UNL     1       2.645   2.738   0.635  1.00  0.00    -0.337 N 
ATOM      6  H5  UNL     1       3.582   2.887   1.009  1.00  0.00     0.168 HD
HETATM    7  C5  UNL     1       1.858   3.787   0.357  1.00  0.00     0.183 A 
HETATM    8  N6  UNL     1       0.630   3.562  -0.133  1.00  0.00    -0.336 N 
ATOM      9  H6  UNL     1       0.038   4.366  -0.341  1.00  0.00     0.168 HD
HETATM   10  C6  UNL     1       0.134   2.318  -0.367  1.00  0.00     0.153 A 
HETATM   11  N7  UNL     1      -1.051   2.161  -0.837  1.00  0.00    -0.269 N 
ATOM     12  H7  UNL     1      -1.387   1.212  -0.998  1.00  0.00     0.190 HD
HETATM   13  C7  UNL     1       0.929   1.220  -0.088  1.00  0.00     0.126 A 
HETATM   14  N10 UNL     1       0.747  -0.130  -0.201  1.00  0.00    -0.325 N 
ENDROOT
BRANCH  14  15
HETATM   15  C8  UNL     1      -0.427  -0.789  -0.692  1.00  0.00     0.138 C 
BRANCH  15  16
HETATM   16  C9  UNL     1      -1.423  -1.136   0.393  1.00  0.00     0.099 C 
BRANCH  16  17
HETATM   17  C10 UNL     1      -2.615  -1.809  -0.144  1.00  0.00     0.114 A 
HETATM   18  N11 UNL     1      -2.923  -2.144  -1.425  1.00  0.00    -0.272 N 
HETATM   19  N12 UNL     1      -4.105  -2.738  -1.437  1.00  0.00    -0.227 N 
ATOM     20  H11 UNL     1      -2.339  -1.967  -2.242  1.00  0.00     0.190 HD
HETATM   21  N13 UNL     1      -4.565  -2.797  -0.214  1.00  0.00    -0.227 N 
ATOM     22  H12 UNL     1      -4.581  -3.093  -2.266  1.00  0.00     0.210 HD
HETATM   23  N14 UNL     1      -3.662  -2.233   0.585  1.00  0.00    -0.272 N 
ATOM     24  H13 UNL     1      -5.455  -3.202   0.075  1.00  0.00     0.210 HD
ATOM     25  H14 UNL     1      -3.751  -2.137   1.597  1.00  0.00     0.190 HD
ENDBRANCH  16  17
ENDBRANCH  15  16
ENDBRANCH  14  15
BRANCH   1  26
HETATM   26  C2  UNL     1       2.242  -2.099   0.335  1.00  0.00     0.146 A 
HETATM   27  C1  UNL     1       3.416  -2.654   0.786  1.00  0.00     0.154 A 
HETATM   28  N1  UNL     1       4.484  -2.101   1.224  1.00  0.00    -0.382 N 
HETATM   29  N2  UNL     1       3.290  -4.019   0.700  1.00  0.00    -0.224 N 
ATOM     30  H12 UNL     1       5.355  -2.513   1.559  1.00  0.00     0.157 HD
ATOM     31  H11 UNL     1       4.578  -1.087   1.288  1.00  0.00     0.157 HD
HETATM   32  O1  UNL     1       2.107  -4.256   0.224  1.00  0.00    -0.155 OA
ATOM     33  H2  UNL     1       3.991  -4.712   0.960  1.00  0.00     0.198 HD
HETATM   34  N3  UNL     1       1.479  -3.137   0.005  1.00  0.00    -0.234 N 
ATOM     35  H3  UNL     1       0.532  -3.066  -0.368  1.00  0.00     0.197 HD
ENDBRANCH   1  26
BRANCH  11  36
HETATM   36  N8  UNL     1      -1.894   3.218  -1.136  1.00  0.00    -0.248 N 
ATOM     37  H8  UNL     1      -1.910   3.574  -2.092  1.00  0.00     0.207 HD
BRANCH  36  38
HETATM   38  N9  UNL     1      -2.725   3.819  -0.185  1.00  0.00    -0.331 N 
ATOM     39  H92 UNL     1      -2.697   3.451   0.766  1.00  0.00     0.178 HD
ATOM     40  H91 UNL     1      -3.346   4.598  -0.405  1.00  0.00     0.178 HD
ENDBRANCH  36  38
ENDBRANCH  11  36
TORSDOF 6
