REMARK  5 active torsions:
REMARK  status: ('A' for Active; 'I' for Inactive)
REMARK    1  A    between atoms: C2_2  and  N1_3 
REMARK    2  A    between atoms: C2_2  and  C3_7 
REMARK       I    between atoms: C3_7  and  N2_9 
REMARK    3  A    between atoms: N2_9  and  N3_11 
REMARK    4  A    between atoms: N3_11  and  C4_12 
REMARK    5  A    between atoms: C4_12  and  O2_14 
ROOT
HETATM    1  C3  UNL     1      -0.581  -0.384   0.055  1.00  0.00     0.276 C 
HETATM    2  O1  UNL     1      -0.470  -1.510   0.578  1.00  0.00    -0.269 OA
HETATM    3  N2  UNL     1       0.603   0.328  -0.270  1.00  0.00    -0.197 N 
ATOM      4  H2  UNL     1       0.518   1.249  -0.701  1.00  0.00     0.205 HD
ENDROOT
BRANCH   1   5
HETATM    5  C2  UNL     1      -1.931   0.117  -0.184  1.00  0.00     0.273 C 
HETATM    6  C1  UNL     1      -2.341   1.227   0.779  1.00  0.00     0.050 C 
BRANCH   5   7
HETATM    7  N1  UNL     1      -2.942  -0.919  -0.030  1.00  0.00    -0.067 N 
ATOM      8  H13 UNL     1      -3.064  -1.234   0.932  1.00  0.00     0.275 HD
ATOM      9  H12 UNL     1      -3.896  -0.586  -0.169  1.00  0.00     0.275 HD
ATOM     10  H11 UNL     1      -2.668  -1.661  -0.674  1.00  0.00     0.275 HD
ENDBRANCH   5   7
ENDBRANCH   1   5
BRANCH   3  11
HETATM   11  N3  UNL     1       1.834  -0.164  -0.032  1.00  0.00    -0.281 NA
BRANCH  11  12
HETATM   12  C4  UNL     1       3.040  -0.674   0.201  1.00  0.00     0.327 C 
HETATM   13  N4  UNL     1       4.204   0.209   0.267  1.00  0.00    -0.040 NA
BRANCH  12  14
HETATM   14  O2  UNL     1       3.387  -1.933   0.371  1.00  0.00    -0.323 OA
ATOM     15  H2  UNL     1       4.248  -2.297   0.537  1.00  0.00     0.221 HD
ENDBRANCH  12  14
ENDBRANCH  11  12
ENDBRANCH   3  11
TORSDOF 5
