REMARK  1 active torsions:
REMARK  status: ('A' for Active; 'I' for Inactive)
REMARK    1  A    between atoms: N5_12  and  C3_13 
ROOT
HETATM    1  N1  UNL     1       0.500   2.178   0.055  1.00  0.00    -0.380 N 
ATOM      2  H11 UNL     1      -0.326   2.776   0.047  1.00  0.00     0.158 HD
ATOM      3  H12 UNL     1       1.402   2.651   0.100  1.00  0.00     0.158 HD
HETATM    4  C1  UNL     1       0.397   0.903   0.011  1.00  0.00     0.192 C 
HETATM    5  C2  UNL     1       1.578   0.048   0.023  1.00  0.00     0.306 C 
HETATM    6  O1  UNL     1       2.721   0.561   0.077  1.00  0.00    -0.263 OA
HETATM    7  N2  UNL     1       1.359  -1.357  -0.030  1.00  0.00    -0.250 N 
ATOM      8  H2  UNL     1       2.097  -1.996  -0.325  1.00  0.00     0.191 HD
HETATM    9  N3  UNL     1       0.122  -1.820   0.329  1.00  0.00    -0.223 N 
ATOM     10  H3  UNL     1       0.025  -2.642   0.925  1.00  0.00     0.205 HD
HETATM   11  N4  UNL     1      -0.960  -1.166  -0.123  1.00  0.00     0.005 NA
HETATM   12  N5  UNL     1      -0.871   0.238  -0.052  1.00  0.00    -0.193 N 
ENDROOT
BRANCH  12  13
HETATM   13  C3  UNL     1      -2.049   1.025  -0.042  1.00  0.00     0.376 C 
HETATM   14  O2  UNL     1      -3.205   0.534  -0.094  1.00  0.00    -0.282 OA
ENDBRANCH  12  13
TORSDOF 1
