REMARK  9 active torsions:
REMARK  status: ('A' for Active; 'I' for Inactive)
REMARK    1  A    between atoms: C2_2  and  O1_3 
REMARK    2  A    between atoms: O1_3  and  C3_4 
REMARK    3  A    between atoms: C5_6  and  N1_7 
REMARK    4  A    between atoms: N1_7  and  C6_9 
REMARK    5  A    between atoms: C6_9  and  C7_13 
REMARK    6  A    between atoms: N4_16  and  C8_17 
REMARK    7  A    between atoms: C9_20  and  C10_21 
REMARK    8  A    between atoms: C11_25  and  N6_26 
REMARK    9  A    between atoms: C15_35  and  N9_36 
ROOT
HETATM    1  C7  UNL     1      -0.774   0.827   0.146  1.00  0.00     0.171 A 
HETATM    2  N3  UNL     1      -1.982   0.837   0.786  1.00  0.00    -0.270 N 
ATOM      3  H3  UNL     1      -2.127   1.042   1.775  1.00  0.00     0.189 HD
HETATM    4  N4  UNL     1      -2.927   0.540  -0.079  1.00  0.00    -0.184 N 
HETATM    5  C13 UNL     1      -2.347   0.337  -1.275  1.00  0.00     0.351 A 
HETATM    6  O4  UNL     1      -2.961   0.035  -2.327  1.00  0.00    -0.244 OA
HETATM    7  N7  UNL     1      -1.000   0.518  -1.132  1.00  0.00    -0.284 N 
HETATM    8  C14 UNL     1      -0.012   0.396  -2.183  1.00  0.00     0.163 C 
ENDROOT
BRANCH   1   9
HETATM    9  C6  UNL     1       0.458   1.122   0.843  1.00  0.00     0.147 C 
HETATM   10  N2  UNL     1       0.471   1.408   2.101  1.00  0.00    -0.382 N 
ATOM     11  H22 UNL     1       1.340   1.616   2.593  1.00  0.00     0.157 HD
ATOM     12  H21 UNL     1      -0.432   1.413   2.576  1.00  0.00     0.157 HD
BRANCH   9  13
HETATM   13  N1  UNL     1       1.707   1.115   0.186  1.00  0.00    -0.325 N 
ATOM     14  H1  UNL     1       1.993   1.900  -0.399  1.00  0.00     0.169 HD
BRANCH  13  15
HETATM   15  C5  UNL     1       2.483   0.088   0.343  1.00  0.00     0.126 A 
HETATM   16  C4  UNL     1       3.721   0.082  -0.308  1.00  0.00     0.105 A 
HETATM   17  C3  UNL     1       4.557  -0.991  -0.161  1.00  0.00     0.161 A 
HETATM   18  N10 UNL     1       4.171  -2.026   0.609  1.00  0.00    -0.171 N 
HETATM   19  C15 UNL     1       2.993  -2.015   1.225  1.00  0.00     0.679 A 
ATOM     20  H10 UNL     1       4.790  -2.829   0.721  1.00  0.00     0.186 HD
HETATM   21  N8  UNL     1       2.175  -0.979   1.090  1.00  0.00    -0.177 N 
ATOM     22  H8  UNL     1       1.277  -0.996   1.574  1.00  0.00     0.185 HD
BRANCH  17  23
HETATM   23  O1  UNL     1       5.798  -1.090  -0.762  1.00  0.00    -0.336 OA
BRANCH  23  24
HETATM   24  C2  UNL     1       6.395  -0.143  -1.592  1.00  0.00     0.173 C 
HETATM   25  C1  UNL     1       6.619   1.197  -0.943  1.00  0.00     0.034 C 
ENDBRANCH  23  24
ENDBRANCH  17  23
BRANCH  19  26
HETATM   26  N9  UNL     1       2.633  -3.028   1.970  1.00  0.00    -0.234 N 
ATOM     27  H92 UNL     1       1.729  -3.020   2.443  1.00  0.00     0.174 HD
ATOM     28  H91 UNL     1       3.262  -3.824   2.074  1.00  0.00     0.174 HD
ENDBRANCH  19  26
ENDBRANCH  13  15
ENDBRANCH   9  13
ENDBRANCH   1   9
BRANCH   4  29
HETATM   29  C8  UNL     1      -4.359   0.461   0.183  1.00  0.00     0.167 A 
HETATM   30  N5  UNL     1      -5.132   1.425  -0.234  1.00  0.00    -0.327 N 
HETATM   31  C9  UNL     1      -6.427   1.383  -0.013  1.00  0.00     0.155 A 
ATOM     32  H5  UNL     1      -4.729   2.217  -0.735  1.00  0.00     0.168 HD
HETATM   33  S1  UNL     1      -6.604  -0.081   0.826  1.00  0.00    -0.044 SA
HETATM   34  C11 UNL     1      -4.927  -0.579   0.846  1.00  0.00     0.118 A 
BRANCH  31  35
HETATM   35  C10 UNL     1      -7.410   2.396  -0.424  1.00  0.00     0.234 C 
HETATM   36  O2  UNL     1      -8.604   2.188  -0.126  1.00  0.00    -0.642 OA
HETATM   37  O3  UNL     1      -7.012   3.523  -1.110  1.00  0.00    -0.642 OA
ENDBRANCH  31  35
BRANCH  34  38
HETATM   38  N6  UNL     1      -4.416  -1.774   1.430  1.00  0.00    -0.386 N 
HETATM   39  C12 UNL     1      -3.068  -2.225   1.469  1.00  0.00     0.147 C 
ATOM     40  H6  UNL     1      -5.103  -2.382   1.876  1.00  0.00     0.159 HD
ENDBRANCH  34  38
ENDBRANCH   4  29
TORSDOF 9
