REMARK  7 active torsions:
REMARK  status: ('A' for Active; 'I' for Inactive)
REMARK       I    between atoms: C1_2  and  N1_3 
REMARK    1  A    between atoms: C1_2  and  C15_23 
REMARK    2  A    between atoms: N1_3  and  C2_5 
REMARK    3  A    between atoms: C5_8  and  N2_9 
REMARK    4  A    between atoms: N2_9  and  C6_11 
REMARK    5  A    between atoms: C6_11  and  N3_13 
REMARK    6  A    between atoms: N3_13  and  C7_15 
REMARK    7  A    between atoms: C19_27  and  C20_28 
ROOT
HETATM    1  C2  UNL     1       0.341  -1.923  -0.227  1.00  0.00     0.035 A 
HETATM    2  C3  UNL     1       0.987  -0.964  -0.930  1.00  0.00     0.032 A 
HETATM    3  C4  UNL     1       2.381  -0.989  -1.121  1.00  0.00     0.032 A 
HETATM    4  C5  UNL     1       3.144  -1.985  -0.604  1.00  0.00     0.034 A 
HETATM    5  C13 UNL     1       2.496  -2.995   0.131  1.00  0.00     0.032 A 
HETATM    6  C14 UNL     1       1.138  -2.948   0.302  1.00  0.00     0.032 A 
ENDROOT
BRANCH   1   7
HETATM    7  N1  UNL     1      -1.026  -1.973   0.013  1.00  0.00    -0.323 N 
HETATM    8  C1  UNL     1      -2.000  -1.037  -0.377  1.00  0.00     0.256 C 
HETATM    9  O1  UNL     1      -1.763   0.020  -1.019  1.00  0.00    -0.267 OA
ATOM     10  H1  UNL     1      -1.363  -2.783   0.533  1.00  0.00     0.169 HD
BRANCH   8  11
HETATM   11  C15 UNL     1      -3.422  -1.221  -0.056  1.00  0.00     0.033 A 
HETATM   12  C16 UNL     1      -3.961  -2.443   0.256  1.00  0.00     0.017 A 
HETATM   13  C17 UNL     1      -5.319  -2.608   0.571  1.00  0.00     0.002 A 
HETATM   14  C18 UNL     1      -6.118  -1.492   0.561  1.00  0.00     0.012 A 
HETATM   15  C19 UNL     1      -5.631  -0.234   0.254  1.00  0.00    -0.025 A 
HETATM   16  C25 UNL     1      -4.291  -0.133  -0.047  1.00  0.00     0.029 A 
BRANCH  15  17
HETATM   17  C20 UNL     1      -6.496   0.947   0.247  1.00  0.00    -0.023 A 
HETATM   18  C21 UNL     1      -7.566   1.029   1.110  1.00  0.00     0.029 A 
HETATM   19  C22 UNL     1      -8.384   2.136   1.112  1.00  0.00     0.088 A 
HETATM   20  N4  UNL     1      -8.122   3.142   0.254  1.00  0.00    -0.375 N 
HETATM   21  C23 UNL     1      -7.096   3.118  -0.608  1.00  0.00     0.088 A 
ATOM     22  H4  UNL     1      -8.733   3.959   0.261  1.00  0.00     0.164 HD
HETATM   23  C24 UNL     1      -6.279   2.008  -0.607  1.00  0.00     0.029 A 
ENDBRANCH  15  17
ENDBRANCH   8  11
ENDBRANCH   1   7
BRANCH   4  24
HETATM   24  N2  UNL     1       4.540  -2.114  -0.693  1.00  0.00    -0.333 N 
ATOM     25  H2  UNL     1       4.898  -3.045  -0.905  1.00  0.00     0.168 HD
BRANCH  24  26
HETATM   26  C6  UNL     1       5.505  -1.091  -0.520  1.00  0.00     0.176 C 
HETATM   27  S1  UNL     1       7.109  -1.487  -0.780  1.00  0.00    -0.041 SA
BRANCH  26  28
HETATM   28  N3  UNL     1       5.236   0.248  -0.191  1.00  0.00    -0.333 N 
ATOM     29  H3  UNL     1       4.255   0.500  -0.073  1.00  0.00     0.168 HD
BRANCH  28  30
HETATM   30  C7  UNL     1       6.168   1.271  -0.008  1.00  0.00     0.034 A 
HETATM   31  C8  UNL     1       7.366   1.089   0.588  1.00  0.00     0.029 A 
HETATM   32  C9  UNL     1       8.267   2.156   0.707  1.00  0.00     0.002 A 
HETATM   33  C10 UNL     1       7.938   3.380   0.224  1.00  0.00     0.000 A 
HETATM   34  C11 UNL     1       6.719   3.569  -0.382  1.00  0.00     0.002 A 
HETATM   35  C12 UNL     1       5.847   2.535  -0.498  1.00  0.00     0.029 A 
ENDBRANCH  28  30
ENDBRANCH  26  28
ENDBRANCH  24  26
ENDBRANCH   4  24
TORSDOF 7
