REMARK  11 active torsions:
REMARK  status: ('A' for Active; 'I' for Inactive)
REMARK    1  A    between atoms: O1_2  and  C2_3 
REMARK    2  A    between atoms: C5_6  and  C6_7 
REMARK    3  A    between atoms: C7_8  and  C8_9 
REMARK    4  A    between atoms: C13_16  and  N1_17 
REMARK    5  A    between atoms: N1_17  and  C14_19 
REMARK    6  A    between atoms: C17_22  and  O2_23 
REMARK    7  A    between atoms: O2_23  and  C18_24 
REMARK    8  A    between atoms: C25_31  and  C26_32 
REMARK    9  A    between atoms: C30_38  and  O3_39 
REMARK   10  A    between atoms: O3_39  and  C31_40 
REMARK   11  A    between atoms: C31_40  and  C33_42 
ROOT
HETATM    1  C8  UNL     1      -1.572  -0.806   0.573  1.00  0.00    -0.014 A 
HETATM    2  C9  UNL     1      -0.930  -2.006   0.955  1.00  0.00     0.028 A 
HETATM    3  C10 UNL     1       0.423  -2.158   1.045  1.00  0.00     0.018 A 
HETATM    4  C11 UNL     1       0.997  -3.375   1.433  1.00  0.00     0.168 A 
HETATM    5  F1  UNL     1       0.182  -4.418   1.719  1.00  0.00    -0.202 F 
HETATM    6  C12 UNL     1       2.360  -3.516   1.524  1.00  0.00     0.181 A 
HETATM    7  F2  UNL     1       2.957  -4.670   1.894  1.00  0.00    -0.200 F 
HETATM    8  C13 UNL     1       3.195  -2.434   1.226  1.00  0.00     0.071 A 
HETATM    9  C23 UNL     1       2.596  -1.271   0.854  1.00  0.00     0.045 A 
HETATM   10  C24 UNL     1       1.229  -1.092   0.751  1.00  0.00    -0.012 A 
HETATM   11  C25 UNL     1       0.646   0.094   0.377  1.00  0.00    -0.012 A 
HETATM   12  C27 UNL     1      -0.752   0.233   0.291  1.00  0.00     0.063 A 
HETATM   13  C28 UNL     1      -1.233   1.534  -0.048  1.00  0.00     0.101 C 
HETATM   14  N2  UNL     1      -1.596   2.598  -0.298  1.00  0.00    -0.191 NA
ENDROOT
BRANCH   1  15
HETATM   15  C7  UNL     1      -3.013  -0.792   0.558  1.00  0.00     0.014 C 
HETATM   16  C6  UNL     1      -3.877   0.034   0.103  1.00  0.00     0.012 C 
BRANCH  16  17
HETATM   17  C5  UNL     1      -5.330  -0.245   0.252  1.00  0.00    -0.033 A 
HETATM   18  C4  UNL     1      -5.846  -1.364   0.814  1.00  0.00     0.014 A 
HETATM   19  C3  UNL     1      -7.234  -1.528   0.923  1.00  0.00     0.040 A 
HETATM   20  C2  UNL     1      -8.120  -0.589   0.480  1.00  0.00     0.101 A 
HETATM   21  C30 UNL     1      -7.604   0.567  -0.101  1.00  0.00     0.104 A 
HETATM   22  C29 UNL     1      -6.250   0.708  -0.198  1.00  0.00     0.051 A 
BRANCH  20  23
HETATM   23  O1  UNL     1      -9.487  -0.710   0.568  1.00  0.00    -0.353 OA
HETATM   24  C1  UNL     1     -10.136  -1.831   1.132  1.00  0.00     0.210 C 
ENDBRANCH  20  23
BRANCH  21  25
HETATM   25  O3  UNL     1      -8.493   1.506  -0.544  1.00  0.00    -0.333 OA
BRANCH  25  26
HETATM   26  C31 UNL     1      -8.236   2.728  -1.150  1.00  0.00     0.225 C 
HETATM   27  C32 UNL     1      -8.906   2.705  -2.533  1.00  0.00     0.052 C 
BRANCH  26  28
HETATM   28  C33 UNL     1      -8.821   3.868  -0.357  1.00  0.00     0.203 C 
HETATM   29  O4  UNL     1      -8.690   5.051  -0.750  1.00  0.00    -0.646 OA
HETATM   30  O5  UNL     1      -9.512   3.635   0.817  1.00  0.00    -0.646 OA
ENDBRANCH  26  28
ENDBRANCH  25  26
ENDBRANCH  21  25
ENDBRANCH  16  17
ENDBRANCH   1  15
BRANCH  11  31
HETATM   31  C26 UNL     1       1.521   1.254   0.057  1.00  0.00     0.155 C 
HETATM   32 CL1  UNL     1       2.275   1.057  -1.549  1.00  0.00    -0.125 Cl
ENDBRANCH  11  31
BRANCH   8  33
HETATM   33  N1  UNL     1       4.598  -2.548   1.333  1.00  0.00    -0.383 N 
ATOM     34  H1  UNL     1       5.006  -3.416   1.680  1.00  0.00     0.160 HD
BRANCH  33  35
HETATM   35  C14 UNL     1       5.456  -1.466   0.963  1.00  0.00     0.082 C 
HETATM   36  C15 UNL     1       6.906  -1.802   1.351  1.00  0.00     0.027 C 
HETATM   37  C16 UNL     1       7.727  -0.575   1.024  1.00  0.00     0.034 C 
HETATM   38  C17 UNL     1       7.791  -0.293  -0.463  1.00  0.00     0.122 C 
HETATM   39  C21 UNL     1       6.893  -1.360  -1.113  1.00  0.00     0.034 C 
HETATM   40  C22 UNL     1       5.490  -1.266  -0.547  1.00  0.00     0.027 C 
BRANCH  38  41
HETATM   41  O2  UNL     1       7.244   0.914  -0.795  1.00  0.00    -0.381 OA
BRANCH  41  42
HETATM   42  C18 UNL     1       7.940   1.774  -1.562  1.00  0.00     0.113 C 
HETATM   43  C19 UNL     1       7.179   1.970  -2.878  1.00  0.00     0.039 C 
HETATM   44  C20 UNL     1       8.164   3.144  -0.995  1.00  0.00     0.039 C 
ENDBRANCH  41  42
ENDBRANCH  38  41
ENDBRANCH  33  35
ENDBRANCH   8  33
TORSDOF 11
