REMARK  11 active torsions:
REMARK  status: ('A' for Active; 'I' for Inactive)
REMARK    1  A    between atoms: C2_2  and  N1_3 
REMARK       I    between atoms: N2_9  and  C6_10 
REMARK       I    between atoms: C6_10  and  N6_32 
REMARK    2  A    between atoms: N3_11  and  C7_13 
REMARK    3  A    between atoms: C7_13  and  C8_14 
REMARK    4  A    between atoms: C8_14  and  C9_15 
REMARK    5  A    between atoms: C9_15  and  C10_16 
REMARK    6  A    between atoms: C10_16  and  C11_17 
REMARK    7  A    between atoms: C11_17  and  C12_18 
REMARK    8  A    between atoms: C12_18  and  N4_19 
REMARK    9  A    between atoms: C15_23  and  O1_24 
REMARK   10  A    between atoms: O1_24  and  C16_25 
REMARK   11  A    between atoms: N6_32  and  C20_34 
ROOT
HETATM    1  N1  UNL     1      -4.789   3.014  -0.603  1.00  0.00    -0.370 N 
ATOM      2  H1  UNL     1      -3.900   2.671  -0.966  1.00  0.00     0.161 HD
HETATM    3  C3  UNL     1      -5.484   2.313   0.232  1.00  0.00     0.158 C 
HETATM    4  S1  UNL     1      -7.073   2.757   0.976  1.00  0.00    -0.092 SA
HETATM    5  C4  UNL     1      -7.312   1.172   1.884  1.00  0.00     0.103 C 
HETATM    6  C5  UNL     1      -5.832   0.797   2.040  1.00  0.00     0.160 C 
HETATM    7  N2  UNL     1      -5.191   1.038   0.771  1.00  0.00    -0.161 N 
HETATM    8  C6  UNL     1      -4.310   0.086   0.087  1.00  0.00     0.686 C 
HETATM    9  N3  UNL     1      -3.089   0.215   0.276  1.00  0.00    -0.205 N 
ATOM     10  H3  UNL     1      -2.902   0.997   0.904  1.00  0.00     0.183 HD
HETATM   11  N6  UNL     1      -4.894  -0.901  -0.724  1.00  0.00    -0.188 N 
ATOM     12  H6  UNL     1      -5.866  -0.732  -0.984  1.00  0.00     0.184 HD
ENDROOT
BRANCH   9  13
HETATM   13  C7  UNL     1      -1.894  -0.398  -0.120  1.00  0.00     0.079 C 
BRANCH  13  14
HETATM   14  C8  UNL     1      -0.786   0.154   0.751  1.00  0.00     0.045 C 
BRANCH  14  15
HETATM   15  C9  UNL     1       0.535  -0.469   0.323  1.00  0.00     0.005 C 
BRANCH  15  16
HETATM   16  C10 UNL     1       0.588  -1.937   0.458  1.00  0.00     0.002 C 
BRANCH  16  17
HETATM   17  C11 UNL     1       1.864  -2.561   0.027  1.00  0.00     0.020 C 
BRANCH  17  18
HETATM   18  C12 UNL     1       3.066  -2.164   0.797  1.00  0.00     0.120 C 
BRANCH  18  19
HETATM   19  N4  UNL     1       3.478  -0.803   0.758  1.00  0.00    -0.384 N 
HETATM   20  C13 UNL     1       4.725  -0.499   0.670  1.00  0.00     0.075 A 
HETATM   21  C14 UNL     1       5.136   0.809   0.631  1.00  0.00     0.093 A 
HETATM   22  S2  UNL     1       5.953  -1.666   0.595  1.00  0.00    -0.060 SA
HETATM   23  C15 UNL     1       6.464   1.165   0.536  1.00  0.00     0.145 A 
HETATM   24  N5  UNL     1       7.502   0.352   0.471  1.00  0.00    -0.335 N 
HETATM   25  C18 UNL     1       7.525  -0.974   0.481  1.00  0.00     0.050 A 
ATOM     26  H5  UNL     1       8.413   0.807   0.404  1.00  0.00     0.168 HD
HETATM   27  C19 UNL     1       8.781  -1.760   0.401  1.00  0.00     0.076 C 
ATOM     28  H4  UNL     1       2.779  -0.062   0.800  1.00  0.00     0.160 HD
BRANCH  23  29
HETATM   29  O1  UNL     1       6.722   2.553   0.507  1.00  0.00    -0.336 OA
BRANCH  29  30
HETATM   30  C16 UNL     1       8.038   3.001   0.412  1.00  0.00     0.173 C 
HETATM   31  C17 UNL     1       8.686   2.500  -0.845  1.00  0.00     0.034 C 
ENDBRANCH  29  30
ENDBRANCH  23  29
ENDBRANCH  18  19
ENDBRANCH  17  18
ENDBRANCH  16  17
ENDBRANCH  15  16
ENDBRANCH  14  15
ENDBRANCH  13  14
ENDBRANCH   9  13
BRANCH  11  32
HETATM   32  C20 UNL     1      -4.339  -2.079  -1.226  1.00  0.00     0.092 A 
HETATM   33  C21 UNL     1      -3.768  -2.128  -2.457  1.00  0.00     0.064 A 
HETATM   34 CL1  UNL     1      -3.700  -0.729  -3.542  1.00  0.00    -0.082 Cl
HETATM   35  C22 UNL     1      -3.222  -3.288  -2.950  1.00  0.00     0.050 A 
HETATM   36  C23 UNL     1      -3.245  -4.436  -2.194  1.00  0.00     0.037 A 
HETATM   37 CL2  UNL     1      -2.541  -5.911  -2.840  1.00  0.00    -0.084 Cl
HETATM   38  C24 UNL     1      -3.823  -4.404  -0.940  1.00  0.00     0.050 A 
HETATM   39  C25 UNL     1      -4.369  -3.239  -0.450  1.00  0.00     0.064 A 
HETATM   40 CL3  UNL     1      -5.102  -3.221   1.155  1.00  0.00    -0.082 Cl
ENDBRANCH  11  32
BRANCH   1  41
HETATM   41  C2  UNL     1      -5.315   4.306  -1.007  1.00  0.00     0.117 C 
HETATM   42  C1  UNL     1      -5.235   5.227   0.172  1.00  0.00     0.026 C 
ENDBRANCH   1  41
TORSDOF 11
