REMARK  8 active torsions:
REMARK  status: ('A' for Active; 'I' for Inactive)
REMARK    1  A    between atoms: C2_2  and  O1_3 
REMARK    2  A    between atoms: O1_3  and  C3_4 
REMARK       I    between atoms: C3_4  and  N1_6 
REMARK    3  A    between atoms: N2_9  and  C6_10 
REMARK    4  A    between atoms: C6_10  and  N3_12 
REMARK    5  A    between atoms: N3_12  and  C7_14 
REMARK    6  A    between atoms: C7_14  and  C9_16 
REMARK       I    between atoms: C9_16  and  N4_18 
REMARK    7  A    between atoms: C14_23  and  C15_24 
REMARK    8  A    between atoms: C15_24  and  C16_26 
ROOT
HETATM    1  C7  UNL     1      -1.703   0.221  -0.826  1.00  0.00     0.172 C 
HETATM    2  C8  UNL     1      -2.164   1.405   0.006  1.00  0.00     0.042 C 
ENDROOT
BRANCH   1   3
HETATM    3  N3  UNL     1      -0.250   0.150  -0.839  1.00  0.00    -0.354 N 
ATOM      4  H3  UNL     1       0.225   0.151  -1.742  1.00  0.00     0.162 HD
BRANCH   3   5
HETATM    5  C6  UNL     1       0.545   0.079   0.339  1.00  0.00     0.170 C 
HETATM    6  S1  UNL     1      -0.277   0.095   1.775  1.00  0.00    -0.041 SA
BRANCH   5   7
HETATM    7  N2  UNL     1       1.956   0.008   0.309  1.00  0.00    -0.355 N 
HETATM    8  C5  UNL     1       2.676  -0.060   1.565  1.00  0.00     0.145 C 
HETATM    9  C4  UNL     1       3.567   1.191   1.546  1.00  0.00     0.148 C 
HETATM   10  N1  UNL     1       4.557   0.957   0.523  1.00  0.00    -0.325 N 
HETATM   11  C3  UNL     1       5.852   1.499   0.704  1.00  0.00     0.362 C 
HETATM   12  C18 UNL     1       4.222   0.198  -0.639  1.00  0.00     0.148 C 
HETATM   13  O2  UNL     1       6.120   2.170   1.731  1.00  0.00    -0.238 OA
HETATM   14  C17 UNL     1       2.765  -0.001  -0.884  1.00  0.00     0.145 C 
BRANCH  11  15
HETATM   15  O1  UNL     1       6.863   1.318  -0.228  1.00  0.00    -0.304 OA
BRANCH  15  16
HETATM   16  C2  UNL     1       8.123   1.887   0.019  1.00  0.00     0.176 C 
HETATM   17  C1  UNL     1       8.738   1.370   1.304  1.00  0.00     0.034 C 
ENDBRANCH  15  16
ENDBRANCH  11  15
ENDBRANCH   5   7
ENDBRANCH   3   5
ENDBRANCH   1   3
BRANCH   1  18
HETATM   18  C9  UNL     1      -2.303  -1.064  -0.455  1.00  0.00     0.242 C 
HETATM   19  O3  UNL     1      -1.484  -2.012  -0.154  1.00  0.00    -0.271 OA
HETATM   20  N4  UNL     1      -3.661  -1.402  -0.385  1.00  0.00    -0.338 N 
HETATM   21  C10 UNL     1      -4.020  -2.754   0.031  1.00  0.00     0.127 C 
HETATM   22  C14 UNL     1      -4.754  -0.527  -0.712  1.00  0.00     0.166 C 
HETATM   23  C11 UNL     1      -4.738  -2.700   1.369  1.00  0.00     0.020 C 
HETATM   24  C12 UNL     1      -5.590  -1.447   1.397  1.00  0.00     0.004 C 
HETATM   25  C13 UNL     1      -5.998  -1.037  -0.007  1.00  0.00     0.033 C 
BRANCH  22  26
HETATM   26  C15 UNL     1      -4.966  -0.416  -2.177  1.00  0.00     0.255 C 
HETATM   27  O4  UNL     1      -4.254  -1.033  -2.936  1.00  0.00    -0.286 OA
BRANCH  26  28
HETATM   28  C16 UNL     1      -6.039   0.442  -2.718  1.00  0.00     0.453 C 
HETATM   29  F1  UNL     1      -5.910   1.760  -2.322  1.00  0.00    -0.163 F 
HETATM   30  F2  UNL     1      -6.008   0.377  -4.117  1.00  0.00    -0.163 F 
HETATM   31  F3  UNL     1      -7.314   0.025  -2.360  1.00  0.00    -0.163 F 
ENDBRANCH  26  28
ENDBRANCH  22  26
ENDBRANCH   1  18
TORSDOF 8
