REMARK  5 active torsions:
REMARK  status: ('A' for Active; 'I' for Inactive)
REMARK    1  A    between atoms: C1_2  and  C2_4 
REMARK    2  A    between atoms: C7_9  and  C8_10 
REMARK    3  A    between atoms: C8_10  and  N2_11 
REMARK       I    between atoms: N3_14  and  C11_15 
REMARK    4  A    between atoms: C11_15  and  C12_17 
REMARK    5  A    between atoms: C15_20  and  C16_21 
ROOT
HETATM    1  N2  UNL     1       2.187   0.062  -1.388  1.00  0.00     0.092 N 
HETATM    2  C9  UNL     1       1.494  -0.917  -2.237  1.00  0.00     0.292 C 
HETATM    3  C10 UNL     1       0.542  -1.741  -1.427  1.00  0.00     0.156 C 
HETATM    4  N3  UNL     1      -0.375  -0.842  -0.732  1.00  0.00    -0.348 N 
HETATM    5  C11 UNL     1      -1.752  -1.137  -0.778  1.00  0.00     0.226 C 
HETATM    6  O2  UNL     1      -2.075  -2.201  -1.437  1.00  0.00    -0.273 OA
HETATM    7  C21 UNL     1       0.161   0.278  -0.034  1.00  0.00     0.156 C 
HETATM    8  C22 UNL     1       1.275   0.964  -0.797  1.00  0.00     0.292 C 
ENDROOT
BRANCH   5   9
HETATM    9  C12 UNL     1      -2.835  -0.331  -0.140  1.00  0.00     0.102 C 
HETATM   10  C13 UNL     1      -2.988   1.043  -0.760  1.00  0.00     0.017 C 
HETATM   11  C14 UNL     1      -4.404   1.290  -1.267  1.00  0.00     0.016 C 
HETATM   12  C15 UNL     1      -5.339   1.740  -0.182  1.00  0.00     0.117 C 
HETATM   13  C17 UNL     1      -6.274   0.670   0.295  1.00  0.00     0.181 C 
HETATM   14  O3  UNL     1      -5.845   0.029   1.450  1.00  0.00    -0.388 OA
HETATM   15  C18 UNL     1      -5.757  -1.337   1.348  1.00  0.00     0.193 C 
HETATM   16  C19 UNL     1      -4.326  -1.762   1.704  1.00  0.00     0.193 C 
HETATM   17  O4  UNL     1      -3.613  -0.681   2.138  1.00  0.00    -0.388 OA
HETATM   18  C20 UNL     1      -2.610  -0.223   1.335  1.00  0.00     0.181 C 
BRANCH  12  19
HETATM   19  C16 UNL     1      -6.177   2.897  -0.683  1.00  0.00     0.393 C 
HETATM   20  F1  UNL     1      -7.045   3.322   0.308  1.00  0.00    -0.171 F 
HETATM   21  F2  UNL     1      -6.931   2.480  -1.758  1.00  0.00    -0.171 F 
HETATM   22  F3  UNL     1      -5.387   3.948  -1.101  1.00  0.00    -0.171 F 
ENDBRANCH  12  19
ENDBRANCH   5   9
BRANCH   1  23
HETATM   23  C8  UNL     1       3.172  -0.557  -0.574  1.00  0.00     0.278 C 
BRANCH  23  24
HETATM   24  C7  UNL     1       3.874   0.448   0.287  1.00  0.00     0.026 C 
HETATM   25  C2  UNL     1       4.957  -0.148   1.168  1.00  0.00     0.081 C 
HETATM   26  C3  UNL     1       5.945  -0.905   0.310  1.00  0.00     0.014 C 
HETATM   27  C4  UNL     1       6.490   0.005  -0.744  1.00  0.00     0.001 C 
HETATM   28  C5  UNL     1       6.033   1.417  -0.587  1.00  0.00     0.000 C 
HETATM   29  C6  UNL     1       4.534   1.535  -0.519  1.00  0.00     0.007 C 
BRANCH  25  30
HETATM   30  C1  UNL     1       4.467  -0.955   2.279  1.00  0.00     0.235 C 
HETATM   31  N1  UNL     1       5.400  -1.521   3.185  1.00  0.00    -0.062 NA
HETATM   32  O1  UNL     1       3.247  -1.153   2.442  1.00  0.00    -0.276 OA
ENDBRANCH  25  30
ENDBRANCH  23  24
ENDBRANCH   1  23
TORSDOF 5
