REMARK  4 active torsions:
REMARK  status: ('A' for Active; 'I' for Inactive)
REMARK    1  A    between atoms: C2_2  and  C3_3 
REMARK    2  A    between atoms: C3_3  and  N1_4 
REMARK    3  A    between atoms: C3_3  and  C10_15 
REMARK       I    between atoms: N1_4  and  C4_6 
REMARK       I    between atoms: C4_6  and  N2_8 
REMARK    4  A    between atoms: C10_15  and  N4_16 
ROOT
HETATM    1  C3  UNL     1      -0.815   1.277  -0.461  1.00  0.00     0.113 C 
ENDROOT
BRANCH   1   2
HETATM    2  C2  UNL     1      -0.648   2.651  -0.050  1.00  0.00     0.023 C 
HETATM    3  C1  UNL     1      -1.562   3.755  -0.363  1.00  0.00     0.007 C 
ENDBRANCH   1   2
BRANCH   1   4
HETATM    4  N1  UNL     1       0.420   0.558   0.035  1.00  0.00    -0.336 N 
HETATM    5  C4  UNL     1       1.459   0.253  -0.844  1.00  0.00     0.318 C 
HETATM    6  O1  UNL     1       1.378   0.574  -2.054  1.00  0.00    -0.247 OA
HETATM    7  N2  UNL     1       2.653  -0.430  -0.431  1.00  0.00    -0.331 N 
HETATM    8  C5  UNL     1       2.756  -0.799   0.961  1.00  0.00     0.157 C 
HETATM    9  C9  UNL     1       3.702  -0.736  -1.361  1.00  0.00     0.157 C 
HETATM   10  C6  UNL     1       3.777  -1.851   1.251  1.00  0.00     0.291 C 
HETATM   11  N3  UNL     1       5.005  -1.649   0.501  1.00  0.00     0.087 N 
HETATM   12  C7  UNL     1       5.620  -0.380   0.827  1.00  0.00     0.310 C 
HETATM   13  C8  UNL     1       4.693  -1.745  -0.915  1.00  0.00     0.291 C 
ATOM     14  H1  UNL     1       0.493   0.295   1.018  1.00  0.00     0.164 HD
ENDBRANCH   1   4
BRANCH   1  15
HETATM   15  C10 UNL     1      -1.965   0.387  -0.212  1.00  0.00     0.047 C 
HETATM   16  C13 UNL     1      -1.450  -0.997  -0.693  1.00  0.00     0.033 C 
HETATM   17  C14 UNL     1      -2.455  -2.077  -0.552  1.00  0.00     0.002 C 
HETATM   18  C15 UNL     1      -3.026  -2.054   0.848  1.00  0.00     0.000 C 
HETATM   19  C16 UNL     1      -2.071  -1.270   1.722  1.00  0.00     0.002 C 
HETATM   20  C17 UNL     1      -2.098   0.165   1.335  1.00  0.00     0.033 C 
BRANCH  15  21
HETATM   21  N4  UNL     1      -3.196   0.699  -0.708  1.00  0.00    -0.410 N 
HETATM   22  C11 UNL     1      -4.072   1.687  -0.277  1.00  0.00     0.143 C 
HETATM   23  C12 UNL     1      -3.478   0.325  -2.080  1.00  0.00     0.143 C 
ENDBRANCH  15  21
ENDBRANCH   1  15
TORSDOF 4
