REMARK  10 active torsions:
REMARK  status: ('A' for Active; 'I' for Inactive)
REMARK    1  A    between atoms: C2_2  and  O1_3 
REMARK    2  A    between atoms: C2_2  and  C24_33 
REMARK    3  A    between atoms: O1_3  and  C3_4 
REMARK    4  A    between atoms: C3_4  and  N2_8 
REMARK    5  A    between atoms: N2_8  and  C4_10 
REMARK    6  A    between atoms: C4_10  and  C5_11 
REMARK    7  A    between atoms: C9_15  and  C10_16 
REMARK       I    between atoms: C10_16  and  N3_18 
REMARK    8  A    between atoms: N3_18  and  C11_20 
REMARK    9  A    between atoms: C11_20  and  C13_22 
REMARK   10  A    between atoms: C13_22  and  C14_23 
ROOT
HETATM    1  C5  UNL     1       2.675  -0.576  -0.307  1.00  0.00    -0.028 C 
HETATM    2  C6  UNL     1       2.896  -0.730  -1.787  1.00  0.00     0.016 C 
HETATM    3  C7  UNL     1       1.909  -1.806   0.157  1.00  0.00     0.011 C 
HETATM    4  C8  UNL     1       1.066  -1.392   1.337  1.00  0.00     0.015 C 
HETATM    5  C9  UNL     1      -0.116  -0.620   0.797  1.00  0.00     0.078 C 
HETATM    6  C22 UNL     1       0.382   0.273  -0.315  1.00  0.00     0.015 C 
HETATM    7  C23 UNL     1       1.829   0.633  -0.054  1.00  0.00     0.011 C 
ENDROOT
BRANCH   1   8
HETATM    8  C4  UNL     1       3.973  -0.556   0.465  1.00  0.00     0.132 C 
BRANCH   8   9
HETATM    9  N2  UNL     1       4.839   0.509   0.086  1.00  0.00    -0.356 N 
ATOM     10  H2  UNL     1       4.555   1.163  -0.643  1.00  0.00     0.163 HD
BRANCH   9  11
HETATM   11  C3  UNL     1       6.094   0.658   0.723  1.00  0.00     0.218 C 
HETATM   12  N1  UNL     1       6.249   0.459   2.008  1.00  0.00    -0.365 N 
ATOM     13  H12 UNL     1       7.153   0.566   2.467  1.00  0.00     0.159 HD
ATOM     14  H11 UNL     1       5.402   0.191   2.510  1.00  0.00     0.159 HD
BRANCH  11  15
HETATM   15  O1  UNL     1       7.249   1.023   0.038  1.00  0.00    -0.276 OA
BRANCH  15  16
HETATM   16  C2  UNL     1       8.346   1.595   0.705  1.00  0.00     0.153 C 
HETATM   17  C1  UNL     1       8.107   2.556   1.569  1.00  0.00     0.056 C 
BRANCH  16  18
HETATM   18  C24 UNL     1       9.725   1.151   0.461  1.00  0.00     0.438 C 
HETATM   19  F1  UNL     1      10.597   1.880   1.244  1.00  0.00    -0.164 F 
HETATM   20  F2  UNL     1       9.850  -0.175   0.838  1.00  0.00    -0.164 F 
HETATM   21  F3  UNL     1      10.068   1.304  -0.868  1.00  0.00    -0.164 F 
ENDBRANCH  16  18
ENDBRANCH  15  16
ENDBRANCH  11  15
ENDBRANCH   9  11
ENDBRANCH   8   9
ENDBRANCH   1   8
BRANCH   5  22
HETATM   22  C10 UNL     1      -1.135  -1.573   0.351  1.00  0.00     0.222 C 
HETATM   23  O2  UNL     1      -0.948  -2.832   0.450  1.00  0.00    -0.273 OA
HETATM   24  N3  UNL     1      -2.388  -1.178  -0.217  1.00  0.00    -0.356 N 
ATOM     25  H3  UNL     1      -2.584  -0.182  -0.318  1.00  0.00     0.162 HD
BRANCH  24  26
HETATM   26  C11 UNL     1      -3.383  -2.119  -0.652  1.00  0.00     0.084 C 
HETATM   27  C12 UNL     1      -3.585  -2.052  -2.165  1.00  0.00     0.032 C 
BRANCH  26  28
HETATM   28  C13 UNL     1      -4.687  -2.008   0.083  1.00  0.00     0.063 C 
BRANCH  28  29
HETATM   29  C14 UNL     1      -5.331  -0.698  -0.048  1.00  0.00    -0.055 A 
HETATM   30  C15 UNL     1      -5.037   0.286   0.878  1.00  0.00     0.013 A 
HETATM   31  C16 UNL     1      -5.610   1.545   0.814  1.00  0.00    -0.061 A 
HETATM   32  C17 UNL     1      -5.303   2.613   1.804  1.00  0.00     0.048 C 
HETATM   33  C18 UNL     1      -6.501   1.842  -0.196  1.00  0.00     0.013 A 
HETATM   34  C19 UNL     1      -6.814   0.887  -1.130  1.00  0.00    -0.061 A 
HETATM   35  C20 UNL     1      -7.764   1.198  -2.211  1.00  0.00     0.048 C 
HETATM   36  C21 UNL     1      -6.226  -0.362  -1.042  1.00  0.00     0.013 A 
ENDBRANCH  28  29
ENDBRANCH  26  28
ENDBRANCH  24  26
ENDBRANCH   5  22
TORSDOF 10
