REMARK  15 active torsions:
REMARK  status: ('A' for Active; 'I' for Inactive)
REMARK    1  A    between atoms: O1_2  and  C2_3 
REMARK    2  A    between atoms: C2_3  and  O2_4 
REMARK    3  A    between atoms: O2_4  and  C3_5 
REMARK    4  A    between atoms: C3_5  and  O3_6 
REMARK    5  A    between atoms: C3_5  and  C4_8 
REMARK    6  A    between atoms: C4_8  and  O4_9 
REMARK    7  A    between atoms: C4_8  and  N1_11 
REMARK    8  A    between atoms: C7_15  and  N3_16 
REMARK       I    between atoms: N3_16  and  C8_18 
REMARK    9  A    between atoms: C8_18  and  C9_20 
REMARK   10  A    between atoms: C11_22  and  C12_23 
REMARK       I    between atoms: C12_23  and  N4_25 
REMARK   11  A    between atoms: C13_27  and  C14_28 
REMARK   12  A    between atoms: C16_35  and  O8_36 
REMARK   13  A    between atoms: N8_41  and  C17_42 
REMARK   14  A    between atoms: C19_44  and  O9_45 
REMARK   15  A    between atoms: O9_45  and  S2_46 
ROOT
HETATM    1  N1  UNL     1      -1.722  -0.890   0.514  1.00  0.00    -0.230 N 
HETATM    2  C6  UNL     1      -0.872  -1.018   1.551  1.00  0.00     0.222 A 
HETATM    3  N2  UNL     1      -0.044   0.024   1.599  1.00  0.00    -0.184 N 
ATOM      4  H2  UNL     1       0.696   0.176   2.284  1.00  0.00     0.185 HD
HETATM    5  C7  UNL     1      -0.366   0.849   0.567  1.00  0.00     0.709 A 
HETATM    6  N8  UNL     1      -1.384   0.273  -0.073  1.00  0.00    -0.061 N 
ENDROOT
BRANCH   5   7
HETATM    7  N3  UNL     1       0.234   1.963   0.307  1.00  0.00    -0.153 N 
HETATM    8  C8  UNL     1       1.276   2.589   0.932  1.00  0.00     0.278 C 
HETATM    9  O5  UNL     1       1.026   3.469   1.819  1.00  0.00    -0.266 OA
ATOM     10  H3  UNL     1      -0.133   2.461  -0.504  1.00  0.00     0.187 HD
BRANCH   8  11
HETATM   11  C9  UNL     1       2.712   2.344   0.672  1.00  0.00     0.092 A 
HETATM   12  C10 UNL     1       3.277   1.440  -0.188  1.00  0.00     0.061 A 
HETATM   13  C11 UNL     1       4.613   1.427  -0.261  1.00  0.00     0.108 A 
HETATM   14  N7  UNL     1       5.277   2.299   0.513  1.00  0.00    -0.321 N 
HETATM   15  S1  UNL     1       4.072   3.125   1.332  1.00  0.00    -0.009 SA
ATOM     16  H7  UNL     1       6.286   2.429   0.586  1.00  0.00     0.174 HD
BRANCH  13  17
HETATM   17  C12 UNL     1       5.421   0.519  -1.126  1.00  0.00     0.272 C 
HETATM   18  O6  UNL     1       4.775  -0.298  -1.825  1.00  0.00    -0.266 OA
HETATM   19  N4  UNL     1       6.789   0.540  -1.190  1.00  0.00    -0.329 N 
HETATM   20  C13 UNL     1       7.785   0.187  -0.562  1.00  0.00     0.125 C 
ATOM     21  H4  UNL     1       7.080   1.006  -2.049  1.00  0.00     0.168 HD
BRANCH  20  22
HETATM   22  C14 UNL     1       7.814  -0.520   0.718  1.00  0.00     0.103 A 
HETATM   23  N5  UNL     1       6.807  -0.998   1.464  1.00  0.00    -0.304 N 
HETATM   24  C15 UNL     1       7.305  -1.604   2.561  1.00  0.00     0.326 A 
ATOM     25  H5  UNL     1       5.816  -0.916   1.236  1.00  0.00     0.171 HD
HETATM   26  O7  UNL     1       6.591  -2.147   3.447  1.00  0.00    -0.247 OA
HETATM   27  N6  UNL     1       8.635  -1.501   2.497  1.00  0.00    -0.287 N 
HETATM   28  C16 UNL     1       8.992  -0.849   1.392  1.00  0.00     0.172 A 
ATOM     29  H6  UNL     1       9.283  -1.868   3.193  1.00  0.00     0.172 HD
BRANCH  28  30
HETATM   30  O8  UNL     1      10.292  -0.540   0.964  1.00  0.00    -0.344 OA
ATOM     31  H8  UNL     1      11.093  -0.764   1.423  1.00  0.00     0.219 HD
ENDBRANCH  28  30
ENDBRANCH  20  22
ENDBRANCH  13  17
ENDBRANCH   8  11
ENDBRANCH   5   7
BRANCH   6  32
HETATM   32  C17 UNL     1      -2.091   0.732  -1.237  1.00  0.00     0.164 C 
HETATM   33  C18 UNL     1      -1.530   1.828  -2.033  1.00  0.00     0.149 C 
HETATM   34  C19 UNL     1      -2.006   3.229  -1.762  1.00  0.00     0.353 C 
HETATM   35  N9  UNL     1      -3.014   3.175  -0.723  1.00  0.00    -0.026 N 
HETATM   36  C20 UNL     1      -3.942   2.154  -1.099  1.00  0.00     0.411 C 
ATOM     37  H92 UNL     1      -2.623   3.039   0.209  1.00  0.00     0.282 HD
ATOM     38  H91 UNL     1      -3.458   4.076  -0.547  1.00  0.00     0.282 HD
HETATM   39  O13 UNL     1      -3.441   0.891  -1.054  1.00  0.00    -0.309 OA
BRANCH  34  40
HETATM   40  O9  UNL     1      -2.641   3.807  -2.867  1.00  0.00    -0.222 OA
BRANCH  40  41
HETATM   41  S2  UNL     1      -1.842   5.239  -3.212  1.00  0.00     0.253 S 
HETATM   42  O10 UNL     1      -2.547   6.106  -4.184  1.00  0.00    -0.572 OA
HETATM   43  O11 UNL     1      -1.716   5.983  -1.889  1.00  0.00    -0.572 OA
HETATM   44  O12 UNL     1      -0.295   4.817  -3.740  1.00  0.00    -0.572 OA
ENDBRANCH  40  41
ENDBRANCH  34  40
ENDBRANCH   6  32
BRANCH   1  45
HETATM   45  C4  UNL     1      -2.745  -1.815   0.135  1.00  0.00     0.300 C 
BRANCH  45  46
HETATM   46  C3  UNL     1      -3.503  -2.280   1.630  1.00  0.00     0.310 C 
BRANCH  46  47
HETATM   47  O2  UNL     1      -4.386  -3.064   1.034  1.00  0.00    -0.333 OA
BRANCH  47  48
HETATM   48  C2  UNL     1      -5.417  -3.537   1.857  1.00  0.00     0.340 C 
BRANCH  48  49
HETATM   49  O1  UNL     1      -6.252  -4.343   1.069  1.00  0.00    -0.372 OA
HETATM   50  C1  UNL     1      -7.305  -4.843   1.848  1.00  0.00     0.204 C 
ENDBRANCH  48  49
ENDBRANCH  47  48
ENDBRANCH  46  47
BRANCH  46  51
HETATM   51  O3  UNL     1      -4.475  -0.987   1.542  1.00  0.00    -0.367 OA
ATOM     52  H3  UNL     1      -3.841  -0.424   1.970  1.00  0.00     0.212 HD
ENDBRANCH  46  51
ENDBRANCH  45  46
BRANCH  45  53
HETATM   53  O4  UNL     1      -2.325  -3.061  -0.239  1.00  0.00    -0.365 OA
HETATM   54  C5  UNL     1      -2.909  -3.636  -1.322  1.00  0.00     0.204 C 
ENDBRANCH  45  53
ENDBRANCH   1  45
TORSDOF 15
