REMARK  8 active torsions:
REMARK  status: ('A' for Active; 'I' for Inactive)
REMARK    1  A    between atoms: C2_2  and  O1_3 
REMARK    2  A    between atoms: O1_3  and  C3_4 
REMARK    3  A    between atoms: C3_4  and  C4_6 
REMARK    4  A    between atoms: C6_9  and  N1_10 
REMARK    5  A    between atoms: N1_10  and  S2_12 
REMARK    6  A    between atoms: S2_12  and  C7_15 
REMARK    7  A    between atoms: C9_17  and  N2_18 
REMARK    8  A    between atoms: C10_21  and  O7_22 
ROOT
HETATM    1  S2  UNL     1      -0.184   0.037  -0.332  1.00  0.00     0.265 S 
HETATM    2  O3  UNL     1       0.095   0.520   1.085  1.00  0.00    -0.200 OA
HETATM    3  O4  UNL     1       0.388   0.993  -1.317  1.00  0.00    -0.200 OA
ENDROOT
BRANCH   1   4
HETATM    4  N1  UNL     1       0.585  -1.469  -0.527  1.00  0.00    -0.260 N 
ATOM      5  H1  UNL     1       0.045  -2.302  -0.762  1.00  0.00     0.181 HD
BRANCH   4   6
HETATM    6  C6  UNL     1       1.889  -1.537  -0.368  1.00  0.00     0.158 A 
HETATM    7  S1  UNL     1       2.920  -2.890  -0.498  1.00  0.00    -0.063 SA
HETATM    8  C5  UNL     1       4.396  -2.114  -0.151  1.00  0.00     0.089 A 
HETATM    9  C4  UNL     1       3.997  -0.809   0.052  1.00  0.00     0.117 A 
HETATM   10  N3  UNL     1       2.729  -0.549  -0.064  1.00  0.00    -0.331 N 
ATOM     11  H3  UNL     1       2.381   0.400   0.076  1.00  0.00     0.168 HD
BRANCH   9  12
HETATM   12  C3  UNL     1       5.035   0.213   0.388  1.00  0.00     0.310 C 
HETATM   13  O2  UNL     1       4.685   1.403   0.571  1.00  0.00    -0.258 OA
BRANCH  12  14
HETATM   14  O1  UNL     1       6.360  -0.089   0.506  1.00  0.00    -0.317 OA
BRANCH  14  15
HETATM   15  C2  UNL     1       7.284   0.932   0.825  1.00  0.00     0.175 C 
HETATM   16  C1  UNL     1       8.658   0.270   0.885  1.00  0.00     0.034 C 
ENDBRANCH  14  15
ENDBRANCH  12  14
ENDBRANCH   9  12
ENDBRANCH   4   6
ENDBRANCH   1   4
BRANCH   1  17
HETATM   17  C7  UNL     1      -1.922  -0.085  -0.449  1.00  0.00     0.088 A 
HETATM   18  C8  UNL     1      -2.558  -1.265  -0.679  1.00  0.00     0.064 A 
HETATM   19  C9  UNL     1      -3.956  -1.321  -0.765  1.00  0.00     0.138 A 
HETATM   20  C10 UNL     1      -4.719  -0.183  -0.619  1.00  0.00     0.107 A 
HETATM   21  C12 UNL     1      -4.074   1.013  -0.386  1.00  0.00    -0.019 A 
HETATM   22  C13 UNL     1      -4.862   2.262  -0.223  1.00  0.00     0.052 C 
HETATM   23  C14 UNL     1      -2.678   1.057  -0.303  1.00  0.00    -0.030 A 
HETATM   24  C15 UNL     1      -2.009   2.357  -0.050  1.00  0.00     0.050 C 
BRANCH  19  25
HETATM   25  N2  UNL     1      -4.603  -2.559  -1.008  1.00  0.00    -0.113 N 
HETATM   26  O5  UNL     1      -5.668  -2.579  -1.653  1.00  0.00    -0.532 OA
HETATM   27  O6  UNL     1      -4.102  -3.765  -0.562  1.00  0.00    -0.532 OA
ENDBRANCH  19  25
BRANCH  20  28
HETATM   28  O7  UNL     1      -6.119  -0.235  -0.703  1.00  0.00    -0.353 OA
HETATM   29  C11 UNL     1      -6.861  -0.456   0.503  1.00  0.00     0.210 C 
ENDBRANCH  20  28
ENDBRANCH   1  17
TORSDOF 8
