REMARK  6 active torsions:
REMARK  status: ('A' for Active; 'I' for Inactive)
REMARK    1  A    between atoms: C4_6  and  C5_7 
REMARK    2  A    between atoms: C6_10  and  C7_11 
REMARK    3  A    between atoms: C7_11  and  C8_12 
REMARK    4  A    between atoms: C8_12  and  C9_14 
REMARK    5  A    between atoms: C18_23  and  O1_24 
REMARK    6  A    between atoms: C19_26  and  O2_27 
ROOT
HETATM    1  C5  UNL     1      -1.719   0.483   0.260  1.00  0.00     0.093 A 
HETATM    2  N2  UNL     1      -0.563   0.503   0.966  1.00  0.00    -0.354 N 
ATOM      3  H2  UNL     1      -0.116   1.353   1.309  1.00  0.00     0.166 HD
HETATM    4  C6  UNL     1      -0.083  -0.722   1.157  1.00  0.00     0.038 A 
HETATM    5  C15 UNL     1      -0.990  -1.580   0.534  1.00  0.00     0.061 A 
HETATM    6  C16 UNL     1      -2.003  -0.818  -0.020  1.00  0.00     0.004 A 
HETATM    7  C17 UNL     1      -3.100  -1.455  -0.738  1.00  0.00     0.079 C 
HETATM    8  C18 UNL     1      -3.451  -2.820  -0.227  1.00  0.00     0.171 C 
HETATM    9  C19 UNL     1      -2.307  -3.640   0.221  1.00  0.00     0.247 C 
HETATM   10  N3  UNL     1      -1.056  -2.977   0.379  1.00  0.00    -0.360 N 
ATOM     11  H3  UNL     1      -0.195  -3.523   0.380  1.00  0.00     0.162 HD
ENDROOT
BRANCH   4  12
HETATM   12  C7  UNL     1       1.139  -1.170   1.860  1.00  0.00     0.080 C 
BRANCH  12  13
HETATM   13  C8  UNL     1       2.247  -1.549   0.937  1.00  0.00     0.092 C 
HETATM   14 CL1  UNL     1       3.673  -2.077   1.851  1.00  0.00    -0.124 Cl
BRANCH  13  15
HETATM   15  C9  UNL     1       2.663  -0.437   0.010  1.00  0.00     0.004 C 
HETATM   16  C10 UNL     1       3.150   0.784   0.714  1.00  0.00     0.006 C 
HETATM   17  C11 UNL     1       3.453   1.830  -0.350  1.00  0.00     0.000 C 
HETATM   18  C12 UNL     1       4.690   1.349  -1.081  1.00  0.00     0.000 C 
HETATM   19  C13 UNL     1       4.307   0.087  -1.818  1.00  0.00     0.000 C 
HETATM   20  C14 UNL     1       3.777  -0.964  -0.869  1.00  0.00     0.006 C 
ENDBRANCH  13  15
ENDBRANCH  12  13
ENDBRANCH   4  12
BRANCH   1  21
HETATM   21  C4  UNL     1      -2.496   1.652  -0.120  1.00  0.00     0.175 A 
HETATM   22  N1  UNL     1      -3.642   1.717  -0.814  1.00  0.00    -0.342 N 
HETATM   23  C3  UNL     1      -4.033   2.994  -0.950  1.00  0.00     0.122 A 
ATOM     24  H1  UNL     1      -4.145   0.911  -1.185  1.00  0.00     0.167 HD
HETATM   25  C2  UNL     1      -3.074   3.741  -0.305  1.00  0.00     0.067 A 
HETATM   26  C1  UNL     1      -3.092   5.235  -0.196  1.00  0.00     0.078 C 
HETATM   27  O3  UNL     1      -2.184   2.909   0.171  1.00  0.00    -0.295 OA
ENDBRANCH   1  21
BRANCH   9  28
HETATM   28  O2  UNL     1      -2.611  -4.323   1.415  1.00  0.00    -0.374 OA
ATOM     29  H2  UNL     1      -1.875  -4.850   1.703  1.00  0.00     0.212 HD
ENDBRANCH   9  28
BRANCH   8  30
HETATM   30  O1  UNL     1      -4.307  -2.634   0.884  1.00  0.00    -0.391 OA
ATOM     31  H1  UNL     1      -4.529  -3.499   1.208  1.00  0.00     0.210 HD
ENDBRANCH   8  30
TORSDOF 6
