REMARK  7 active torsions:
REMARK  status: ('A' for Active; 'I' for Inactive)
REMARK    1  A    between atoms: C2_2  and  N1_4 
REMARK    2  A    between atoms: N1_4  and  C4_6 
REMARK    3  A    between atoms: C5_7  and  C6_8 
REMARK    4  A    between atoms: C7_14  and  N4_15 
REMARK    5  A    between atoms: C8_18  and  N5_19 
REMARK    6  A    between atoms: N5_19  and  C9_21 
REMARK    7  A    between atoms: C9_21  and  C10_22 
ROOT
HETATM    1  C4  UNL     1      -1.765  -0.363   0.079  1.00  0.00     0.060 A 
HETATM    2  C5  UNL     1      -0.484   0.005  -0.264  1.00  0.00     0.068 A 
HETATM    3  C8  UNL     1       0.579  -0.346   0.562  1.00  0.00     0.116 A 
HETATM    4  N6  UNL     1       0.372  -1.030   1.672  1.00  0.00    -0.341 N 
ATOM      5  H6  UNL     1       1.161  -1.278   2.270  1.00  0.00     0.167 HD
HETATM    6  C14 UNL     1      -0.858  -1.397   2.015  1.00  0.00     0.049 A 
HETATM    7  C15 UNL     1      -0.991  -2.134   3.163  1.00  0.00     0.030 A 
HETATM    8  C16 UNL     1      -2.248  -2.588   3.575  1.00  0.00     0.005 A 
HETATM    9  C17 UNL     1      -3.370  -2.305   2.837  1.00  0.00     0.043 A 
HETATM   10  C18 UNL     1      -3.212  -1.552   1.670  1.00  0.00     0.131 A 
HETATM   11  F1  UNL     1      -4.314  -1.363   0.946  1.00  0.00    -0.205 F 
HETATM   12  C19 UNL     1      -1.992  -1.094   1.253  1.00  0.00     0.057 A 
ENDROOT
BRANCH   2  13
HETATM   13  C6  UNL     1      -0.172   0.725  -1.505  1.00  0.00     0.118 A 
HETATM   14  N2  UNL     1       0.282   1.972  -1.706  1.00  0.00    -0.237 N 
HETATM   15  O1  UNL     1       0.437   2.215  -2.973  1.00  0.00    -0.155 OA
ATOM     16  H2  UNL     1       0.479   2.641  -0.962  1.00  0.00     0.197 HD
HETATM   17  N3  UNL     1       0.099   1.161  -3.651  1.00  0.00    -0.224 N 
HETATM   18  C7  UNL     1      -0.289   0.198  -2.797  1.00  0.00     0.151 A 
ATOM     19  H3  UNL     1       0.124   1.077  -4.667  1.00  0.00     0.198 HD
BRANCH  18  20
HETATM   20  N4  UNL     1      -0.680  -0.972  -3.139  1.00  0.00    -0.382 N 
ATOM     21  H42 UNL     1      -0.974  -1.703  -2.491  1.00  0.00     0.157 HD
ATOM     22  H41 UNL     1      -0.765  -1.356  -4.080  1.00  0.00     0.157 HD
ENDBRANCH  18  20
ENDBRANCH   2  13
BRANCH   1  23
HETATM   23  N1  UNL     1      -2.901  -0.004  -0.686  1.00  0.00    -0.384 N 
ATOM     24  H1  UNL     1      -3.167  -0.667  -1.414  1.00  0.00     0.160 HD
BRANCH  23  25
HETATM   25  C2  UNL     1      -3.725   1.153  -0.581  1.00  0.00     0.073 C 
HETATM   26  C1  UNL     1      -4.850   1.058  -1.647  1.00  0.00     0.031 C 
HETATM   27  C3  UNL     1      -3.067   2.480  -0.883  1.00  0.00     0.031 C 
ENDBRANCH  23  25
ENDBRANCH   1  23
BRANCH   3  28
HETATM   28  N5  UNL     1       1.756   0.008   0.222  1.00  0.00    -0.375 N 
ATOM     29  H5  UNL     1       1.897   0.536  -0.639  1.00  0.00     0.161 HD
BRANCH  28  30
HETATM   30  C9  UNL     1       2.880  -0.329   1.039  1.00  0.00     0.129 C 
BRANCH  30  31
HETATM   31  C10 UNL     1       4.186   0.152   0.455  1.00  0.00    -0.035 C 
HETATM   32  C11 UNL     1       4.244   1.636   0.276  1.00  0.00     0.016 C 
HETATM   33  C12 UNL     1       4.308  -0.482  -0.936  1.00  0.00     0.016 C 
HETATM   34  C13 UNL     1       5.339  -0.393   1.270  1.00  0.00     0.016 C 
ENDBRANCH  30  31
ENDBRANCH  28  30
ENDBRANCH   3  28
TORSDOF 7
