REMARK  6 active torsions:
REMARK  status: ('A' for Active; 'I' for Inactive)
REMARK       I    between atoms: C1_2  and  N1_3 
REMARK    1  A    between atoms: C1_2  and  C2_8 
REMARK    2  A    between atoms: N1_3  and  N2_5 
REMARK    3  A    between atoms: N2_5  and  O2_6 
REMARK    4  A    between atoms: C5_14  and  N3_15 
REMARK    5  A    between atoms: N3_15  and  C6_17 
REMARK    6  A    between atoms: C7_22  and  C8_23 
ROOT
HETATM    1  N3  UNL     1       1.005   1.231   0.579  1.00  0.00    -0.194 N 
ATOM      2  H3  UNL     1       1.162   1.908   1.325  1.00  0.00     0.180 HD
ENDROOT
BRANCH   1   3
HETATM    3  C5  UNL     1      -0.294   1.234   0.069  1.00  0.00     0.314 C 
HETATM    4  C4  UNL     1      -0.342   1.711  -1.352  1.00  0.00     0.195 C 
HETATM    5  S1  UNL     1      -2.089   1.970  -1.710  1.00  0.00     0.150 S 
HETATM    6  C3  UNL     1      -2.895   0.470  -1.162  1.00  0.00     0.183 C 
HETATM    7  O3  UNL     1      -2.532   3.123  -0.837  1.00  0.00    -0.228 OA
HETATM    8  O4  UNL     1      -2.318   2.237  -3.152  1.00  0.00    -0.228 OA
HETATM    9  C2  UNL     1      -2.425   0.140   0.224  1.00  0.00     0.294 C 
HETATM   10  N11 UNL     1      -0.987  -0.009   0.305  1.00  0.00    -0.039 N 
ATOM     11 2H11 UNL     1      -0.709  -0.423   1.195  1.00  0.00     0.280 HD
ATOM     12 1H11 UNL     1      -0.656  -0.740  -0.324  1.00  0.00     0.280 HD
BRANCH   9  13
HETATM   13  C1  UNL     1      -3.052  -1.124   0.689  1.00  0.00     0.266 C 
HETATM   14  O1  UNL     1      -2.385  -2.116   1.067  1.00  0.00    -0.270 OA
HETATM   15  N1  UNL     1      -4.468  -1.229   0.710  1.00  0.00    -0.246 N 
ATOM     16  H1  UNL     1      -5.035  -0.437   0.407  1.00  0.00     0.187 HD
BRANCH  15  17
HETATM   17  N2  UNL     1      -5.098  -2.401   1.140  1.00  0.00     0.021 NA
BRANCH  17  18
HETATM   18  O2  UNL     1      -6.436  -2.269   1.084  1.00  0.00    -0.277 OA
ATOM     19  H2  UNL     1      -6.864  -3.065   1.376  1.00  0.00     0.240 HD
ENDBRANCH  17  18
ENDBRANCH  15  17
ENDBRANCH   9  13
ENDBRANCH   1   3
BRANCH   1  20
HETATM   20  C6  UNL     1       2.025   0.539   0.283  1.00  0.00     0.696 A 
HETATM   21  N4  UNL     1       2.148  -0.423  -0.639  1.00  0.00    -0.130 N 
HETATM   22  N5  UNL     1       3.412  -0.857  -0.579  1.00  0.00    -0.268 N 
ATOM     23  H4  UNL     1       1.418  -0.760  -1.267  1.00  0.00     0.205 HD
HETATM   24  C7  UNL     1       4.113  -0.207   0.353  1.00  0.00     0.183 A 
ATOM     25  H5  UNL     1       3.793  -1.594  -1.172  1.00  0.00     0.189 HD
HETATM   26  N10 UNL     1       3.258   0.663   0.895  1.00  0.00    -0.170 N 
ATOM     27  H10 UNL     1       3.480   1.318   1.645  1.00  0.00     0.186 HD
BRANCH  24  28
HETATM   28  C8  UNL     1       5.511  -0.371   0.739  1.00  0.00     0.184 A 
HETATM   29  N6  UNL     1       6.194   0.301   1.685  1.00  0.00    -0.266 N 
HETATM   30  N7  UNL     1       7.423  -0.153   1.711  1.00  0.00    -0.226 N 
ATOM     31  H6  UNL     1       5.818   1.039   2.281  1.00  0.00     0.190 HD
HETATM   32  N8  UNL     1       7.571  -1.103   0.811  1.00  0.00    -0.226 N 
ATOM     33  H7  UNL     1       8.157   0.180   2.336  1.00  0.00     0.210 HD
HETATM   34  N9  UNL     1       6.395  -1.239   0.211  1.00  0.00    -0.266 N 
ATOM     35  H8  UNL     1       8.422  -1.630   0.614  1.00  0.00     0.210 HD
ATOM     36  H9  UNL     1       6.191  -1.901  -0.537  1.00  0.00     0.190 HD
ENDBRANCH  24  28
ENDBRANCH   1  20
TORSDOF 6
