REMARK  3 active torsions:
REMARK  status: ('A' for Active; 'I' for Inactive)
REMARK    1  A    between atoms: C6_7  and  C7_8 
REMARK    2  A    between atoms: C8_11  and  N2_12 
REMARK    3  A    between atoms: C9_16  and  C10_17 
ROOT
HETATM    1  C7  UNL     1       0.240   1.551   0.662  1.00  0.00     0.062 A 
HETATM    2  N1  UNL     1       0.621   2.806   0.790  1.00  0.00    -0.335 N 
ATOM      3  H1  UNL     1       1.611   3.049   0.807  1.00  0.00     0.168 HD
HETATM    4  C8  UNL     1      -0.309   3.748   0.897  1.00  0.00     0.143 A 
HETATM    5  S1  UNL     1      -1.764   2.872   0.819  1.00  0.00    -0.051 SA
HETATM    6  C9  UNL     1      -1.110   1.304   0.649  1.00  0.00     0.046 A 
ENDROOT
BRANCH   6   7
HETATM    7  C10 UNL     1      -1.798   0.008   0.521  1.00  0.00    -0.009 A 
HETATM    8  C11 UNL     1      -1.906  -0.845   1.579  1.00  0.00     0.015 A 
HETATM    9  C12 UNL     1      -2.541  -2.065   1.482  1.00  0.00     0.026 A 
HETATM   10  C13 UNL     1      -3.081  -2.420   0.264  1.00  0.00     0.056 A 
HETATM   11 CL1  UNL     1      -3.906  -3.959   0.062  1.00  0.00    -0.083 Cl
HETATM   12  C14 UNL     1      -2.969  -1.549  -0.813  1.00  0.00     0.062 A 
HETATM   13 CL2  UNL     1      -3.648  -1.989  -2.358  1.00  0.00    -0.082 Cl
HETATM   14  C15 UNL     1      -2.328  -0.332  -0.691  1.00  0.00    -0.027 A 
HETATM   15  C16 UNL     1      -2.208   0.606  -1.852  1.00  0.00     0.051 C 
ENDBRANCH   6   7
BRANCH   1  16
HETATM   16  C6  UNL     1       1.229   0.433   0.534  1.00  0.00    -0.006 A 
HETATM   17  C5  UNL     1       1.466  -0.364   1.621  1.00  0.00     0.032 A 
HETATM   18  C4  UNL     1       2.381  -1.422   1.537  1.00  0.00     0.012 A 
HETATM   19  C3  UNL     1       3.041  -1.649   0.339  1.00  0.00     0.026 A 
HETATM   20 BR1  UNL     1       2.741  -2.553   3.019  1.00  0.00    -0.051 Br
HETATM   21  C2  UNL     1       2.811  -0.853  -0.764  1.00  0.00    -0.060 A 
HETATM   22  C1  UNL     1       3.534  -1.114  -2.044  1.00  0.00     0.048 C 
HETATM   23  C17 UNL     1       1.901   0.178  -0.635  1.00  0.00     0.020 A 
ENDBRANCH   1  16
BRANCH   4  24
HETATM   24  N2  UNL     1      -0.126   5.047   1.032  1.00  0.00    -0.380 N 
ATOM     25  H22 UNL     1       0.747   5.573   1.079  1.00  0.00     0.158 HD
ATOM     26  H21 UNL     1      -0.840   5.770   1.114  1.00  0.00     0.158 HD
ENDBRANCH   4  24
TORSDOF 3
