REMARK  12 active torsions:
REMARK  status: ('A' for Active; 'I' for Inactive)
REMARK    1  A    between atoms: C1_4  and  O1_5 
REMARK    2  A    between atoms: C1_4  and  C2_7 
REMARK    3  A    between atoms: C2_7  and  C3_8 
REMARK    4  A    between atoms: C3_8  and  N2_9 
REMARK    5  A    between atoms: C3_8  and  C14_26 
REMARK    6  A    between atoms: N2_9  and  C4_11 
REMARK    7  A    between atoms: C4_11  and  C5_12 
REMARK    8  A    between atoms: C4_11  and  C6_14 
REMARK    9  A    between atoms: C6_14  and  N3_15 
REMARK   10  A    between atoms: C6_14  and  C7_19 
REMARK   11  A    between atoms: C7_19  and  C8_20 
REMARK       I    between atoms: C14_26  and  N4_28 
REMARK   12  A    between atoms: N4_28  and  C15_30 
ROOT
HETATM    1  C3  UNL     1      -1.144   0.569  -0.880  1.00  0.00     0.177 C 
ENDROOT
BRANCH   1   2
HETATM    2  C2  UNL     1      -1.464   0.688  -2.320  1.00  0.00     0.117 C 
BRANCH   2   3
HETATM    3  C1  UNL     1      -2.569   1.668  -2.582  1.00  0.00     0.111 C 
HETATM    4  N1  UNL     1      -3.716   1.235  -2.921  1.00  0.00    -0.384 N 
ATOM      5  H12 UNL     1      -4.467   1.901  -3.099  1.00  0.00     0.157 HD
ATOM      6  H11 UNL     1      -3.899   0.236  -3.017  1.00  0.00     0.157 HD
BRANCH   3   7
HETATM    7  O1  UNL     1      -2.324   3.009  -2.453  1.00  0.00    -0.350 OA
ATOM      8  H1  UNL     1      -1.467   3.332  -2.200  1.00  0.00     0.219 HD
ENDBRANCH   3   7
ENDBRANCH   2   3
ENDBRANCH   1   2
BRANCH   1   9
HETATM    9  N2  UNL     1      -0.120  -0.310  -0.457  1.00  0.00    -0.397 N 
ATOM     10  H2  UNL     1      -0.341  -1.099   0.150  1.00  0.00     0.154 HD
BRANCH   9  11
HETATM   11  C4  UNL     1       1.184  -0.094  -0.871  1.00  0.00     0.169 C 
BRANCH  11  12
HETATM   12  C5  UNL     1       1.558  -0.392  -2.241  1.00  0.00     0.258 C 
HETATM   13  O2  UNL     1       0.952  -1.086  -3.044  1.00  0.00    -0.305 OA
ENDBRANCH  11  12
BRANCH  11  14
HETATM   14  C6  UNL     1       2.217  -0.649   0.140  1.00  0.00     0.212 C 
BRANCH  14  15
HETATM   15  N3  UNL     1       2.039  -2.064   0.299  1.00  0.00    -0.073 N 
ATOM     16  H33 UNL     1       1.082  -2.301   0.561  1.00  0.00     0.274 HD
ATOM     17  H32 UNL     1       2.076  -2.556  -0.594  1.00  0.00     0.274 HD
ATOM     18  H31 UNL     1       2.720  -2.430   0.965  1.00  0.00     0.274 HD
ENDBRANCH  14  15
BRANCH  14  19
HETATM   19  C7  UNL     1       3.561  -0.216  -0.328  1.00  0.00     0.040 C 
BRANCH  19  20
HETATM   20  C8  UNL     1       4.715  -0.632   0.543  1.00  0.00    -0.013 C 
HETATM   21  C9  UNL     1       4.868  -2.106   0.708  1.00  0.00     0.005 C 
HETATM   22  C10 UNL     1       6.263  -2.531   1.125  1.00  0.00     0.000 C 
HETATM   23  C11 UNL     1       7.339  -2.088   0.196  1.00  0.00     0.000 C 
HETATM   24  C12 UNL     1       6.831  -1.012  -0.756  1.00  0.00     0.000 C 
HETATM   25  C13 UNL     1       5.968  -0.018   0.002  1.00  0.00     0.005 C 
ENDBRANCH  19  20
ENDBRANCH  14  19
ENDBRANCH  11  14
ENDBRANCH   9  11
ENDBRANCH   1   9
BRANCH   1  26
HETATM   26  C14 UNL     1      -2.416   0.233  -0.093  1.00  0.00     0.240 C 
HETATM   27  O3  UNL     1      -2.576  -0.989   0.141  1.00  0.00    -0.271 OA
HETATM   28  N4  UNL     1      -3.305   1.220   0.322  1.00  0.00    -0.355 N 
ATOM     29  H4  UNL     1      -3.109   2.197   0.102  1.00  0.00     0.162 HD
BRANCH  28  30
HETATM   30  C15 UNL     1      -4.505   0.881   1.062  1.00  0.00     0.084 C 
HETATM   31  C16 UNL     1      -4.458   1.413   2.478  1.00  0.00     0.025 C 
HETATM   32  C17 UNL     1      -5.583   0.812   3.255  1.00  0.00     0.002 C 
HETATM   33  C18 UNL     1      -6.917   0.915   2.612  1.00  0.00     0.000 C 
HETATM   34  C19 UNL     1      -6.930   0.855   1.132  1.00  0.00     0.002 C 
HETATM   35  C20 UNL     1      -5.756   1.434   0.426  1.00  0.00     0.025 C 
ENDBRANCH  28  30
ENDBRANCH   1  26
TORSDOF 12
