REMARK  10 active torsions:
REMARK  status: ('A' for Active; 'I' for Inactive)
REMARK    1  A    between atoms: C2_2  and  C4_4 
REMARK    2  A    between atoms: C4_4  and  N1_5 
REMARK    3  A    between atoms: N1_5  and  C5_7 
REMARK    4  A    between atoms: C5_7  and  C6_8 
REMARK    5  A    between atoms: C5_7  and  C13_22 
REMARK    6  A    between atoms: C6_8  and  N2_9 
REMARK       I    between atoms: N2_9  and  C7_11 
REMARK       I    between atoms: C7_11  and  N3_13 
REMARK    7  A    between atoms: N3_13  and  C8_15 
REMARK    8  A    between atoms: C8_15  and  C9_16 
REMARK    9  A    between atoms: C8_15  and  C10_19 
REMARK       I    between atoms: C13_22  and  N4_24 
REMARK   10  A    between atoms: N4_24  and  C14_26 
ROOT
HETATM    1  C5  UNL     1      -0.927  -0.246   0.795  1.00  0.00     0.095 C 
ENDROOT
BRANCH   1   2
HETATM    2  N1  UNL     1      -0.831   0.390   2.022  1.00  0.00    -0.367 N 
ATOM      3  H1  UNL     1      -0.850  -0.196   2.857  1.00  0.00     0.165 HD
BRANCH   2   4
HETATM    4  C4  UNL     1      -0.711   1.755   2.206  1.00  0.00     0.065 C 
BRANCH   4   5
HETATM    5  C2  UNL     1      -1.779   2.741   2.042  1.00  0.00     0.016 C 
HETATM    6  C1  UNL     1      -2.966   2.660   2.945  1.00  0.00     0.015 C 
HETATM    7  C3  UNL     1      -1.150   4.124   2.305  1.00  0.00     0.015 C 
ENDBRANCH   4   5
ENDBRANCH   2   4
ENDBRANCH   1   2
BRANCH   1   8
HETATM    8  C6  UNL     1       0.230  -0.001  -0.155  1.00  0.00     0.187 C 
BRANCH   8   9
HETATM    9  N2  UNL     1       1.463  -0.477   0.487  1.00  0.00    -0.337 N 
HETATM   10  C7  UNL     1       2.718  -0.376  -0.159  1.00  0.00     0.317 C 
HETATM   11  O1  UNL     1       2.748   0.142  -1.310  1.00  0.00    -0.247 OA
HETATM   12  N3  UNL     1       3.930  -0.827   0.425  1.00  0.00    -0.328 N 
ATOM     13  H3  UNL     1       3.899  -1.246   1.354  1.00  0.00     0.165 HD
ATOM     14  H2  UNL     1       1.413  -0.889   1.419  1.00  0.00     0.164 HD
BRANCH  12  15
HETATM   15  C8  UNL     1       5.209  -0.716  -0.246  1.00  0.00     0.190 C 
BRANCH  15  16
HETATM   16  C9  UNL     1       5.740  -2.051  -0.630  1.00  0.00     0.197 C 
HETATM   17  O2  UNL     1       5.151  -3.140  -0.401  1.00  0.00    -0.646 OA
HETATM   18  O3  UNL     1       6.961  -2.153  -1.286  1.00  0.00    -0.646 OA
ENDBRANCH  15  16
BRANCH  15  19
HETATM   19  C10 UNL     1       6.132   0.058   0.645  1.00  0.00     0.011 C 
HETATM   20  C11 UNL     1       7.508   0.242   0.050  1.00  0.00     0.012 C 
HETATM   21  C12 UNL     1       6.239  -0.654   1.963  1.00  0.00     0.012 C 
ENDBRANCH  15  19
ENDBRANCH  12  15
ENDBRANCH   8   9
ENDBRANCH   1   8
BRANCH   1  22
HETATM   22  C13 UNL     1      -2.241  -0.339   0.191  1.00  0.00     0.266 C 
HETATM   23  O4  UNL     1      -3.252   0.087   0.803  1.00  0.00    -0.266 OA
HETATM   24  N4  UNL     1      -2.478  -0.905  -1.103  1.00  0.00    -0.351 N 
ATOM     25  H4  UNL     1      -1.703  -1.272  -1.656  1.00  0.00     0.163 HD
BRANCH  24  26
HETATM   26  C14 UNL     1      -3.813  -0.949  -1.610  1.00  0.00     0.084 C 
HETATM   27  C15 UNL     1      -4.205  -2.424  -1.722  1.00  0.00     0.025 C 
HETATM   28  C16 UNL     1      -5.487  -2.472  -2.516  1.00  0.00     0.002 C 
HETATM   29  C17 UNL     1      -6.240  -1.157  -2.464  1.00  0.00     0.000 C 
HETATM   30  C18 UNL     1      -5.472  -0.065  -3.162  1.00  0.00     0.002 C 
HETATM   31  C19 UNL     1      -3.990  -0.252  -2.920  1.00  0.00     0.025 C 
ENDBRANCH  24  26
ENDBRANCH   1  22
TORSDOF 10
