REMARK  9 active torsions:
REMARK  status: ('A' for Active; 'I' for Inactive)
REMARK    1  A    between atoms: C3_4  and  N2_5 
REMARK    2  A    between atoms: N2_5  and  C4_6 
REMARK    3  A    between atoms: N2_5  and  C6_10 
REMARK    4  A    between atoms: C4_6  and  C5_7 
REMARK    5  A    between atoms: C5_7  and  O1_8 
REMARK    6  A    between atoms: C6_10  and  C7_11 
REMARK    7  A    between atoms: C7_11  and  N3_12 
REMARK    8  A    between atoms: N3_12  and  C8_14 
REMARK    9  A    between atoms: C11_26  and  N8_27 
ROOT
HETATM    1  N1  UNL     1      -1.743   1.546   2.985  1.00  0.00    -0.191 NA
HETATM    2  C1  UNL     1      -2.251   0.919   2.157  1.00  0.00     0.109 C 
HETATM    3  C2  UNL     1      -2.869   0.155   1.132  1.00  0.00     0.157 A 
HETATM    4  C3  UNL     1      -2.216  -0.123  -0.014  1.00  0.00     0.145 A 
HETATM    5  N7  UNL     1      -2.842  -0.879  -0.962  1.00  0.00    -0.175 N 
ATOM      6  H7  UNL     1      -2.361  -1.099  -1.834  1.00  0.00     0.186 HD
HETATM    7  C11 UNL     1      -4.089  -1.336  -0.753  1.00  0.00     0.680 A 
HETATM    8  N9  UNL     1      -4.736  -1.054   0.394  1.00  0.00    -0.155 N 
ATOM      9  H9  UNL     1      -5.682  -1.410   0.533  1.00  0.00     0.187 HD
HETATM   10  C12 UNL     1      -4.170  -0.320   1.353  1.00  0.00     0.284 A 
HETATM   11  O3  UNL     1      -4.743  -0.047   2.412  1.00  0.00    -0.266 OA
ENDROOT
BRANCH   4  12
HETATM   12  N2  UNL     1      -0.914   0.340  -0.301  1.00  0.00    -0.362 N 
BRANCH  12  13
HETATM   13  C4  UNL     1      -0.740   1.330  -1.325  1.00  0.00     0.150 C 
BRANCH  13  14
HETATM   14  C5  UNL     1      -0.278   2.669  -0.941  1.00  0.00     0.183 C 
BRANCH  14  15
HETATM   15  O1  UNL     1      -1.026   3.412  -0.078  1.00  0.00    -0.399 OA
ATOM     16  H1  UNL     1      -0.727   4.279   0.171  1.00  0.00     0.209 HD
ENDBRANCH  14  15
ENDBRANCH  13  14
ENDBRANCH  12  13
BRANCH  12  17
HETATM   17  C6  UNL     1       0.142  -0.250   0.457  1.00  0.00     0.144 C 
BRANCH  17  18
HETATM   18  C7  UNL     1       1.053  -1.155  -0.322  1.00  0.00     0.141 C 
BRANCH  18  19
HETATM   19  N3  UNL     1       2.100  -1.747   0.459  1.00  0.00    -0.373 N 
ATOM     20  H3  UNL     1       1.889  -2.597   0.981  1.00  0.00     0.161 HD
BRANCH  19  21
HETATM   21  C8  UNL     1       3.270  -1.273   0.536  1.00  0.00     0.122 A 
HETATM   22  C9  UNL     1       4.180  -1.970   1.341  1.00  0.00     0.155 A 
HETATM   23  N4  UNL     1       5.415  -1.491   1.435  1.00  0.00    -0.304 N 
HETATM   24  N5  UNL     1       5.810  -0.390   0.800  1.00  0.00    -0.252 N 
ATOM     25  H4  UNL     1       6.089  -1.987   2.018  1.00  0.00     0.186 HD
HETATM   26  C10 UNL     1       4.938   0.280   0.026  1.00  0.00     0.340 A 
ATOM     27  H5  UNL     1       6.769  -0.056   0.900  1.00  0.00     0.191 HD
HETATM   28  O2  UNL     1       5.264   1.335  -0.601  1.00  0.00    -0.245 OA
HETATM   29  N6  UNL     1       3.668  -0.166  -0.102  1.00  0.00    -0.292 N 
ATOM     30  H6  UNL     1       3.009   0.345  -0.689  1.00  0.00     0.172 HD
ENDBRANCH  19  21
ENDBRANCH  18  19
ENDBRANCH  17  18
ENDBRANCH  12  17
ENDBRANCH   4  12
BRANCH   7  31
HETATM   31  N8  UNL     1      -4.663  -2.064  -1.676  1.00  0.00    -0.234 N 
ATOM     32  H82 UNL     1      -4.173  -2.278  -2.545  1.00  0.00     0.174 HD
ATOM     33  H81 UNL     1      -5.609  -2.411  -1.517  1.00  0.00     0.174 HD
ENDBRANCH   7  31
TORSDOF 9
