REMARK  9 active torsions:
REMARK  status: ('A' for Active; 'I' for Inactive)
REMARK    1  A    between atoms: C2_2  and  N1_3 
REMARK    2  A    between atoms: C3_4  and  N2_5 
REMARK    3  A    between atoms: N2_5  and  C4_7 
REMARK    4  A    between atoms: C4_7  and  C5_8 
REMARK    5  A    between atoms: C5_8  and  C6_9 
REMARK    6  A    between atoms: C6_9  and  N3_10 
REMARK    7  A    between atoms: N3_10  and  N4_12 
REMARK    8  A    between atoms: N4_12  and  C7_14 
REMARK    9  A    between atoms: C8_17  and  N6_18 
ROOT
HETATM    1  N3  UNL     1       1.817  -1.559  -0.076  1.00  0.00    -0.322 N 
ATOM      2  H3  UNL     1       1.801  -2.428   0.458  1.00  0.00     0.180 HD
ENDROOT
BRANCH   1   3
HETATM    3  C6  UNL     1       1.216  -1.551  -1.379  1.00  0.00     0.141 C 
BRANCH   3   4
HETATM    4  C5  UNL     1       0.105  -0.516  -1.359  1.00  0.00     0.041 C 
BRANCH   4   5
HETATM    5  C4  UNL     1      -0.883  -0.932  -0.299  1.00  0.00     0.123 C 
BRANCH   5   6
HETATM    6  N2  UNL     1      -1.988  -0.022  -0.186  1.00  0.00    -0.375 N 
ATOM      7  H2  UNL     1      -1.945   0.880  -0.661  1.00  0.00     0.161 HD
BRANCH   6   8
HETATM    8  C3  UNL     1      -3.033  -0.324   0.504  1.00  0.00     0.124 A 
HETATM    9  N1  UNL     1      -4.082   0.511   0.625  1.00  0.00    -0.284 N 
HETATM   10  C11 UNL     1      -5.120   0.105   1.364  1.00  0.00     0.342 A 
HETATM   11  N10 UNL     1      -5.172  -1.081   1.986  1.00  0.00    -0.252 N 
HETATM   12  O2  UNL     1      -6.084   0.879   1.472  1.00  0.00    -0.245 OA
HETATM   13  N9  UNL     1      -4.161  -1.925   1.887  1.00  0.00    -0.304 N 
ATOM     14  H10 UNL     1      -5.993  -1.332   2.536  1.00  0.00     0.191 HD
HETATM   15  C10 UNL     1      -3.081  -1.562   1.149  1.00  0.00     0.155 A 
ATOM     16  H9  UNL     1      -4.191  -2.831   2.355  1.00  0.00     0.186 HD
BRANCH   9  17
HETATM   17  C2  UNL     1      -3.997   1.774  -0.051  1.00  0.00     0.131 C 
HETATM   18  C1  UNL     1      -4.521   1.786  -1.439  1.00  0.00     0.027 C 
ENDBRANCH   9  17
ENDBRANCH   6   8
ENDBRANCH   5   6
ENDBRANCH   4   5
ENDBRANCH   3   4
ENDBRANCH   1   3
BRANCH   1  19
HETATM   19  N4  UNL     1       2.424  -0.439   0.501  1.00  0.00    -0.136 N 
ATOM     20  H4  UNL     1       1.888   0.120   1.165  1.00  0.00     0.205 HD
BRANCH  19  21
HETATM   21  C7  UNL     1       3.633  -0.084   0.228  1.00  0.00     0.715 A 
HETATM   22  N5  UNL     1       4.119   1.011   0.840  1.00  0.00    -0.021 N 
HETATM   23  C8  UNL     1       5.390   1.447   0.600  1.00  0.00     0.694 A 
ATOM     24  H5  UNL     1       3.528   1.524   1.494  1.00  0.00     0.203 HD
HETATM   25  N7  UNL     1       6.171   0.773  -0.261  1.00  0.00    -0.141 N 
HETATM   26  C9  UNL     1       5.706  -0.324  -0.885  1.00  0.00     0.352 A 
ATOM     27  H7  UNL     1       7.122   1.095  -0.442  1.00  0.00     0.189 HD
HETATM   28  O1  UNL     1       6.453  -0.942  -1.689  1.00  0.00    -0.246 OA
HETATM   29  N8  UNL     1       4.433  -0.738  -0.627  1.00  0.00    -0.139 N 
ATOM     30  H8  UNL     1       4.078  -1.570  -1.098  1.00  0.00     0.189 HD
BRANCH  23  31
HETATM   31  N6  UNL     1       5.838   2.485   1.187  1.00  0.00    -0.234 N 
ATOM     32  H62 UNL     1       5.245   2.997   1.841  1.00  0.00     0.174 HD
ATOM     33  H61 UNL     1       6.788   2.811   1.008  1.00  0.00     0.174 HD
ENDBRANCH  23  31
ENDBRANCH  19  21
ENDBRANCH   1  19
TORSDOF 9
