REMARK  7 active torsions:
REMARK  status: ('A' for Active; 'I' for Inactive)
REMARK       I    between atoms: C2_5  and  N4_7 
REMARK    1  A    between atoms: N6_14  and  C6_15 
REMARK    2  A    between atoms: C6_15  and  C7_16 
REMARK    3  A    between atoms: C7_16  and  N7_17 
REMARK    4  A    between atoms: N7_17  and  C8_19 
REMARK    5  A    between atoms: C8_19  and  C9_20 
REMARK    6  A    between atoms: C9_20  and  N8_21 
REMARK    7  A    between atoms: N8_21  and  C10_23 
ROOT
HETATM    1  N1  UNL     1       6.388   4.097   0.574  1.00  0.00    -0.172 NA
HETATM    2  C1  UNL     1       6.908   3.081   0.404  1.00  0.00     0.184 C 
HETATM    3  N2  UNL     1       7.543   1.867   0.200  1.00  0.00    -0.267 N 
ATOM      4  H2  UNL     1       8.475   1.884  -0.215  1.00  0.00     0.180 HD
HETATM    5  C2  UNL     1       7.045   0.723   0.495  1.00  0.00     0.215 C 
HETATM    6  N3  UNL     1       7.794  -0.449   0.237  1.00  0.00    -0.062 NA
HETATM    7  N4  UNL     1       5.768   0.655   1.068  1.00  0.00    -0.162 N 
ATOM      8  H4  UNL     1       5.629   1.093   1.978  1.00  0.00     0.187 HD
HETATM    9  C3  UNL     1       4.759   0.074   0.518  1.00  0.00     0.695 C 
HETATM   10  N5  UNL     1       4.830  -0.574  -0.753  1.00  0.00    -0.220 N 
ATOM     11  H5  UNL     1       5.615  -0.406  -1.382  1.00  0.00     0.178 HD
HETATM   12  C4  UNL     1       3.778  -1.459  -1.119  1.00  0.00     0.184 C 
HETATM   13  C5  UNL     1       2.408  -1.025  -0.680  1.00  0.00     0.109 C 
HETATM   14  N6  UNL     1       2.309  -0.293   0.482  1.00  0.00    -0.269 N 
HETATM   15  N11 UNL     1       3.483   0.036   1.145  1.00  0.00    -0.127 N 
ATOM     16  H11 UNL     1       3.428   0.263   2.138  1.00  0.00     0.206 HD
ENDROOT
BRANCH  14  17
HETATM   17  C6  UNL     1       1.191   0.476   0.821  1.00  0.00     0.108 C 
BRANCH  17  18
HETATM   18  C7  UNL     1      -0.015  -0.351   1.161  1.00  0.00     0.161 C 
BRANCH  18  19
HETATM   19  N7  UNL     1      -0.453  -1.134   0.072  1.00  0.00    -0.415 N 
ATOM     20  H7  UNL     1      -0.362  -2.150   0.085  1.00  0.00     0.153 HD
BRANCH  19  21
HETATM   21  C8  UNL     1      -1.023  -0.465  -1.040  1.00  0.00     0.134 C 
BRANCH  21  22
HETATM   22  C9  UNL     1      -2.343   0.200  -0.811  1.00  0.00     0.157 C 
BRANCH  22  23
HETATM   23  N8  UNL     1      -3.381  -0.722  -0.396  1.00  0.00    -0.225 N 
ATOM     24  H8  UNL     1      -3.176  -1.713  -0.269  1.00  0.00     0.177 HD
BRANCH  23  25
HETATM   25  C10 UNL     1      -4.689  -0.217  -0.170  1.00  0.00     0.669 C 
HETATM   26  N9  UNL     1      -4.968   0.822   0.526  1.00  0.00    -0.227 N 
HETATM   27  C11 UNL     1      -6.265   1.366   0.780  1.00  0.00     0.139 C 
ATOM     28  H9  UNL     1      -4.179   1.314   0.944  1.00  0.00     0.177 HD
HETATM   29  C12 UNL     1      -7.373   0.861  -0.074  1.00  0.00     0.040 C 
HETATM   30  C13 UNL     1      -7.001  -0.134  -1.119  1.00  0.00     0.139 C 
HETATM   31  N10 UNL     1      -5.806  -0.912  -0.767  1.00  0.00    -0.227 N 
ATOM     32  H10 UNL     1      -5.766  -1.917  -0.940  1.00  0.00     0.177 HD
ENDBRANCH  23  25
ENDBRANCH  22  23
ENDBRANCH  21  22
ENDBRANCH  19  21
ENDBRANCH  18  19
ENDBRANCH  17  18
ENDBRANCH  14  17
TORSDOF 7
