REMARK  8 active torsions:
REMARK  status: ('A' for Active; 'I' for Inactive)
REMARK    1  A    between atoms: C2_2  and  N1_3 
REMARK    2  A    between atoms: C3_4  and  S1_5 
REMARK    3  A    between atoms: S1_5  and  C4_6 
REMARK    4  A    between atoms: C4_6  and  C5_7 
REMARK    5  A    between atoms: C12_17  and  C13_18 
REMARK    6  A    between atoms: C13_18  and  C14_19 
REMARK    7  A    between atoms: C14_19  and  N3_20 
REMARK       I    between atoms: N3_20  and  C15_22 
REMARK    8  A    between atoms: C15_22  and  C16_24 
ROOT
HETATM    1  C14 UNL     1       1.806  -2.073   1.547  1.00  0.00     0.070 C 
ENDROOT
BRANCH   1   2
HETATM    2  C13 UNL     1       0.965  -2.793   0.559  1.00  0.00     0.104 C 
BRANCH   2   3
HETATM    3  C12 UNL     1       0.226  -1.980  -0.419  1.00  0.00     0.040 A 
HETATM    4  N1  UNL     1      -1.073  -1.541  -0.192  1.00  0.00    -0.329 N 
HETATM    5  C3  UNL     1      -1.426  -0.793  -1.235  1.00  0.00     0.147 A 
HETATM    6  N2  UNL     1      -0.368  -0.760  -2.117  1.00  0.00    -0.339 N 
HETATM    7  C10 UNL     1       0.640  -1.487  -1.615  1.00  0.00     0.030 A 
ATOM      8  H2  UNL     1      -0.354  -0.263  -3.008  1.00  0.00     0.168 HD
HETATM    9  C11 UNL     1       1.937  -1.707  -2.349  1.00  0.00     0.070 C 
BRANCH   4  10
HETATM   10  C2  UNL     1      -1.798  -1.934   0.987  1.00  0.00     0.126 C 
HETATM   11  C1  UNL     1      -2.562  -3.238   0.751  1.00  0.00     0.027 C 
ENDBRANCH   4  10
BRANCH   5  12
HETATM   12  S1  UNL     1      -2.922   0.097  -1.557  1.00  0.00    -0.091 SA
BRANCH  12  13
HETATM   13  C4  UNL     1      -4.148   0.073  -0.282  1.00  0.00     0.114 C 
BRANCH  13  14
HETATM   14  C5  UNL     1      -5.398   0.839  -0.780  1.00  0.00     0.131 C 
HETATM   15  C6  UNL     1      -6.425   0.825   0.292  1.00  0.00     0.033 C 
HETATM   16  C7  UNL     1      -7.018   2.169   0.596  1.00  0.00     0.004 C 
HETATM   17  C8  UNL     1      -6.101   3.329   0.407  1.00  0.00     0.026 C 
HETATM   18  C9  UNL     1      -4.773   2.976  -0.190  1.00  0.00     0.168 C 
HETATM   19  O1  UNL     1      -4.968   2.067  -1.202  1.00  0.00    -0.385 OA
ENDBRANCH  13  14
ENDBRANCH  12  13
ENDBRANCH   5  12
ENDBRANCH   2   3
ENDBRANCH   1   2
BRANCH   1  20
HETATM   20  N3  UNL     1       2.911  -1.300   1.175  1.00  0.00    -0.335 N 
HETATM   21  C15 UNL     1       4.099  -1.732   0.564  1.00  0.00     0.279 C 
HETATM   22  O2  UNL     1       4.252  -2.944   0.288  1.00  0.00    -0.265 OA
ATOM     23  H3  UNL     1       2.846  -0.301   1.372  1.00  0.00     0.168 HD
BRANCH  21  24
HETATM   24  C16 UNL     1       5.184  -0.777   0.233  1.00  0.00     0.144 A 
HETATM   25  N4  UNL     1       5.153   0.521   0.483  1.00  0.00    -0.344 N 
HETATM   26  C17 UNL     1       6.164   1.269   0.153  1.00  0.00     0.076 A 
ATOM     27  H4  UNL     1       4.337   0.935   0.934  1.00  0.00     0.167 HD
HETATM   28  C18 UNL     1       6.279   2.665   0.353  1.00  0.00     0.085 A 
HETATM   29  C22 UNL     1       7.231   0.659  -0.452  1.00  0.00     0.059 A 
HETATM   30 CL1  UNL     1       4.999   3.585   1.113  1.00  0.00    -0.080 Cl
HETATM   31  C19 UNL     1       7.401   3.307  -0.049  1.00  0.00     0.081 A 
HETATM   32 CL2  UNL     1       7.536   5.056   0.207  1.00  0.00    -0.081 Cl
HETATM   33  C20 UNL     1       8.483   2.719  -0.656  1.00  0.00     0.080 A 
HETATM   34 CL3  UNL     1       9.916   3.543  -1.168  1.00  0.00    -0.081 Cl
HETATM   35  C21 UNL     1       8.383   1.349  -0.859  1.00  0.00     0.077 A 
HETATM   36 CL4  UNL     1       9.628   0.395  -1.609  1.00  0.00    -0.081 Cl
HETATM   37  S2  UNL     1       6.701  -0.978  -0.505  1.00  0.00    -0.063 SA
ENDBRANCH  21  24
ENDBRANCH   1  20
TORSDOF 8
