REMARK  0 active torsions:
REMARK  status: ('A' for Active; 'I' for Inactive)
ROOT
HETATM    1  C1  UNL     1       1.961   0.169  -0.379  1.00  0.00     0.002 C 
HETATM    2  C2  UNL     1       0.955  -0.805  -0.964  1.00  0.00     0.005 C 
HETATM    3  C3  UNL     1       0.081  -1.279   0.161  1.00  0.00    -0.008 C 
HETATM    4  C4  UNL     1      -1.379  -1.203  -0.282  1.00  0.00     0.049 C 
HETATM    5  C5  UNL     1      -1.794   0.180  -0.587  1.00  0.00     0.056 C 
HETATM    6  N1  UNL     1      -1.271   1.220   0.194  1.00  0.00    -0.398 N 
ATOM      7  H1  UNL     1      -1.799   2.082   0.328  1.00  0.00     0.159 HD
HETATM    8  C6  UNL     1      -0.005   1.058   0.792  1.00  0.00     0.081 C 
HETATM    9  C7  UNL     1       1.167   1.434  -0.068  1.00  0.00     0.025 C 
HETATM   10  C8  UNL     1       0.130  -0.338   1.363  1.00  0.00     0.030 C 
ENDROOT
TORSDOF 0
