REMARK  7 active torsions:
REMARK  status: ('A' for Active; 'I' for Inactive)
REMARK    1  A    between atoms: C1_4  and  C2_6 
REMARK    2  A    between atoms: C5_9  and  O1_10 
REMARK    3  A    between atoms: O1_10  and  C6_11 
REMARK    4  A    between atoms: C6_11  and  C7_12 
REMARK    5  A    between atoms: C7_12  and  C8_13 
REMARK    6  A    between atoms: C8_13  and  C9_14 
REMARK    7  A    between atoms: C9_14  and  N3_15 
REMARK       I    between atoms: N4_19  and  C13_20 
ROOT
HETATM    1  C7  UNL     1       0.307  -0.676  -0.238  1.00  0.00     0.028 C 
ENDROOT
BRANCH   1   2
HETATM    2  C6  UNL     1       0.916  -0.127  -1.495  1.00  0.00     0.175 C 
BRANCH   2   3
HETATM    3  O1  UNL     1       2.144  -0.667  -1.775  1.00  0.00    -0.351 OA
BRANCH   3   4
HETATM    4  C5  UNL     1       3.282  -0.520  -1.049  1.00  0.00     0.068 A 
HETATM    5  C4  UNL     1       3.351   0.252   0.074  1.00  0.00     0.037 A 
HETATM    6  C3  UNL     1       4.548   0.358   0.780  1.00  0.00     0.017 A 
HETATM    7  C2  UNL     1       5.672  -0.318   0.342  1.00  0.00     0.005 A 
HETATM    8  C16 UNL     1       5.574  -1.089  -0.795  1.00  0.00     0.017 A 
HETATM    9  C15 UNL     1       4.413  -1.208  -1.501  1.00  0.00     0.037 A 
BRANCH   7  10
HETATM   10  C1  UNL     1       6.887  -0.168   1.118  1.00  0.00     0.120 C 
HETATM   11  N1  UNL     1       7.959  -0.764   0.771  1.00  0.00    -0.387 N 
ATOM     12  H12 UNL     1       8.814  -0.658   1.317  1.00  0.00     0.157 HD
ATOM     13  H11 UNL     1       7.952  -1.351  -0.063  1.00  0.00     0.157 HD
HETATM   14  N2  UNL     1       6.896   0.643   2.271  1.00  0.00    -0.082 NA
ENDBRANCH   7  10
ENDBRANCH   3   4
ENDBRANCH   2   3
ENDBRANCH   1   2
BRANCH   1  15
HETATM   15  C8  UNL     1      -1.009   0.003   0.025  1.00  0.00     0.022 C 
BRANCH  15  16
HETATM   16  C9  UNL     1      -1.957  -0.240  -1.093  1.00  0.00     0.129 C 
BRANCH  16  17
HETATM   17  N3  UNL     1      -3.255   0.417  -0.806  1.00  0.00    -0.352 N 
HETATM   18  C10 UNL     1      -3.445   1.677  -1.211  1.00  0.00     0.093 A 
HETATM   19  C11 UNL     1      -4.651   2.300  -0.949  1.00  0.00     0.035 A 
HETATM   20  C12 UNL     1      -5.641   1.602  -0.269  1.00  0.00     0.102 A 
HETATM   21  N4  UNL     1      -5.423   0.338   0.126  1.00  0.00    -0.293 N 
HETATM   22  C13 UNL     1      -6.441  -0.371   0.821  1.00  0.00     0.193 C 
HETATM   23  C14 UNL     1      -4.233  -0.216  -0.156  1.00  0.00     0.192 A 
HETATM   24  N5  UNL     1      -7.668  -0.124   0.610  1.00  0.00    -0.373 N 
HETATM   25  N6  UNL     1      -6.109  -1.374   1.770  1.00  0.00    -0.063 NA
ATOM     26  H52 UNL     1      -7.906   0.596  -0.072  1.00  0.00     0.158 HD
ATOM     27  H51 UNL     1      -8.398  -0.633   1.109  1.00  0.00     0.158 HD
ENDBRANCH  16  17
ENDBRANCH  15  16
ENDBRANCH   1  15
TORSDOF 7
