REMARK  2 active torsions:
REMARK  status: ('A' for Active; 'I' for Inactive)
REMARK    1  A    between atoms: C2_2  and  C3_3 
REMARK    2  A    between atoms: N2_8  and  C6_9 
ROOT
HETATM    1  C3  UNL     1       2.467  -0.101   0.291  1.00  0.00    -0.011 A 
HETATM    2  C4  UNL     1       2.263  -1.236  -0.460  1.00  0.00     0.030 A 
HETATM    3  C5  UNL     1       3.321  -2.198  -0.870  1.00  0.00     0.070 C 
HETATM    4  N1  UNL     1       0.952  -1.301  -0.743  1.00  0.00    -0.298 N 
ATOM      5  H1  UNL     1       0.505  -2.037  -1.289  1.00  0.00     0.187 HD
HETATM    6  N2  UNL     1       0.335  -0.275  -0.211  1.00  0.00    -0.260 N 
HETATM    7  C15 UNL     1       1.230   0.483   0.431  1.00  0.00     0.039 A 
HETATM    8  C16 UNL     1       1.035   1.750   1.192  1.00  0.00     0.071 C 
ENDROOT
BRANCH   6   9
HETATM    9  C6  UNL     1      -1.046   0.024  -0.279  1.00  0.00     0.063 A 
HETATM   10  C7  UNL     1      -1.433   1.293  -0.653  1.00  0.00     0.039 A 
HETATM   11  C8  UNL     1      -2.758   1.617  -0.728  1.00  0.00    -0.059 A 
HETATM   12  C9  UNL     1      -3.179   2.994  -1.134  1.00  0.00     0.048 C 
HETATM   13  C10 UNL     1      -3.727   0.659  -0.426  1.00  0.00     0.014 A 
HETATM   14  C11 UNL     1      -3.304  -0.603  -0.055  1.00  0.00    -0.053 A 
HETATM   15  C12 UNL     1      -4.325  -1.650   0.275  1.00  0.00     0.049 C 
HETATM   16  C13 UNL     1      -1.970  -0.950   0.027  1.00  0.00    -0.027 A 
HETATM   17  C14 UNL     1      -1.556  -2.335   0.434  1.00  0.00     0.051 C 
ENDBRANCH   6   9
BRANCH   1  18
HETATM   18  C2  UNL     1       3.764   0.398   0.841  1.00  0.00     0.038 C 
HETATM   19  C1  UNL     1       4.624   1.042  -0.200  1.00  0.00     0.010 C 
ENDBRANCH   1  18
TORSDOF 2
