REMARK  9 active torsions:
REMARK  status: ('A' for Active; 'I' for Inactive)
REMARK    1  A    between atoms: N1_1  and  N2_4 
REMARK    2  A    between atoms: C2_8  and  N4_9 
REMARK    3  A    between atoms: N4_9  and  C3_11 
REMARK    4  A    between atoms: C5_14  and  C6_15 
REMARK    5  A    between atoms: C6_15  and  O2_16 
REMARK    6  A    between atoms: C7_18  and  C8_19 
REMARK    7  A    between atoms: C8_19  and  O3_20 
REMARK    8  A    between atoms: C8_19  and  O4_22 
REMARK    9  A    between atoms: C9_27  and  C10_28 
ROOT
HETATM    1  C3  UNL     1       0.008  -1.029   0.167  1.00  0.00     0.201 C 
HETATM    2  C4  UNL     1      -0.433   0.233  -0.553  1.00  0.00     0.160 C 
HETATM    3  O1  UNL     1       0.209   0.586  -1.478  1.00  0.00    -0.295 OA
HETATM    4  C5  UNL     1      -1.588   1.120  -0.229  1.00  0.00     0.110 C 
HETATM    5  C7  UNL     1      -2.687   0.368   0.451  1.00  0.00     0.163 C 
HETATM    6  N5  UNL     1      -2.327  -0.894   0.997  1.00  0.00    -0.328 N 
ATOM      7  H5  UNL     1      -2.090  -1.013   1.982  1.00  0.00     0.176 HD
HETATM    8  N6  UNL     1      -2.320  -1.961   0.093  1.00  0.00    -0.127 NA
HETATM    9  C9  UNL     1      -0.966  -2.035  -0.428  1.00  0.00     0.230 C 
ENDROOT
BRANCH   1  10
HETATM   10  N4  UNL     1       1.319  -1.449  -0.139  1.00  0.00    -0.213 N 
ATOM     11  H4  UNL     1       1.417  -2.438  -0.370  1.00  0.00     0.178 HD
BRANCH  10  12
HETATM   12  C2  UNL     1       2.519  -0.697  -0.172  1.00  0.00     0.676 C 
HETATM   13  N3  UNL     1       2.885   0.211  -1.147  1.00  0.00    -0.187 N 
HETATM   14  C1  UNL     1       3.851   1.035  -1.243  1.00  0.00     0.219 C 
ATOM     15  H3  UNL     1       2.256   0.224  -1.950  1.00  0.00     0.185 HD
HETATM   16  N2  UNL     1       4.699   1.014  -0.090  1.00  0.00    -0.275 N 
HETATM   17  C11 UNL     1       4.642  -0.083   0.846  1.00  0.00     0.289 C 
HETATM   18  N7  UNL     1       3.388  -0.808   0.818  1.00  0.00    -0.208 N 
ATOM     19  H7  UNL     1       3.166  -1.430   1.595  1.00  0.00     0.179 HD
BRANCH  16  20
HETATM   20  N1  UNL     1       5.525   2.160   0.173  1.00  0.00    -0.341 N 
ATOM     21  H12 UNL     1       5.565   2.935  -0.489  1.00  0.00     0.177 HD
ATOM     22  H11 UNL     1       6.129   2.145   0.995  1.00  0.00     0.177 HD
ENDBRANCH  16  20
ENDBRANCH  10  12
ENDBRANCH   1  10
BRANCH   9  23
HETATM   23  C10 UNL     1      -0.466  -3.339  -0.782  1.00  0.00     0.197 C 
HETATM   24  O5  UNL     1      -0.294  -3.728  -1.981  1.00  0.00    -0.647 OA
HETATM   25  O6  UNL     1      -0.141  -4.258   0.225  1.00  0.00    -0.647 OA
ENDBRANCH   9  23
BRANCH   4  26
HETATM   26  C6  UNL     1      -2.182   1.646  -1.539  1.00  0.00     0.178 C 
BRANCH  26  27
HETATM   27  O2  UNL     1      -1.249   2.367  -2.255  1.00  0.00    -0.400 OA
ATOM     28  H2  UNL     1      -1.617   2.693  -3.068  1.00  0.00     0.209 HD
ENDBRANCH  26  27
ENDBRANCH   4  26
BRANCH   5  29
HETATM   29  C8  UNL     1      -3.328   1.194   1.549  1.00  0.00     0.278 C 
BRANCH  29  30
HETATM   30  O3  UNL     1      -3.660   2.489   1.128  1.00  0.00    -0.369 OA
ATOM     31  H3  UNL     1      -4.062   3.007   1.816  1.00  0.00     0.212 HD
ENDBRANCH  29  30
BRANCH  29  32
HETATM   32  O4  UNL     1      -4.497   0.498   1.900  1.00  0.00    -0.369 OA
ATOM     33  H4  UNL     1      -4.899   1.016   2.588  1.00  0.00     0.212 HD
ENDBRANCH  29  32
ENDBRANCH   5  29
TORSDOF 9
