REMARK  2 active torsions:
REMARK  status: ('A' for Active; 'I' for Inactive)
REMARK    1  A    between atoms: N1_3  and  N2_5 
REMARK    2  A    between atoms: N2_5  and  C4_7 
ROOT
HETATM    1  C1  UNL     1       2.074  -1.833   0.702  1.00  0.00     0.038 C 
HETATM    2  C2  UNL     1       1.457  -0.827   0.427  1.00  0.00     0.017 C 
HETATM    3  N1  UNL     1       0.748   0.353   0.119  1.00  0.00    -0.253 N 
HETATM    4  C3  UNL     1       1.461   1.541  -0.328  1.00  0.00     0.189 C 
ENDROOT
BRANCH   3   5
HETATM    5  N2  UNL     1      -0.636   0.433   0.228  1.00  0.00    -0.269 N 
ATOM      6  H2  UNL     1      -1.079   1.194   0.743  1.00  0.00     0.190 HD
BRANCH   5   7
HETATM    7  C4  UNL     1      -1.412  -0.572  -0.397  1.00  0.00     0.200 C 
HETATM    8  N3  UNL     1      -2.815  -0.466  -0.271  1.00  0.00    -0.068 NA
HETATM    9  S1  UNL     1      -0.688  -1.768  -1.208  1.00  0.00    -0.043 SA
ENDBRANCH   5   7
ENDBRANCH   3   5
TORSDOF 2
