REMARK  5 active torsions:
REMARK  status: ('A' for Active; 'I' for Inactive)
REMARK    1  A    between atoms: C2_2  and  C3_3 
REMARK    2  A    between atoms: C6_6  and  C7_7 
REMARK    3  A    between atoms: C12_13  and  C13_14 
REMARK    4  A    between atoms: C13_14  and  C14_15 
REMARK    5  A    between atoms: C19_20  and  O2_21 
ROOT
HETATM    1  C3  UNL     1      -1.482  -1.684   1.454  1.00  0.00    -0.018 C 
HETATM    2  C4  UNL     1      -0.643  -1.145   0.428  1.00  0.00    -0.037 C 
HETATM    3  C5  UNL     1      -0.606   0.319   0.119  1.00  0.00     0.021 C 
HETATM    4  C6  UNL     1      -1.668   1.025   0.021  1.00  0.00     0.016 C 
HETATM    5  C11 UNL     1       0.716   0.972  -0.149  1.00  0.00     0.189 C 
HETATM    6  O1  UNL     1       0.858   2.153   0.228  1.00  0.00    -0.287 OA
HETATM    7  C12 UNL     1       1.857   0.332  -0.819  1.00  0.00    -0.005 C 
HETATM    8  C18 UNL     1       1.815  -0.923  -1.293  1.00  0.00     0.017 C 
HETATM    9  C19 UNL     1       0.890  -2.022  -1.378  1.00  0.00     0.154 C 
HETATM   10  C20 UNL     1      -0.528  -1.842  -0.914  1.00  0.00     0.009 C 
HETATM   11  C21 UNL     1      -1.147  -3.234  -0.899  1.00  0.00     0.023 C 
HETATM   12  C22 UNL     1      -1.240  -1.088  -2.015  1.00  0.00     0.023 C 
ENDROOT
BRANCH   4  13
HETATM   13  C7  UNL     1      -1.791   2.422  -0.268  1.00  0.00     0.003 C 
HETATM   14  C8  UNL     1      -2.968   3.043  -0.333  1.00  0.00    -0.088 C 
HETATM   15  C9  UNL     1      -3.058   4.475  -0.631  1.00  0.00     0.043 C 
HETATM   16  C10 UNL     1      -4.190   2.257  -0.096  1.00  0.00     0.043 C 
ENDBRANCH   4  13
BRANCH   1  17
HETATM   17  C2  UNL     1      -2.930  -1.634   1.564  1.00  0.00     0.023 C 
HETATM   18  C1  UNL     1      -3.323  -2.447   2.848  1.00  0.00     0.009 C 
ENDBRANCH   1  17
BRANCH   7  19
HETATM   19  C13 UNL     1       3.108   1.099  -1.014  1.00  0.00     0.070 C 
BRANCH  19  20
HETATM   20  C14 UNL     1       3.649   1.426   0.345  1.00  0.00    -0.020 C 
HETATM   21  C15 UNL     1       4.838   0.993   0.735  1.00  0.00    -0.091 C 
HETATM   22  C16 UNL     1       5.319   1.348   2.086  1.00  0.00     0.042 C 
HETATM   23  C17 UNL     1       5.698   0.165  -0.142  1.00  0.00     0.042 C 
ENDBRANCH  19  20
ENDBRANCH   7  19
BRANCH   9  24
HETATM   24  O2  UNL     1       0.774  -2.345  -2.758  1.00  0.00    -0.391 OA
ATOM     25  H2  UNL     1       0.163  -3.071  -2.814  1.00  0.00     0.210 HD
ENDBRANCH   9  24
TORSDOF 5
