REMARK  2 active torsions:
REMARK  status: ('A' for Active; 'I' for Inactive)
REMARK    1  A    between atoms: C3_3  and  C5_5 
REMARK    2  A    between atoms: C11_13  and  C12_14 
ROOT
HETATM    1  C5  UNL     1      -1.657   0.150   0.266  1.00  0.00     0.046 C 
HETATM    2  N1  UNL     1      -1.975   1.597   0.470  1.00  0.00    -0.384 N 
ATOM      3  H1  UNL     1      -2.723   1.915   1.086  1.00  0.00     0.160 HD
HETATM    4  C6  UNL     1      -1.126   2.520  -0.286  1.00  0.00     0.082 C 
HETATM    5  C7  UNL     1      -1.665   3.900  -0.318  1.00  0.00     0.032 C 
HETATM    6  C8  UNL     1       0.190   2.440   0.500  1.00  0.00     0.064 C 
HETATM    7  C9  UNL     1       0.642   1.039   0.232  1.00  0.00    -0.042 A 
HETATM    8  C10 UNL     1       1.983   0.869   0.050  1.00  0.00     0.017 A 
HETATM    9  C11 UNL     1       2.514  -0.356  -0.253  1.00  0.00    -0.028 A 
HETATM   10  C15 UNL     1       1.651  -1.414  -0.378  1.00  0.00     0.074 A 
HETATM   11  N2  UNL     1       2.160  -2.685  -0.676  1.00  0.00    -0.100 NA
HETATM   12  C16 UNL     1       0.270  -1.249  -0.200  1.00  0.00     0.082 A 
HETATM   13  C17 UNL     1      -0.522  -2.299  -0.834  1.00  0.00     0.102 C 
HETATM   14  N3  UNL     1      -1.058  -3.157  -1.449  1.00  0.00    -0.191 NA
HETATM   15  C18 UNL     1      -0.241  -0.057   0.113  1.00  0.00     0.020 A 
ENDROOT
BRANCH   9  16
HETATM   16  C12 UNL     1       3.980  -0.501  -0.433  1.00  0.00     0.012 C 
HETATM   17  C13 UNL     1       4.694   0.820  -0.320  1.00  0.00     0.015 C 
HETATM   18  C14 UNL     1       4.525  -1.474   0.615  1.00  0.00     0.015 C 
ENDBRANCH   9  16
BRANCH   1  19
HETATM   19  C3  UNL     1      -2.580  -0.693   0.469  1.00  0.00    -0.039 C 
HETATM   20  C2  UNL     1      -3.143  -1.992   0.549  1.00  0.00    -0.022 C 
HETATM   21  C1  UNL     1      -4.307  -2.299  -0.395  1.00  0.00     0.036 C 
HETATM   22  C4  UNL     1      -3.934   0.208   0.630  1.00  0.00     0.050 C 
ENDBRANCH   1  19
TORSDOF 2
