REMARK  9 active torsions:
REMARK  status: ('A' for Active; 'I' for Inactive)
REMARK    1  A    between atoms: O1_2  and  C2_3 
REMARK    2  A    between atoms: C4_5  and  N1_6 
REMARK    3  A    between atoms: C5_11  and  N4_12 
REMARK    4  A    between atoms: N4_12  and  C6_14 
REMARK    5  A    between atoms: C8_19  and  N7_20 
REMARK    6  A    between atoms: C10_27  and  N9_28 
REMARK    7  A    between atoms: N9_28  and  C11_30 
REMARK    8  A    between atoms: C11_30  and  C12_31 
REMARK    9  A    between atoms: C12_31  and  N10_32 
REMARK       I    between atoms: N10_32  and  C13_34 
ROOT
HETATM    1  N1  UNL     1       1.776  -1.119  -0.116  1.00  0.00    -0.218 N 
HETATM    2  N2  UNL     1       1.324  -2.279  -0.537  1.00  0.00    -0.232 N 
ATOM      3  H2  UNL     1       1.914  -3.032  -0.890  1.00  0.00     0.209 HD
HETATM    4  N3  UNL     1       0.021  -2.344  -0.446  1.00  0.00    -0.267 N 
ATOM      5  H3  UNL     1      -0.554  -3.143  -0.713  1.00  0.00     0.190 HD
HETATM    6  C5  UNL     1      -0.445  -1.156   0.069  1.00  0.00     0.169 A 
HETATM    7  C10 UNL     1       0.666  -0.392   0.272  1.00  0.00     0.174 A 
ENDROOT
BRANCH   6   8
HETATM    8  N4  UNL     1      -1.809  -0.910   0.326  1.00  0.00    -0.331 N 
ATOM      9  H4  UNL     1      -2.089  -0.023   0.745  1.00  0.00     0.168 HD
BRANCH   8  10
HETATM   10  C6  UNL     1      -2.810  -1.889   0.007  1.00  0.00     0.145 A 
HETATM   11  C7  UNL     1      -3.202  -2.847   0.899  1.00  0.00     0.164 A 
HETATM   12  N5  UNL     1      -2.608  -2.876   2.174  1.00  0.00    -0.080 NA
HETATM   13  N6  UNL     1      -4.148  -3.748   0.550  1.00  0.00    -0.177 N 
HETATM   14  C8  UNL     1      -4.712  -3.716  -0.667  1.00  0.00     0.680 A 
ATOM     15  H6  UNL     1      -4.436  -4.461   1.220  1.00  0.00     0.185 HD
HETATM   16  N8  UNL     1      -4.336  -2.781  -1.553  1.00  0.00    -0.154 N 
HETATM   17  C9  UNL     1      -3.386  -1.852  -1.245  1.00  0.00     0.289 A 
ATOM     18  H8  UNL     1      -4.770  -2.765  -2.476  1.00  0.00     0.187 HD
HETATM   19  O2  UNL     1      -3.069  -0.994  -2.114  1.00  0.00    -0.265 OA
BRANCH  14  20
HETATM   20  N7  UNL     1      -5.608  -4.596  -0.950  1.00  0.00    -0.234 N 
ATOM     21  H72 UNL     1      -5.894  -5.307  -0.277  1.00  0.00     0.174 HD
ATOM     22  H71 UNL     1      -6.037  -4.572  -1.875  1.00  0.00     0.174 HD
ENDBRANCH  14  20
ENDBRANCH   8  10
ENDBRANCH   6   8
BRANCH   7  23
HETATM   23  N9  UNL     1       0.801   0.885   0.803  1.00  0.00    -0.350 N 
ATOM     24  H9  UNL     1       1.758   1.188   0.984  1.00  0.00     0.166 HD
BRANCH  23  25
HETATM   25  C11 UNL     1      -0.203   1.816   1.125  1.00  0.00     0.082 C 
BRANCH  25  26
HETATM   26  C12 UNL     1      -0.846   2.522  -0.060  1.00  0.00     0.166 C 
BRANCH  26  27
HETATM   27  N10 UNL     1      -1.862   3.436   0.421  1.00  0.00    -0.360 N 
HETATM   28  C13 UNL     1      -2.596   4.208  -0.535  1.00  0.00     0.182 C 
HETATM   29  N11 UNL     1      -3.799   3.824  -0.797  1.00  0.00    -0.374 N 
HETATM   30  N12 UNL     1      -2.003   5.333  -1.146  1.00  0.00    -0.064 NA
ATOM     31 2H11 UNL     1      -4.228   3.011  -0.355  1.00  0.00     0.158 HD
ATOM     32 1H11 UNL     1      -4.322   4.374  -1.478  1.00  0.00     0.158 HD
ATOM     33  H10 UNL     1      -2.050   3.527   1.419  1.00  0.00     0.162 HD
ENDBRANCH  26  27
ENDBRANCH  25  26
ENDBRANCH  23  25
ENDBRANCH   7  23
BRANCH   1  34
HETATM   34  C4  UNL     1       3.133  -0.705  -0.074  1.00  0.00     0.107 A 
HETATM   35  C3  UNL     1       3.858  -0.324  -1.182  1.00  0.00     0.091 A 
HETATM   36  C2  UNL     1       5.172   0.074  -1.122  1.00  0.00     0.146 A 
HETATM   37  N13 UNL     1       5.787   0.094   0.072  1.00  0.00    -0.311 N 
HETATM   38  C15 UNL     1       5.145  -0.267   1.215  1.00  0.00     0.231 A 
ATOM     39  H13 UNL     1       6.762   0.388   0.123  1.00  0.00     0.170 HD
HETATM   40  C14 UNL     1       3.835  -0.659   1.129  1.00  0.00     0.201 A 
HETATM   41  F2  UNL     1       5.848  -0.211   2.358  1.00  0.00    -0.183 F 
HETATM   42  F1  UNL     1       3.213  -1.014   2.276  1.00  0.00    -0.199 F 
BRANCH  36  43
HETATM   43  O1  UNL     1       5.899   0.457  -2.239  1.00  0.00    -0.341 OA
HETATM   44  C1  UNL     1       7.229   0.864  -2.210  1.00  0.00     0.211 C 
ENDBRANCH  36  43
ENDBRANCH   1  34
TORSDOF 9
