REMARK  9 active torsions:
REMARK  status: ('A' for Active; 'I' for Inactive)
REMARK    1  A    between atoms: C2_2  and  C3_3 
REMARK    2  A    between atoms: C2_2  and  C4_7 
REMARK    3  A    between atoms: C5_8  and  O1_9 
REMARK    4  A    between atoms: C7_11  and  O2_12 
REMARK    5  A    between atoms: C9_16  and  C10_17 
REMARK    6  A    between atoms: C10_17  and  O4_18 
REMARK    7  A    between atoms: C10_17  and  O5_20 
REMARK    8  A    between atoms: O5_20  and  C11_21 
REMARK    9  A    between atoms: C16_27  and  O7_28 
ROOT
HETATM    1  C4  UNL     1      -2.350   0.155   0.233  1.00  0.00     0.045 A 
HETATM    2  C5  UNL     1      -2.103  -0.226  -1.050  1.00  0.00     0.118 A 
HETATM    3  C7  UNL     1      -0.800  -0.475  -1.430  1.00  0.00     0.135 A 
HETATM    4  C8  UNL     1       0.221  -0.337  -0.525  1.00  0.00     0.128 A 
HETATM    5  O3  UNL     1       1.433  -0.569  -0.889  1.00  0.00    -0.306 OA
HETATM    6  C9  UNL     1       2.475  -0.465  -0.112  1.00  0.00     0.112 A 
HETATM    7  C13 UNL     1       2.283  -0.081   1.193  1.00  0.00     0.093 A 
HETATM    8  C14 UNL     1       1.006   0.195   1.693  1.00  0.00     0.190 A 
HETATM    9  O6  UNL     1       0.837   0.545   2.873  1.00  0.00    -0.287 OA
HETATM   10  C15 UNL     1      -0.039   0.055   0.788  1.00  0.00     0.085 A 
HETATM   11  C16 UNL     1      -1.337   0.307   1.185  1.00  0.00     0.099 A 
ENDROOT
BRANCH   1  12
HETATM   12  C2  UNL     1      -3.710   0.424   0.679  1.00  0.00    -0.015 C 
HETATM   13  C1  UNL     1      -4.555  -0.531   0.969  1.00  0.00     0.026 C 
BRANCH  12  14
HETATM   14  C3  UNL     1      -4.123   1.806   0.779  1.00  0.00     0.092 C 
HETATM   15  N1  UNL     1      -5.296   2.119   1.145  1.00  0.00    -0.407 N 
ATOM     16  H12 UNL     1      -5.949   1.369   1.370  1.00  0.00     0.155 HD
ATOM     17  H11 UNL     1      -5.587   3.094   1.216  1.00  0.00     0.155 HD
ENDBRANCH  12  14
ENDBRANCH   1  12
BRANCH   2  18
HETATM   18  O1  UNL     1      -3.119  -0.364  -1.960  1.00  0.00    -0.352 OA
HETATM   19  C6  UNL     1      -3.761  -1.596  -2.146  1.00  0.00     0.210 C 
ENDBRANCH   2  18
BRANCH  11  20
HETATM   20  O7  UNL     1      -1.667   0.698   2.471  1.00  0.00    -0.354 OA
HETATM   21  C17 UNL     1      -2.008  -0.322   3.406  1.00  0.00     0.210 C 
ENDBRANCH  11  20
BRANCH   3  22
HETATM   22  O2  UNL     1      -0.580  -0.864  -2.745  1.00  0.00    -0.356 OA
ATOM     23  H2  UNL     1       0.317  -1.035  -3.007  1.00  0.00     0.218 HD
ENDBRANCH   3  22
BRANCH   6  24
HETATM   24  C10 UNL     1       3.844  -0.750  -0.603  1.00  0.00     0.315 C 
BRANCH  24  25
HETATM   25  O4  UNL     1       3.890  -1.918  -1.363  1.00  0.00    -0.365 OA
ATOM     26  H4  UNL     1       4.768  -2.101  -1.678  1.00  0.00     0.213 HD
ENDBRANCH  24  25
BRANCH  24  27
HETATM   27  O5  UNL     1       4.319   0.289  -1.391  1.00  0.00    -0.355 OA
BRANCH  27  28
HETATM   28  C11 UNL     1       5.463   0.852  -0.826  1.00  0.00     0.167 C 
HETATM   29  C12 UNL     1       5.988   1.985  -1.679  1.00  0.00     0.033 C 
ENDBRANCH  27  28
ENDBRANCH  24  27
ENDBRANCH   6  24
TORSDOF 9
