REMARK  0 active torsions:
REMARK  status: ('A' for Active; 'I' for Inactive)
REMARK       I    between atoms: C1_4  and  N3_6 
REMARK       I    between atoms: N3_6  and  C2_8 
ROOT
HETATM    1  N1  UNL     1       2.826  -0.444  -1.663  1.00  0.00    -0.373 N 
ATOM      2  H11 UNL     1       2.408  -0.265  -2.576  1.00  0.00     0.158 HD
ATOM      3  H12 UNL     1       3.604  -1.098  -1.582  1.00  0.00     0.158 HD
HETATM    4  C1  UNL     1       2.407   0.129  -0.595  1.00  0.00     0.200 C 
HETATM    5  N2  UNL     1       2.997  -0.124   0.695  1.00  0.00    -0.063 NA
HETATM    6  N3  UNL     1       1.322   1.041  -0.708  1.00  0.00    -0.162 N 
ATOM      7  H3  UNL     1       1.473   1.997  -1.028  1.00  0.00     0.187 HD
HETATM    8  C2  UNL     1       0.135   0.625  -0.393  1.00  0.00     0.702 C 
HETATM    9  N4  UNL     1      -0.883   1.492  -0.502  1.00  0.00    -0.129 N 
ATOM     10  H4  UNL     1      -0.588   2.436  -0.752  1.00  0.00     0.205 HD
HETATM   11  N5  UNL     1      -2.192   1.371  -0.351  1.00  0.00    -0.249 N 
ATOM     12  H5  UNL     1      -2.766   2.145  -0.684  1.00  0.00     0.191 HD
HETATM   13  C3  UNL     1      -2.841   0.328   0.198  1.00  0.00     0.316 C 
HETATM   14  O1  UNL     1      -4.093   0.444   0.240  1.00  0.00    -0.262 OA
HETATM   15  C4  UNL     1      -2.331  -0.846   0.719  1.00  0.00     0.308 C 
HETATM   16  O2  UNL     1      -3.106  -1.642   1.281  1.00  0.00    -0.276 OA
HETATM   17  C5  UNL     1      -1.014  -1.244   0.683  1.00  0.00     0.315 C 
HETATM   18  O3  UNL     1      -0.722  -2.264   1.327  1.00  0.00    -0.263 OA
HETATM   19  N6  UNL     1       0.021  -0.650   0.020  1.00  0.00    -0.151 N 
ATOM     20  H6  UNL     1       0.815  -1.255  -0.191  1.00  0.00     0.188 HD
ENDROOT
TORSDOF 0
