REMARK  14 active torsions:
REMARK  status: ('A' for Active; 'I' for Inactive)
REMARK    1  A    between atoms: C2_2  and  O1_3 
REMARK    2  A    between atoms: C2_2  and  C12_38 
REMARK    3  A    between atoms: O1_3  and  C3_4 
REMARK    4  A    between atoms: C3_4  and  N1_5 
REMARK    5  A    between atoms: C4_6  and  O2_7 
REMARK    6  A    between atoms: N3_13  and  N4_14 
REMARK    7  A    between atoms: N4_14  and  C7_16 
REMARK    8  A    between atoms: C8_19  and  N6_20 
REMARK    9  A    between atoms: C12_38  and  O3_39 
REMARK   10  A    between atoms: C12_38  and  O4_41 
REMARK   11  A    between atoms: C12_38  and  C13_43 
REMARK   12  A    between atoms: C13_43  and  O5_44 
REMARK   13  A    between atoms: C13_43  and  C14_46 
REMARK       I    between atoms: C14_46  and  N12_48 
REMARK   14  A    between atoms: N12_48  and  C15_50 
ROOT
HETATM    1  N1  UNL     1       0.637  -0.029   0.219  1.00  0.00    -0.138 N 
HETATM    2  C4  UNL     1       1.095   0.625   1.333  1.00  0.00     0.191 A 
HETATM    3  C5  UNL     1       2.412   0.420   1.670  1.00  0.00     0.132 A 
HETATM    4  N2  UNL     1       3.154   0.904   2.684  1.00  0.00    -0.344 N 
ATOM      5  H2  UNL     1       2.829   1.543   3.409  1.00  0.00     0.167 HD
HETATM    6  C6  UNL     1       4.405   0.398   2.577  1.00  0.00     0.210 A 
HETATM    7  N3  UNL     1       4.481  -0.409   1.505  1.00  0.00    -0.218 N 
HETATM    8  C10 UNL     1       3.253  -0.394   0.948  1.00  0.00     0.175 A 
HETATM    9  N10 UNL     1       2.768  -1.009  -0.123  1.00  0.00    -0.172 N 
ATOM     10  H10 UNL     1       3.370  -1.619  -0.677  1.00  0.00     0.186 HD
HETATM   11  C11 UNL     1       1.457  -0.825  -0.486  1.00  0.00     0.683 A 
HETATM   12  N11 UNL     1       1.022  -1.454  -1.531  1.00  0.00    -0.234 N 
ATOM     13 1H11 UNL     1       1.645  -2.059  -2.067  1.00  0.00     0.174 HD
ATOM     14 2H11 UNL     1       0.048  -1.317  -1.801  1.00  0.00     0.174 HD
ENDROOT
BRANCH   1  15
HETATM   15  C3  UNL     1      -0.750   0.179  -0.146  1.00  0.00     0.327 C 
BRANCH  15  16
HETATM   16  O1  UNL     1      -1.551  -0.795   0.461  1.00  0.00    -0.330 OA
BRANCH  16  17
HETATM   17  C2  UNL     1      -2.934  -0.866   0.306  1.00  0.00     0.108 C 
HETATM   18  C1  UNL     1      -3.664  -0.518   1.325  1.00  0.00     0.052 C 
BRANCH  17  19
HETATM   19  C12 UNL     1      -3.487  -1.315  -0.957  1.00  0.00     0.267 C 
BRANCH  19  20
HETATM   20  O3  UNL     1      -2.965  -2.612  -1.204  1.00  0.00    -0.355 OA
ATOM     21  H3  UNL     1      -3.327  -2.906  -2.031  1.00  0.00     0.214 HD
ENDBRANCH  19  20
BRANCH  19  22
HETATM   22  O4  UNL     1      -3.089  -0.454  -2.003  1.00  0.00    -0.355 OA
ATOM     23  H4  UNL     1      -3.451  -0.748  -2.830  1.00  0.00     0.214 HD
ENDBRANCH  19  22
BRANCH  19  24
HETATM   24  C13 UNL     1      -4.970  -1.462  -1.049  1.00  0.00     0.181 C 
BRANCH  24  25
HETATM   25  O5  UNL     1      -5.475  -2.354  -0.143  1.00  0.00    -0.355 OA
ATOM     26  H5  UNL     1      -6.419  -2.448  -0.202  1.00  0.00     0.217 HD
ENDBRANCH  24  25
BRANCH  24  27
HETATM   27  C14 UNL     1      -5.707  -0.221  -1.257  1.00  0.00     0.276 C 
HETATM   28  O6  UNL     1      -5.191   0.639  -2.025  1.00  0.00    -0.266 OA
HETATM   29  N12 UNL     1      -6.934   0.051  -0.657  1.00  0.00    -0.356 N 
ATOM     30  H12 UNL     1      -7.363  -0.634  -0.035  1.00  0.00     0.162 HD
BRANCH  29  31
HETATM   31  C15 UNL     1      -7.600   1.316  -0.922  1.00  0.00     0.118 C 
HETATM   32  C16 UNL     1      -8.916   1.413  -0.177  1.00  0.00     0.026 C 
ENDBRANCH  29  31
ENDBRANCH  24  27
ENDBRANCH  19  24
ENDBRANCH  17  19
ENDBRANCH  16  17
ENDBRANCH  15  16
ENDBRANCH   1  15
BRANCH   2  33
HETATM   33  O2  UNL     1       0.278   1.448   2.078  1.00  0.00    -0.344 OA
ATOM     34  H2  UNL     1       0.595   1.901   2.850  1.00  0.00     0.219 HD
ENDBRANCH   2  33
BRANCH   7  35
HETATM   35  N4  UNL     1       5.639  -1.083   1.124  1.00  0.00    -0.122 N 
ATOM     36  H4  UNL     1       5.658  -2.091   1.281  1.00  0.00     0.206 HD
BRANCH  35  37
HETATM   37  C7  UNL     1       6.665  -0.570   0.605  1.00  0.00     0.726 A 
HETATM   38  N5  UNL     1       6.722   0.747   0.365  1.00  0.00    -0.020 N 
HETATM   39  C8  UNL     1       7.800   1.343  -0.188  1.00  0.00     0.705 A 
ATOM     40  H5  UNL     1       5.917   1.324   0.610  1.00  0.00     0.203 HD
HETATM   41  N7  UNL     1       8.849   0.589  -0.508  1.00  0.00    -0.022 N 
HETATM   42  C9  UNL     1       8.815  -0.735  -0.277  1.00  0.00     0.705 A 
ATOM     43  H7  UNL     1       9.676   1.014  -0.927  1.00  0.00     0.203 HD
HETATM   44  N8  UNL     1       9.830  -1.452  -0.588  1.00  0.00    -0.234 N 
HETATM   45  N9  UNL     1       7.720  -1.331   0.284  1.00  0.00    -0.020 N 
ATOM     46  H82 UNL     1      10.647  -1.007  -1.007  1.00  0.00     0.174 HD
ATOM     47  H81 UNL     1       9.804  -2.456  -0.413  1.00  0.00     0.174 HD
ATOM     48  H9  UNL     1       7.706  -2.336   0.455  1.00  0.00     0.203 HD
BRANCH  39  49
HETATM   49  N6  UNL     1       7.791   2.617  -0.393  1.00  0.00    -0.234 N 
ATOM     50  H62 UNL     1       6.987   3.195  -0.148  1.00  0.00     0.174 HD
ATOM     51  H61 UNL     1       8.605   3.067  -0.811  1.00  0.00     0.174 HD
ENDBRANCH  39  49
ENDBRANCH  35  37
ENDBRANCH   7  35
TORSDOF 14
