REMARK  4 active torsions:
REMARK  status: ('A' for Active; 'I' for Inactive)
REMARK    1  A    between atoms: O1_2  and  C2_3 
REMARK    2  A    between atoms: C7_8  and  C8_9 
REMARK    3  A    between atoms: C8_9  and  N1_10 
REMARK    4  A    between atoms: N1_10  and  C9_12 
ROOT
HETATM    1  C9  UNL     1       1.176  -0.629  -0.110  1.00  0.00     0.131 A 
HETATM    2  N2  UNL     1       0.782  -1.428  -1.118  1.00  0.00    -0.337 N 
ATOM      3  H2  UNL     1      -0.135  -1.873  -1.081  1.00  0.00     0.168 HD
HETATM    4  C10 UNL     1       1.596  -1.649  -2.187  1.00  0.00     0.182 A 
HETATM    5  N3  UNL     1       2.802  -1.060  -2.229  1.00  0.00    -0.350 N 
ATOM      6  H3  UNL     1       3.407  -1.229  -3.032  1.00  0.00     0.166 HD
HETATM    7  C11 UNL     1       3.239  -0.247  -1.235  1.00  0.00     0.065 A 
HETATM    8  C12 UNL     1       4.398   0.472  -1.019  1.00  0.00     0.056 A 
HETATM    9  C13 UNL     1       4.299   1.136   0.185  1.00  0.00     0.008 A 
HETATM   10  C14 UNL     1       5.326   2.035   0.819  1.00  0.00     0.068 C 
HETATM   11  N4  UNL     1       3.089   0.816   0.683  1.00  0.00    -0.355 N 
ATOM     12  H4  UNL     1       2.719   1.156   1.571  1.00  0.00     0.166 HD
HETATM   13  C15 UNL     1       2.436  -0.012  -0.150  1.00  0.00     0.103 A 
ENDROOT
BRANCH   1  14
HETATM   14  N1  UNL     1       0.489  -0.363   0.936  1.00  0.00    -0.370 N 
ATOM     15  H1  UNL     1       0.877   0.258   1.646  1.00  0.00     0.161 HD
BRANCH  14  16
HETATM   16  C8  UNL     1      -0.818  -0.923   1.127  1.00  0.00     0.162 C 
BRANCH  16  17
HETATM   17  C7  UNL     1      -1.823  -0.051   0.504  1.00  0.00    -0.007 A 
HETATM   18  C2  UNL     1      -3.161  -0.434   0.575  1.00  0.00     0.076 A 
HETATM   19  C3  UNL     1      -4.121   0.363   0.007  1.00  0.00     0.037 A 
HETATM   20  C4  UNL     1      -3.761   1.536  -0.631  1.00  0.00     0.003 A 
HETATM   21  C5  UNL     1      -2.442   1.921  -0.705  1.00  0.00     0.001 A 
HETATM   22  C6  UNL     1      -1.453   1.116  -0.129  1.00  0.00     0.011 A 
BRANCH  18  23
HETATM   23  O1  UNL     1      -3.469  -1.615   1.223  1.00  0.00    -0.355 OA
HETATM   24  C1  UNL     1      -4.774  -2.108   1.362  1.00  0.00     0.210 C 
ENDBRANCH  18  23
ENDBRANCH  16  17
ENDBRANCH  14  16
ENDBRANCH   1  14
TORSDOF 4
