REMARK  10 active torsions:
REMARK  status: ('A' for Active; 'I' for Inactive)
REMARK    1  A    between atoms: C2_2  and  C3_3 
REMARK    2  A    between atoms: C3_3  and  C5_5 
REMARK    3  A    between atoms: C8_11  and  C9_12 
REMARK    4  A    between atoms: C9_12  and  C10_13 
REMARK    5  A    between atoms: C16_22  and  C17_23 
REMARK    6  A    between atoms: C17_23  and  C18_24 
REMARK    7  A    between atoms: C21_29  and  C22_30 
REMARK    8  A    between atoms: C26_37  and  C27_38 
REMARK    9  A    between atoms: C27_38  and  C28_39 
REMARK   10  A    between atoms: C31_42  and  O4_43 
ROOT
HETATM    1  C5  UNL     1      -2.970   1.218   0.051  1.00  0.00     0.095 C 
HETATM    2  C6  UNL     1      -2.356  -0.140  -0.010  1.00  0.00     0.128 C 
HETATM    3  C7  UNL     1      -2.154  -0.745   1.326  1.00  0.00     0.220 C 
HETATM    4  O1  UNL     1      -1.985   0.046   2.330  1.00  0.00    -0.274 OA
HETATM    5  N1  UNL     1      -2.122  -2.118   1.647  1.00  0.00    -0.348 N 
ATOM      6  H1  UNL     1      -2.833  -2.436   2.306  1.00  0.00     0.163 HD
HETATM    7  C8  UNL     1      -1.213  -3.132   1.164  1.00  0.00     0.177 C 
HETATM    8  C13 UNL     1      -0.533  -2.755  -0.092  1.00  0.00     0.240 C 
HETATM    9  O2  UNL     1      -1.156  -2.888  -1.201  1.00  0.00    -0.271 OA
HETATM   10  N2  UNL     1       0.774  -2.255  -0.115  1.00  0.00    -0.359 N 
ATOM     11  H2  UNL     1       0.933  -1.458  -0.731  1.00  0.00     0.162 HD
HETATM   12  C14 UNL     1       1.910  -2.713   0.609  1.00  0.00     0.128 C 
HETATM   13  C15 UNL     1       2.947  -1.614   0.840  1.00  0.00     0.072 C 
HETATM   14  C16 UNL     1       3.348  -0.886  -0.413  1.00  0.00    -0.011 C 
HETATM   15  N3  UNL     1       2.806   0.346  -0.681  1.00  0.00    -0.362 N 
ATOM     16  H3  UNL     1       2.336   0.402  -1.585  1.00  0.00     0.165 HD
HETATM   17  C21 UNL     1       2.775   1.506   0.027  1.00  0.00     0.081 C 
HETATM   18  C25 UNL     1       1.619   1.847   0.882  1.00  0.00     0.265 C 
HETATM   19  O3  UNL     1       1.769   1.789   2.128  1.00  0.00    -0.266 OA
HETATM   20  N4  UNL     1       0.331   2.242   0.414  1.00  0.00    -0.344 N 
ATOM     21  H4  UNL     1      -0.458   2.145   1.053  1.00  0.00     0.163 HD
HETATM   22  C26 UNL     1       0.071   2.765  -0.892  1.00  0.00     0.159 C 
HETATM   23  C31 UNL     1      -1.243   2.415  -1.485  1.00  0.00     0.135 C 
HETATM   24  N5  UNL     1      -2.480   2.191  -0.873  1.00  0.00    -0.367 N 
ATOM     25  H5  UNL     1      -3.188   2.872  -1.146  1.00  0.00     0.161 HD
ENDROOT
BRANCH   1  26
HETATM   26  C3  UNL     1      -4.508   1.147  -0.045  1.00  0.00     0.004 C 
HETATM   27  C4  UNL     1      -4.991   0.842  -1.414  1.00  0.00     0.012 C 
BRANCH  26  28
HETATM   28  C2  UNL     1      -5.121   0.352   1.046  1.00  0.00     0.002 C 
HETATM   29  C1  UNL     1      -6.643   0.550   1.113  1.00  0.00     0.005 C 
ENDBRANCH  26  28
ENDBRANCH   1  26
BRANCH  23  30
HETATM   30  O4  UNL     1      -1.149   2.322  -2.785  1.00  0.00    -0.348 OA
ATOM     31  H4  UNL     1      -1.990   2.098  -3.165  1.00  0.00     0.219 HD
ENDBRANCH  23  30
BRANCH  22  32
HETATM   32  C27 UNL     1       0.404   4.205  -1.063  1.00  0.00     0.037 C 
BRANCH  32  33
HETATM   33  C28 UNL     1      -0.250   5.222  -0.241  1.00  0.00    -0.020 C 
HETATM   34  C29 UNL     1      -0.059   5.098   1.257  1.00  0.00     0.009 C 
HETATM   35  C30 UNL     1      -1.685   5.524  -0.481  1.00  0.00     0.009 C 
ENDBRANCH  32  33
ENDBRANCH  22  32
BRANCH   7  36
HETATM   36  C9  UNL     1      -1.829  -4.492   1.081  1.00  0.00     0.038 C 
BRANCH  36  37
HETATM   37  C10 UNL     1      -2.991  -4.714   0.204  1.00  0.00    -0.020 C 
HETATM   38  C11 UNL     1      -4.232  -3.911   0.502  1.00  0.00     0.009 C 
HETATM   39  C12 UNL     1      -3.469  -6.190   0.329  1.00  0.00     0.009 C 
ENDBRANCH  36  37
ENDBRANCH   7  36
BRANCH  17  40
HETATM   40  C22 UNL     1       4.081   1.956   0.704  1.00  0.00     0.033 C 
HETATM   41  C23 UNL     1       3.852   3.262   1.450  1.00  0.00     0.016 C 
HETATM   42  C24 UNL     1       5.087   2.321  -0.400  1.00  0.00     0.016 C 
ENDBRANCH  17  40
BRANCH  14  43
HETATM   43  C17 UNL     1       4.847  -1.064  -0.693  1.00  0.00     0.056 C 
BRANCH  43  44
HETATM   44  C18 UNL     1       5.200  -2.528  -0.886  1.00  0.00    -0.018 C 
HETATM   45  C19 UNL     1       6.716  -2.523  -1.152  1.00  0.00     0.010 C 
HETATM   46  C20 UNL     1       4.577  -3.110  -2.128  1.00  0.00     0.010 C 
ENDBRANCH  43  44
ENDBRANCH  14  43
TORSDOF 10
