REMARK  1 active torsions:
REMARK  status: ('A' for Active; 'I' for Inactive)
REMARK    1  A    between atoms: C2_2  and  N1_3 
ROOT
HETATM    1  N1  UNL     1       0.750   0.047   0.140  1.00  0.00    -0.262 NA
HETATM    2  C3  UNL     1       0.091   0.589  -0.936  1.00  0.00     0.098 C 
HETATM    3  C4  UNL     1      -1.161   1.435  -0.867  1.00  0.00     0.026 C 
HETATM    4  C5  UNL     1      -2.321   0.696  -0.116  1.00  0.00     0.081 C 
HETATM    5  C6  UNL     1      -1.735  -0.409   0.527  1.00  0.00    -0.179 C 
HETATM    6  C7  UNL     1      -1.008  -1.451   1.121  1.00  0.00     0.133 C 
HETATM    7  C8  UNL     1       0.468  -1.320   0.615  1.00  0.00     0.259 C 
HETATM    8  F1  UNL     1       0.605  -2.127  -0.500  1.00  0.00    -0.232 F 
ENDROOT
BRANCH   1   9
HETATM    9  C2  UNL     1       2.136  -0.145  -0.294  1.00  0.00     0.052 C 
HETATM   10  C1  UNL     1       3.166   0.430   0.244  1.00  0.00     0.024 C 
ENDBRANCH   1   9
TORSDOF 1
