REMARK  1 active torsions:
REMARK  status: ('A' for Active; 'I' for Inactive)
REMARK    1  A    between atoms: C4_5  and  C5_6 
ROOT
HETATM    1  C1  UNL     1      -2.165   0.800   1.308  1.00  0.00     0.309 C 
HETATM    2  N1  UNL     1      -1.704   0.346  -0.009  1.00  0.00     0.084 N 
HETATM    3  C2  UNL     1      -0.759   1.223  -0.569  1.00  0.00     0.272 C 
HETATM    4  C3  UNL     1       0.678   0.826  -0.478  1.00  0.00     0.039 C 
HETATM    5  C4  UNL     1       0.906  -0.656  -0.674  1.00  0.00     0.013 C 
HETATM    6  C7  UNL     1       0.075  -1.310   0.411  1.00  0.00     0.039 C 
HETATM    7  C8  UNL     1      -1.356  -1.037   0.072  1.00  0.00     0.272 C 
ENDROOT
BRANCH   5   8
HETATM    8  C5  UNL     1       2.349  -0.960  -0.528  1.00  0.00     0.007 C 
HETATM    9  C6  UNL     1       3.227   0.012  -0.355  1.00  0.00     0.184 C 
HETATM   10  F1  UNL     1       4.535  -0.314  -0.226  1.00  0.00    -0.220 F 
ENDBRANCH   5   8
TORSDOF 1
