REMARK  3 active torsions:
REMARK  status: ('A' for Active; 'I' for Inactive)
REMARK    1  A    between atoms: N1_2  and  N2_4 
REMARK    2  A    between atoms: C4_9  and  N3_11 
REMARK    3  A    between atoms: N3_11  and  N4_12 
ROOT
HETATM    1  N2  UNL     1      -1.795   0.578   0.590  1.00  0.00    -0.311 N 
ATOM      2  H2  UNL     1      -1.876   1.174   1.414  1.00  0.00     0.186 HD
HETATM    3  C2  UNL     1      -0.643   0.065   0.279  1.00  0.00     0.031 C 
HETATM    4  C3  UNL     1      -0.331  -0.822  -0.879  1.00  0.00     0.224 C 
HETATM    5  O1  UNL     1       0.991  -0.569  -1.193  1.00  0.00    -0.357 OA
HETATM    6  C4  UNL     1       1.644  -0.174  -0.054  1.00  0.00     0.151 C 
HETATM    7  C5  UNL     1       2.410  -1.398   0.467  1.00  0.00     0.068 C 
HETATM    8  C6  UNL     1       0.655   0.218   0.976  1.00  0.00     0.113 C 
ENDROOT
BRANCH   1   9
HETATM    9  N1  UNL     1      -2.922   0.322  -0.191  1.00  0.00    -0.341 N 
HETATM   10  C1  UNL     1      -4.191   0.019   0.384  1.00  0.00     0.167 C 
ATOM     11  H1  UNL     1      -2.835   0.353  -1.207  1.00  0.00     0.179 HD
ENDBRANCH   1   9
BRANCH   6  12
HETATM   12  N3  UNL     1       2.643   0.826  -0.336  1.00  0.00    -0.109 NA
BRANCH  12  13
HETATM   13  N4  UNL     1       2.148   1.977  -0.903  1.00  0.00    -0.346 N 
ATOM     14  H42 UNL     1       1.155   2.097  -1.101  1.00  0.00     0.172 HD
ATOM     15  H41 UNL     1       2.855   2.685  -1.103  1.00  0.00     0.172 HD
ENDBRANCH  12  13
ENDBRANCH   6  12
TORSDOF 3
