REMARK  6 active torsions:
REMARK  status: ('A' for Active; 'I' for Inactive)
REMARK       I    between atoms: N2_7  and  C4_8 
REMARK       I    between atoms: C4_8  and  N3_10 
REMARK    1  A    between atoms: N3_10  and  O2_12 
REMARK    2  A    between atoms: O2_12  and  N4_13 
REMARK    3  A    between atoms: C5_14  and  C6_15 
REMARK    4  A    between atoms: C6_15  and  O3_16 
REMARK    5  A    between atoms: N5_18  and  O4_20 
REMARK    6  A    between atoms: N8_29  and  N9_30 
ROOT
HETATM    1  N1  UNL     1      -4.940  -0.613  -2.363  1.00  0.00    -0.402 N 
ATOM      2  H11 UNL     1      -5.003  -0.407  -3.360  1.00  0.00     0.155 HD
ATOM      3  H12 UNL     1      -5.819  -0.349  -2.808  1.00  0.00     0.155 HD
HETATM    4  C1  UNL     1      -4.120  -0.952  -1.452  1.00  0.00     0.027 A 
HETATM    5  C2  UNL     1      -4.026  -1.261   0.040  1.00  0.00     0.154 A 
HETATM    6  C3  UNL     1      -2.854  -1.332  -0.812  1.00  0.00     0.161 A 
HETATM    7  N2  UNL     1      -1.896  -0.318  -0.402  1.00  0.00    -0.319 N 
HETATM    8  C4  UNL     1      -0.602  -0.718   0.009  1.00  0.00     0.344 C 
HETATM    9  O1  UNL     1      -0.307  -1.955   0.004  1.00  0.00    -0.245 OA
HETATM   10  N3  UNL     1       0.395   0.202   0.435  1.00  0.00    -0.194 N 
ATOM     11  H3  UNL     1       0.169   1.197   0.444  1.00  0.00     0.201 HD
HETATM   12  C8  UNL     1      -2.388   1.034  -0.445  1.00  0.00     0.144 C 
HETATM   13  C9  UNL     1      -3.788   1.143   0.130  1.00  0.00     0.134 C 
HETATM   14  N8  UNL     1      -4.181  -0.070   0.826  1.00  0.00    -0.224 NA
ENDROOT
BRANCH  10  15
HETATM   15  O2  UNL     1       1.585  -0.170   0.815  1.00  0.00    -0.140 OA
BRANCH  15  16
HETATM   16  N4  UNL     1       2.629  -0.054   0.085  1.00  0.00     0.141 NA
HETATM   17  C5  UNL     1       3.722   0.503   0.909  1.00  0.00     0.227 C 
HETATM   18  C7  UNL     1       4.390   1.492   0.016  1.00  0.00     0.192 C 
HETATM   19  N6  UNL     1       3.224   1.907  -0.807  1.00  0.00     0.086 NA
HETATM   20  N7  UNL     1       2.697   0.613  -1.073  1.00  0.00     0.457 N 
HETATM   21  O5  UNL     1       3.665   0.019  -1.857  1.00  0.00     0.016 OA
HETATM   22  O6  UNL     1       1.620   0.697  -1.836  1.00  0.00     0.016 OA
BRANCH  17  23
HETATM   23  C6  UNL     1       4.504  -0.559   1.489  1.00  0.00     0.160 C 
HETATM   24  N5  UNL     1       5.675  -0.886   1.210  1.00  0.00    -0.249 N 
ATOM     25  H5  UNL     1       6.009  -1.674   1.765  1.00  0.00     0.196 HD
BRANCH  23  26
HETATM   26  O3  UNL     1       3.855  -1.328   2.504  1.00  0.00    -0.347 OA
ATOM     27  H3  UNL     1       4.371  -2.028   2.886  1.00  0.00     0.219 HD
ENDBRANCH  23  26
BRANCH  24  28
HETATM   28  O4  UNL     1       6.591  -0.435   0.346  1.00  0.00    -0.288 OA
ATOM     29  H4  UNL     1       7.483  -0.684   0.134  1.00  0.00     0.244 HD
ENDBRANCH  24  28
ENDBRANCH  17  23
ENDBRANCH  15  16
ENDBRANCH  10  15
BRANCH  14  30
HETATM   30  N9  UNL     1      -5.553   0.064   1.110  1.00  0.00    -0.362 NA
ATOM     31  H92 UNL     1      -5.829  -0.788   1.599  1.00  0.00     0.171 HD
ATOM     32  H91 UNL     1      -5.663   0.910   1.669  1.00  0.00     0.171 HD
ENDBRANCH  14  30
TORSDOF 6
