REMARK  13 active torsions:
REMARK  status: ('A' for Active; 'I' for Inactive)
REMARK    1  A    between atoms: C2_2  and  C3_3 
REMARK    2  A    between atoms: C3_3  and  C4_4 
REMARK    3  A    between atoms: C4_4  and  C5_5 
REMARK    4  A    between atoms: C4_4  and  C30_43 
REMARK    5  A    between atoms: C5_5  and  C6_6 
REMARK    6  A    between atoms: C6_6  and  O1_9 
REMARK    7  A    between atoms: O1_9  and  C9_10 
REMARK       I    between atoms: C9_10  and  N1_12 
REMARK    8  A    between atoms: N1_12  and  C10_13 
REMARK    9  A    between atoms: C10_13  and  C11_14 
REMARK   10  A    between atoms: C10_13  and  C26_39 
REMARK       I    between atoms: C11_14  and  N2_16 
REMARK   11  A    between atoms: C13_18  and  C14_19 
REMARK   12  A    between atoms: C20_29  and  C21_30 
REMARK       I    between atoms: C21_30  and  N5_32 
REMARK   13  A    between atoms: N5_32  and  C22_34 
ROOT
HETATM    1  C22 UNL     1       5.912   4.508   1.106  1.00  0.00     0.122 A 
HETATM    2  C23 UNL     1       6.489   4.875  -0.217  1.00  0.00     0.091 C 
HETATM    3  N6  UNL     1       6.946   5.145  -1.229  1.00  0.00    -0.195 NA
HETATM    4  C24 UNL     1       6.626   5.221   2.264  1.00  0.00     0.050 A 
HETATM    5  C25 UNL     1       5.229   5.545   1.855  1.00  0.00     0.050 A 
ENDROOT
BRANCH   1   6
HETATM    6  N5  UNL     1       5.782   3.092   1.293  1.00  0.00    -0.337 N 
HETATM    7  C21 UNL     1       4.993   2.258   0.413  1.00  0.00     0.243 C 
HETATM    8  O4  UNL     1       4.452   2.875  -0.500  1.00  0.00    -0.271 OA
ATOM      9  H5  UNL     1       6.265   2.655   2.078  1.00  0.00     0.164 HD
BRANCH   7  10
HETATM   10  C20 UNL     1       4.918   0.858   0.674  1.00  0.00     0.196 C 
HETATM   11  N2  UNL     1       3.772   0.043   0.528  1.00  0.00    -0.332 N 
HETATM   12  C11 UNL     1       2.556   0.402   0.015  1.00  0.00     0.257 C 
HETATM   13  C12 UNL     1       4.022  -1.352   0.978  1.00  0.00     0.156 C 
HETATM   14  O3  UNL     1       2.376   1.654  -0.120  1.00  0.00    -0.270 OA
HETATM   15  C13 UNL     1       5.395  -1.825   0.855  1.00  0.00     0.128 C 
HETATM   16  N4  UNL     1       6.306  -1.076   0.061  1.00  0.00    -0.409 N 
HETATM   17  C19 UNL     1       5.907   0.179  -0.376  1.00  0.00     0.149 C 
ATOM     18  H4  UNL     1       7.224  -1.450  -0.180  1.00  0.00     0.154 HD
BRANCH  12  19
HETATM   19  C10 UNL     1       1.380  -0.366  -0.434  1.00  0.00     0.268 C 
BRANCH  19  20
HETATM   20  N1  UNL     1       0.193   0.349  -0.352  1.00  0.00    -0.374 NA
HETATM   21  C9  UNL     1      -0.985   1.059  -0.270  1.00  0.00     0.436 C 
HETATM   22  O2  UNL     1      -1.053   2.305  -0.348  1.00  0.00    -0.221 OA
BRANCH  21  23
HETATM   23  O1  UNL     1      -2.218   0.458  -0.103  1.00  0.00    -0.282 OA
BRANCH  23  24
HETATM   24  C6  UNL     1      -3.505   1.099  -0.077  1.00  0.00     0.066 C 
HETATM   25  C7  UNL     1      -3.753   1.759  -1.407  1.00  0.00     0.046 C 
HETATM   26  C8  UNL     1      -3.492   2.126   1.016  1.00  0.00     0.046 C 
BRANCH  24  27
HETATM   27  C5  UNL     1      -4.433  -0.029   0.183  1.00  0.00     0.043 C 
BRANCH  27  28
HETATM   28  C4  UNL     1      -5.892   0.030   0.305  1.00  0.00    -0.004 C 
BRANCH  28  29
HETATM   29  C3  UNL     1      -6.582   0.512  -0.883  1.00  0.00     0.005 C 
BRANCH  29  30
HETATM   30  C2  UNL     1      -8.054   0.617  -0.998  1.00  0.00    -0.004 C 
HETATM   31  C1  UNL     1      -8.692   1.597  -0.056  1.00  0.00     0.005 C 
ENDBRANCH  29  30
ENDBRANCH  28  29
BRANCH  28  32
HETATM   32  C30 UNL     1      -6.428  -1.264   0.940  1.00  0.00    -0.048 C 
HETATM   33  C31 UNL     1      -5.527  -1.639   2.140  1.00  0.00     0.015 C 
HETATM   34  C32 UNL     1      -6.496  -2.434   0.052  1.00  0.00     0.015 C 
HETATM   35  C33 UNL     1      -7.765  -1.069   1.632  1.00  0.00     0.015 C 
ENDBRANCH  28  32
ENDBRANCH  27  28
ENDBRANCH  24  27
ENDBRANCH  23  24
ENDBRANCH  21  23
ENDBRANCH  19  20
BRANCH  19  36
HETATM   36  C26 UNL     1       1.448  -0.962  -1.783  1.00  0.00    -0.010 C 
HETATM   37  C27 UNL     1       2.552  -1.787  -2.254  1.00  0.00     0.018 C 
HETATM   38  C28 UNL     1       0.151  -1.741  -2.043  1.00  0.00     0.018 C 
HETATM   39  C29 UNL     1       1.345   0.182  -2.823  1.00  0.00     0.018 C 
ENDBRANCH  19  36
ENDBRANCH  12  19
BRANCH  15  40
HETATM   40  C14 UNL     1       5.520  -3.251   0.470  1.00  0.00    -0.032 A 
HETATM   41  C15 UNL     1       5.495  -4.287   1.412  1.00  0.00     0.026 A 
HETATM   42  C16 UNL     1       5.639  -5.600   1.026  1.00  0.00     0.088 A 
HETATM   43  N3  UNL     1       5.810  -5.954  -0.266  1.00  0.00    -0.375 N 
HETATM   44  C17 UNL     1       5.837  -4.996  -1.193  1.00  0.00     0.088 A 
ATOM     45  H3  UNL     1       5.916  -6.934  -0.527  1.00  0.00     0.164 HD
HETATM   46  C18 UNL     1       5.694  -3.666  -0.831  1.00  0.00     0.026 A 
ENDBRANCH  15  40
ENDBRANCH   7  10
ENDBRANCH   1   6
TORSDOF 13
