REMARK  11 active torsions:
REMARK  status: ('A' for Active; 'I' for Inactive)
REMARK    1  A    between atoms: C4_4  and  C5_5 
REMARK    2  A    between atoms: C5_5  and  C6_6 
REMARK    3  A    between atoms: C6_6  and  C7_7 
REMARK    4  A    between atoms: C9_9  and  C10_10 
REMARK    5  A    between atoms: C10_10  and  C11_11 
REMARK    6  A    between atoms: C11_11  and  O1_12 
REMARK    7  A    between atoms: C13_15  and  C14_16 
REMARK    8  A    between atoms: C14_16  and  C15_18 
REMARK    9  A    between atoms: C18_23  and  O4_24 
REMARK   10  A    between atoms: C24_31  and  C26_33 
REMARK   11  A    between atoms: C26_33  and  O5_34 
ROOT
HETATM    1  C11 UNL     1      -0.465   0.386  -0.398  1.00  0.00     0.066 C 
HETATM    2  C12 UNL     1      -0.978   1.400  -1.380  1.00  0.00     0.058 C 
HETATM    3  C13 UNL     1      -2.222   2.120  -0.870  1.00  0.00     0.132 C 
HETATM    4  C17 UNL     1      -3.308   1.121  -0.951  1.00  0.00     0.167 C 
HETATM    5  O3  UNL     1      -4.158   1.233  -1.779  1.00  0.00    -0.294 OA
HETATM    6  C18 UNL     1      -3.390  -0.069  -0.010  1.00  0.00     0.197 C 
HETATM    7  C19 UNL     1      -2.501  -1.122  -0.548  1.00  0.00     0.005 C 
HETATM    8  C20 UNL     1      -2.835  -1.378  -1.997  1.00  0.00     0.020 C 
HETATM    9  C21 UNL     1      -1.034  -0.896  -0.275  1.00  0.00     0.032 C 
HETATM   10  C22 UNL     1      -0.521  -2.103  -1.008  1.00  0.00     0.009 C 
HETATM   11  C23 UNL     1      -1.389  -3.192  -0.320  1.00  0.00     0.012 C 
HETATM   12  C24 UNL     1      -2.680  -2.475   0.095  1.00  0.00    -0.012 C 
HETATM   13  C25 UNL     1      -3.876  -3.221  -0.465  1.00  0.00     0.018 C 
ENDROOT
BRANCH   1  14
HETATM   14  C10 UNL     1       1.038   0.457  -0.480  1.00  0.00     0.065 C 
BRANCH  14  15
HETATM   15  C9  UNL     1       1.764  -0.124   0.656  1.00  0.00    -0.021 C 
HETATM   16  C7  UNL     1       2.764  -0.931   0.567  1.00  0.00    -0.087 C 
HETATM   17  C8  UNL     1       3.368  -1.450   1.867  1.00  0.00     0.043 C 
BRANCH  16  18
HETATM   18  C6  UNL     1       3.404  -1.448  -0.656  1.00  0.00     0.037 C 
BRANCH  18  19
HETATM   19  C5  UNL     1       4.859  -1.062  -0.789  1.00  0.00     0.031 C 
BRANCH  19  20
HETATM   20  C4  UNL     1       5.001   0.408  -0.838  1.00  0.00    -0.024 C 
HETATM   21  C2  UNL     1       5.776   1.075  -0.024  1.00  0.00    -0.091 C 
HETATM   22  C1  UNL     1       5.880   2.566  -0.116  1.00  0.00     0.042 C 
HETATM   23  C3  UNL     1       6.617   0.422   1.025  1.00  0.00     0.042 C 
ENDBRANCH  19  20
ENDBRANCH  18  19
ENDBRANCH  16  18
ENDBRANCH  14  15
ENDBRANCH   1  14
BRANCH   1  24
HETATM   24  O1  UNL     1      -0.702   1.112   0.848  1.00  0.00    -0.389 OA
ATOM     25  H1  UNL     1      -1.650   1.067   0.900  1.00  0.00     0.210 HD
ENDBRANCH   1  24
BRANCH   3  26
HETATM   26  C14 UNL     1      -2.454   3.293  -1.750  1.00  0.00     0.156 C 
HETATM   27  O2  UNL     1      -1.793   3.380  -2.817  1.00  0.00    -0.295 OA
BRANCH  26  28
HETATM   28  C15 UNL     1      -3.392   4.394  -1.512  1.00  0.00     0.148 C 
HETATM   29  C16 UNL     1      -3.119   5.105  -0.193  1.00  0.00     0.034 C 
HETATM   30 CL1  UNL     1      -5.100   4.029  -1.652  1.00  0.00    -0.117 Cl
ENDBRANCH  26  28
ENDBRANCH   3  26
BRANCH   6  31
HETATM   31  O4  UNL     1      -4.719  -0.495  -0.084  1.00  0.00    -0.387 OA
ATOM     32  H4  UNL     1      -4.770  -1.239   0.504  1.00  0.00     0.210 HD
ENDBRANCH   6  31
BRANCH  12  33
HETATM   33  C26 UNL     1      -2.786  -2.515   1.566  1.00  0.00     0.174 C 
BRANCH  33  34
HETATM   34  O5  UNL     1      -2.956  -3.874   1.952  1.00  0.00    -0.400 OA
ATOM     35  H5  UNL     1      -3.024  -3.900   2.899  1.00  0.00     0.209 HD
ENDBRANCH  33  34
ENDBRANCH  12  33
TORSDOF 11
