REMARK  8 active torsions:
REMARK  status: ('A' for Active; 'I' for Inactive)
REMARK    1  A    between atoms: C2_3  and  C3_5 
REMARK    2  A    between atoms: C5_11  and  N4_12 
REMARK    3  A    between atoms: N4_12  and  N5_14 
REMARK       I    between atoms: N5_14  and  C6_16 
REMARK    4  A    between atoms: C6_16  and  O3_18 
REMARK    5  A    between atoms: O3_18  and  C7_19 
REMARK    6  A    between atoms: C7_19  and  C8_20 
REMARK    7  A    between atoms: C8_20  and  C9_21 
REMARK    8  A    between atoms: C9_21  and  N6_22 
ROOT
HETATM    1  C1  UNL     1      -8.242   1.095   1.095  1.00  0.00     0.233 C 
HETATM    2  N1  UNL     1      -7.030   0.744   0.826  1.00  0.00    -0.390 NA
HETATM    3  C2  UNL     1      -5.680   0.353   0.526  1.00  0.00     0.345 C 
HETATM    4  O1  UNL     1      -5.240  -0.785   0.426  1.00  0.00    -0.249 OA
ENDROOT
BRANCH   3   5
HETATM    5  C3  UNL     1      -4.774   1.524   0.327  1.00  0.00     0.160 A 
HETATM    6  N2  UNL     1      -5.096   2.826   0.436  1.00  0.00    -0.293 N 
HETATM    7  N3  UNL     1      -4.033   3.570   0.193  1.00  0.00    -0.309 N 
ATOM      8  H2  UNL     1      -6.022   3.184   0.671  1.00  0.00     0.187 HD
HETATM    9  C4  UNL     1      -2.980   2.786  -0.083  1.00  0.00     0.140 A 
ATOM     10  H3  UNL     1      -4.015   4.590   0.212  1.00  0.00     0.186 HD
HETATM   11  C5  UNL     1      -3.452   1.466   0.002  1.00  0.00     0.100 A 
BRANCH  11  12
HETATM   12  N4  UNL     1      -2.662   0.315  -0.219  1.00  0.00    -0.293 N 
ATOM     13  H4  UNL     1      -3.052  -0.616  -0.071  1.00  0.00     0.187 HD
BRANCH  12  14
HETATM   14  N5  UNL     1      -1.358   0.467  -0.637  1.00  0.00    -0.245 N 
HETATM   15  C6  UNL     1      -0.547  -0.692  -0.912  1.00  0.00     0.379 C 
HETATM   16  O2  UNL     1      -1.030  -1.847  -0.762  1.00  0.00    -0.237 OA
ATOM     17  H5  UNL     1      -0.966   1.402  -0.752  1.00  0.00     0.192 HD
BRANCH  15  18
HETATM   18  O3  UNL     1       0.743  -0.574  -1.338  1.00  0.00    -0.303 OA
BRANCH  18  19
HETATM   19  C7  UNL     1       1.580  -1.650  -1.616  1.00  0.00     0.182 C 
BRANCH  19  20
HETATM   20  C8  UNL     1       1.922  -2.560  -0.487  1.00  0.00     0.047 C 
BRANCH  20  21
HETATM   21  C9  UNL     1       2.689  -1.936   0.620  1.00  0.00     0.141 C 
BRANCH  21  22
HETATM   22  N6  UNL     1       3.982  -1.418   0.294  1.00  0.00    -0.251 N 
HETATM   23  C10 UNL     1       5.009  -2.323   0.280  1.00  0.00     0.334 A 
HETATM   24  O4  UNL     1       4.802  -3.539   0.521  1.00  0.00    -0.246 OA
HETATM   25  N7  UNL     1       6.227  -1.846   0.001  1.00  0.00    -0.260 N 
HETATM   26  C11 UNL     1       6.443  -0.536  -0.256  1.00  0.00     0.334 A 
ATOM     27  H7  UNL     1       7.017  -2.490  -0.019  1.00  0.00     0.175 HD
HETATM   28  O5  UNL     1       7.608  -0.115  -0.519  1.00  0.00    -0.246 OA
HETATM   29  N8  UNL     1       5.435   0.320  -0.236  1.00  0.00    -0.255 N 
HETATM   30  C12 UNL     1       5.655   1.721  -0.513  1.00  0.00     0.166 C 
HETATM   31  C13 UNL     1       4.180  -0.127   0.046  1.00  0.00     0.336 A 
HETATM   32  O6  UNL     1       3.292   0.762   0.047  1.00  0.00    -0.246 OA
ENDBRANCH  21  22
ENDBRANCH  20  21
ENDBRANCH  19  20
ENDBRANCH  18  19
ENDBRANCH  15  18
ENDBRANCH  12  14
ENDBRANCH  11  12
ENDBRANCH   3   5
TORSDOF 7
