REMARK  6 active torsions:
REMARK  status: ('A' for Active; 'I' for Inactive)
REMARK    1  A    between atoms: N1_1  and  C1_5 
REMARK    2  A    between atoms: C1_5  and  C2_6 
REMARK    3  A    between atoms: C4_12  and  N4_13 
REMARK    4  A    between atoms: N4_13  and  C5_15 
REMARK    5  A    between atoms: C5_15  and  C6_16 
REMARK    6  A    between atoms: C6_16  and  C7_17 
ROOT
HETATM    1  C2  UNL     1       2.596  -0.134  -0.339  1.00  0.00     0.029 A 
HETATM    2  C3  UNL     1       3.640  -1.015  -0.186  1.00  0.00     0.119 A 
HETATM    3  N2  UNL     1       3.243  -2.069   0.541  1.00  0.00    -0.310 N 
ATOM      4  H2  UNL     1       3.819  -2.875   0.785  1.00  0.00     0.186 HD
HETATM    5  N3  UNL     1       2.033  -1.897   0.875  1.00  0.00    -0.286 N 
ATOM      6  H3  UNL     1       1.489  -2.533   1.458  1.00  0.00     0.188 HD
HETATM    7  C4  UNL     1       1.536  -0.651   0.299  1.00  0.00     0.125 A 
ENDROOT
BRANCH   7   8
HETATM    8  N4  UNL     1       0.321  -0.552   0.497  1.00  0.00    -0.375 N 
ATOM      9  H4  UNL     1      -0.051  -1.267   1.122  1.00  0.00     0.161 HD
BRANCH   8  10
HETATM   10  C5  UNL     1      -0.717   0.412  -0.000  1.00  0.00     0.121 C 
BRANCH  10  11
HETATM   11  C6  UNL     1      -1.954  -0.557   0.007  1.00  0.00     0.024 C 
BRANCH  11  12
HETATM   12  C7  UNL     1      -3.166  -0.063   0.577  1.00  0.00    -0.013 A 
HETATM   13  C8  UNL     1      -4.056   1.045   0.118  1.00  0.00     0.005 A 
HETATM   14  C9  UNL     1      -4.537  -0.422   0.035  1.00  0.00     0.005 A 
ENDBRANCH  11  12
ENDBRANCH  10  11
ENDBRANCH   8  10
ENDBRANCH   7   8
BRANCH   1  15
HETATM   15  C1  UNL     1       2.552   1.178  -1.073  1.00  0.00     0.273 C 
BRANCH  15  16
HETATM   16  N1  UNL     1       3.623   2.040  -0.515  1.00  0.00    -0.075 N 
ATOM     17  H13 UNL     1       3.558   2.149   0.497  1.00  0.00     0.274 HD
ATOM     18  H12 UNL     1       4.543   1.600  -0.544  1.00  0.00     0.274 HD
ATOM     19  H11 UNL     1       3.593   2.930  -1.013  1.00  0.00     0.274 HD
ENDBRANCH  15  16
ENDBRANCH   1  15
TORSDOF 6
