REMARK  16 active torsions:
REMARK  status: ('A' for Active; 'I' for Inactive)
REMARK    1  A    between atoms: C2_2  and  C3_3 
REMARK    2  A    between atoms: C3_3  and  C4_4 
REMARK    3  A    between atoms: C4_4  and  N1_5 
REMARK    4  A    between atoms: N1_5  and  C5_6 
REMARK    5  A    between atoms: N1_5  and  C8_9 
REMARK    6  A    between atoms: C5_6  and  C6_7 
REMARK    7  A    between atoms: C8_9  and  C9_10 
REMARK    8  A    between atoms: C8_9  and  C10_12 
REMARK    9  A    between atoms: C10_12  and  C11_13 
REMARK   10  A    between atoms: C10_12  and  N2_20 
REMARK   11  A    between atoms: C11_13  and  C12_14 
REMARK       I    between atoms: N2_20  and  C18_22 
REMARK   12  A    between atoms: C18_22  and  C19_24 
REMARK   13  A    between atoms: C19_24  and  N3_25 
REMARK       I    between atoms: N3_25  and  C20_27 
REMARK   14  A    between atoms: C20_27  and  O4_29 
REMARK   15  A    between atoms: O4_29  and  C21_30 
REMARK   16  A    between atoms: C21_30  and  C22_31 
ROOT
HETATM    1  C22 UNL     1       5.628  -1.767   1.037  1.00  0.00     0.022 C 
HETATM    2  C23 UNL     1       6.507  -2.345   1.803  1.00  0.00     0.092 C 
HETATM    3  C24 UNL     1       6.771  -3.754   1.705  1.00  0.00     0.087 C 
HETATM    4  N4  UNL     1       7.001  -4.900   1.623  1.00  0.00    -0.192 NA
ENDROOT
BRANCH   1   5
HETATM    5  C21 UNL     1       5.371  -0.323   1.151  1.00  0.00     0.094 C 
HETATM    6  C25 UNL     1       6.716   0.416   1.194  1.00  0.00     0.070 C 
HETATM    7  C26 UNL     1       6.349   1.897   1.294  1.00  0.00     0.235 C 
HETATM    8  N5  UNL     1       5.781   2.079   2.620  1.00  0.00    -0.075 N 
HETATM    9  C27 UNL     1       4.496   1.409   2.668  1.00  0.00     0.235 C 
ATOM     10  H52 UNL     1       6.411   1.771   3.361  1.00  0.00     0.277 HD
ATOM     11  H51 UNL     1       5.720   3.061   2.888  1.00  0.00     0.277 HD
HETATM   12  C28 UNL     1       4.726  -0.060   2.492  1.00  0.00     0.070 C 
BRANCH   5  13
HETATM   13  O4  UNL     1       4.659   0.220   0.067  1.00  0.00    -0.288 OA
BRANCH  13  14
HETATM   14  C20 UNL     1       3.375  -0.230  -0.272  1.00  0.00     0.362 C 
HETATM   15  N3  UNL     1       2.713   0.352  -1.365  1.00  0.00    -0.319 N 
ATOM     16  H3  UNL     1       3.213   1.086  -1.867  1.00  0.00     0.166 HD
HETATM   17  O3  UNL     1       2.938  -1.145   0.470  1.00  0.00    -0.238 OA
BRANCH  15  18
HETATM   18  C19 UNL     1       1.395   0.016  -1.850  1.00  0.00     0.116 C 
HETATM   19  C29 UNL     1       1.252  -1.450  -2.192  1.00  0.00     0.041 C 
HETATM   20  C30 UNL     1       2.023  -1.821  -3.426  1.00  0.00     0.008 C 
HETATM   21  C31 UNL     1       1.768  -0.937  -4.591  1.00  0.00    -0.010 A 
HETATM   22  C32 UNL     1       2.816   0.164  -4.778  1.00  0.00     0.010 A 
HETATM   23  C33 UNL     1       1.413   0.443  -4.352  1.00  0.00    -0.007 A 
HETATM   24  C34 UNL     1       1.048   0.901  -3.007  1.00  0.00     0.046 C 
BRANCH  18  25
HETATM   25  C18 UNL     1       0.380   0.297  -0.764  1.00  0.00     0.246 C 
HETATM   26  N2  UNL     1      -0.986   0.066  -0.951  1.00  0.00    -0.352 N 
ATOM     27  H2  UNL     1      -1.221  -0.294  -1.876  1.00  0.00     0.163 HD
HETATM   28  O2  UNL     1       0.858   0.741   0.291  1.00  0.00    -0.271 OA
BRANCH  26  29
HETATM   29  C10 UNL     1      -2.117   0.239  -0.091  1.00  0.00     0.125 C 
BRANCH  29  30
HETATM   30  C8  UNL     1      -2.223  -0.960   0.863  1.00  0.00     0.306 C 
BRANCH  30  31
HETATM   31  N1  UNL     1      -3.500  -0.918   1.586  1.00  0.00     0.101 N 
BRANCH  31  32
HETATM   32  C4  UNL     1      -3.554  -2.072   2.437  1.00  0.00     0.273 C 
BRANCH  32  33
HETATM   33  C3  UNL     1      -3.399  -3.411   1.808  1.00  0.00     0.030 C 
BRANCH  33  34
HETATM   34  C2  UNL     1      -3.486  -4.444   2.954  1.00  0.00    -0.003 C 
HETATM   35  C1  UNL     1      -4.790  -4.373   3.676  1.00  0.00     0.005 C 
ENDBRANCH  33  34
ENDBRANCH  32  33
ENDBRANCH  31  32
BRANCH  31  36
HETATM   36  C5  UNL     1      -4.608  -0.676   0.775  1.00  0.00     0.273 C 
BRANCH  36  37
HETATM   37  C6  UNL     1      -5.029  -1.514  -0.337  1.00  0.00     0.026 C 
HETATM   38  C7  UNL     1      -6.259  -0.784  -0.973  1.00  0.00     0.007 C 
ENDBRANCH  36  37
ENDBRANCH  31  36
ENDBRANCH  30  31
BRANCH  30  39
HETATM   39  C9  UNL     1      -1.083  -0.964   1.790  1.00  0.00     0.269 C 
HETATM   40  O1  UNL     1      -0.991  -0.459   2.873  1.00  0.00    -0.304 OA
ENDBRANCH  30  39
ENDBRANCH  29  30
BRANCH  29  41
HETATM   41  C11 UNL     1      -2.133   1.547   0.610  1.00  0.00     0.032 C 
BRANCH  41  42
HETATM   42  C12 UNL     1      -2.179   2.799  -0.148  1.00  0.00    -0.013 C 
HETATM   43  C13 UNL     1      -3.417   2.902  -1.048  1.00  0.00     0.005 C 
HETATM   44  C14 UNL     1      -3.385   4.098  -1.948  1.00  0.00     0.000 C 
HETATM   45  C15 UNL     1      -2.702   5.237  -1.232  1.00  0.00     0.000 C 
HETATM   46  C16 UNL     1      -1.269   4.898  -0.983  1.00  0.00     0.000 C 
HETATM   47  C17 UNL     1      -1.039   3.374  -0.856  1.00  0.00     0.005 C 
ENDBRANCH  41  42
ENDBRANCH  29  41
ENDBRANCH  26  29
ENDBRANCH  18  25
ENDBRANCH  15  18
ENDBRANCH  13  14
ENDBRANCH   5  13
ENDBRANCH   1   5
TORSDOF 16
