REMARK  15 active torsions:
REMARK  status: ('A' for Active; 'I' for Inactive)
REMARK    1  A    between atoms: C2_2  and  C4_4 
REMARK    2  A    between atoms: C4_4  and  C5_5 
REMARK    3  A    between atoms: C5_5  and  O1_6 
REMARK    4  A    between atoms: C5_5  and  N1_8 
REMARK    5  A    between atoms: N1_8  and  C7_10 
REMARK       I    between atoms: N2_13  and  C10_14 
REMARK    6  A    between atoms: C10_14  and  C11_16 
REMARK    7  A    between atoms: C11_16  and  N3_17 
REMARK    8  A    between atoms: C11_16  and  C28_44 
REMARK       I    between atoms: N3_17  and  C12_19 
REMARK    9  A    between atoms: C12_19  and  C13_21 
REMARK   10  A    between atoms: C13_21  and  N4_22 
REMARK   11  A    between atoms: C13_21  and  C25_41 
REMARK       I    between atoms: N4_22  and  C14_24 
REMARK   12  A    between atoms: C14_24  and  C15_26 
REMARK   13  A    between atoms: C15_26  and  N5_27 
REMARK   14  A    between atoms: C15_26  and  C21_37 
REMARK       I    between atoms: N5_27  and  C16_29 
REMARK   15  A    between atoms: C16_29  and  C17_31 
ROOT
HETATM    1  N3  UNL     1       0.325  -0.508   0.757  1.00  0.00    -0.346 N 
ATOM      2  H3  UNL     1       0.208  -1.274   1.420  1.00  0.00     0.163 HD
HETATM    3  C12 UNL     1      -0.840   0.205   0.356  1.00  0.00     0.241 C 
HETATM    4  O3  UNL     1      -0.627   1.154  -0.431  1.00  0.00    -0.271 OA
ENDROOT
BRANCH   3   5
HETATM    5  C13 UNL     1      -2.161  -0.205   0.861  1.00  0.00     0.180 C 
BRANCH   5   6
HETATM    6  N4  UNL     1      -3.215   0.741   0.460  1.00  0.00    -0.342 N 
HETATM    7  C14 UNL     1      -4.347   0.339  -0.279  1.00  0.00     0.265 C 
HETATM    8  O4  UNL     1      -4.350  -0.919  -0.542  1.00  0.00    -0.266 OA
ATOM      9  H4  UNL     1      -3.124   1.721   0.726  1.00  0.00     0.163 HD
BRANCH   7  10
HETATM   10  C15 UNL     1      -5.469   1.119  -0.772  1.00  0.00     0.087 C 
BRANCH  10  11
HETATM   11  N5  UNL     1      -6.796   0.588  -0.636  1.00  0.00    -0.325 N 
HETATM   12  C16 UNL     1      -7.321  -0.657  -0.501  1.00  0.00     0.226 C 
HETATM   13  O5  UNL     1      -6.790  -1.763  -0.412  1.00  0.00    -0.273 OA
ATOM     14  H5  UNL     1      -7.511   1.315  -0.642  1.00  0.00     0.169 HD
BRANCH  12  15
HETATM   15  C17 UNL     1      -8.870  -0.755  -0.470  1.00  0.00     0.089 C 
HETATM   16  C18 UNL     1      -9.237  -0.905  -1.963  1.00  0.00     0.093 C 
HETATM   17  C19 UNL     1     -10.159  -2.071  -1.604  1.00  0.00     0.245 C 
HETATM   18  F1  UNL     1      -9.995  -3.200  -2.369  1.00  0.00    -0.206 F 
HETATM   19  F2  UNL     1     -11.479  -1.721  -1.525  1.00  0.00    -0.206 F 
HETATM   20  C20 UNL     1      -9.407  -2.113  -0.273  1.00  0.00     0.093 C 
ENDBRANCH  12  15
ENDBRANCH  10  11
BRANCH  10  21
HETATM   21  C21 UNL     1      -5.417   2.594  -0.570  1.00  0.00    -0.003 C 
HETATM   22  C22 UNL     1      -6.648   3.290  -1.167  1.00  0.00     0.021 C 
HETATM   23  C23 UNL     1      -4.207   3.262  -1.131  1.00  0.00     0.021 C 
HETATM   24  C24 UNL     1      -5.494   2.933   0.921  1.00  0.00     0.021 C 
ENDBRANCH  10  21
ENDBRANCH   7  10
ENDBRANCH   5   6
BRANCH   5  25
HETATM   25  C25 UNL     1      -2.218  -0.630   2.282  1.00  0.00     0.009 C 
HETATM   26  C26 UNL     1      -3.633  -1.071   2.701  1.00  0.00     0.012 C 
HETATM   27  C27 UNL     1      -1.697   0.375   3.273  1.00  0.00     0.012 C 
ENDBRANCH   5  25
ENDBRANCH   3   5
BRANCH   1  28
HETATM   28  C11 UNL     1       1.683  -0.218   0.283  1.00  0.00     0.180 C 
BRANCH  28  29
HETATM   29  C10 UNL     1       2.363  -1.504  -0.020  1.00  0.00     0.243 C 
HETATM   30  N2  UNL     1       3.664  -1.681  -0.520  1.00  0.00    -0.348 N 
HETATM   31  C9  UNL     1       4.227  -3.020  -0.799  1.00  0.00     0.128 C 
HETATM   32  C31 UNL     1       4.699  -0.682  -0.855  1.00  0.00     0.151 C 
HETATM   33  C8  UNL     1       5.678  -2.782  -1.139  1.00  0.00     0.047 C 
HETATM   34  C7  UNL     1       5.513  -1.405  -1.852  1.00  0.00     0.105 C 
HETATM   35  O2  UNL     1       1.703  -2.587   0.188  1.00  0.00    -0.271 OA
BRANCH  34  36
HETATM   36  N1  UNL     1       6.775  -0.894  -2.222  1.00  0.00    -0.363 N 
HETATM   37  C6  UNL     1       7.063  -0.953  -3.692  1.00  0.00     0.152 C 
BRANCH  36  38
HETATM   38  C5  UNL     1       7.825  -0.392  -1.419  1.00  0.00     0.113 C 
BRANCH  38  39
HETATM   39  C4  UNL     1       7.844  -0.116   0.009  1.00  0.00     0.087 C 
BRANCH  39  40
HETATM   40  C2  UNL     1       9.208   0.319   0.527  1.00  0.00    -0.015 C 
HETATM   41  C1  UNL     1      10.264  -0.725   0.299  1.00  0.00     0.010 C 
HETATM   42  C3  UNL     1       9.668   1.636   0.010  1.00  0.00     0.010 C 
ENDBRANCH  39  40
ENDBRANCH  38  39
BRANCH  38  43
HETATM   43  O1  UNL     1       8.948  -0.129  -2.033  1.00  0.00    -0.349 OA
ATOM     44  H1  UNL     1       8.936  -0.309  -2.966  1.00  0.00     0.219 HD
ENDBRANCH  38  43
ENDBRANCH  36  38
ENDBRANCH  34  36
ENDBRANCH  28  29
BRANCH  28  45
HETATM   45  C28 UNL     1       2.434   0.466   1.395  1.00  0.00     0.009 C 
HETATM   46  C29 UNL     1       1.751   1.800   1.676  1.00  0.00     0.012 C 
HETATM   47  C30 UNL     1       2.424  -0.358   2.641  1.00  0.00     0.012 C 
ENDBRANCH  28  45
ENDBRANCH   1  28
TORSDOF 15
