REMARK  14 active torsions:
REMARK  status: ('A' for Active; 'I' for Inactive)
REMARK    1  A    between atoms: C2_2  and  N1_3 
REMARK    2  A    between atoms: N1_3  and  C3_4 
REMARK    3  A    between atoms: N1_3  and  C5_6 
REMARK    4  A    between atoms: C5_6  and  C6_7 
REMARK    5  A    between atoms: C6_7  and  N2_8 
REMARK    6  A    between atoms: N2_8  and  C7_9 
REMARK       I    between atoms: N2_8  and  C25_38 
REMARK    7  A    between atoms: C7_9  and  C8_10 
REMARK    8  A    between atoms: C8_10  and  C9_11 
REMARK    9  A    between atoms: C9_11  and  N3_12 
REMARK   10  A    between atoms: N3_12  and  C10_14 
REMARK   11  A    between atoms: N4_16  and  C11_18 
REMARK   12  A    between atoms: C14_25  and  N7_26 
REMARK   13  A    between atoms: N7_26  and  C15_28 
REMARK   14  A    between atoms: C25_38  and  C26_40 
ROOT
HETATM    1  C26 UNL     1       1.970  -2.530  -0.437  1.00  0.00     0.256 C 
HETATM    2 BR1  UNL     1       2.601  -3.091   1.323  1.00  0.00    -0.065 Br
HETATM    3  C27 UNL     1       1.940  -3.791  -1.244  1.00  0.00     0.085 C 
HETATM    4  N8  UNL     1       1.912  -4.750  -1.882  1.00  0.00    -0.196 NA
ENDROOT
BRANCH   1   5
HETATM    5  C25 UNL     1       2.893  -1.583  -1.059  1.00  0.00     0.248 C 
HETATM    6  N2  UNL     1       3.212  -0.291  -0.577  1.00  0.00    -0.349 N 
HETATM    7  O1  UNL     1       3.465  -1.989  -2.144  1.00  0.00    -0.271 OA
BRANCH   6   8
HETATM    8  C6  UNL     1       4.259   0.493  -1.253  1.00  0.00     0.156 C 
BRANCH   8   9
HETATM    9  C5  UNL     1       5.628   0.266  -0.750  1.00  0.00     0.292 C 
BRANCH   9  10
HETATM   10  N1  UNL     1       5.848   0.666   0.620  1.00  0.00     0.089 N 
BRANCH  10  11
HETATM   11  C2  UNL     1       7.180   0.226   1.058  1.00  0.00     0.268 C 
HETATM   12  C1  UNL     1       7.258   0.467   2.543  1.00  0.00     0.037 C 
ENDBRANCH  10  11
BRANCH  10  13
HETATM   13  C3  UNL     1       5.775   2.121   0.755  1.00  0.00     0.268 C 
HETATM   14  C4  UNL     1       6.632   2.875  -0.197  1.00  0.00     0.037 C 
ENDBRANCH  10  13
ENDBRANCH   9  10
ENDBRANCH   8   9
ENDBRANCH   6   8
BRANCH   6  15
HETATM   15  C7  UNL     1       2.473   0.326   0.472  1.00  0.00     0.127 C 
BRANCH  15  16
HETATM   16  C8  UNL     1       1.436   1.320   0.027  1.00  0.00     0.039 C 
BRANCH  16  17
HETATM   17  C9  UNL     1       0.445   0.719  -0.887  1.00  0.00     0.123 C 
BRANCH  17  18
HETATM   18  N3  UNL     1      -0.574   1.691  -1.317  1.00  0.00    -0.367 N 
ATOM     19  H3  UNL     1      -0.611   2.640  -0.946  1.00  0.00     0.161 HD
BRANCH  18  20
HETATM   20  C10 UNL     1      -1.518   1.209  -2.300  1.00  0.00     0.173 C 
HETATM   21  S1  UNL     1      -2.666   2.266  -2.831  1.00  0.00    -0.041 SA
HETATM   22  N4  UNL     1      -1.468  -0.054  -2.803  1.00  0.00    -0.317 N 
ATOM     23  H4  UNL     1      -0.885  -0.101  -3.639  1.00  0.00     0.170 HD
BRANCH  22  24
HETATM   24  C11 UNL     1      -1.950  -1.183  -2.512  1.00  0.00     0.149 A 
HETATM   25  N5  UNL     1      -1.629  -2.247  -3.330  1.00  0.00    -0.284 N 
HETATM   26  N6  UNL     1      -2.067  -3.457  -3.130  1.00  0.00    -0.310 N 
ATOM     27  H5  UNL     1      -1.019  -2.078  -4.130  1.00  0.00     0.188 HD
HETATM   28  C12 UNL     1      -2.871  -3.741  -2.097  1.00  0.00     0.109 A 
ATOM     29  H6  UNL     1      -1.793  -4.201  -3.771  1.00  0.00     0.186 HD
HETATM   30  C13 UNL     1      -3.249  -2.748  -1.225  1.00  0.00     0.051 A 
HETATM   31  C14 UNL     1      -2.788  -1.467  -1.433  1.00  0.00     0.075 A 
BRANCH  31  32
HETATM   32  N7  UNL     1      -3.103  -0.484  -0.652  1.00  0.00    -0.381 N 
ATOM     33  H7  UNL     1      -2.740   0.451  -0.840  1.00  0.00     0.160 HD
BRANCH  32  34
HETATM   34  C15 UNL     1      -3.956  -0.702   0.472  1.00  0.00     0.090 C 
HETATM   35  C16 UNL     1      -5.388  -0.617   0.038  1.00  0.00     0.009 C 
HETATM   36  C17 UNL     1      -6.240  -0.950   1.247  1.00  0.00     0.011 C 
HETATM   37  C21 UNL     1      -5.678   0.778  -0.448  1.00  0.00     0.011 C 
HETATM   38  C18 UNL     1      -5.913   0.052   2.324  1.00  0.00    -0.013 C 
HETATM   39  C19 UNL     1      -6.209   1.441   1.821  1.00  0.00     0.009 C 
HETATM   40  C24 UNL     1      -4.467  -0.013   2.753  1.00  0.00     0.011 C 
HETATM   41  C20 UNL     1      -5.352   1.772   0.613  1.00  0.00    -0.013 C 
HETATM   42  C22 UNL     1      -3.916   1.689   1.041  1.00  0.00     0.011 C 
HETATM   43  C23 UNL     1      -3.607   0.327   1.547  1.00  0.00     0.009 C 
ENDBRANCH  32  34
ENDBRANCH  31  32
ENDBRANCH  22  24
ENDBRANCH  18  20
ENDBRANCH  17  18
ENDBRANCH  16  17
ENDBRANCH  15  16
ENDBRANCH   6  15
ENDBRANCH   1   5
TORSDOF 14
