REMARK  3 active torsions:
REMARK  status: ('A' for Active; 'I' for Inactive)
REMARK    1  A    between atoms: C1_2  and  C2_4 
REMARK    2  A    between atoms: C3_7  and  C4_8 
REMARK    3  A    between atoms: N4_11  and  N5_12 
ROOT
HETATM    1  C2  UNL     1       1.125  -0.183   0.134  1.00  0.00     0.143 A 
HETATM    2  N2  UNL     1       0.067  -0.899   0.545  1.00  0.00    -0.330 N 
ATOM      3  H2  UNL     1       0.130  -1.829   0.958  1.00  0.00     0.168 HD
HETATM    4  C3  UNL     1      -1.084  -0.238   0.344  1.00  0.00     0.195 A 
HETATM    5  N4  UNL     1      -0.718   0.945  -0.219  1.00  0.00    -0.225 N 
HETATM    6  C5  UNL     1       0.624   0.998  -0.356  1.00  0.00     0.171 A 
HETATM    7  N6  UNL     1       1.360   2.079  -0.903  1.00  0.00    -0.078 NA
ENDROOT
BRANCH   1   8
HETATM    8  C1  UNL     1       2.541  -0.541   0.176  1.00  0.00     0.284 C 
HETATM    9  N1  UNL     1       2.929  -1.812   0.715  1.00  0.00    -0.056 NA
HETATM   10  O1  UNL     1       3.413   0.255  -0.255  1.00  0.00    -0.269 OA
ENDBRANCH   1   8
BRANCH   4  11
HETATM   11  C4  UNL     1      -2.443  -0.668   0.651  1.00  0.00     0.300 C 
HETATM   12  N3  UNL     1      -2.648  -1.941   1.241  1.00  0.00    -0.054 NA
HETATM   13  O2  UNL     1      -3.458   0.029   0.423  1.00  0.00    -0.268 OA
ENDBRANCH   4  11
BRANCH   5  14
HETATM   14  N5  UNL     1      -1.642   1.927  -0.583  1.00  0.00    -0.335 N 
ATOM     15  H52 UNL     1      -2.656   1.887  -0.479  1.00  0.00     0.177 HD
ATOM     16  H51 UNL     1      -1.368   2.814  -1.005  1.00  0.00     0.177 HD
ENDBRANCH   5  14
TORSDOF 3
