REMARK  7 active torsions:
REMARK  status: ('A' for Active; 'I' for Inactive)
REMARK    1  A    between atoms: C2_2  and  C3_3 
REMARK    2  A    between atoms: C4_6  and  N2_7 
REMARK    3  A    between atoms: N2_7  and  C5_9 
REMARK    4  A    between atoms: C5_9  and  C6_10 
REMARK    5  A    between atoms: C6_10  and  N3_11 
REMARK       I    between atoms: N3_11  and  C7_13 
REMARK       I    between atoms: C7_13  and  N5_17 
REMARK    6  A    between atoms: N5_17  and  N6_19 
REMARK    7  A    between atoms: C10_26  and  N8_27 
ROOT
HETATM    1  C3  UNL     1      -3.101  -0.881   0.573  1.00  0.00     0.118 A 
HETATM    2  N1  UNL     1      -1.964  -1.564   0.201  1.00  0.00    -0.328 N 
ATOM      3  H1  UNL     1      -1.979  -2.584   0.202  1.00  0.00     0.169 HD
HETATM    4  C4  UNL     1      -0.845  -0.937  -0.160  1.00  0.00     0.106 A 
HETATM    5  C8  UNL     1      -0.790   0.439  -0.173  1.00  0.00     0.098 A 
HETATM    6  C9  UNL     1      -1.923   1.131   0.197  1.00  0.00     0.136 A 
HETATM    7  N7  UNL     1      -1.915   2.488   0.187  1.00  0.00    -0.176 N 
ATOM      8  H7  UNL     1      -1.061   2.974  -0.087  1.00  0.00     0.186 HD
HETATM    9  C10 UNL     1      -2.994   3.212   0.526  1.00  0.00     0.681 A 
HETATM   10  N9  UNL     1      -4.099   2.538   0.880  1.00  0.00    -0.141 N 
ATOM     11  H9  UNL     1      -4.935   3.061   1.142  1.00  0.00     0.189 HD
HETATM   12  C11 UNL     1      -4.138   1.169   0.900  1.00  0.00     0.348 A 
HETATM   13  O1  UNL     1      -5.202   0.614   1.237  1.00  0.00    -0.245 OA
HETATM   14  N10 UNL     1      -3.057   0.451   0.562  1.00  0.00    -0.233 N 
ENDROOT
BRANCH   4  15
HETATM   15  N2  UNL     1       0.230  -1.578  -0.512  1.00  0.00    -0.375 N 
ATOM     16  H2  UNL     1       0.216  -2.598  -0.512  1.00  0.00     0.161 HD
BRANCH  15  17
HETATM   17  C5  UNL     1       1.436  -0.903  -0.901  1.00  0.00     0.141 C 
BRANCH  17  18
HETATM   18  C6  UNL     1       2.583  -1.870  -1.090  1.00  0.00     0.157 C 
BRANCH  18  19
HETATM   19  N3  UNL     1       3.795  -1.233  -1.481  1.00  0.00    -0.224 N 
HETATM   20  C7  UNL     1       4.566  -0.368  -0.675  1.00  0.00     0.685 C 
HETATM   21  N4  UNL     1       4.194   0.856  -0.555  1.00  0.00    -0.234 N 
HETATM   22  N5  UNL     1       5.732  -0.796   0.006  1.00  0.00    -0.139 N 
ATOM     23  H42 UNL     1       3.354   1.164  -1.045  1.00  0.00     0.174 HD
ATOM     24  H41 UNL     1       4.751   1.481   0.027  1.00  0.00     0.174 HD
ATOM     25  H5  UNL     1       6.049  -1.758  -0.115  1.00  0.00     0.205 HD
ATOM     26  H3  UNL     1       4.135  -1.418  -2.425  1.00  0.00     0.177 HD
BRANCH  22  27
HETATM   27  N6  UNL     1       6.452   0.045   0.827  1.00  0.00    -0.331 N 
ATOM     28  H62 UNL     1       6.121   1.003   0.937  1.00  0.00     0.177 HD
ATOM     29  H61 UNL     1       7.292  -0.263   1.317  1.00  0.00     0.177 HD
ENDBRANCH  22  27
ENDBRANCH  18  19
ENDBRANCH  17  18
ENDBRANCH  15  17
ENDBRANCH   4  15
BRANCH   1  30
HETATM   30  C2  UNL     1      -4.241  -1.692   0.937  1.00  0.00     0.039 C 
HETATM   31  C1  UNL     1      -4.345  -2.945   0.435  1.00  0.00     0.015 C 
ENDBRANCH   1  30
BRANCH   9  32
HETATM   32  N8  UNL     1      -3.003   4.501   0.522  1.00  0.00    -0.234 N 
ATOM     33  H82 UNL     1      -2.163   5.013   0.253  1.00  0.00     0.174 HD
ATOM     34  H81 UNL     1      -3.823   5.051   0.779  1.00  0.00     0.174 HD
ENDBRANCH   9  32
TORSDOF 7
