REMARK  8 active torsions:
REMARK  status: ('A' for Active; 'I' for Inactive)
REMARK    1  A    between atoms: N1_1  and  C1_4 
REMARK    2  A    between atoms: C2_7  and  N3_8 
REMARK    3  A    between atoms: N4_10  and  N5_12 
REMARK    4  A    between atoms: N5_12  and  C3_13 
REMARK    5  A    between atoms: N5_12  and  C4_15 
REMARK    6  A    between atoms: C6_20  and  S1_21 
REMARK    7  A    between atoms: S1_21  and  N7_24 
REMARK    8  A    between atoms: N7_24  and  N8_26 
ROOT
HETATM    1  C1  UNL     1      -2.483  -2.136  -1.441  1.00  0.00     0.679 A 
HETATM    2  N2  UNL     1      -1.200  -1.997  -1.056  1.00  0.00    -0.174 N 
ATOM      3  H2  UNL     1      -0.567  -2.795  -1.009  1.00  0.00     0.186 HD
HETATM    4  C2  UNL     1      -0.795  -0.758  -0.737  1.00  0.00     0.164 A 
HETATM    5  C6  UNL     1      -1.641   0.361  -0.789  1.00  0.00     0.170 A 
HETATM    6  C7  UNL     1      -2.937   0.164  -1.187  1.00  0.00     0.142 A 
HETATM    7  N9  UNL     1      -3.770   1.126  -1.262  1.00  0.00    -0.384 N 
ATOM      8  H91 UNL     1      -4.735   0.979  -1.558  1.00  0.00     0.157 HD
ATOM      9  H92 UNL     1      -3.477   2.073  -1.021  1.00  0.00     0.157 HD
HETATM   10  N10 UNL     1      -3.331  -1.107  -1.510  1.00  0.00    -0.176 N 
ATOM     11  H10 UNL     1      -4.292  -1.271  -1.809  1.00  0.00     0.186 HD
ENDROOT
BRANCH   4  12
HETATM   12  N3  UNL     1       0.559  -0.531  -0.315  1.00  0.00    -0.269 N 
HETATM   13  N4  UNL     1       1.398  -1.484  -0.304  1.00  0.00    -0.235 N 
ATOM     14  H4  UNL     1       1.142  -2.429  -0.590  1.00  0.00     0.208 HD
ATOM     15  H3  UNL     1       0.849   0.402  -0.022  1.00  0.00     0.190 HD
BRANCH  13  16
HETATM   16  N5  UNL     1       2.690  -1.169   0.120  1.00  0.00    -0.220 N 
BRANCH  16  17
HETATM   17  C3  UNL     1       3.788  -1.669  -0.599  1.00  0.00     0.374 C 
HETATM   18  O1  UNL     1       3.605  -2.384  -1.601  1.00  0.00    -0.282 OA
ENDBRANCH  16  17
BRANCH  16  19
HETATM   19  C4  UNL     1       2.820  -0.331   1.297  1.00  0.00     0.336 A 
HETATM   20  C5  UNL     1       4.032  -0.385   2.137  1.00  0.00     0.291 A 
HETATM   21  N6  UNL     1       3.915   0.682   1.172  1.00  0.00    -0.047 N 
ATOM     22  H62 UNL     1       4.493   1.026   0.405  1.00  0.00     0.279 HD
ATOM     23  H61 UNL     1       3.962   1.700   1.215  1.00  0.00     0.279 HD
ENDBRANCH  16  19
ENDBRANCH  13  16
ENDBRANCH   4  12
BRANCH   5  24
HETATM   24  S1  UNL     1      -0.986   1.901  -0.350  1.00  0.00     0.283 S 
HETATM   25  O2  UNL     1       0.534   1.806  -0.582  1.00  0.00    -0.199 OA
HETATM   26  O3  UNL     1      -1.441   3.040  -1.180  1.00  0.00    -0.199 OA
BRANCH  24  27
HETATM   27  N7  UNL     1      -1.167   2.176   1.357  1.00  0.00    -0.229 N 
ATOM     28  H7  UNL     1      -0.521   1.871   2.085  1.00  0.00     0.199 HD
BRANCH  27  29
HETATM   29  N8  UNL     1      -2.339   2.880   1.556  1.00  0.00    -0.336 N 
ATOM     30  H82 UNL     1      -2.977   3.179   0.819  1.00  0.00     0.177 HD
ATOM     31  H81 UNL     1      -2.445   3.041   2.558  1.00  0.00     0.177 HD
ENDBRANCH  27  29
ENDBRANCH  24  27
ENDBRANCH   5  24
BRANCH   1  32
HETATM   32  N1  UNL     1      -2.873  -3.325  -1.749  1.00  0.00    -0.234 N 
ATOM     33  H12 UNL     1      -2.225  -4.111  -1.696  1.00  0.00     0.174 HD
ATOM     34  H11 UNL     1      -3.845  -3.430  -2.041  1.00  0.00     0.174 HD
ENDBRANCH   1  32
TORSDOF 8
