REMARK  6 active torsions:
REMARK  status: ('A' for Active; 'I' for Inactive)
REMARK    1  A    between atoms: C2_2  and  N1_4 
REMARK       I    between atoms: N1_4  and  C4_6 
REMARK    2  A    between atoms: C4_6  and  C5_8 
REMARK    3  A    between atoms: C12_15  and  O2_16 
REMARK    4  A    between atoms: N2_18  and  C13_19 
REMARK    5  A    between atoms: C17_23  and  O3_24 
REMARK    6  A    between atoms: C19_27  and  O4_28 
ROOT
HETATM    1  C5  UNL     1       2.137  -0.395   0.329  1.00  0.00     0.095 C 
HETATM    2  C6  UNL     1       1.376  -1.684   0.100  1.00  0.00     0.037 C 
HETATM    3  C7  UNL     1       1.722  -1.986  -1.341  1.00  0.00     0.011 C 
HETATM    4  C8  UNL     1       1.906  -0.619  -1.969  1.00  0.00     0.011 C 
HETATM    5  C9  UNL     1       1.538   0.328  -0.888  1.00  0.00     0.037 C 
HETATM    6  C10 UNL     1       0.082   0.115  -0.559  1.00  0.00     0.009 A 
HETATM    7  C11 UNL     1      -0.008  -1.126   0.055  1.00  0.00     0.009 A 
HETATM    8  C12 UNL     1      -1.328  -1.314   0.356  1.00  0.00     0.152 A 
HETATM    9  N2  UNL     1      -2.051  -0.245  -0.047  1.00  0.00    -0.303 N 
HETATM   10  C19 UNL     1      -1.198   0.627  -0.604  1.00  0.00     0.152 A 
ENDROOT
BRANCH   9  11
HETATM   11  C13 UNL     1      -3.469  -0.143   0.128  1.00  0.00     0.096 C 
HETATM   12  C14 UNL     1      -4.232  -1.146  -0.718  1.00  0.00     0.026 C 
HETATM   13  C15 UNL     1      -5.640  -1.212  -0.125  1.00  0.00     0.004 C 
HETATM   14  C16 UNL     1      -6.286   0.137  -0.233  1.00  0.00     0.032 C 
HETATM   15  C17 UNL     1      -5.459   1.250   0.346  1.00  0.00     0.120 C 
HETATM   16  C18 UNL     1      -4.019   1.216  -0.155  1.00  0.00     0.057 C 
BRANCH  15  17
HETATM   17  O3  UNL     1      -6.074   2.452  -0.012  1.00  0.00    -0.396 OA
ATOM     18  H3  UNL     1      -5.551   3.156   0.354  1.00  0.00     0.210 HD
ENDBRANCH  15  17
ENDBRANCH   9  11
BRANCH   8  19
HETATM   19  O2  UNL     1      -1.858  -2.458   0.993  1.00  0.00    -0.345 OA
ATOM     20  H2  UNL     1      -2.775  -2.589   1.202  1.00  0.00     0.219 HD
ENDBRANCH   8  19
BRANCH  10  21
HETATM   21  O4  UNL     1      -1.555   1.846  -1.137  1.00  0.00    -0.345 OA
ATOM     22  H4  UNL     1      -2.437   2.199  -1.168  1.00  0.00     0.219 HD
ENDBRANCH  10  21
BRANCH   1  23
HETATM   23  C4  UNL     1       3.582  -0.512   0.306  1.00  0.00     0.223 C 
HETATM   24  N1  UNL     1       4.459   0.605   0.368  1.00  0.00    -0.357 N 
ATOM     25  H1  UNL     1       4.048   1.537   0.430  1.00  0.00     0.162 HD
HETATM   26  O1  UNL     1       4.123  -1.639   0.230  1.00  0.00    -0.273 OA
BRANCH  24  27
HETATM   27  C2  UNL     1       5.892   0.496   0.348  1.00  0.00     0.076 C 
HETATM   28  C1  UNL     1       6.415   1.201  -0.899  1.00  0.00     0.032 C 
HETATM   29  C3  UNL     1       6.554   1.147   1.533  1.00  0.00     0.032 C 
ENDBRANCH  24  27
ENDBRANCH   1  23
TORSDOF 6
