REMARK  17 active torsions:
REMARK  status: ('A' for Active; 'I' for Inactive)
REMARK    1  A    between atoms: N1_1  and  C1_5 
REMARK    2  A    between atoms: C1_5  and  N2_6 
REMARK    3  A    between atoms: C1_5  and  C2_10 
REMARK    4  A    between atoms: C3_13  and  C4_14 
REMARK    5  A    between atoms: C4_14  and  N4_15 
REMARK       I    between atoms: N4_15  and  C5_17 
REMARK    6  A    between atoms: C5_17  and  C6_19 
REMARK    7  A    between atoms: C6_19  and  N5_20 
REMARK    8  A    between atoms: C8_27  and  N8_28 
REMARK    9  A    between atoms: N8_28  and  C9_30 
REMARK   10  A    between atoms: C9_30  and  O3_31 
REMARK   11  A    between atoms: C9_30  and  C10_33 
REMARK   12  A    between atoms: C10_33  and  C11_34 
REMARK   13  A    between atoms: C11_34  and  O4_35 
REMARK   14  A    between atoms: N10_38  and  O5_39 
REMARK   15  A    between atoms: C15_49  and  C16_50 
REMARK   16  A    between atoms: C16_50  and  N12_51 
REMARK   17  A    between atoms: C22_61  and  O10_62 
ROOT
HETATM    1  N4  UNL     1      -1.148   1.628   0.528  1.00  0.00    -0.354 N 
ATOM      2  H4  UNL     1      -1.420   2.364   1.180  1.00  0.00     0.162 HD
HETATM    3  C5  UNL     1       0.239   1.484   0.133  1.00  0.00     0.237 C 
HETATM    4  O1  UNL     1       0.547   0.577  -0.666  1.00  0.00    -0.272 OA
ENDROOT
BRANCH   3   5
HETATM    5  C6  UNL     1       1.271   2.389   0.664  1.00  0.00     0.255 C 
BRANCH   5   6
HETATM    6  N5  UNL     1       2.577   2.033   0.093  1.00  0.00    -0.242 N 
HETATM    7  N6  UNL     1       2.975   2.585  -1.015  1.00  0.00    -0.246 N 
HETATM    8  C7  UNL     1       4.186   2.242  -1.528  1.00  0.00     0.340 A 
ATOM      9  H6  UNL     1       2.386   3.267  -1.493  1.00  0.00     0.192 HD
HETATM   10  O2  UNL     1       4.545   2.789  -2.596  1.00  0.00    -0.245 OA
HETATM   11  N7  UNL     1       4.951   1.348  -0.897  1.00  0.00    -0.289 N 
HETATM   12  C8  UNL     1       4.604   0.747   0.236  1.00  0.00     0.182 A 
ATOM     13  H7  UNL     1       5.854   1.113  -1.309  1.00  0.00     0.172 HD
HETATM   14  C14 UNL     1       3.338   1.142   0.723  1.00  0.00     0.306 A 
HETATM   15  O8  UNL     1       2.967   0.600   1.793  1.00  0.00    -0.262 OA
BRANCH  12  16
HETATM   16  N8  UNL     1       5.398  -0.183   0.884  1.00  0.00    -0.320 N 
ATOM     17  H8  UNL     1       4.955  -0.534   1.733  1.00  0.00     0.169 HD
BRANCH  16  18
HETATM   18  C9  UNL     1       6.633  -0.755   0.675  1.00  0.00     0.156 C 
BRANCH  18  19
HETATM   19  O3  UNL     1       6.932  -1.639   1.647  1.00  0.00    -0.347 OA
ATOM     20  H3  UNL     1       7.784  -2.034   1.503  1.00  0.00     0.219 HD
ENDBRANCH  18  19
BRANCH  18  21
HETATM   21  C10 UNL     1       7.674  -0.624  -0.344  1.00  0.00     0.218 C 
HETATM   22  N9  UNL     1       8.766  -1.611   0.017  1.00  0.00    -0.076 NA
HETATM   23  N10 UNL     1       8.271  -2.889  -0.046  1.00  0.00    -0.111 N 
HETATM   24  C12 UNL     1       7.240  -3.282  -0.921  1.00  0.00     0.365 C 
HETATM   25  O6  UNL     1       6.814  -4.494  -0.948  1.00  0.00    -0.243 OA
HETATM   26  N11 UNL     1       6.648  -2.335  -1.797  1.00  0.00    -0.274 N 
HETATM   27  C13 UNL     1       7.212  -1.002  -1.675  1.00  0.00     0.262 C 
ATOM     28  H11 UNL     1       5.899  -2.568  -2.449  1.00  0.00     0.173 HD
HETATM   29  O7  UNL     1       7.292  -0.251  -2.652  1.00  0.00    -0.270 OA
BRANCH  21  30
HETATM   30  C11 UNL     1       8.385   0.685  -0.360  1.00  0.00     0.211 C 
BRANCH  30  31
HETATM   31  O4  UNL     1       8.920   0.910   0.933  1.00  0.00    -0.398 OA
ATOM     32  H4  UNL     1       9.373   1.745   0.923  1.00  0.00     0.209 HD
ENDBRANCH  30  31
ENDBRANCH  21  30
BRANCH  23  33
HETATM   33  O5  UNL     1       8.808  -3.851   0.793  1.00  0.00    -0.267 OA
ATOM     34  H5  UNL     1       8.465  -4.736   0.749  1.00  0.00     0.246 HD
ENDBRANCH  23  33
ENDBRANCH  18  21
ENDBRANCH  16  18
ENDBRANCH  12  16
ENDBRANCH   5   6
ENDBRANCH   3   5
BRANCH   1  35
HETATM   35  C4  UNL     1      -2.135   0.736   0.002  1.00  0.00     0.180 C 
BRANCH  35  36
HETATM   36  C3  UNL     1      -3.508   0.932   0.427  1.00  0.00     0.042 A 
HETATM   37  N3  UNL     1      -3.858   1.896   1.283  1.00  0.00    -0.355 N 
HETATM   38  C2  UNL     1      -5.129   2.123   1.713  1.00  0.00     0.105 A 
ATOM     39  H3  UNL     1      -3.121   2.505   1.639  1.00  0.00     0.166 HD
HETATM   40  C22 UNL     1      -6.110   1.306   1.236  1.00  0.00     0.143 A 
HETATM   41  C21 UNL     1      -5.773   0.275   0.327  1.00  0.00     0.220 A 
HETATM   42  C15 UNL     1      -4.493   0.061  -0.095  1.00  0.00     0.051 A 
HETATM   43  O9  UNL     1      -6.762  -0.405  -0.045  1.00  0.00    -0.284 OA
BRANCH  38  44
HETATM   44  C1  UNL     1      -5.346   3.274   2.621  1.00  0.00     0.430 C 
BRANCH  44  45
HETATM   45  N1  UNL     1      -6.417   4.089   2.097  1.00  0.00    -0.045 N 
ATOM     46  H13 UNL     1      -6.563   4.951   2.622  1.00  0.00     0.277 HD
ATOM     47  H12 UNL     1      -6.193   4.523   1.201  1.00  0.00     0.277 HD
ATOM     48  H11 UNL     1      -7.243   3.492   2.062  1.00  0.00     0.277 HD
ENDBRANCH  44  45
BRANCH  44  49
HETATM   49  N2  UNL     1      -4.173   4.121   2.671  1.00  0.00    -0.045 N 
ATOM     50  H23 UNL     1      -3.949   4.555   1.775  1.00  0.00     0.277 HD
ATOM     51  H22 UNL     1      -4.319   4.983   3.196  1.00  0.00     0.277 HD
ATOM     52  H21 UNL     1      -3.417   3.545   3.041  1.00  0.00     0.277 HD
ENDBRANCH  44  49
ENDBRANCH  38  44
BRANCH  40  53
HETATM   53  O10 UNL     1      -7.420   1.454   1.622  1.00  0.00    -0.355 OA
ATOM     54  H10 UNL     1      -8.104   0.884   1.289  1.00  0.00     0.218 HD
ENDBRANCH  40  53
BRANCH  42  55
HETATM   55  C16 UNL     1      -4.066  -0.939  -1.047  1.00  0.00     0.077 C 
BRANCH  55  56
HETATM   56  N12 UNL     1      -5.044  -1.873  -1.536  1.00  0.00    -0.288 NA
HETATM   57  C17 UNL     1      -4.452  -2.582  -2.668  1.00  0.00     0.122 C 
HETATM   58  C18 UNL     1      -5.032  -3.929  -2.922  1.00  0.00     0.247 C 
HETATM   59  N13 UNL     1      -4.543  -4.861  -1.904  1.00  0.00    -0.073 N 
HETATM   60  C19 UNL     1      -4.233  -4.027  -0.758  1.00  0.00     0.247 C 
ATOM     61 2H13 UNL     1      -5.186  -5.626  -1.699  1.00  0.00     0.277 HD
ATOM     62 1H13 UNL     1      -3.766  -5.444  -2.215  1.00  0.00     0.277 HD
HETATM   63  C20 UNL     1      -5.263  -2.947  -0.536  1.00  0.00     0.122 C 
ENDBRANCH  55  56
ENDBRANCH  42  55
ENDBRANCH  35  36
ENDBRANCH   1  35
TORSDOF 17
