REMARK  9 active torsions:
REMARK  status: ('A' for Active; 'I' for Inactive)
REMARK    1  A    between atoms: C2_2  and  C4_4 
REMARK    2  A    between atoms: C4_4  and  C5_5 
REMARK    3  A    between atoms: C5_5  and  N1_6 
REMARK    4  A    between atoms: C5_5  and  C9_16 
REMARK       I    between atoms: N1_6  and  C6_8 
REMARK    5  A    between atoms: C6_8  and  C7_10 
REMARK    6  A    between atoms: C7_10  and  C8_13 
REMARK       I    between atoms: C9_16  and  N2_18 
REMARK    7  A    between atoms: N2_18  and  C10_20 
REMARK    8  A    between atoms: C15_25  and  C16_26 
REMARK    9  A    between atoms: C17_29  and  N4_30 
REMARK       I    between atoms: N4_30  and  C18_32 
ROOT
HETATM    1  C9  UNL     1      -1.001  -0.343  -0.136  1.00  0.00     0.240 C 
HETATM    2  O2  UNL     1      -0.963  -1.582  -0.206  1.00  0.00    -0.271 OA
HETATM    3  N2  UNL     1       0.160   0.431  -0.363  1.00  0.00    -0.353 N 
ATOM      4  H2  UNL     1       0.093   1.447  -0.297  1.00  0.00     0.163 HD
ENDROOT
BRANCH   1   5
HETATM    5  C5  UNL     1      -2.289   0.367   0.193  1.00  0.00     0.177 C 
BRANCH   5   6
HETATM    6  C4  UNL     1      -2.552   1.298  -0.943  1.00  0.00     0.038 C 
BRANCH   6   7
HETATM    7  C2  UNL     1      -3.810   2.106  -0.837  1.00  0.00    -0.020 C 
HETATM    8  C1  UNL     1      -3.842   2.976   0.385  1.00  0.00     0.009 C 
HETATM    9  C3  UNL     1      -5.077   1.337  -0.950  1.00  0.00     0.009 C 
ENDBRANCH   6   7
ENDBRANCH   5   6
BRANCH   5  10
HETATM   10  N1  UNL     1      -3.308  -0.631   0.394  1.00  0.00    -0.343 N 
HETATM   11  C6  UNL     1      -3.819  -0.830   1.694  1.00  0.00     0.297 C 
HETATM   12  O1  UNL     1      -3.403  -0.156   2.665  1.00  0.00    -0.266 OA
ATOM     13  H1  UNL     1      -3.654  -1.184  -0.390  1.00  0.00     0.163 HD
BRANCH  11  14
HETATM   14  C7  UNL     1      -4.856  -1.840   1.930  1.00  0.00     0.379 C 
HETATM   15  F1  UNL     1      -5.306  -1.826   3.243  1.00  0.00    -0.189 F 
HETATM   16  F2  UNL     1      -5.929  -1.625   1.101  1.00  0.00    -0.189 F 
BRANCH  14  17
HETATM   17  C8  UNL     1      -4.303  -3.251   1.716  1.00  0.00     0.434 C 
HETATM   18  F3  UNL     1      -3.837  -3.448   0.452  1.00  0.00    -0.207 F 
HETATM   19  F4  UNL     1      -3.341  -3.466   2.694  1.00  0.00    -0.207 F 
ENDBRANCH  14  17
ENDBRANCH  11  14
ENDBRANCH   5  10
ENDBRANCH   1   5
BRANCH   3  20
HETATM   20  C10 UNL     1       1.444  -0.164  -0.686  1.00  0.00     0.108 C 
HETATM   21  C11 UNL     1       1.936   0.276  -2.056  1.00  0.00     0.036 C 
HETATM   22  C12 UNL     1       3.454   0.178  -1.834  1.00  0.00    -0.032 C 
HETATM   23  C13 UNL     1       4.193   0.913  -2.945  1.00  0.00     0.016 C 
HETATM   24  C14 UNL     1       3.801  -1.261  -1.919  1.00  0.00     0.016 C 
HETATM   25  C15 UNL     1       3.585   0.844  -0.516  1.00  0.00     0.107 C 
HETATM   26  C17 UNL     1       2.456   0.294   0.322  1.00  0.00     0.121 C 
BRANCH  25  27
HETATM   27  C16 UNL     1       4.892   0.839   0.116  1.00  0.00     0.238 C 
HETATM   28  N3  UNL     1       5.647  -0.298   0.496  1.00  0.00    -0.062 NA
HETATM   29  O3  UNL     1       5.475   1.949   0.384  1.00  0.00    -0.276 OA
ENDBRANCH  25  27
BRANCH  26  30
HETATM   30  N4  UNL     1       2.841  -0.735   1.237  1.00  0.00    -0.338 N 
HETATM   31  C18 UNL     1       2.663  -0.608   2.635  1.00  0.00     0.329 C 
HETATM   32  N5  UNL     1       3.065  -1.664   3.494  1.00  0.00    -0.040 NA
HETATM   33  O4  UNL     1       2.157   0.413   3.171  1.00  0.00    -0.251 OA
ATOM     34  H4  UNL     1       3.258  -1.590   0.869  1.00  0.00     0.164 HD
ENDBRANCH  26  30
ENDBRANCH   3  20
TORSDOF 9
