REMARK  6 active torsions:
REMARK  status: ('A' for Active; 'I' for Inactive)
REMARK    1  A    between atoms: C3_3  and  C4_4 
REMARK    2  A    between atoms: C5_5  and  C6_6 
REMARK    3  A    between atoms: C6_6  and  C7_7 
REMARK    4  A    between atoms: C7_7  and  N1_8 
REMARK       I    between atoms: N1_8  and  C8_10 
REMARK       I    between atoms: C8_10  and  N3_14 
REMARK    5  A    between atoms: N3_14  and  C9_16 
REMARK    6  A    between atoms: C9_16  and  C10_17 
ROOT
HETATM    1  C1  UNL     1       9.830  -0.031   0.566  1.00  0.00     0.113 C 
HETATM    2  C2  UNL     1       8.388   0.103   0.337  1.00  0.00    -0.097 C 
HETATM    3  C3  UNL     1       7.198   0.225   0.132  1.00  0.00    -0.015 C 
ENDROOT
BRANCH   3   4
HETATM    4  C4  UNL     1       5.811   0.364  -0.126  1.00  0.00    -0.015 C 
HETATM    5  C5  UNL     1       4.630   0.478  -0.368  1.00  0.00    -0.091 C 
BRANCH   5   6
HETATM    6  C6  UNL     1       3.188   0.594  -0.680  1.00  0.00     0.115 C 
BRANCH   6   7
HETATM    7  C7  UNL     1       2.597  -0.806  -0.585  1.00  0.00     0.150 C 
BRANCH   7   8
HETATM    8  N1  UNL     1       1.182  -0.793  -0.879  1.00  0.00    -0.226 N 
HETATM    9  C8  UNL     1       0.197  -0.206  -0.075  1.00  0.00     0.667 C 
HETATM   10  N2  UNL     1       0.446   0.096   1.142  1.00  0.00    -0.235 N 
HETATM   11  N3  UNL     1      -1.079   0.042  -0.651  1.00  0.00    -0.225 N 
ATOM     12  H22 UNL     1       1.361  -0.082   1.555  1.00  0.00     0.174 HD
ATOM     13  H21 UNL     1      -0.271   0.524   1.728  1.00  0.00     0.174 HD
ATOM     14  H3  UNL     1      -1.191   0.118  -1.662  1.00  0.00     0.177 HD
ATOM     15  H1  UNL     1       0.877  -1.247  -1.740  1.00  0.00     0.177 HD
BRANCH  11  16
HETATM   16  C9  UNL     1      -2.214   0.184   0.234  1.00  0.00     0.171 C 
BRANCH  16  17
HETATM   17  C10 UNL     1      -3.481   0.425  -0.563  1.00  0.00     0.209 C 
HETATM   18  C11 UNL     1      -3.807  -0.704  -1.527  1.00  0.00     0.063 C 
HETATM   19  C12 UNL     1      -5.129  -0.783  -0.775  1.00  0.00     0.239 C 
HETATM   20  N4  UNL     1      -4.679   0.191   0.191  1.00  0.00    -0.069 N 
HETATM   21  C13 UNL     1      -5.505   1.396   0.238  1.00  0.00     0.272 C 
HETATM   22  C14 UNL     1      -4.480  -0.370   1.526  1.00  0.00     0.272 C 
ENDBRANCH  16  17
ENDBRANCH  11  16
ENDBRANCH   7   8
ENDBRANCH   6   7
ENDBRANCH   5   6
ENDBRANCH   3   4
TORSDOF 6
