REMARK  12 active torsions:
REMARK  status: ('A' for Active; 'I' for Inactive)
REMARK    1  A    between atoms: C2_2  and  C3_3 
REMARK    2  A    between atoms: C6_6  and  C7_7 
REMARK       I    between atoms: C7_7  and  N1_9 
REMARK    3  A    between atoms: C11_13  and  C12_14 
REMARK       I    between atoms: C12_14  and  N2_16 
REMARK    4  A    between atoms: N3_19  and  C15_20 
REMARK    5  A    between atoms: C15_20  and  C17_22 
REMARK       I    between atoms: C17_22  and  N4_24 
REMARK    6  A    between atoms: N4_24  and  C18_26 
REMARK    7  A    between atoms: C18_26  and  C19_27 
REMARK    8  A    between atoms: C19_27  and  N5_28 
REMARK       I    between atoms: N6_34  and  C25_35 
REMARK       I    between atoms: C25_35  and  N7_37 
REMARK    9  A    between atoms: N7_37  and  C26_39 
REMARK   10  A    between atoms: C26_39  and  C27_40 
REMARK   11  A    between atoms: C26_39  and  C34_47 
REMARK   12  A    between atoms: C27_40  and  C28_41 
ROOT
HETATM    1  C7  UNL     1      -1.778   1.954   0.075  1.00  0.00     0.243 C 
HETATM    2  O1  UNL     1      -2.055   1.083   0.933  1.00  0.00    -0.271 OA
HETATM    3  N1  UNL     1      -0.663   1.860  -0.742  1.00  0.00    -0.337 N 
HETATM    4  C8  UNL     1      -0.415   2.935  -1.774  1.00  0.00     0.127 C 
HETATM    5  C9  UNL     1       1.008   3.289  -1.412  1.00  0.00     0.022 C 
HETATM    6  C10 UNL     1       1.605   2.017  -0.774  1.00  0.00     0.037 C 
HETATM    7  C11 UNL     1       0.475   1.027  -0.969  1.00  0.00     0.179 C 
ENDROOT
BRANCH   1   8
HETATM    8  C6  UNL     1      -2.748   3.131  -0.015  1.00  0.00     0.182 C 
HETATM    9  C5  UNL     1      -2.124   4.182   0.884  1.00  0.00     0.037 C 
HETATM   10  C4  UNL     1      -2.348   3.591   2.274  1.00  0.00     0.032 C 
HETATM   11  C3  UNL     1      -3.714   2.935   2.150  1.00  0.00     0.112 C 
HETATM   12  N6  UNL     1      -3.955   2.768   0.746  1.00  0.00    -0.312 N 
HETATM   13  C25 UNL     1      -5.191   2.278   0.195  1.00  0.00     0.324 C 
HETATM   14  O4  UNL     1      -5.249   2.289  -1.049  1.00  0.00    -0.247 OA
HETATM   15  N7  UNL     1      -6.251   1.818   0.968  1.00  0.00    -0.309 N 
ATOM     16  H7  UNL     1      -6.040   1.849   1.965  1.00  0.00     0.170 HD
BRANCH  11  17
HETATM   17  C2  UNL     1      -4.656   3.964   2.755  1.00  0.00    -0.012 C 
HETATM   18  C1  UNL     1      -5.213   4.857   1.981  1.00  0.00     0.009 C 
ENDBRANCH  11  17
BRANCH  15  19
HETATM   19  C26 UNL     1      -7.538   1.322   0.718  1.00  0.00     0.059 C 
BRANCH  19  20
HETATM   20  C27 UNL     1      -7.640  -0.076   1.227  1.00  0.00     0.065 C 
BRANCH  20  21
HETATM   21  C28 UNL     1      -6.684  -1.065   0.663  1.00  0.00    -0.009 C 
HETATM   22  C29 UNL     1      -6.987  -2.403   1.378  1.00  0.00     0.005 C 
HETATM   23  C30 UNL     1      -6.427  -3.546   0.536  1.00  0.00     0.000 C 
HETATM   24  C31 UNL     1      -7.326  -3.792  -0.674  1.00  0.00     0.000 C 
HETATM   25  C32 UNL     1      -7.826  -2.435  -1.122  1.00  0.00     0.000 C 
HETATM   26  C33 UNL     1      -6.790  -1.369  -0.789  1.00  0.00     0.005 C 
ENDBRANCH  20  21
ENDBRANCH  19  20
BRANCH  19  27
HETATM   27  C34 UNL     1      -8.249   1.532  -0.519  1.00  0.00     0.168 C 
HETATM   28  C35 UNL     1      -9.631   0.969  -0.777  1.00  0.00     0.098 C 
HETATM   29  O5  UNL     1      -7.813   2.169  -1.441  1.00  0.00    -0.292 OA
ENDBRANCH  19  27
ENDBRANCH  15  19
ENDBRANCH   1   8
BRANCH   7  30
HETATM   30  C12 UNL     1       0.584  -0.241  -0.308  1.00  0.00     0.242 C 
HETATM   31  O2  UNL     1      -0.396  -0.784   0.327  1.00  0.00    -0.271 OA
HETATM   32  N2  UNL     1       1.772  -1.036  -0.278  1.00  0.00    -0.347 N 
HETATM   33  C13 UNL     1       1.772  -2.333   0.431  1.00  0.00     0.156 C 
HETATM   34  C24 UNL     1       3.023  -0.696  -0.893  1.00  0.00     0.156 C 
HETATM   35  C14 UNL     1       2.929  -2.394   1.356  1.00  0.00     0.293 C 
HETATM   36  N3  UNL     1       4.192  -2.108   0.676  1.00  0.00     0.104 N 
HETATM   37  C23 UNL     1       3.911  -1.951  -0.748  1.00  0.00     0.293 C 
BRANCH  36  38
HETATM   38  C15 UNL     1       5.041  -3.251   0.895  1.00  0.00     0.310 C 
HETATM   39  C16 UNL     1       4.475  -4.460   0.224  1.00  0.00     0.053 C 
BRANCH  38  40
HETATM   40  C17 UNL     1       6.460  -3.017   0.566  1.00  0.00     0.251 C 
HETATM   41  O3  UNL     1       7.225  -4.013   0.619  1.00  0.00    -0.271 OA
HETATM   42  N4  UNL     1       7.014  -1.766   0.200  1.00  0.00    -0.358 N 
ATOM     43  H4  UNL     1       6.419  -0.939   0.146  1.00  0.00     0.162 HD
BRANCH  42  44
HETATM   44  C18 UNL     1       8.429  -1.663  -0.098  1.00  0.00     0.150 C 
BRANCH  44  45
HETATM   45  C19 UNL     1       8.817  -0.258  -0.481  1.00  0.00     0.255 C 
BRANCH  45  46
HETATM   46  N5  UNL     1      10.228  -0.148  -0.759  1.00  0.00    -0.077 N 
HETATM   47  C20 UNL     1      10.990  -0.147   0.482  1.00  0.00     0.271 C 
HETATM   48  C21 UNL     1      10.459   1.114  -1.441  1.00  0.00     0.271 C 
HETATM   49  C22 UNL     1      10.707  -1.208  -1.638  1.00  0.00     0.271 C 
ENDBRANCH  45  46
ENDBRANCH  44  45
ENDBRANCH  42  44
ENDBRANCH  38  40
ENDBRANCH  36  38
ENDBRANCH   7  30
TORSDOF 12
