REMARK  6 active torsions:
REMARK  status: ('A' for Active; 'I' for Inactive)
REMARK    1  A    between atoms: C2_2  and  C3_3 
REMARK    2  A    between atoms: C3_3  and  N1_4 
REMARK    3  A    between atoms: C6_7  and  C7_8 
REMARK    4  A    between atoms: C7_8  and  N2_9 
REMARK    5  A    between atoms: C8_11  and  N3_12 
REMARK    6  A    between atoms: N3_12  and  N4_14 
ROOT
HETATM    1  N2  UNL     1       2.260  -0.726   0.477  1.00  0.00    -0.383 N 
ATOM      2  H2  UNL     1       2.381  -1.458  -0.223  1.00  0.00     0.160 HD
HETATM    3  C8  UNL     1       3.305  -0.202   1.020  1.00  0.00     0.194 C 
ENDROOT
BRANCH   1   4
HETATM    4  C7  UNL     1       0.919  -0.306   0.831  1.00  0.00     0.155 C 
BRANCH   4   5
HETATM    5  C6  UNL     1       0.081  -0.028  -0.397  1.00  0.00     0.234 A 
HETATM    6  N1  UNL     1      -1.275   0.398  -0.247  1.00  0.00    -0.058 N 
HETATM    7  C4  UNL     1      -1.786   0.603   1.096  1.00  0.00     0.273 C 
HETATM    8  C5  UNL     1      -0.316   1.320  -0.786  1.00  0.00     0.272 A 
BRANCH   6   9
HETATM    9  C3  UNL     1      -2.275  -0.083  -1.193  1.00  0.00     0.264 C 
BRANCH   9  10
HETATM   10  C2  UNL     1      -3.295  -0.927  -0.530  1.00  0.00    -0.009 C 
HETATM   11  C1  UNL     1      -4.587  -0.638  -0.519  1.00  0.00     0.008 C 
ENDBRANCH   9  10
ENDBRANCH   6   9
ENDBRANCH   4   5
ENDBRANCH   1   4
BRANCH   3  12
HETATM   12  N3  UNL     1       4.591  -0.637   0.649  1.00  0.00    -0.283 N 
ATOM     13  H3  UNL     1       5.104  -1.268   1.265  1.00  0.00     0.189 HD
BRANCH  12  14
HETATM   14  N4  UNL     1       5.176  -0.220  -0.547  1.00  0.00    -0.248 N 
HETATM   15  N5  UNL     1       6.349  -0.570  -0.856  1.00  0.00    -0.331 N 
ATOM     16  H52 UNL     1       6.864  -1.168  -0.209  1.00  0.00     0.178 HD
ATOM     17  H51 UNL     1       6.777  -0.265  -1.730  1.00  0.00     0.178 HD
ATOM     18  H4  UNL     1       4.647   0.378  -1.182  1.00  0.00     0.207 HD
ENDBRANCH  12  14
ENDBRANCH   3  12
TORSDOF 6
