REMARK  5 active torsions:
REMARK  status: ('A' for Active; 'I' for Inactive)
REMARK    1  A    between atoms: N1_2  and  C2_3 
REMARK    2  A    between atoms: C2_3  and  C3_4 
REMARK    3  A    between atoms: C3_4  and  N2_5 
REMARK    4  A    between atoms: N2_5  and  C4_7 
REMARK    5  A    between atoms: N3_8  and  N4_10 
ROOT
HETATM    1  N2  UNL     1       1.746  -0.007  -0.912  1.00  0.00    -0.383 N 
ATOM      2  H2  UNL     1       2.237   0.800  -1.297  1.00  0.00     0.160 HD
ENDROOT
BRANCH   1   3
HETATM    3  C3  UNL     1       0.298  -0.055  -1.002  1.00  0.00     0.148 C 
BRANCH   3   4
HETATM    4  C2  UNL     1      -0.233   0.074   0.388  1.00  0.00     0.256 C 
BRANCH   4   5
HETATM    5  N1  UNL     1      -1.661   0.047   0.502  1.00  0.00    -0.066 N 
HETATM    6  C1  UNL     1      -2.127   0.419   1.840  1.00  0.00     0.272 C 
HETATM    7  C5  UNL     1      -2.419  -0.987  -0.172  1.00  0.00     0.265 A 
HETATM    8  C6  UNL     1      -2.508   0.468  -0.571  1.00  0.00     0.265 A 
ENDBRANCH   4   5
ENDBRANCH   3   4
ENDBRANCH   1   3
BRANCH   1   9
HETATM    9  C4  UNL     1       2.498  -1.040  -0.309  1.00  0.00     0.194 C 
HETATM   10  N3  UNL     1       3.726  -0.858  -0.007  1.00  0.00    -0.283 N 
ATOM     11  H3  UNL     1       4.268  -1.605   0.428  1.00  0.00     0.189 HD
BRANCH  10  12
HETATM   12  N4  UNL     1       4.315   0.376  -0.281  1.00  0.00    -0.248 N 
HETATM   13  N5  UNL     1       4.814   0.625  -1.417  1.00  0.00    -0.331 N 
ATOM     14  H52 UNL     1       4.777  -0.100  -2.133  1.00  0.00     0.178 HD
ATOM     15  H51 UNL     1       5.245   1.528  -1.617  1.00  0.00     0.178 HD
ATOM     16  H4  UNL     1       4.344   1.090   0.447  1.00  0.00     0.207 HD
ENDBRANCH  10  12
ENDBRANCH   1   9
TORSDOF 5
