REMARK  5 active torsions:
REMARK  status: ('A' for Active; 'I' for Inactive)
REMARK    1  A    between atoms: C3_4  and  C4_5 
REMARK    2  A    between atoms: C4_5  and  N2_6 
REMARK    3  A    between atoms: N2_6  and  C5_8 
REMARK    4  A    between atoms: C6_10  and  N3_11 
REMARK    5  A    between atoms: N3_11  and  C7_13 
ROOT
HETATM    1  C1  UNL     1      -0.353   0.320   1.515  1.00  0.00     0.275 C 
HETATM    2  N1  UNL     1      -0.511  -0.818   0.649  1.00  0.00    -0.039 N 
HETATM    3  C2  UNL     1      -1.121  -1.949   1.334  1.00  0.00     0.275 C 
HETATM    4  C3  UNL     1       0.479  -1.062  -0.392  1.00  0.00     0.280 A 
HETATM    5  C6  UNL     1      -0.810  -0.635  -0.744  1.00  0.00     0.326 A 
ENDROOT
BRANCH   5   6
HETATM    6  N3  UNL     1      -1.264   0.619  -1.280  1.00  0.00    -0.357 N 
ATOM      7  H3  UNL     1      -0.563   1.330  -1.489  1.00  0.00     0.162 HD
BRANCH   6   8
HETATM    8  C7  UNL     1      -2.618   0.932  -1.536  1.00  0.00     0.170 C 
HETATM    9  N4  UNL     1      -3.054   2.109  -1.288  1.00  0.00    -0.395 N 
ATOM     10  H42 UNL     1      -2.414   2.806  -0.908  1.00  0.00     0.156 HD
ATOM     11  H41 UNL     1      -4.031   2.335  -1.473  1.00  0.00     0.156 HD
ENDBRANCH   6   8
ENDBRANCH   5   6
BRANCH   4  12
HETATM   12  C4  UNL     1       1.810  -0.464  -0.328  1.00  0.00     0.100 C 
BRANCH  12  13
HETATM   13  N2  UNL     1       2.048   0.908  -0.282  1.00  0.00    -0.346 N 
ATOM     14  H2  UNL     1       1.272   1.570  -0.284  1.00  0.00     0.167 HD
BRANCH  13  15
HETATM   15  C5  UNL     1       3.394   1.369  -0.232  1.00  0.00     0.352 C 
HETATM   16  O1  UNL     1       4.315   0.534  -0.231  1.00  0.00    -0.283 OA
ENDBRANCH  13  15
ENDBRANCH  12  13
ENDBRANCH   4  12
TORSDOF 5
