REMARK  19 active torsions:
REMARK  status: ('A' for Active; 'I' for Inactive)
REMARK    1  A    between atoms: O1_2  and  C2_3 
REMARK    2  A    between atoms: C2_3  and  C3_5 
REMARK    3  A    between atoms: C5_8  and  O4_9 
REMARK    4  A    between atoms: C5_8  and  O5_11 
REMARK    5  A    between atoms: O5_11  and  C6_12 
REMARK    6  A    between atoms: N3_20  and  N4_21 
REMARK    7  A    between atoms: C9_24  and  N5_25 
REMARK    8  A    between atoms: N5_25  and  C10_27 
REMARK    9  A    between atoms: C10_27  and  O9_28 
REMARK   10  A    between atoms: C10_27  and  N6_30 
REMARK   11  A    between atoms: N6_30  and  C11_32 
REMARK   12  A    between atoms: C13_34  and  O10_36 
REMARK   13  A    between atoms: C15_38  and  O11_39 
REMARK   14  A    between atoms: C18_43  and  O12_44 
REMARK   15  A    between atoms: O12_44  and  C19_45 
REMARK   16  A    between atoms: C19_45  and  C20_47 
REMARK   17  A    between atoms: C20_47  and  O14_48 
REMARK   18  A    between atoms: C20_47  and  C21_50 
REMARK   19  A    between atoms: C21_50  and  O15_51 
ROOT
HETATM    1  N5  UNL     1       0.733  -0.433   0.234  1.00  0.00    -0.357 N 
ATOM      2  H5  UNL     1       0.090  -0.473  -0.557  1.00  0.00     0.159 HD
ENDROOT
BRANCH   1   3
HETATM    3  C9  UNL     1       2.139  -0.421   0.025  1.00  0.00     0.247 C 
HETATM    4  C7  UNL     1       2.825   0.829   0.436  1.00  0.00     0.325 C 
HETATM    5  C5  UNL     1       3.536   1.385  -0.815  1.00  0.00     0.326 C 
HETATM    6  N2  UNL     1       3.818   0.518   1.414  1.00  0.00    -0.032 N 
HETATM    7  O3  UNL     1       4.209   0.320  -1.444  1.00  0.00    -0.300 OA
HETATM    8  C4  UNL     1       5.181  -0.494  -0.842  1.00  0.00     0.158 C 
HETATM    9  C3  UNL     1       5.177  -1.063   0.351  1.00  0.00     0.090 C 
HETATM   10  C8  UNL     1       4.032  -0.912   1.310  1.00  0.00     0.351 C 
HETATM   11  N3  UNL     1       2.825  -1.467   0.757  1.00  0.00    -0.207 N 
ATOM     12  H22 UNL     1       4.672   1.068   1.320  1.00  0.00     0.281 HD
ATOM     13  H21 UNL     1       3.577   0.829   2.355  1.00  0.00     0.281 HD
BRANCH   5  14
HETATM   14  O4  UNL     1       2.517   1.874  -1.636  1.00  0.00    -0.341 OA
ATOM     15  H4  UNL     1       2.063   2.593  -1.212  1.00  0.00     0.215 HD
ENDBRANCH   5  14
BRANCH   5  16
HETATM   16  O5  UNL     1       4.377   2.461  -0.453  1.00  0.00    -0.240 OA
BRANCH  16  17
HETATM   17  C6  UNL     1       5.079   3.114  -1.438  1.00  0.00     0.377 C 
HETATM   18  N1  UNL     1       5.953   4.205  -1.206  1.00  0.00    -0.032 NA
HETATM   19  O6  UNL     1       4.940   2.725  -2.625  1.00  0.00    -0.242 OA
ENDBRANCH  16  17
ENDBRANCH   5  16
BRANCH   9  20
HETATM   20  C2  UNL     1       6.315  -1.871   0.757  1.00  0.00     0.294 C 
HETATM   21  O2  UNL     1       6.307  -2.409   1.891  1.00  0.00    -0.259 OA
BRANCH  20  22
HETATM   22  O1  UNL     1       7.408  -2.069  -0.063  1.00  0.00    -0.323 OA
HETATM   23  C1  UNL     1       8.532  -2.837   0.275  1.00  0.00     0.213 C 
ENDBRANCH  20  22
ENDBRANCH   9  20
BRANCH  11  24
HETATM   24  N4  UNL     1       2.380  -2.772   0.888  1.00  0.00    -0.037 N 
HETATM   25  O7  UNL     1       1.745  -3.321  -0.030  1.00  0.00    -0.516 OA
HETATM   26  O8  UNL     1       2.626  -3.492   2.030  1.00  0.00    -0.516 OA
ENDBRANCH  11  24
ENDBRANCH   1   3
BRANCH   1  27
HETATM   27  C10 UNL     1       0.242  -0.389   1.560  1.00  0.00     0.319 C 
BRANCH  27  28
HETATM   28  O9  UNL     1       0.633   0.662   2.350  1.00  0.00    -0.360 OA
ATOM     29  H9  UNL     1       0.303   0.692   3.240  1.00  0.00     0.214 HD
ENDBRANCH  27  28
BRANCH  27  30
HETATM   30  N6  UNL     1      -1.202  -0.528   1.518  1.00  0.00    -0.374 N 
ATOM     31  H6  UNL     1      -1.671  -1.366   1.861  1.00  0.00     0.158 HD
BRANCH  30  32
HETATM   32  C11 UNL     1      -1.926   0.560   0.976  1.00  0.00     0.113 C 
HETATM   33  C12 UNL     1      -1.706   0.921  -0.437  1.00  0.00     0.067 C 
HETATM   34  C13 UNL     1      -2.770   1.730  -1.092  1.00  0.00     0.082 C 
HETATM   35  C14 UNL     1      -2.968   1.203  -2.506  1.00  0.00     0.049 C 
HETATM   36  C15 UNL     1      -4.081   1.829  -0.440  1.00  0.00     0.158 C 
HETATM   37  C16 UNL     1      -4.081   1.610   1.053  1.00  0.00     0.045 C 
HETATM   38  C17 UNL     1      -5.512   1.610   1.517  1.00  0.00     0.015 C 
HETATM   39  C18 UNL     1      -3.412   0.262   1.255  1.00  0.00     0.160 C 
BRANCH  34  40
HETATM   40  O10 UNL     1      -2.291   3.052  -1.266  1.00  0.00    -0.388 OA
ATOM     41  H10 UNL     1      -2.970   3.568  -1.684  1.00  0.00     0.210 HD
ENDBRANCH  34  40
BRANCH  36  42
HETATM   42  O11 UNL     1      -4.688   3.079  -0.652  1.00  0.00    -0.392 OA
ATOM     43  H11 UNL     1      -5.537   3.143  -0.230  1.00  0.00     0.210 HD
ENDBRANCH  36  42
BRANCH  39  44
HETATM   44  O12 UNL     1      -3.886  -0.574   0.226  1.00  0.00    -0.311 OA
BRANCH  44  45
HETATM   45  C19 UNL     1      -4.441  -1.828   0.425  1.00  0.00     0.290 C 
HETATM   46  O13 UNL     1      -4.519  -2.231   1.614  1.00  0.00    -0.262 OA
BRANCH  45  47
HETATM   47  C20 UNL     1      -4.930  -2.678  -0.687  1.00  0.00     0.241 C 
BRANCH  47  48
HETATM   48  O14 UNL     1      -4.750  -2.045  -1.912  1.00  0.00    -0.383 OA
ATOM     49  H14 UNL     1      -5.063  -2.590  -2.625  1.00  0.00     0.210 HD
ENDBRANCH  47  48
BRANCH  47  50
HETATM   50  C21 UNL     1      -6.401  -3.000  -0.541  1.00  0.00     0.206 C 
BRANCH  50  51
HETATM   51  O15 UNL     1      -6.666  -3.640   0.668  1.00  0.00    -0.398 OA
ATOM     52  H15 UNL     1      -7.590  -3.842   0.760  1.00  0.00     0.209 HD
ENDBRANCH  50  51
ENDBRANCH  47  50
ENDBRANCH  45  47
ENDBRANCH  44  45
ENDBRANCH  39  44
ENDBRANCH  30  32
ENDBRANCH  27  30
ENDBRANCH   1  27
TORSDOF 19
