REMARK  18 active torsions:
REMARK  status: ('A' for Active; 'I' for Inactive)
REMARK    1  A    between atoms: C3_4  and  O2_5 
REMARK    2  A    between atoms: O2_5  and  C4_6 
REMARK    3  A    between atoms: C4_6  and  C5_7 
REMARK    4  A    between atoms: C5_7  and  O3_8 
REMARK    5  A    between atoms: C5_7  and  C6_10 
REMARK    6  A    between atoms: C6_10  and  C7_11 
REMARK    7  A    between atoms: C6_10  and  O4_13 
REMARK    8  A    between atoms: O4_13  and  C8_14 
REMARK    9  A    between atoms: C10_18  and  C11_19 
REMARK   10  A    between atoms: C12_23  and  C13_24 
REMARK   11  A    between atoms: C13_24  and  O10_25 
REMARK   12  A    between atoms: C13_24  and  C14_27 
REMARK   13  A    between atoms: C14_27  and  O11_28 
REMARK   14  A    between atoms: C15_31  and  O13_32 
REMARK   15  A    between atoms: C17_36  and  O14_37 
REMARK   16  A    between atoms: C18_39  and  O15_40 
REMARK   17  A    between atoms: C19_42  and  O16_43 
REMARK   18  A    between atoms: C20_45  and  O17_46 
ROOT
HETATM    1  C8  UNL     1      -1.578  -0.093  -0.504  1.00  0.00     0.296 C 
HETATM    2  O5  UNL     1      -2.684  -0.536   0.221  1.00  0.00    -0.297 OA
HETATM    3  C9  UNL     1      -3.774   0.284   0.211  1.00  0.00     0.318 C 
HETATM    4  O6  UNL     1      -4.619  -0.146   1.249  1.00  0.00    -0.289 OA
HETATM    5  C10 UNL     1      -5.139  -1.377   0.976  1.00  0.00     0.370 C 
HETATM    6  O9  UNL     1      -5.277  -1.718  -0.337  1.00  0.00    -0.318 OA
HETATM    7  C12 UNL     1      -5.355  -0.645  -1.209  1.00  0.00     0.300 C 
HETATM    8  O12 UNL     1      -4.363   0.296  -1.016  1.00  0.00    -0.297 OA
HETATM    9  C15 UNL     1      -3.379   1.709   0.624  1.00  0.00     0.228 C 
HETATM   10  C16 UNL     1      -2.323   2.268  -0.262  1.00  0.00     0.129 C 
HETATM   11  S2  UNL     1      -1.031   3.152   0.660  1.00  0.00    -0.087 SA
HETATM   12  C17 UNL     1      -1.727   1.218  -1.157  1.00  0.00     0.190 C 
ENDROOT
BRANCH   1  13
HETATM   13  O4  UNL     1      -0.526  -0.077   0.406  1.00  0.00    -0.350 OA
BRANCH  13  14
HETATM   14  C6  UNL     1       0.402  -1.070   0.199  1.00  0.00     0.165 C 
BRANCH  14  15
HETATM   15  C5  UNL     1       1.770  -0.603  -0.159  1.00  0.00     0.171 C 
BRANCH  15  16
HETATM   16  C4  UNL     1       2.332   0.505   0.645  1.00  0.00     0.205 C 
BRANCH  16  17
HETATM   17  O2  UNL     1       3.433   1.084   0.107  1.00  0.00    -0.356 OA
BRANCH  17  18
HETATM   18  C3  UNL     1       4.596   0.390  -0.005  1.00  0.00     0.291 C 
HETATM   19  O1  UNL     1       4.940   0.374  -1.364  1.00  0.00    -0.351 OA
HETATM   20  C2  UNL     1       6.131  -0.247  -1.636  1.00  0.00     0.152 C 
HETATM   21  C1  UNL     1       6.040  -1.764  -1.623  1.00  0.00     0.042 C 
HETATM   22  C20 UNL     1       7.301   0.244  -0.825  1.00  0.00     0.178 C 
HETATM   23  C19 UNL     1       6.950   0.408   0.638  1.00  0.00     0.183 C 
HETATM   24  C18 UNL     1       5.677   1.219   0.686  1.00  0.00     0.204 C 
BRANCH  22  25
HETATM   25  O17 UNL     1       7.690   1.509  -1.293  1.00  0.00    -0.390 OA
ATOM     26  H17 UNL     1       8.428   1.819  -0.781  1.00  0.00     0.210 HD
ENDBRANCH  22  25
BRANCH  23  27
HETATM   27  O16 UNL     1       7.986   1.148   1.245  1.00  0.00    -0.390 OA
ATOM     28  H16 UNL     1       8.787   0.638   1.215  1.00  0.00     0.210 HD
ENDBRANCH  23  27
BRANCH  24  29
HETATM   29  O15 UNL     1       5.382   1.500   1.997  1.00  0.00    -0.388 OA
ATOM     30  H15 UNL     1       6.054   2.016   2.427  1.00  0.00     0.210 HD
ENDBRANCH  24  29
ENDBRANCH  17  18
ENDBRANCH  16  17
ENDBRANCH  15  16
BRANCH  15  31
HETATM   31  O3  UNL     1       2.646  -1.650  -0.302  1.00  0.00    -0.391 OA
ATOM     32  H3  UNL     1       2.285  -2.361  -0.818  1.00  0.00     0.210 HD
ENDBRANCH  15  31
ENDBRANCH  14  15
BRANCH  14  33
HETATM   33  C7  UNL     1       0.357  -2.139   1.273  1.00  0.00     0.120 C 
HETATM   34  S1  UNL     1       1.050  -1.646   2.846  1.00  0.00    -0.095 SA
ENDBRANCH  14  33
ENDBRANCH  13  14
ENDBRANCH   1  13
BRANCH  12  35
HETATM   35  O14 UNL     1      -0.473   1.666  -1.595  1.00  0.00    -0.389 OA
ATOM     36  H14 UNL     1      -0.569   2.512  -2.016  1.00  0.00     0.210 HD
ENDBRANCH  12  35
BRANCH   9  37
HETATM   37  O13 UNL     1      -2.974   1.683   1.977  1.00  0.00    -0.386 OA
ATOM     38  H13 UNL     1      -2.730   2.565   2.233  1.00  0.00     0.210 HD
ENDBRANCH   9  37
BRANCH   5  39
HETATM   39  C11 UNL     1      -4.430  -2.482   1.681  1.00  0.00     0.231 C 
HETATM   40  O7  UNL     1      -3.467  -2.216   2.433  1.00  0.00    -0.644 OA
HETATM   41  O8  UNL     1      -4.811  -3.806   1.525  1.00  0.00    -0.644 OA
ENDBRANCH   5  39
BRANCH   7  42
HETATM   42  C13 UNL     1      -6.747  -0.041  -1.227  1.00  0.00     0.197 C 
BRANCH  42  43
HETATM   43  O10 UNL     1      -7.152   0.427  -0.010  1.00  0.00    -0.389 OA
ATOM     44  H10 UNL     1      -8.023   0.805  -0.021  1.00  0.00     0.210 HD
ENDBRANCH  42  43
BRANCH  42  45
HETATM   45  C14 UNL     1      -6.814   1.003  -2.320  1.00  0.00     0.200 C 
BRANCH  45  46
HETATM   46  O11 UNL     1      -8.154   1.404  -2.398  1.00  0.00    -0.398 OA
ATOM     47  H11 UNL     1      -8.196   2.060  -3.084  1.00  0.00     0.209 HD
ENDBRANCH  45  46
ENDBRANCH  42  45
ENDBRANCH   7  42
TORSDOF 18
