REMARK  8 active torsions:
REMARK  status: ('A' for Active; 'I' for Inactive)
REMARK    1  A    between atoms: C2_2  and  O1_3 
REMARK    2  A    between atoms: O1_3  and  C3_4 
REMARK    3  A    between atoms: C3_4  and  C4_6 
REMARK    4  A    between atoms: C4_6  and  O3_7 
REMARK    5  A    between atoms: C7_12  and  S2_13 
REMARK    6  A    between atoms: S2_13  and  C8_14 
REMARK    7  A    between atoms: C14_22  and  C15_23 
REMARK       I    between atoms: N1_26  and  C16_27 
REMARK       I    between atoms: C16_27  and  N2_29 
REMARK    8  A    between atoms: N2_29  and  C17_31 
ROOT
HETATM    1  C4  UNL     1      -0.731  -0.668  -1.301  1.00  0.00     0.175 C 
HETATM    2  C5  UNL     1       0.570  -0.864  -2.047  1.00  0.00     0.125 C 
HETATM    3  S1  UNL     1       1.557  -1.630  -0.735  1.00  0.00    -0.157 SA
HETATM    4  C6  UNL     1       0.679  -0.933   0.695  1.00  0.00     0.090 C 
HETATM    5  C7  UNL     1       1.452   0.188   1.354  1.00  0.00     0.102 C 
HETATM    6  C14 UNL     1       1.212   1.343   0.419  1.00  0.00     0.205 C 
HETATM    7  N1  UNL     1      -0.227   1.195   0.241  1.00  0.00    -0.309 N 
HETATM    8  C16 UNL     1      -1.166   2.227   0.200  1.00  0.00     0.320 C 
HETATM    9  O6  UNL     1      -0.737   3.424   0.238  1.00  0.00    -0.247 OA
HETATM   10  N2  UNL     1      -2.574   2.054   0.122  1.00  0.00    -0.339 N 
ATOM     11  H2  UNL     1      -2.981   1.119   0.094  1.00  0.00     0.164 HD
HETATM   12  C20 UNL     1      -0.479  -0.215   0.080  1.00  0.00     0.150 C 
ENDROOT
BRANCH   5  13
HETATM   13  S2  UNL     1       3.029  -0.173   1.967  1.00  0.00    -0.119 SA
BRANCH  13  14
HETATM   14  C8  UNL     1       4.314  -0.748   0.975  1.00  0.00     0.024 A 
HETATM   15  C9  UNL     1       4.429  -2.132   0.776  1.00  0.00     0.044 A 
HETATM   16  C10 UNL     1       5.428  -2.694   0.014  1.00  0.00     0.035 A 
HETATM   17 CL1  UNL     1       5.542  -4.430  -0.216  1.00  0.00    -0.084 Cl
HETATM   18  C11 UNL     1       6.367  -1.899  -0.589  1.00  0.00     0.025 A 
HETATM   19  C12 UNL     1       6.261  -0.545  -0.397  1.00  0.00     0.027 A 
HETATM   20  C13 UNL     1       5.253   0.047   0.374  1.00  0.00     0.051 A 
HETATM   21 CL2  UNL     1       5.282   1.789   0.551  1.00  0.00    -0.083 Cl
ENDBRANCH  13  14
ENDBRANCH   5  13
BRANCH   6  22
HETATM   22  C15 UNL     1       1.505   2.637   1.115  1.00  0.00     0.198 C 
HETATM   23  O4  UNL     1       1.051   2.845   2.291  1.00  0.00    -0.646 OA
HETATM   24  O5  UNL     1       2.243   3.607   0.524  1.00  0.00    -0.646 OA
ENDBRANCH   6  22
BRANCH   1  25
HETATM   25  C3  UNL     1      -1.533  -1.908  -1.262  1.00  0.00     0.296 C 
HETATM   26  O2  UNL     1      -2.638  -1.938  -1.824  1.00  0.00    -0.262 OA
BRANCH  25  27
HETATM   27  O1  UNL     1      -1.109  -3.063  -0.618  1.00  0.00    -0.319 OA
BRANCH  27  28
HETATM   28  C2  UNL     1      -1.911  -4.203  -0.616  1.00  0.00     0.174 C 
HETATM   29  C1  UNL     1      -3.257  -3.995   0.023  1.00  0.00     0.034 C 
ENDBRANCH  27  28
ENDBRANCH  25  27
ENDBRANCH   1  25
BRANCH   1  30
HETATM   30  O3  UNL     1      -1.427   0.295  -2.015  1.00  0.00    -0.377 OA
ATOM     31  H3  UNL     1      -0.911   1.092  -2.040  1.00  0.00     0.211 HD
ENDBRANCH   1  30
BRANCH  10  32
HETATM   32  C17 UNL     1      -3.423   3.232   0.083  1.00  0.00     0.078 C 
HETATM   33  C18 UNL     1      -4.381   3.287   1.257  1.00  0.00     0.032 C 
HETATM   34  C19 UNL     1      -4.180   3.324  -1.229  1.00  0.00     0.032 C 
ENDBRANCH  10  32
TORSDOF 8
