REMARK  19 active torsions:
REMARK  status: ('A' for Active; 'I' for Inactive)
REMARK    1  A    between atoms: C2_2  and  C3_3 
REMARK    2  A    between atoms: C3_3  and  C4_4 
REMARK    3  A    between atoms: C4_4  and  C5_5 
REMARK    4  A    between atoms: C5_5  and  C6_6 
REMARK    5  A    between atoms: C6_6  and  C7_7 
REMARK    6  A    between atoms: C7_7  and  C8_8 
REMARK    7  A    between atoms: C8_8  and  O1_9 
REMARK    8  A    between atoms: O1_9  and  C9_10 
REMARK    9  A    between atoms: C9_10  and  C10_11 
REMARK   10  A    between atoms: C10_11  and  N1_12 
REMARK   11  A    between atoms: N1_12  and  C11_13 
REMARK   12  A    between atoms: C11_13  and  C12_14 
REMARK   13  A    between atoms: C12_14  and  N2_15 
REMARK   14  A    between atoms: N2_15  and  C13_18 
REMARK   15  A    between atoms: C13_18  and  C14_19 
REMARK   16  A    between atoms: C14_19  and  O2_20 
REMARK   17  A    between atoms: O2_20  and  C15_21 
REMARK   18  A    between atoms: C15_21  and  C16_22 
REMARK   19  A    between atoms: C16_22  and  C17_24 
ROOT
HETATM    1  C12 UNL     1       2.527   0.466   0.455  1.00  0.00     0.260 C 
ENDROOT
BRANCH   1   2
HETATM    2  C11 UNL     1       1.209  -0.233   0.383  1.00  0.00     0.265 C 
BRANCH   2   3
HETATM    3  N1  UNL     1       0.169   0.677  -0.064  1.00  0.00    -0.060 N 
HETATM    4  C23 UNL     1       0.397   2.091  -0.079  1.00  0.00     0.265 A 
HETATM    5  C24 UNL     1       0.313   1.286  -1.347  1.00  0.00     0.265 A 
BRANCH   3   6
HETATM    6  C10 UNL     1      -1.180   0.211   0.346  1.00  0.00     0.263 C 
BRANCH   6   7
HETATM    7  C9  UNL     1      -1.612  -0.920  -0.530  1.00  0.00     0.195 C 
BRANCH   7   8
HETATM    8  O1  UNL     1      -2.753  -1.535  -0.367  1.00  0.00    -0.389 OA
BRANCH   8   9
HETATM    9  C8  UNL     1      -4.004  -1.157  -0.463  1.00  0.00     0.167 C 
BRANCH   9  10
HETATM   10  C7  UNL     1      -4.473  -0.082   0.443  1.00  0.00     0.027 C 
BRANCH  10  11
HETATM   11  C6  UNL     1      -5.987   0.183   0.284  1.00  0.00     0.006 C 
BRANCH  11  12
HETATM   12  C5  UNL     1      -6.359   0.580  -1.081  1.00  0.00     0.027 C 
BRANCH  12  13
HETATM   13  C4  UNL     1      -7.785   0.919  -1.268  1.00  0.00    -0.027 C 
BRANCH  13  14
HETATM   14  C3  UNL     1      -8.875  -0.025  -1.078  1.00  0.00    -0.005 C 
BRANCH  14  15
HETATM   15  C2  UNL     1      -9.171  -0.656   0.194  1.00  0.00    -0.011 C 
HETATM   16  C1  UNL     1     -10.320  -0.408   0.876  1.00  0.00     0.011 C 
ENDBRANCH  14  15
ENDBRANCH  13  14
ENDBRANCH  12  13
ENDBRANCH  11  12
ENDBRANCH  10  11
ENDBRANCH   9  10
ENDBRANCH   8   9
ENDBRANCH   7   8
ENDBRANCH   6   7
ENDBRANCH   3   6
ENDBRANCH   2   3
ENDBRANCH   1   2
BRANCH   1  17
HETATM   17  N2  UNL     1       3.585  -0.442   0.932  1.00  0.00    -0.072 N 
ATOM     18  H22 UNL     1       4.416   0.081   1.209  1.00  0.00     0.277 HD
ATOM     19  H21 UNL     1       3.336  -0.849   1.833  1.00  0.00     0.277 HD
BRANCH  17  20
HETATM   20  C13 UNL     1       3.914  -1.455  -0.008  1.00  0.00     0.258 C 
BRANCH  20  21
HETATM   21  C14 UNL     1       4.696  -2.613   0.454  1.00  0.00     0.202 C 
BRANCH  21  22
HETATM   22  O2  UNL     1       5.892  -2.599   0.966  1.00  0.00    -0.357 OA
BRANCH  22  23
HETATM   23  C15 UNL     1       6.480  -2.036   1.966  1.00  0.00     0.190 C 
BRANCH  23  24
HETATM   24  C16 UNL     1       7.009  -0.681   1.983  1.00  0.00     0.203 C 
HETATM   25  O3  UNL     1       7.084  -0.108   3.143  1.00  0.00    -0.286 OA
BRANCH  24  26
HETATM   26  C17 UNL     1       7.464   0.067   0.826  1.00  0.00     0.016 A 
HETATM   27  C18 UNL     1       7.556  -0.408  -0.447  1.00  0.00     0.015 A 
HETATM   28  C19 UNL     1       8.012   0.365  -1.519  1.00  0.00     0.001 A 
HETATM   29  C20 UNL     1       8.393   1.665  -1.310  1.00  0.00     0.000 A 
HETATM   30  C21 UNL     1       8.305   2.153  -0.035  1.00  0.00     0.001 A 
HETATM   31  C22 UNL     1       7.861   1.405   1.012  1.00  0.00     0.015 A 
ENDBRANCH  24  26
ENDBRANCH  23  24
ENDBRANCH  22  23
ENDBRANCH  21  22
ENDBRANCH  20  21
ENDBRANCH  17  20
ENDBRANCH   1  17
TORSDOF 19
