REMARK  5 active torsions:
REMARK  status: ('A' for Active; 'I' for Inactive)
REMARK    1  A    between atoms: C2_2  and  N1_3 
REMARK    2  A    between atoms: C8_9  and  N2_10 
REMARK    3  A    between atoms: N2_10  and  C9_12 
REMARK    4  A    between atoms: C9_12  and  N3_14 
REMARK    5  A    between atoms: N3_14  and  N4_16 
ROOT
HETATM    1  N1  UNL     1       1.453   0.460   0.294  1.00  0.00    -0.067 N 
HETATM    2  C3  UNL     1       1.831  -0.939   0.204  1.00  0.00     0.238 C 
HETATM    3  C4  UNL     1       0.941  -1.748  -0.678  1.00  0.00     0.034 C 
HETATM    4  C5  UNL     1      -0.180  -1.004  -1.293  1.00  0.00     0.011 C 
HETATM    5  C6  UNL     1       0.373   0.257  -1.919  1.00  0.00     0.034 C 
HETATM    6  C7  UNL     1       1.316   0.988  -1.029  1.00  0.00     0.238 C 
HETATM    7  C8  UNL     1      -1.295  -0.583  -0.353  1.00  0.00     0.089 C 
HETATM    8  C10 UNL     1      -0.643  -0.589   1.024  1.00  0.00     0.053 C 
HETATM    9  C11 UNL     1       0.221   0.631   1.083  1.00  0.00     0.239 C 
ENDROOT
BRANCH   7  10
HETATM   10  N2  UNL     1      -2.419  -1.464  -0.426  1.00  0.00    -0.361 N 
ATOM     11  H2  UNL     1      -2.230  -2.377  -0.840  1.00  0.00     0.162 HD
BRANCH  10  12
HETATM   12  C9  UNL     1      -3.728  -1.259  -0.016  1.00  0.00     0.186 C 
HETATM   13  S1  UNL     1      -4.812  -2.513  -0.205  1.00  0.00    -0.040 SA
BRANCH  12  14
HETATM   14  N3  UNL     1      -4.265  -0.100   0.551  1.00  0.00    -0.283 N 
ATOM     15  H3  UNL     1      -5.253  -0.132   0.803  1.00  0.00     0.188 HD
BRANCH  14  16
HETATM   16  N4  UNL     1      -3.600   1.087   0.807  1.00  0.00    -0.343 N 
ATOM     17  H42 UNL     1      -2.613   1.100   0.548  1.00  0.00     0.176 HD
ATOM     18  H41 UNL     1      -3.992   1.933   1.221  1.00  0.00     0.176 HD
ENDBRANCH  14  16
ENDBRANCH  12  14
ENDBRANCH  10  12
ENDBRANCH   7  10
BRANCH   1  19
HETATM   19  C2  UNL     1       2.450   1.172   1.022  1.00  0.00     0.233 C 
HETATM   20  C1  UNL     1       3.691   1.504   0.250  1.00  0.00     0.035 C 
ENDBRANCH   1  19
TORSDOF 5
