REMARK  14 active torsions:
REMARK  status: ('A' for Active; 'I' for Inactive)
REMARK    1  A    between atoms: O1_2  and  C2_3 
REMARK    2  A    between atoms: C2_3  and  C3_4 
REMARK    3  A    between atoms: C3_4  and  C4_5 
REMARK    4  A    between atoms: C4_5  and  N1_6 
REMARK    5  A    between atoms: N1_6  and  C5_9 
REMARK    6  A    between atoms: C5_9  and  C6_10 
REMARK    7  A    between atoms: C6_10  and  C7_11 
REMARK    8  A    between atoms: C7_11  and  C8_12 
REMARK    9  A    between atoms: C8_12  and  C9_13 
REMARK   10  A    between atoms: C9_13  and  C10_14 
REMARK   11  A    between atoms: C12_16  and  O2_17 
REMARK   12  A    between atoms: C13_20  and  C14_21 
REMARK   13  A    between atoms: C14_21  and  C15_22 
REMARK   14  A    between atoms: C15_22  and  C16_23 
ROOT
HETATM    1  C9  UNL     1      -1.520   0.991   1.304  1.00  0.00     0.041 C 
ENDROOT
BRANCH   1   2
HETATM    2  C8  UNL     1      -0.165   0.590   0.865  1.00  0.00     0.005 C 
BRANCH   2   3
HETATM    3  C7  UNL     1      -0.037  -0.014  -0.474  1.00  0.00     0.002 C 
BRANCH   3   4
HETATM    4  C6  UNL     1       1.412  -0.360  -0.809  1.00  0.00     0.027 C 
BRANCH   4   5
HETATM    5  C5  UNL     1       2.015  -1.353   0.131  1.00  0.00     0.232 C 
BRANCH   5   6
HETATM    6  N1  UNL     1       3.386  -1.590  -0.238  1.00  0.00    -0.075 N 
ATOM      7  H12 UNL     1       3.457  -1.895  -1.209  1.00  0.00     0.277 HD
ATOM      8  H11 UNL     1       3.751  -2.423   0.223  1.00  0.00     0.277 HD
BRANCH   6   9
HETATM    9  C4  UNL     1       4.234  -0.444   0.011  1.00  0.00     0.234 C 
BRANCH   9  10
HETATM   10  C3  UNL     1       5.666  -0.870  -0.370  1.00  0.00     0.054 C 
BRANCH  10  11
HETATM   11  C2  UNL     1       6.616   0.276  -0.141  1.00  0.00     0.168 C 
BRANCH  11  12
HETATM   12  O1  UNL     1       7.887  -0.100  -0.477  1.00  0.00    -0.396 OA
HETATM   13  C1  UNL     1       8.413  -1.153   0.229  1.00  0.00     0.201 C 
ENDBRANCH  11  12
ENDBRANCH  10  11
ENDBRANCH   9  10
ENDBRANCH   6   9
ENDBRANCH   5   6
ENDBRANCH   4   5
ENDBRANCH   3   4
ENDBRANCH   2   3
ENDBRANCH   1   2
BRANCH   1  14
HETATM   14  C10 UNL     1      -2.224   1.977   0.475  1.00  0.00    -0.024 A 
HETATM   15  C11 UNL     1      -2.055   3.365   0.575  1.00  0.00     0.073 A 
HETATM   16  C12 UNL     1      -2.822   3.910  -0.434  1.00  0.00     0.183 A 
HETATM   17  O3  UNL     1      -3.398   2.953  -1.077  1.00  0.00    -0.292 OA
HETATM   18  C13 UNL     1      -3.068   1.761  -0.562  1.00  0.00     0.062 A 
BRANCH  16  19
HETATM   19  O2  UNL     1      -2.922   5.288  -0.673  1.00  0.00    -0.341 OA
ATOM     20  H2  UNL     1      -3.450   5.663  -1.368  1.00  0.00     0.220 HD
ENDBRANCH  16  19
BRANCH  18  21
HETATM   21  C14 UNL     1      -3.635   0.527  -1.151  1.00  0.00     0.066 C 
BRANCH  21  22
HETATM   22  C15 UNL     1      -4.773   0.104  -0.238  1.00  0.00     0.010 C 
BRANCH  22  23
HETATM   23  C16 UNL     1      -5.474  -1.140  -0.673  1.00  0.00    -0.022 C 
HETATM   24  C17 UNL     1      -4.531  -2.310  -0.726  1.00  0.00     0.009 C 
HETATM   25  C18 UNL     1      -6.564  -1.406   0.362  1.00  0.00     0.009 C 
ENDBRANCH  22  23
ENDBRANCH  21  22
ENDBRANCH  18  21
ENDBRANCH   1  14
TORSDOF 14
