REMARK  2 active torsions:
REMARK  status: ('A' for Active; 'I' for Inactive)
REMARK    1  A    between atoms: N1_2  and  C2_4 
REMARK    2  A    between atoms: C3_7  and  N3_8 
ROOT
HETATM    1  C2  UNL     1       0.490   0.220  -0.002  1.00  0.00     0.707 A 
HETATM    2  N2  UNL     1      -0.545   0.484  -0.631  1.00  0.00    -0.018 N 
ATOM      3  H2  UNL     1      -0.606   1.436  -0.991  1.00  0.00     0.203 HD
HETATM    4  C3  UNL     1      -1.540  -0.260  -0.892  1.00  0.00     0.726 A 
HETATM    5  N5  UNL     1      -1.149  -1.408  -0.293  1.00  0.00    -0.116 N 
ATOM      6  H5  UNL     1      -1.703  -2.264  -0.286  1.00  0.00     0.206 HD
HETATM    7  N6  UNL     1      -0.045  -1.298   0.243  1.00  0.00    -0.117 N 
ATOM      8  H6  UNL     1       0.448  -2.031   0.752  1.00  0.00     0.206 HD
ENDROOT
BRANCH   4   9
HETATM    9  N3  UNL     1      -2.765  -0.089  -1.600  1.00  0.00    -0.137 N 
HETATM   10  N4  UNL     1      -3.408   0.988  -1.590  1.00  0.00    -0.331 N 
ATOM     11  H42 UNL     1      -3.025   1.763  -1.048  1.00  0.00     0.177 HD
ATOM     12  H41 UNL     1      -4.285   1.110  -2.097  1.00  0.00     0.177 HD
ATOM     13  H3  UNL     1      -3.134  -0.874  -2.137  1.00  0.00     0.205 HD
ENDBRANCH   4   9
BRANCH   1  14
HETATM   14  N1  UNL     1       1.559  -0.052   0.648  1.00  0.00    -0.229 N 
HETATM   15  C1  UNL     1       2.656   0.792   0.900  1.00  0.00     0.165 C 
ATOM     16  H1  UNL     1       1.623  -0.996   1.030  1.00  0.00     0.177 HD
ENDBRANCH   1  14
TORSDOF 2
