REMARK  4 active torsions:
REMARK  status: ('A' for Active; 'I' for Inactive)
REMARK    1  A    between atoms: N1_1  and  N2_4 
REMARK    2  A    between atoms: N2_4  and  N3_5 
REMARK    3  A    between atoms: N3_5  and  O1_6 
REMARK    4  A    between atoms: N3_5  and  C1_8 
ROOT
HETATM    1  C1  UNL     1      -0.041  -0.318   0.737  1.00  0.00     0.259 C 
HETATM    2  C2  UNL     1       0.600   1.007   0.559  1.00  0.00     0.165 C 
HETATM    3  N4  UNL     1       1.997   0.970   0.361  1.00  0.00    -0.415 N 
ATOM      4  H4  UNL     1       2.588   1.719   0.721  1.00  0.00     0.153 HD
HETATM    5  C3  UNL     1       2.559  -0.098  -0.330  1.00  0.00     0.140 C 
HETATM    6  C4  UNL     1       1.437  -1.029  -0.807  1.00  0.00     0.189 C 
HETATM    7  O2  UNL     1       0.748  -1.396   0.360  1.00  0.00    -0.364 OA
ENDROOT
BRANCH   1   8
HETATM    8  N3  UNL     1      -1.277  -0.413  -0.023  1.00  0.00    -0.060 NA
BRANCH   8   9
HETATM    9  N2  UNL     1      -2.216   0.532   0.346  1.00  0.00    -0.027 NA
BRANCH   9  10
HETATM   10  N1  UNL     1      -3.468   0.074  -0.129  1.00  0.00    -0.331 N 
ATOM     11  H12 UNL     1      -3.631  -0.791  -0.644  1.00  0.00     0.173 HD
ATOM     12  H11 UNL     1      -4.161   0.771   0.143  1.00  0.00     0.173 HD
ENDBRANCH   9  10
ENDBRANCH   8   9
BRANCH   8  13
HETATM   13  O1  UNL     1      -1.800  -1.647   0.212  1.00  0.00    -0.293 OA
ATOM     14  H1  UNL     1      -1.155  -2.296  -0.042  1.00  0.00     0.238 HD
ENDBRANCH   8  13
ENDBRANCH   1   8
TORSDOF 4
