REMARK  6 active torsions:
REMARK  status: ('A' for Active; 'I' for Inactive)
REMARK    1  A    between atoms: N1_1  and  C1_5 
REMARK    2  A    between atoms: C1_5  and  O1_6 
REMARK    3  A    between atoms: C1_5  and  C2_8 
REMARK    4  A    between atoms: C2_8  and  N2_9 
REMARK    5  A    between atoms: C2_8  and  C3_13 
REMARK    6  A    between atoms: C3_13  and  N3_14 
ROOT
HETATM    1  C3  UNL     1       0.094  -0.796  -0.158  1.00  0.00     0.317 C 
HETATM    2  C4  UNL     1       1.099  -0.485   0.885  1.00  0.00     0.078 C 
HETATM    3  C5  UNL     1       2.365  -0.126   0.118  1.00  0.00     0.022 A 
HETATM    4  C6  UNL     1       2.380   1.219  -0.519  1.00  0.00     0.040 A 
HETATM    5  C7  UNL     1       1.982  -0.038  -1.306  1.00  0.00     0.193 A 
HETATM    6  N4  UNL     1       0.573  -0.240  -1.411  1.00  0.00    -0.034 N 
ATOM      7  H41 UNL     1       0.074   0.608  -1.679  1.00  0.00     0.280 HD
ATOM      8  H42 UNL     1       0.318  -0.812  -2.216  1.00  0.00     0.280 HD
ENDROOT
BRANCH   1   9
HETATM    9  C2  UNL     1      -1.288  -0.283   0.055  1.00  0.00     0.303 C 
BRANCH   9  10
HETATM   10  C1  UNL     1      -1.417   1.192   0.177  1.00  0.00     0.351 C 
BRANCH  10  11
HETATM   11  N1  UNL     1      -2.843   1.512   0.026  1.00  0.00    -0.051 N 
ATOM     12  H13 UNL     1      -3.407   1.220   0.825  1.00  0.00     0.277 HD
ATOM     13  H12 UNL     1      -3.039   2.511   0.087  1.00  0.00     0.277 HD
ATOM     14  H11 UNL     1      -3.148   1.096  -0.854  1.00  0.00     0.277 HD
ENDBRANCH  10  11
BRANCH  10  15
HETATM   15  O1  UNL     1      -1.009   1.748   1.354  1.00  0.00    -0.368 OA
ATOM     16  H1  UNL     1      -0.087   1.541   1.452  1.00  0.00     0.212 HD
ENDBRANCH  10  15
ENDBRANCH   9  10
BRANCH   9  17
HETATM   17  N2  UNL     1      -2.042  -1.003   1.072  1.00  0.00    -0.067 N 
ATOM     18  H23 UNL     1      -1.783  -0.690   2.008  1.00  0.00     0.275 HD
ATOM     19  H22 UNL     1      -3.022  -0.721   1.068  1.00  0.00     0.275 HD
ATOM     20  H21 UNL     1      -1.953  -2.016   0.988  1.00  0.00     0.275 HD
ENDBRANCH   9  17
ENDBRANCH   1   9
BRANCH   1  21
HETATM   21  N3  UNL     1      -0.010  -2.255  -0.262  1.00  0.00    -0.042 N 
ATOM     22  H33 UNL     1      -0.480  -2.683   0.536  1.00  0.00     0.277 HD
ATOM     23  H32 UNL     1      -0.668  -2.562  -0.978  1.00  0.00     0.277 HD
ATOM     24  H31 UNL     1       0.936  -2.606  -0.408  1.00  0.00     0.277 HD
ENDBRANCH   1  21
TORSDOF 6
