REMARK  6 active torsions:
REMARK  status: ('A' for Active; 'I' for Inactive)
REMARK    1  A    between atoms: C2_2  and  O1_4 
REMARK    2  A    between atoms: O1_4  and  C4_5 
REMARK    3  A    between atoms: C7_9  and  O3_10 
REMARK    4  A    between atoms: C8_12  and  N1_14 
REMARK    5  A    between atoms: N1_14  and  O4_15 
REMARK    6  A    between atoms: C10_17  and  O5_18 
ROOT
HETATM    1  C4  UNL     1       0.764  -0.772  -0.293  1.00  0.00     0.297 C 
HETATM    2  O2  UNL     1      -0.167  -1.245  -1.247  1.00  0.00    -0.351 OA
HETATM    3  C5  UNL     1      -1.329  -1.493  -0.539  1.00  0.00     0.151 C 
HETATM    4  C6  UNL     1      -2.301  -2.298  -1.391  1.00  0.00     0.042 C 
HETATM    5  C7  UNL     1      -1.967  -0.285   0.046  1.00  0.00     0.175 C 
HETATM    6  C8  UNL     1      -1.052   0.826   0.392  1.00  0.00     0.112 C 
HETATM    7  C9  UNL     1      -1.104   1.089   1.905  1.00  0.00     0.042 C 
HETATM    8  C10 UNL     1       0.373   0.633   0.028  1.00  0.00     0.202 C 
ENDROOT
BRANCH   1   9
HETATM    9  O1  UNL     1       2.025  -0.750  -0.917  1.00  0.00    -0.323 OA
BRANCH   9  10
HETATM   10  C2  UNL     1       3.180  -0.340  -0.282  1.00  0.00     0.036 C 
HETATM   11  C1  UNL     1       3.809  -1.204   0.492  1.00  0.00     0.045 C 
HETATM   12  C3  UNL     1       3.729   1.038  -0.443  1.00  0.00     0.075 C 
ENDBRANCH   9  10
ENDBRANCH   1   9
BRANCH   8  13
HETATM   13  O5  UNL     1       0.664   1.412  -1.114  1.00  0.00    -0.388 OA
ATOM     14  H5  UNL     1       0.415   2.306  -0.910  1.00  0.00     0.210 HD
ENDBRANCH   8  13
BRANCH   6  15
HETATM   15  N1  UNL     1      -1.549   2.043  -0.234  1.00  0.00    -0.088 NA
BRANCH  15  16
HETATM   16  O4  UNL     1      -2.775   2.379   0.164  1.00  0.00    -0.295 OA
ATOM     17  H4  UNL     1      -3.099   3.173  -0.244  1.00  0.00     0.238 HD
ENDBRANCH  15  16
ENDBRANCH   6  15
BRANCH   5  18
HETATM   18  O3  UNL     1      -2.677  -0.704   1.197  1.00  0.00    -0.391 OA
ATOM     19  H3  UNL     1      -3.085   0.068   1.571  1.00  0.00     0.210 HD
ENDBRANCH   5  18
TORSDOF 6
