REMARK  7 active torsions:
REMARK  status: ('A' for Active; 'I' for Inactive)
REMARK    1  A    between atoms: N1_2  and  S1_4 
REMARK    2  A    between atoms: S1_4  and  C3_7 
REMARK    3  A    between atoms: C8_14  and  C9_15 
REMARK    4  A    between atoms: C9_15  and  C10_16 
REMARK    5  A    between atoms: C10_16  and  N3_17 
REMARK    6  A    between atoms: C11_19  and  C12_20 
REMARK    7  A    between atoms: N5_27  and  O3_28 
ROOT
HETATM    1  C3  UNL     1      -2.862  -0.205  -0.607  1.00  0.00     0.075 A 
HETATM    2  C4  UNL     1      -3.676  -1.199  -1.117  1.00  0.00     0.027 A 
HETATM    3  C5  UNL     1      -3.173  -2.430  -1.499  1.00  0.00     0.032 A 
HETATM    4  C6  UNL     1      -1.827  -2.702  -1.378  1.00  0.00     0.043 A 
HETATM    5  N2  UNL     1      -1.072  -3.788  -1.664  1.00  0.00    -0.365 N 
ATOM      6  H2  UNL     1      -1.419  -4.665  -2.053  1.00  0.00     0.165 HD
HETATM    7  C7  UNL     1       0.205  -3.526  -1.353  1.00  0.00     0.096 A 
HETATM    8  C8  UNL     1       0.252  -2.224  -0.853  1.00  0.00    -0.029 A 
HETATM    9  C16 UNL     1      -1.021  -1.713  -0.871  1.00  0.00    -0.000 A 
HETATM   10  C17 UNL     1      -1.514  -0.473  -0.484  1.00  0.00     0.039 A 
ENDROOT
BRANCH   8  11
HETATM   11  C9  UNL     1       1.516  -1.581  -0.397  1.00  0.00     0.060 C 
BRANCH  11  12
HETATM   12  C10 UNL     1       1.948  -0.616  -1.450  1.00  0.00     0.123 C 
BRANCH  12  13
HETATM   13  N3  UNL     1       3.176   0.084  -1.177  1.00  0.00    -0.397 N 
HETATM   14  C11 UNL     1       3.471   0.414   0.012  1.00  0.00     0.117 C 
ATOM     15  H3  UNL     1       3.810   0.315  -1.941  1.00  0.00     0.158 HD
BRANCH  14  16
HETATM   16  C12 UNL     1       4.714   1.118   0.267  1.00  0.00     0.096 A 
HETATM   17  C13 UNL     1       5.051   1.482   1.558  1.00  0.00     0.038 A 
HETATM   18  C14 UNL     1       6.217   2.149   1.843  1.00  0.00     0.041 A 
HETATM   19  C15 UNL     1       7.067   2.458   0.799  1.00  0.00     0.096 A 
HETATM   20 BR1  UNL     1       8.665   3.375   1.211  1.00  0.00    -0.030 Br
HETATM   21  N4  UNL     1       6.712   2.091  -0.452  1.00  0.00    -0.267 N 
HETATM   22  N5  UNL     1       5.583   1.449  -0.700  1.00  0.00    -0.162 N 
ATOM     23  H4  UNL     1       7.334   2.316  -1.229  1.00  0.00     0.190 HD
BRANCH  22  24
HETATM   24  O3  UNL     1       5.301   1.113  -2.003  1.00  0.00    -0.267 OA
ATOM     25  H3  UNL     1       5.916   1.347  -2.688  1.00  0.00     0.247 HD
ENDBRANCH  22  24
ENDBRANCH  14  16
ENDBRANCH  12  13
ENDBRANCH  11  12
ENDBRANCH   8  11
BRANCH   1  26
HETATM   26  S1  UNL     1      -3.585   1.317  -0.150  1.00  0.00     0.243 S 
HETATM   27  O1  UNL     1      -2.641   2.460  -0.459  1.00  0.00    -0.206 OA
HETATM   28  O2  UNL     1      -4.866   1.473  -0.960  1.00  0.00    -0.206 OA
BRANCH  26  29
HETATM   29  N1  UNL     1      -4.053   1.340   1.499  1.00  0.00    -0.215 NA
HETATM   30  C1  UNL     1      -5.050   0.306   1.708  1.00  0.00     0.129 C 
HETATM   31  C2  UNL     1      -4.661   2.608   1.836  1.00  0.00     0.129 C 
ENDBRANCH  26  29
ENDBRANCH   1  26
TORSDOF 7
