REMARK  8 active torsions:
REMARK  status: ('A' for Active; 'I' for Inactive)
REMARK    1  A    between atoms: C2_2  and  N1_3 
REMARK    2  A    between atoms: N1_3  and  C3_4 
REMARK    3  A    between atoms: N1_3  and  C5_6 
REMARK    4  A    between atoms: C5_6  and  C6_7 
REMARK    5  A    between atoms: C6_7  and  C7_8 
REMARK    6  A    between atoms: C7_8  and  N2_9 
REMARK    7  A    between atoms: N2_9  and  C8_11 
REMARK    8  A    between atoms: C20_32  and  O3_33 
ROOT
HETATM    1  C8  UNL     1      -0.025  -1.133  -1.176  1.00  0.00     0.119 A 
HETATM    2  N3  UNL     1      -0.177  -2.343  -1.740  1.00  0.00    -0.338 N 
ATOM      3  H3  UNL     1       0.537  -2.709  -2.370  1.00  0.00     0.168 HD
HETATM    4  C9  UNL     1      -1.296  -3.081  -1.463  1.00  0.00     0.182 A 
HETATM    5  N4  UNL     1      -2.266  -2.646  -0.643  1.00  0.00    -0.354 N 
ATOM      6  H4  UNL     1      -3.086  -3.226  -0.463  1.00  0.00     0.166 HD
HETATM    7  C10 UNL     1      -2.146  -1.420  -0.051  1.00  0.00     0.038 A 
HETATM    8  C11 UNL     1      -1.017  -0.695  -0.340  1.00  0.00     0.099 A 
HETATM    9  C12 UNL     1      -0.844   0.617   0.272  1.00  0.00     0.259 C 
HETATM   10  O1  UNL     1       0.180   1.292   0.019  1.00  0.00    -0.267 OA
HETATM   11  N5  UNL     1      -1.829   1.130   1.151  1.00  0.00    -0.344 N 
HETATM   12  C13 UNL     1      -1.472   2.146   2.100  1.00  0.00     0.153 C 
HETATM   13  C14 UNL     1      -3.153   0.594   1.039  1.00  0.00     0.130 C 
HETATM   14  C15 UNL     1      -3.169  -0.899   0.860  1.00  0.00     0.087 C 
HETATM   15  C16 UNL     1      -4.546  -1.155   0.297  1.00  0.00     0.134 C 
HETATM   16  N6  UNL     1      -5.618  -0.675   1.156  1.00  0.00    -0.347 N 
HETATM   17  C17 UNL     1      -6.014  -0.829   2.534  1.00  0.00     0.153 C 
HETATM   18  C18 UNL     1      -6.145   0.040   0.034  1.00  0.00     0.248 C 
HETATM   19  O2  UNL     1      -7.243   0.505  -0.332  1.00  0.00    -0.271 OA
HETATM   20  C19 UNL     1      -4.793   0.021  -0.584  1.00  0.00     0.166 C 
HETATM   21 CL1  UNL     1      -4.750  -0.399  -2.288  1.00  0.00    -0.104 Cl
HETATM   22  C20 UNL     1      -3.901   1.132  -0.137  1.00  0.00     0.179 C 
ENDROOT
BRANCH   1  23
HETATM   23  N2  UNL     1       0.997  -0.421  -1.403  1.00  0.00    -0.375 N 
ATOM     24  H2  UNL     1       1.061   0.490  -0.949  1.00  0.00     0.161 HD
BRANCH  23  25
HETATM   25  C7  UNL     1       2.084  -0.831  -2.275  1.00  0.00     0.123 C 
BRANCH  25  26
HETATM   26  C6  UNL     1       3.321  -1.176  -1.471  1.00  0.00     0.039 C 
BRANCH  26  27
HETATM   27  C5  UNL     1       3.762   0.027  -0.719  1.00  0.00     0.118 C 
BRANCH  27  28
HETATM   28  N1  UNL     1       4.905  -0.113   0.102  1.00  0.00    -0.413 N 
BRANCH  28  29
HETATM   29  C2  UNL     1       5.342   1.065   0.776  1.00  0.00     0.112 C 
HETATM   30  C1  UNL     1       5.975   2.078  -0.123  1.00  0.00     0.026 C 
ENDBRANCH  28  29
BRANCH  28  31
HETATM   31  C3  UNL     1       5.997  -0.876  -0.383  1.00  0.00     0.112 C 
HETATM   32  C4  UNL     1       6.729  -1.429   0.851  1.00  0.00     0.026 C 
ENDBRANCH  28  31
ENDBRANCH  27  28
ENDBRANCH  26  27
ENDBRANCH  25  26
ENDBRANCH  23  25
ENDBRANCH   1  23
BRANCH  22  33
HETATM   33  O3  UNL     1      -3.054   1.594  -1.122  1.00  0.00    -0.386 OA
HETATM   34  C21 UNL     1      -3.242   2.936  -1.359  1.00  0.00     0.202 C 
ENDBRANCH  22  33
TORSDOF 8
