REMARK  6 active torsions:
REMARK  status: ('A' for Active; 'I' for Inactive)
REMARK    1  A    between atoms: C6_6  and  C7_7 
REMARK    2  A    between atoms: C9_9  and  C10_10 
REMARK    3  A    between atoms: C10_10  and  O1_11 
REMARK    4  A    between atoms: C10_10  and  N1_13 
REMARK    5  A    between atoms: N1_13  and  N2_14 
REMARK    6  A    between atoms: N2_14  and  C11_15 
ROOT
HETATM    1  C7  UNL     1      -1.008  -1.263   0.377  1.00  0.00     0.039 A 
HETATM    2  C8  UNL     1       0.281  -0.827   0.263  1.00  0.00     0.066 A 
HETATM    3  C9  UNL     1       1.063  -1.924   0.025  1.00  0.00     0.123 A 
HETATM    4  O2  UNL     1       0.251  -2.980   0.000  1.00  0.00    -0.238 OA
HETATM    5  N3  UNL     1      -0.955  -2.616   0.202  1.00  0.00    -0.265 N 
ATOM      6  H3  UNL     1      -1.760  -3.242   0.229  1.00  0.00     0.194 HD
ENDROOT
BRANCH   3   7
HETATM    7  C10 UNL     1       2.507  -2.072  -0.181  1.00  0.00     0.286 C 
BRANCH   7   8
HETATM    8  O1  UNL     1       2.944  -3.158   0.613  1.00  0.00    -0.372 OA
ATOM      9  H1  UNL     1       3.880  -3.254   0.480  1.00  0.00     0.212 HD
ENDBRANCH   7   8
BRANCH   7  10
HETATM   10  N1  UNL     1       3.287  -0.901   0.070  1.00  0.00    -0.109 NA
BRANCH  10  11
HETATM   11  N2  UNL     1       2.922   0.113  -0.786  1.00  0.00    -0.141 NA
BRANCH  11  12
HETATM   12  C11 UNL     1       3.954   1.108  -0.993  1.00  0.00     0.087 C 
HETATM   13  C12 UNL     1       5.182   0.446  -1.580  1.00  0.00     0.029 C 
HETATM   14  C13 UNL     1       4.261   1.894   0.238  1.00  0.00     0.029 C 
ENDBRANCH  11  12
ENDBRANCH  10  11
ENDBRANCH   7  10
ENDBRANCH   3   7
BRANCH   1  15
HETATM   15  C6  UNL     1      -2.257  -0.544   0.628  1.00  0.00     0.038 C 
HETATM   16  C5  UNL     1      -2.260   0.180   1.958  1.00  0.00     0.011 C 
HETATM   17  C4  UNL     1      -3.665   0.712   2.151  1.00  0.00     0.001 C 
HETATM   18  C3  UNL     1      -4.124   1.572   1.027  1.00  0.00     0.004 C 
HETATM   19  C2  UNL     1      -3.855   1.020  -0.335  1.00  0.00    -0.018 C 
HETATM   20  C1  UNL     1      -4.850   0.001  -0.793  1.00  0.00     0.010 C 
HETATM   21  C14 UNL     1      -2.429   0.528  -0.434  1.00  0.00     0.015 C 
ENDBRANCH   1  15
TORSDOF 6
