REMARK  1 active torsions:
REMARK  status: ('A' for Active; 'I' for Inactive)
REMARK    1  A    between atoms: O1_1  and  C1_3 
ROOT
HETATM    1  C1  UNL     1       2.334  -0.343  -0.037  1.00  0.00     0.307 C 
HETATM    2  O2  UNL     1       1.184  -0.919   0.483  1.00  0.00    -0.317 OA
HETATM    3  C2  UNL     1       0.053  -0.381  -0.070  1.00  0.00     0.221 C 
HETATM    4  C3  UNL     1      -0.739   0.367   0.976  1.00  0.00     0.076 C 
HETATM    5  C4  UNL     1      -2.186   0.482   0.675  1.00  0.00     0.032 C 
HETATM    6  C5  UNL     1      -2.616   0.118  -0.679  1.00  0.00     0.168 C 
HETATM    7  O3  UNL     1      -1.820  -0.699  -1.409  1.00  0.00    -0.386 OA
HETATM    8  C6  UNL     1      -0.892  -1.430  -0.642  1.00  0.00     0.239 C 
HETATM    9  O4  UNL     1       0.392   0.460  -1.134  1.00  0.00    -0.197 OA
HETATM   10  O5  UNL     1       0.955   1.529  -0.580  1.00  0.00    -0.212 OA
HETATM   11  C7  UNL     1       2.236   1.143  -0.208  1.00  0.00     0.310 C 
HETATM   12 CL1  UNL     1       2.823   2.037   1.214  1.00  0.00    -0.087 Cl
ENDROOT
BRANCH   1  13
HETATM   13  O1  UNL     1       3.397  -0.711   0.781  1.00  0.00    -0.367 OA
ATOM     14  H1  UNL     1       4.184  -0.317   0.425  1.00  0.00     0.212 HD
ENDBRANCH   1  13
TORSDOF 1
