REMARK  0 active torsions:
REMARK  status: ('A' for Active; 'I' for Inactive)
ROOT
HETATM    1  O1  UNL     1       3.480   0.223   0.280  1.00  0.00    -0.194 OA
HETATM    2  S1  UNL     1       2.477   0.571  -0.746  1.00  0.00     0.328 S 
HETATM    3  O2  UNL     1       1.242  -0.508  -1.033  1.00  0.00    -0.270 OA
HETATM    4  C1  UNL     1       0.967  -1.499  -0.168  1.00  0.00     0.225 C 
HETATM    5  C2  UNL     1      -0.248  -1.289   0.728  1.00  0.00     0.186 C 
HETATM    6  O3  UNL     1      -1.397  -1.369   0.016  1.00  0.00    -0.377 OA
HETATM    7  C3  UNL     1      -2.250  -0.239   0.073  1.00  0.00     0.198 C 
HETATM    8  C4  UNL     1      -1.400   0.851  -0.454  1.00  0.00     0.029 C 
HETATM    9  C5  UNL     1      -0.252   1.005   0.212  1.00  0.00     0.068 C 
HETATM   10  N1  UNL     1       0.497   2.049  -0.374  1.00  0.00    -0.251 N 
ATOM     11  H1  UNL     1      -0.066   2.835  -0.700  1.00  0.00     0.195 HD
HETATM   12  O4  UNL     1       1.864   2.200  -0.587  1.00  0.00    -0.149 OA
HETATM   13  C6  UNL     1      -0.022   0.082   1.356  1.00  0.00     0.252 C 
HETATM   14  F1  UNL     1      -0.821   0.372   2.403  1.00  0.00    -0.240 F 
ENDROOT
TORSDOF 0
