REMARK  0 active torsions:
REMARK  status: ('A' for Active; 'I' for Inactive)
ROOT
HETATM    1  O1  UNL     1       3.176   1.423  -0.399  1.00  0.00    -0.196 OA
HETATM    2  S1  UNL     1       2.797   0.006  -0.852  1.00  0.00     0.310 S 
HETATM    3  O2  UNL     1       2.733  -0.956   0.555  1.00  0.00    -0.247 OA
HETATM    4  C1  UNL     1       1.416  -1.101   0.842  1.00  0.00     0.303 C 
HETATM    5 CL1  UNL     1       1.175  -0.532   2.532  1.00  0.00    -0.088 Cl
HETATM    6  C2  UNL     1       0.538  -0.386  -0.063  1.00  0.00     0.244 C 
HETATM    7  C3  UNL     1       0.038   0.955   0.490  1.00  0.00     0.241 C 
HETATM    8  O3  UNL     1      -0.857   1.461  -0.445  1.00  0.00    -0.384 OA
HETATM    9  C4  UNL     1      -2.032   0.725  -0.411  1.00  0.00     0.194 C 
HETATM   10  C5  UNL     1      -1.743  -0.639   0.171  1.00  0.00     0.198 C 
HETATM   11  O4  UNL     1      -0.581  -1.183  -0.367  1.00  0.00    -0.347 OA
HETATM   12  O5  UNL     1       1.150  -0.094  -1.263  1.00  0.00    -0.228 OA
ENDROOT
TORSDOF 0
