REMARK  1 active torsions:
REMARK  status: ('A' for Active; 'I' for Inactive)
REMARK    1  A    between atoms: N1_1  and  C1_4 
ROOT
HETATM    1  C1  UNL     1      -1.593  -0.268  -0.114  1.00  0.00     0.167 A 
HETATM    2  N2  UNL     1      -1.128   0.959   0.181  1.00  0.00    -0.281 N 
ATOM      3  H2  UNL     1      -1.798   1.714   0.331  1.00  0.00     0.188 HD
HETATM    4  N3  UNL     1       0.168   1.227   0.285  1.00  0.00    -0.281 N 
ATOM      5  H3  UNL     1       0.455   2.179   0.511  1.00  0.00     0.188 HD
HETATM    6  C2  UNL     1       1.123   0.288   0.103  1.00  0.00     0.168 A 
HETATM    7  N4  UNL     1       2.467   0.282   0.146  1.00  0.00    -0.268 N 
ATOM      8  H4  UNL     1       3.070   1.080   0.348  1.00  0.00     0.190 HD
HETATM    9  N5  UNL     1       2.858  -0.943  -0.120  1.00  0.00    -0.240 N 
ATOM     10  H5  UNL     1       3.831  -1.247  -0.157  1.00  0.00     0.208 HD
HETATM   11  N6  UNL     1       1.811  -1.732  -0.334  1.00  0.00    -0.279 N 
ATOM     12  H6  UNL     1       1.846  -2.726  -0.559  1.00  0.00     0.189 HD
HETATM   13  C3  UNL     1       0.694  -0.989  -0.202  1.00  0.00     0.150 A 
HETATM   14  C4  UNL     1      -0.665  -1.265  -0.310  1.00  0.00     0.248 A 
HETATM   15  O1  UNL     1      -1.063  -2.415  -0.585  1.00  0.00    -0.282 OA
ENDROOT
BRANCH   1  16
HETATM   16  N1  UNL     1      -2.878  -0.509  -0.211  1.00  0.00    -0.381 N 
ATOM     17  H12 UNL     1      -3.566   0.230  -0.066  1.00  0.00     0.157 HD
ATOM     18  H11 UNL     1      -3.231  -1.440  -0.435  1.00  0.00     0.157 HD
ENDBRANCH   1  16
TORSDOF 1
