REMARK  8 active torsions:
REMARK  status: ('A' for Active; 'I' for Inactive)
REMARK    1  A    between atoms: N2_5  and  C4_6 
REMARK    2  A    between atoms: C6_18  and  C7_19 
REMARK       I    between atoms: C7_19  and  N7_21 
REMARK    3  A    between atoms: N7_21  and  C8_23 
REMARK    4  A    between atoms: C8_23  and  C9_24 
REMARK    5  A    between atoms: C9_24  and  C10_25 
REMARK    6  A    between atoms: C10_25  and  N8_26 
REMARK    7  A    between atoms: C12_31  and  N11_32 
REMARK    8  A    between atoms: C13_37  and  N13_38 
ROOT
HETATM    1  N1  UNL     1       3.319  -4.003   1.423  1.00  0.00    -0.191 NA
HETATM    2  C1  UNL     1       3.553  -2.907   1.122  1.00  0.00     0.103 C 
HETATM    3  C2  UNL     1       3.818  -1.545   0.750  1.00  0.00     0.095 A 
HETATM    4  C3  UNL     1       4.938  -1.006   0.148  1.00  0.00     0.143 A 
HETATM    5  N2  UNL     1       4.788   0.310  -0.030  1.00  0.00    -0.244 N 
HETATM    6  N6  UNL     1       3.594   0.614   0.448  1.00  0.00    -0.286 N 
ATOM      7  H6  UNL     1       3.198   1.554   0.450  1.00  0.00     0.188 HD
HETATM    8  C6  UNL     1       2.964  -0.480   0.934  1.00  0.00     0.138 A 
ENDROOT
BRANCH   8   9
HETATM    9  C7  UNL     1       1.624  -0.469   1.531  1.00  0.00     0.271 C 
HETATM   10  O2  UNL     1       1.187  -1.574   1.932  1.00  0.00    -0.266 OA
HETATM   11  N7  UNL     1       0.856   0.699   1.658  1.00  0.00    -0.356 N 
ATOM     12  H7  UNL     1       1.279   1.560   1.312  1.00  0.00     0.162 HD
BRANCH  11  13
HETATM   13  C8  UNL     1      -0.453   0.814   2.219  1.00  0.00     0.124 C 
BRANCH  13  14
HETATM   14  C9  UNL     1      -1.451  -0.001   1.473  1.00  0.00     0.041 C 
BRANCH  14  15
HETATM   15  C10 UNL     1      -2.856   0.126   2.069  1.00  0.00     0.150 C 
BRANCH  15  16
HETATM   16  N8  UNL     1      -3.729  -0.707   1.263  1.00  0.00    -0.258 N 
HETATM   17  N9  UNL     1      -4.024  -1.988   1.442  1.00  0.00    -0.018 NA
HETATM   18  N10 UNL     1      -4.861  -2.404   0.496  1.00  0.00    -0.277 N 
HETATM   19  C11 UNL     1      -5.122  -1.376  -0.321  1.00  0.00     0.136 A 
ATOM     20  H10 UNL     1      -5.240  -3.347   0.408  1.00  0.00     0.184 HD
HETATM   21  C12 UNL     1      -5.913  -1.243  -1.451  1.00  0.00     0.146 A 
HETATM   22  C14 UNL     1      -4.400  -0.290   0.167  1.00  0.00     0.168 A 
HETATM   23  N12 UNL     1      -5.972  -0.051  -2.070  1.00  0.00    -0.175 N 
HETATM   24  C13 UNL     1      -5.278   1.004  -1.607  1.00  0.00     0.679 A 
ATOM     25  H12 UNL     1      -6.551   0.055  -2.903  1.00  0.00     0.186 HD
HETATM   26  N14 UNL     1      -4.505   0.873  -0.502  1.00  0.00    -0.173 N 
ATOM     27  H14 UNL     1      -3.985   1.683  -0.166  1.00  0.00     0.186 HD
BRANCH  21  28
HETATM   28  N11 UNL     1      -6.593  -2.245  -1.920  1.00  0.00    -0.383 N 
ATOM     29 2H11 UNL     1      -6.548  -3.149  -1.450  1.00  0.00     0.157 HD
ATOM     30 1H11 UNL     1      -7.175  -2.147  -2.752  1.00  0.00     0.157 HD
ENDBRANCH  21  28
BRANCH  24  31
HETATM   31  N13 UNL     1      -5.357   2.140  -2.227  1.00  0.00    -0.234 N 
ATOM     32 2H13 UNL     1      -5.939   2.239  -3.059  1.00  0.00     0.174 HD
ATOM     33 1H13 UNL     1      -4.831   2.940  -1.876  1.00  0.00     0.174 HD
ENDBRANCH  24  31
ENDBRANCH  15  16
ENDBRANCH  14  15
ENDBRANCH  13  14
ENDBRANCH  11  13
ENDBRANCH   8   9
BRANCH   5  34
HETATM   34  C4  UNL     1       5.727   1.218  -0.619  1.00  0.00     0.194 A 
HETATM   35  N3  UNL     1       5.968   2.501  -0.284  1.00  0.00    -0.220 N 
HETATM   36  O1  UNL     1       6.894   2.982  -1.058  1.00  0.00    -0.153 OA
ATOM     37  H3  UNL     1       5.497   3.014   0.461  1.00  0.00     0.198 HD
HETATM   38  N4  UNL     1       7.301   2.089  -1.910  1.00  0.00    -0.222 N 
HETATM   39  C5  UNL     1       6.586   0.954  -1.666  1.00  0.00     0.169 A 
ATOM     40  H4  UNL     1       8.018   2.213  -2.625  1.00  0.00     0.198 HD
HETATM   41  N5  UNL     1       6.680  -0.177  -2.291  1.00  0.00    -0.381 N 
ATOM     42  H52 UNL     1       6.145  -1.026  -2.108  1.00  0.00     0.157 HD
ATOM     43  H51 UNL     1       7.315  -0.372  -3.065  1.00  0.00     0.157 HD
ENDBRANCH   5  34
TORSDOF 8
