REMARK  1 active torsions:
REMARK  status: ('A' for Active; 'I' for Inactive)
REMARK    1  A    between atoms: C13_13  and  O1_14 
ROOT
HETATM    1  C1  UNL     1      -1.776  -2.151   0.882  1.00  0.00     0.046 C 
HETATM    2  C2  UNL     1      -0.922  -1.160   0.089  1.00  0.00     0.064 C 
HETATM    3  C3  UNL     1      -1.754  -0.592  -1.038  1.00  0.00     0.038 C 
HETATM    4  C4  UNL     1      -1.281   0.717  -1.546  1.00  0.00     0.008 C 
HETATM    5  C5  UNL     1      -0.410   1.511  -0.654  1.00  0.00    -0.009 C 
HETATM    6  C6  UNL     1      -1.340   2.156   0.398  1.00  0.00     0.005 C 
HETATM    7  C7  UNL     1      -1.666   0.939   1.236  1.00  0.00     0.008 C 
HETATM    8  C8  UNL     1      -0.545  -0.062   1.046  1.00  0.00     0.025 C 
HETATM    9  C9  UNL     1       0.473   0.796   0.287  1.00  0.00     0.009 C 
HETATM   10  C10 UNL     1       1.624   0.054  -0.220  1.00  0.00     0.007 C 
HETATM   11  C11 UNL     1       2.787   0.227   0.778  1.00  0.00     0.020 C 
HETATM   12  C12 UNL     1       2.178   0.547  -1.547  1.00  0.00     0.020 C 
HETATM   13  C13 UNL     1       1.367  -1.435  -0.254  1.00  0.00     0.266 C 
HETATM   14  O2  UNL     1       0.110  -1.835  -0.454  1.00  0.00    -0.350 OA
ENDROOT
BRANCH  13  15
HETATM   15  O1  UNL     1       1.874  -2.079   0.895  1.00  0.00    -0.370 OA
ATOM     16  H1  UNL     1       1.712  -3.015   0.874  1.00  0.00     0.212 HD
ENDBRANCH  13  15
TORSDOF 1
