REMARK  4 active torsions:
REMARK  status: ('A' for Active; 'I' for Inactive)
REMARK    1  A    between atoms: S1_2  and  C2_3 
REMARK    2  A    between atoms: C2_3  and  N1_4 
REMARK    3  A    between atoms: N1_4  and  C3_5 
REMARK    4  A    between atoms: N3_13  and  O1_15 
ROOT
HETATM    1  C3  UNL     1       0.052   0.431   0.109  1.00  0.00     0.154 C 
HETATM    2  C4  UNL     1      -0.973   0.738   1.192  1.00  0.00     0.092 C 
HETATM    3  C5  UNL     1      -2.335   0.526   0.577  1.00  0.00     0.008 C 
HETATM    4  C6  UNL     1      -2.501  -0.966   0.384  1.00  0.00     0.002 C 
HETATM    5  C7  UNL     1      -2.494  -1.265  -1.098  1.00  0.00     0.020 C 
HETATM    6  C8  UNL     1      -1.430  -0.499  -1.805  1.00  0.00     0.122 C 
HETATM    7  N2  UNL     1      -0.195  -0.354  -1.091  1.00  0.00    -0.368 N 
ATOM      8  H2  UNL     1       0.605  -0.861  -1.469  1.00  0.00     0.161 HD
ENDROOT
BRANCH   1   9
HETATM    9  N1  UNL     1       1.119   0.868   0.277  1.00  0.00    -0.366 NA
BRANCH   9  10
HETATM   10  C2  UNL     1       2.315   1.356   0.461  1.00  0.00     0.238 C 
HETATM   11  N3  UNL     1       2.621   2.639   0.565  1.00  0.00    -0.236 N 
ATOM     12  H3  UNL     1       1.891   3.348   0.502  1.00  0.00     0.197 HD
BRANCH  10  13
HETATM   13  S1  UNL     1       3.767   0.260   0.600  1.00  0.00    -0.082 SA
HETATM   14  C1  UNL     1       3.175  -1.441   0.437  1.00  0.00     0.100 C 
ENDBRANCH  10  13
BRANCH  11  15
HETATM   15  O1  UNL     1       3.913   3.003   0.756  1.00  0.00    -0.287 OA
ATOM     16  H1  UNL     1       4.133   3.924   0.831  1.00  0.00     0.244 HD
ENDBRANCH  11  15
ENDBRANCH   9  10
ENDBRANCH   1   9
TORSDOF 4
