REMARK  4 active torsions:
REMARK  status: ('A' for Active; 'I' for Inactive)
REMARK    1  A    between atoms: N1_1  and  C1_4 
REMARK    2  A    between atoms: N3_7  and  O1_8 
REMARK    3  A    between atoms: C2_10  and  C3_11 
REMARK       I    between atoms: C3_11  and  N4_13 
REMARK    4  A    between atoms: N4_13  and  N5_15 
ROOT
HETATM    1  C1  UNL     1      -2.699  -0.322   0.138  1.00  0.00     0.707 A 
HETATM    2  N2  UNL     1      -2.349   0.963   0.250  1.00  0.00    -0.103 N 
ATOM      3  H2  UNL     1      -3.060   1.682   0.382  1.00  0.00     0.208 HD
HETATM    4  N3  UNL     1      -1.075   1.289   0.188  1.00  0.00    -0.125 N 
HETATM    5  C2  UNL     1      -0.078   0.396   0.015  1.00  0.00     0.237 A 
HETATM    6  N6  UNL     1      -0.454  -0.883  -0.095  1.00  0.00    -0.263 N 
ATOM      7  H6  UNL     1       0.257  -1.602  -0.228  1.00  0.00     0.189 HD
HETATM    8  N7  UNL     1      -1.738  -1.239  -0.035  1.00  0.00    -0.129 N 
ATOM      9  H7  UNL     1      -1.992  -2.223  -0.122  1.00  0.00     0.205 HD
ENDROOT
BRANCH   5  10
HETATM   10  C3  UNL     1       1.308   0.829  -0.045  1.00  0.00     0.308 C 
HETATM   11  O2  UNL     1       1.619   2.041   0.062  1.00  0.00    -0.262 OA
HETATM   12  N4  UNL     1       2.348  -0.112  -0.227  1.00  0.00    -0.270 N 
ATOM     13  H4  UNL     1       2.106  -1.099  -0.316  1.00  0.00     0.189 HD
BRANCH  12  14
HETATM   14  N5  UNL     1       3.688   0.255  -0.290  1.00  0.00    -0.342 N 
ATOM     15  H52 UNL     1       3.912   1.246  -0.200  1.00  0.00     0.176 HD
ATOM     16  H51 UNL     1       4.438  -0.424  -0.421  1.00  0.00     0.176 HD
ENDBRANCH  12  14
ENDBRANCH   5  10
BRANCH   4  17
HETATM   17  O1  UNL     1      -0.718   2.622   0.304  1.00  0.00    -0.266 OA
ATOM     18  H1  UNL     1       0.201   2.857   0.259  1.00  0.00     0.247 HD
ENDBRANCH   4  17
BRANCH   1  19
HETATM   19  N1  UNL     1      -3.962  -0.641   0.201  1.00  0.00    -0.232 N 
ATOM     20  H12 UNL     1      -4.694   0.057   0.333  1.00  0.00     0.174 HD
ATOM     21  H11 UNL     1      -4.229  -1.622   0.116  1.00  0.00     0.174 HD
ENDBRANCH   1  19
TORSDOF 4
