REMARK  2 active torsions:
REMARK  status: ('A' for Active; 'I' for Inactive)
REMARK    1  A    between atoms: N2_5  and  N3_6 
REMARK    2  A    between atoms: C3_11  and  C4_12 
ROOT
HETATM    1  C1  UNL     1       2.535  -0.701  -1.337  1.00  0.00     0.162 C 
HETATM    2  N1  UNL     1       1.466  -0.085  -0.562  1.00  0.00    -0.287 N 
HETATM    3  C2  UNL     1       1.630   1.154   0.098  1.00  0.00     0.363 A 
HETATM    4  O1  UNL     1       2.728   1.778   0.037  1.00  0.00    -0.243 OA
HETATM    5  N2  UNL     1       0.568   1.725   0.844  1.00  0.00    -0.148 N 
HETATM    6  N4  UNL     1      -0.623   1.011   0.888  1.00  0.00    -0.269 N 
ATOM      7  H4  UNL     1      -1.399   1.405   1.419  1.00  0.00     0.189 HD
HETATM    8  C3  UNL     1      -0.826  -0.254   0.227  1.00  0.00     0.132 A 
HETATM    9  C5  UNL     1       0.194  -0.738  -0.452  1.00  0.00     0.153 A 
HETATM   10  N7  UNL     1       0.058  -1.973  -1.121  1.00  0.00    -0.080 NA
ENDROOT
BRANCH   8  11
HETATM   11  C4  UNL     1      -2.101  -0.911   0.337  1.00  0.00     0.141 C 
HETATM   12  N5  UNL     1      -2.497  -1.993  -0.142  1.00  0.00    -0.386 N 
ATOM     13  H52 UNL     1      -1.793  -2.478  -0.699  1.00  0.00     0.157 HD
ATOM     14  H51 UNL     1      -3.401  -2.459  -0.064  1.00  0.00     0.157 HD
HETATM   15  N6  UNL     1      -3.110  -0.215   1.135  1.00  0.00    -0.081 NA
ENDBRANCH   8  11
BRANCH   5  16
HETATM   16  N3  UNL     1       0.756   2.950   1.487  1.00  0.00    -0.320 N 
ATOM     17  H32 UNL     1       1.630   3.474   1.455  1.00  0.00     0.179 HD
ATOM     18  H31 UNL     1      -0.008   3.361   2.024  1.00  0.00     0.179 HD
ENDBRANCH   5  16
TORSDOF 2
