REMARK  10 active torsions:
REMARK  status: ('A' for Active; 'I' for Inactive)
REMARK    1  A    between atoms: C2_2  and  C3_3 
REMARK    2  A    between atoms: C3_3  and  C4_4 
REMARK    3  A    between atoms: C4_4  and  C5_5 
REMARK    4  A    between atoms: C5_5  and  C6_6 
REMARK    5  A    between atoms: C6_6  and  N1_7 
REMARK    6  A    between atoms: C10_16  and  C11_17 
REMARK    7  A    between atoms: C11_17  and  C12_18 
REMARK    8  A    between atoms: C12_18  and  N4_19 
REMARK    9  A    between atoms: N4_19  and  C13_22 
REMARK   10  A    between atoms: C13_22  and  C14_23 
ROOT
HETATM    1  N1  UNL     1       0.512  -1.479   0.457  1.00  0.00     0.102 N 
HETATM    2  C7  UNL     1       1.019  -2.760   0.819  1.00  0.00     0.293 C 
HETATM    3  C8  UNL     1      -0.078  -3.785   0.631  1.00  0.00     0.151 C 
HETATM    4  N2  UNL     1      -0.271  -3.876  -0.825  1.00  0.00    -0.377 N 
ATOM      5  H2  UNL     1      -0.575  -4.735  -1.284  1.00  0.00     0.160 HD
HETATM    6  C9  UNL     1      -0.006  -2.690  -1.541  1.00  0.00     0.104 C 
HETATM    7  N3  UNL     1       0.278  -2.743  -2.783  1.00  0.00    -0.387 N 
ATOM      8  H31 UNL     1       0.470  -1.885  -3.301  1.00  0.00     0.157 HD
ATOM      9  H32 UNL     1       0.317  -3.642  -3.263  1.00  0.00     0.157 HD
HETATM   10  C10 UNL     1      -0.062  -1.388  -0.846  1.00  0.00     0.290 C 
ENDROOT
BRANCH  10  11
HETATM   11  C11 UNL     1      -1.526  -1.044  -0.700  1.00  0.00     0.071 C 
BRANCH  11  12
HETATM   12  C12 UNL     1      -1.778   0.258   0.005  1.00  0.00     0.235 C 
BRANCH  12  13
HETATM   13  N4  UNL     1      -3.228   0.442   0.065  1.00  0.00    -0.075 N 
ATOM     14  H42 UNL     1      -3.659   0.382  -0.857  1.00  0.00     0.277 HD
ATOM     15  H41 UNL     1      -3.696  -0.353   0.501  1.00  0.00     0.277 HD
BRANCH  13  16
HETATM   16  C13 UNL     1      -3.541   1.678   0.725  1.00  0.00     0.240 C 
BRANCH  16  17
HETATM   17  C14 UNL     1      -4.991   1.955   0.864  1.00  0.00     0.062 C 
HETATM   18  C15 UNL     1      -5.828   2.059  -0.359  1.00  0.00     0.240 C 
HETATM   19  N5  UNL     1      -6.881   1.329   0.322  1.00  0.00    -0.074 N 
HETATM   20  C16 UNL     1      -5.883   0.822   1.245  1.00  0.00     0.240 C 
ATOM     21  H52 UNL     1      -7.709   1.814   0.667  1.00  0.00     0.277 HD
ATOM     22  H51 UNL     1      -7.486   0.689  -0.192  1.00  0.00     0.277 HD
ENDBRANCH  16  17
ENDBRANCH  13  16
ENDBRANCH  12  13
ENDBRANCH  11  12
ENDBRANCH  10  11
BRANCH   1  23
HETATM   23  C6  UNL     1       1.388  -0.387   0.793  1.00  0.00     0.273 C 
BRANCH  23  24
HETATM   24  C5  UNL     1       2.665  -0.372  -0.018  1.00  0.00     0.030 C 
BRANCH  24  25
HETATM   25  C4  UNL     1       3.470   0.822   0.450  1.00  0.00     0.002 C 
BRANCH  25  26
HETATM   26  C3  UNL     1       4.779   0.938  -0.296  1.00  0.00    -0.000 C 
BRANCH  26  27
HETATM   27  C2  UNL     1       5.565   2.137   0.184  1.00  0.00    -0.005 C 
HETATM   28  C1  UNL     1       6.864   2.209  -0.588  1.00  0.00     0.005 C 
ENDBRANCH  26  27
ENDBRANCH  25  26
ENDBRANCH  24  25
ENDBRANCH  23  24
ENDBRANCH   1  23
TORSDOF 10
