REMARK  9 active torsions:
REMARK  status: ('A' for Active; 'I' for Inactive)
REMARK    1  A    between atoms: C2_2  and  C3_3 
REMARK    2  A    between atoms: C3_3  and  C5_5 
REMARK    3  A    between atoms: C5_5  and  N1_6 
REMARK    4  A    between atoms: C5_5  and  C9_13 
REMARK       I    between atoms: N1_6  and  C6_8 
REMARK       I    between atoms: C6_8  and  N2_10 
REMARK    5  A    between atoms: C9_13  and  O2_14 
REMARK    6  A    between atoms: C9_13  and  N3_16 
REMARK    7  A    between atoms: C10_17  and  C11_18 
REMARK       I    between atoms: C11_18  and  N4_20 
REMARK    8  A    between atoms: N4_20  and  C12_22 
REMARK    9  A    between atoms: C16_30  and  C17_31 
ROOT
HETATM    1  N3  UNL     1       0.381  -1.248  -0.264  1.00  0.00    -0.341 N 
HETATM    2  C10 UNL     1       1.790  -0.936  -0.626  1.00  0.00     0.184 C 
HETATM    3  C16 UNL     1       2.577  -2.174  -0.498  1.00  0.00     0.027 C 
HETATM    4  C21 UNL     1       1.686  -3.228   0.043  1.00  0.00     0.038 C 
HETATM    5  C22 UNL     1       0.340  -2.547   0.325  1.00  0.00     0.028 C 
HETATM    6  C23 UNL     1      -0.719  -3.430  -0.318  1.00  0.00     0.038 C 
HETATM    7  C24 UNL     1       0.106  -2.584   1.818  1.00  0.00     0.038 C 
ENDROOT
BRANCH   1   8
HETATM    8  C9  UNL     1      -0.636  -0.332  -0.529  1.00  0.00     0.139 C 
BRANCH   8   9
HETATM    9  C5  UNL     1      -2.067  -0.295  -0.369  1.00  0.00     0.164 C 
BRANCH   9  10
HETATM   10  C3  UNL     1      -2.705  -0.630   0.920  1.00  0.00     0.012 C 
HETATM   11  C4  UNL     1      -2.413   0.445   1.969  1.00  0.00     0.012 C 
BRANCH  10  12
HETATM   12  C2  UNL     1      -4.256  -0.542   0.744  1.00  0.00     0.002 C 
HETATM   13  C1  UNL     1      -4.696  -1.582  -0.257  1.00  0.00     0.005 C 
ENDBRANCH  10  12
ENDBRANCH   9  10
BRANCH   9  14
HETATM   14  N1  UNL     1      -2.508   1.077  -0.723  1.00  0.00    -0.331 N 
HETATM   15  C6  UNL     1      -3.153   1.471  -1.895  1.00  0.00     0.318 C 
HETATM   16  O1  UNL     1      -3.420   0.661  -2.796  1.00  0.00    -0.247 OA
HETATM   17  N2  UNL     1      -3.524   2.843  -2.085  1.00  0.00    -0.343 N 
HETATM   18  C7  UNL     1      -4.169   3.280  -3.280  1.00  0.00     0.154 C 
HETATM   19  C8  UNL     1      -3.225   3.779  -1.015  1.00  0.00     0.154 C 
ATOM     20  H1  UNL     1      -2.320   1.808  -0.037  1.00  0.00     0.165 HD
ENDBRANCH   9  14
ENDBRANCH   8   9
BRANCH   8  21
HETATM   21  O2  UNL     1      -0.169   0.786  -1.063  1.00  0.00    -0.348 OA
ATOM     22  H2  UNL     1       0.775   0.762  -1.169  1.00  0.00     0.219 HD
ENDBRANCH   8  21
ENDBRANCH   1   8
BRANCH   2  23
HETATM   23  C11 UNL     1       2.301   0.257   0.048  1.00  0.00     0.242 C 
HETATM   24  O3  UNL     1       3.381   0.747  -0.453  1.00  0.00    -0.271 OA
HETATM   25  N4  UNL     1       1.733   0.915   1.173  1.00  0.00    -0.336 N 
ATOM     26  H4  UNL     1       0.884   0.542   1.598  1.00  0.00     0.164 HD
BRANCH  25  27
HETATM   27  C12 UNL     1       2.338   2.099   1.721  1.00  0.00     0.206 C 
HETATM   28  C13 UNL     1       1.342   3.247   1.820  1.00  0.00     0.173 C 
HETATM   29  N5  UNL     1       1.948   4.102   2.841  1.00  0.00    -0.335 N 
HETATM   30  C14 UNL     1       1.746   5.519   2.912  1.00  0.00     0.154 C 
HETATM   31  C15 UNL     1       2.728   3.275   3.686  1.00  0.00     0.319 C 
HETATM   32  O4  UNL     1       3.212   3.674   4.774  1.00  0.00    -0.247 OA
HETATM   33  N6  UNL     1       2.823   1.999   3.058  1.00  0.00    -0.320 N 
ATOM     34  H6  UNL     1       3.181   1.150   3.495  1.00  0.00     0.166 HD
ENDBRANCH  25  27
ENDBRANCH   2  23
BRANCH   3  35
HETATM   35  C17 UNL     1       3.332  -2.637  -1.711  1.00  0.00    -0.045 C 
HETATM   36  C18 UNL     1       4.336  -1.668  -2.206  1.00  0.00     0.015 C 
HETATM   37  C19 UNL     1       4.104  -3.893  -1.272  1.00  0.00     0.015 C 
HETATM   38  C20 UNL     1       2.455  -3.080  -2.853  1.00  0.00     0.015 C 
ENDBRANCH   3  35
TORSDOF 9
