REMARK  3 active torsions:
REMARK  status: ('A' for Active; 'I' for Inactive)
REMARK    1  A    between atoms: C4_4  and  C5_5 
REMARK    2  A    between atoms: C5_5  and  S1_6 
REMARK    3  A    between atoms: S1_6  and  C6_7 
ROOT
HETATM    1  S1  UNL     1       0.102   1.505   1.399  1.00  0.00    -0.112 SA
ENDROOT
BRANCH   1   2
HETATM    2  C5  UNL     1      -0.881   2.262   0.110  1.00  0.00     0.119 C 
BRANCH   2   3
HETATM    3  C4  UNL     1      -1.918   1.326  -0.400  1.00  0.00    -0.049 A 
HETATM    4  C3  UNL     1      -1.752   0.610  -1.554  1.00  0.00     0.008 A 
HETATM    5  C2  UNL     1      -2.752  -0.263  -1.957  1.00  0.00     0.001 A 
HETATM    6  C1  UNL     1      -3.904  -0.430  -1.233  1.00  0.00     0.000 A 
HETATM    7  C12 UNL     1      -4.051   0.305  -0.071  1.00  0.00     0.001 A 
HETATM    8  C11 UNL     1      -3.070   1.167   0.333  1.00  0.00     0.008 A 
ENDBRANCH   2   3
ENDBRANCH   1   2
BRANCH   1   9
HETATM    9  C6  UNL     1       1.134   0.179   0.837  1.00  0.00     0.042 C 
HETATM   10  N1  UNL     1       1.252  -0.233  -0.355  1.00  0.00    -0.388 N 
HETATM   11  C7  UNL     1       2.094  -1.307  -0.776  1.00  0.00     0.120 C 
ATOM     12  H1  UNL     1       0.702   0.240  -1.072  1.00  0.00     0.159 HD
HETATM   13  C8  UNL     1       3.372  -1.395  -0.011  1.00  0.00     0.020 C 
HETATM   14  C9  UNL     1       3.411  -0.519   1.218  1.00  0.00     0.008 C 
HETATM   15  C10 UNL     1       2.008  -0.588   1.824  1.00  0.00     0.064 C 
ENDBRANCH   1   9
TORSDOF 3
