REMARK  8 active torsions:
REMARK  status: ('A' for Active; 'I' for Inactive)
REMARK    1  A    between atoms: C3_3  and  O1_6 
REMARK    2  A    between atoms: O1_6  and  C6_7 
REMARK       I    between atoms: C6_7  and  N1_9 
REMARK    3  A    between atoms: C9_12  and  C10_13 
REMARK       I    between atoms: C10_13  and  N2_15 
REMARK    4  A    between atoms: N2_15  and  C11_17 
REMARK    5  A    between atoms: C14_20  and  C15_21 
REMARK    6  A    between atoms: C15_21  and  C16_22 
REMARK    7  A    between atoms: C16_22  and  N3_23 
REMARK    8  A    between atoms: N4_26  and  C19_27 
ROOT
HETATM    1  C1  UNL     1      11.742   0.236  -1.212  1.00  0.00     0.015 C 
HETATM    2  C2  UNL     1      11.005   0.434  -0.301  1.00  0.00    -0.079 C 
HETATM    3  C3  UNL     1      10.073   0.695   0.816  1.00  0.00     0.127 C 
HETATM    4  C4  UNL     1      10.265   2.166   1.192  1.00  0.00     0.061 C 
HETATM    5  C5  UNL     1      10.375  -0.143   2.014  1.00  0.00     0.061 C 
ENDROOT
BRANCH   3   6
HETATM    6  O1  UNL     1       8.741   0.572   0.357  1.00  0.00    -0.280 OA
BRANCH   6   7
HETATM    7  C6  UNL     1       8.240  -0.623  -0.187  1.00  0.00     0.364 C 
HETATM    8  O2  UNL     1       9.046  -1.584  -0.245  1.00  0.00    -0.238 OA
HETATM    9  N1  UNL     1       6.895  -0.711  -0.640  1.00  0.00    -0.328 N 
HETATM   10  C7  UNL     1       6.326  -1.907  -1.204  1.00  0.00     0.129 C 
HETATM   11  C29 UNL     1       6.043   0.454  -0.537  1.00  0.00     0.129 C 
HETATM   12  C8  UNL     1       4.812  -1.666  -1.286  1.00  0.00     0.034 C 
HETATM   13  C9  UNL     1       4.392  -1.251   0.108  1.00  0.00     0.081 C 
HETATM   14  C28 UNL     1       4.816   0.200   0.288  1.00  0.00     0.034 C 
BRANCH  13  15
HETATM   15  C10 UNL     1       2.935  -1.403   0.313  1.00  0.00     0.222 C 
HETATM   16  O3  UNL     1       2.530  -2.180   1.204  1.00  0.00    -0.273 OA
HETATM   17  N2  UNL     1       1.989  -0.708  -0.452  1.00  0.00    -0.356 N 
ATOM     18  H2  UNL     1       2.332  -0.076  -1.175  1.00  0.00     0.162 HD
BRANCH  17  19
HETATM   19  C11 UNL     1       0.554  -0.828  -0.283  1.00  0.00     0.084 C 
HETATM   20  C12 UNL     1       0.023   0.473   0.194  1.00  0.00     0.025 C 
HETATM   21  C13 UNL     1      -1.371   0.824  -0.190  1.00  0.00     0.007 C 
HETATM   22  C14 UNL     1      -2.106  -0.457  -0.484  1.00  0.00    -0.013 C 
HETATM   23  C26 UNL     1      -1.477  -0.997  -1.757  1.00  0.00     0.007 C 
HETATM   24  C27 UNL     1      -0.032  -1.366  -1.539  1.00  0.00     0.025 C 
BRANCH  22  25
HETATM   25  C15 UNL     1      -3.572  -0.330  -0.689  1.00  0.00     0.024 C 
BRANCH  25  26
HETATM   26  C16 UNL     1      -4.214   0.230   0.532  1.00  0.00     0.117 C 
BRANCH  26  27
HETATM   27  N3  UNL     1      -5.639   0.382   0.447  1.00  0.00    -0.409 N 
HETATM   28  C17 UNL     1      -6.111   1.364  -0.465  1.00  0.00     0.136 C 
HETATM   29  C18 UNL     1      -7.433   1.894   0.114  1.00  0.00     0.144 C 
HETATM   30  N4  UNL     1      -8.330   0.735   0.100  1.00  0.00    -0.362 N 
HETATM   31  C24 UNL     1      -7.715  -0.509  -0.323  1.00  0.00     0.144 C 
HETATM   32  C25 UNL     1      -6.412  -0.798   0.390  1.00  0.00     0.136 C 
BRANCH  30  33
HETATM   33  C19 UNL     1      -9.688   0.812   0.465  1.00  0.00     0.142 A 
HETATM   34  N5  UNL     1     -10.615   0.467  -0.445  1.00  0.00    -0.348 N 
HETATM   35  C20 UNL     1     -11.938   0.515  -0.166  1.00  0.00     0.113 A 
ATOM     36  H5  UNL     1     -10.313   0.161  -1.370  1.00  0.00     0.167 HD
HETATM   37  C21 UNL     1     -12.364   0.925   1.074  1.00  0.00     0.052 A 
HETATM   38 CL1  UNL     1     -14.081   1.004   1.483  1.00  0.00    -0.083 Cl
HETATM   39  C22 UNL     1     -11.447   1.289   2.040  1.00  0.00     0.071 A 
HETATM   40  C23 UNL     1     -10.099   1.219   1.696  1.00  0.00     0.161 A 
HETATM   41  F1  UNL     1      -9.180   1.567   2.616  1.00  0.00    -0.202 F 
ENDBRANCH  30  33
ENDBRANCH  26  27
ENDBRANCH  25  26
ENDBRANCH  22  25
ENDBRANCH  17  19
ENDBRANCH  13  15
ENDBRANCH   6   7
ENDBRANCH   3   6
TORSDOF 8
