REMARK  17 active torsions:
REMARK  status: ('A' for Active; 'I' for Inactive)
REMARK    1  A    between atoms: O1_2  and  C2_3 
REMARK    2  A    between atoms: C5_6  and  O2_7 
REMARK    3  A    between atoms: C11_17  and  N1_18 
REMARK       I    between atoms: N1_18  and  C12_20 
REMARK    4  A    between atoms: C12_20  and  C13_22 
REMARK    5  A    between atoms: C18_29  and  O8_30 
REMARK    6  A    between atoms: O8_30  and  C19_31 
REMARK    7  A    between atoms: C19_31  and  C21_33 
REMARK    8  A    between atoms: C19_31  and  C22_36 
REMARK    9  A    between atoms: C21_33  and  O9_34 
REMARK   10  A    between atoms: C22_36  and  O10_37 
REMARK   11  A    between atoms: C24_43  and  O12_44 
REMARK   12  A    between atoms: C26_47  and  C27_48 
REMARK   13  A    between atoms: C27_48  and  O13_49 
REMARK   14  A    between atoms: C27_48  and  O14_51 
REMARK   15  A    between atoms: C28_53  and  C29_54 
REMARK   16  A    between atoms: C29_54  and  O15_55 
REMARK   17  A    between atoms: O15_55  and  C30_56 
ROOT
HETATM    1  C2  UNL     1      -6.200   1.155   2.832  1.00  0.00     0.085 A 
HETATM    2  C3  UNL     1      -7.281   1.981   2.722  1.00  0.00     0.040 A 
HETATM    3  C4  UNL     1      -7.637   2.519   1.495  1.00  0.00     0.042 A 
HETATM    4  C5  UNL     1      -6.881   2.208   0.379  1.00  0.00     0.100 A 
HETATM    5  C6  UNL     1      -5.768   1.368   0.442  1.00  0.00     0.126 A 
HETATM    6  O3  UNL     1      -5.067   1.085  -0.631  1.00  0.00    -0.303 OA
HETATM    7  C7  UNL     1      -4.027   0.294  -0.551  1.00  0.00     0.122 A 
HETATM    8  C8  UNL     1      -3.659  -0.249   0.664  1.00  0.00     0.157 A 
HETATM    9  C9  UNL     1      -4.376   0.027   1.824  1.00  0.00     0.224 A 
HETATM   10  O4  UNL     1      -4.065  -0.452   2.946  1.00  0.00    -0.284 OA
HETATM   11  C10 UNL     1      -5.464   0.862   1.702  1.00  0.00     0.087 A 
HETATM   12  O5  UNL     1      -2.575  -1.067   0.697  1.00  0.00    -0.315 OA
HETATM   13  C11 UNL     1      -1.742  -1.386  -0.374  1.00  0.00     0.266 A 
HETATM   14  C26 UNL     1      -2.192  -0.811  -1.652  1.00  0.00     0.034 A 
HETATM   15  C28 UNL     1      -3.229  -0.031  -1.753  1.00  0.00     0.014 A 
ENDROOT
BRANCH  13  16
HETATM   16  N1  UNL     1      -0.415  -0.779  -0.068  1.00  0.00    -0.326 N 
HETATM   17  C12 UNL     1       0.496  -1.343   0.844  1.00  0.00     0.256 C 
HETATM   18  O6  UNL     1       0.221  -2.390   1.448  1.00  0.00    -0.268 OA
ATOM     19  H1  UNL     1      -0.155   0.086  -0.542  1.00  0.00     0.165 HD
BRANCH  17  20
HETATM   20  C13 UNL     1       1.766  -0.678   1.083  1.00  0.00     0.062 A 
HETATM   21  C14 UNL     1       1.849   0.282   2.115  1.00  0.00     0.111 A 
HETATM   22  N2  UNL     1       2.979   0.952   2.261  1.00  0.00    -0.327 N 
HETATM   23  C15 UNL     1       3.077   1.948   3.343  1.00  0.00     0.159 C 
HETATM   24  C16 UNL     1       4.090   0.817   1.519  1.00  0.00     0.262 A 
HETATM   25  O7  UNL     1       5.104   1.534   1.754  1.00  0.00    -0.267 OA
HETATM   26  C17 UNL     1       4.069  -0.124   0.487  1.00  0.00     0.097 A 
HETATM   27  C18 UNL     1       5.178  -0.282  -0.288  1.00  0.00     0.163 A 
HETATM   28  C25 UNL     1       2.879  -0.843   0.313  1.00  0.00     0.040 A 
HETATM   29  N3  UNL     1       5.084  -1.214  -1.312  1.00  0.00    -0.301 N 
HETATM   30  C23 UNL     1       3.966  -1.920  -1.513  1.00  0.00     0.281 A 
ATOM     31  H3  UNL     1       5.885  -1.364  -1.925  1.00  0.00     0.171 HD
HETATM   32  O11 UNL     1       3.900  -2.773  -2.460  1.00  0.00    -0.265 OA
HETATM   33  C24 UNL     1       2.846  -1.778  -0.739  1.00  0.00     0.146 A 
BRANCH  27  34
HETATM   34  O8  UNL     1       6.382   0.333  -0.195  1.00  0.00    -0.320 OA
BRANCH  34  35
HETATM   35  C19 UNL     1       7.588  -0.108   0.317  1.00  0.00     0.108 C 
HETATM   36  C20 UNL     1       8.086  -1.356  -0.465  1.00  0.00     0.051 C 
BRANCH  35  37
HETATM   37  C21 UNL     1       7.731  -0.480   1.751  1.00  0.00     0.204 C 
BRANCH  37  38
HETATM   38  O9  UNL     1       9.055  -0.922   1.940  1.00  0.00    -0.398 OA
ATOM     39  H9  UNL     1       9.146  -1.159   2.855  1.00  0.00     0.209 HD
ENDBRANCH  37  38
ENDBRANCH  35  37
BRANCH  35  40
HETATM   40  C22 UNL     1       8.702   0.939   0.049  1.00  0.00     0.204 C 
BRANCH  40  41
HETATM   41  O10 UNL     1       8.861   1.156  -1.313  1.00  0.00    -0.398 OA
ATOM     42  H10 UNL     1       9.543   1.797  -1.477  1.00  0.00     0.209 HD
ENDBRANCH  40  41
ENDBRANCH  35  40
ENDBRANCH  34  35
ENDBRANCH  27  34
BRANCH  33  43
HETATM   43  O12 UNL     1       1.722  -2.539  -0.990  1.00  0.00    -0.355 OA
ATOM     44  H12 UNL     1       0.945  -2.440  -0.453  1.00  0.00     0.218 HD
ENDBRANCH  33  43
ENDBRANCH  17  20
ENDBRANCH  13  16
BRANCH  14  45
HETATM   45  C27 UNL     1      -1.409  -1.216  -2.903  1.00  0.00     0.289 C 
BRANCH  45  46
HETATM   46  O13 UNL     1      -1.139  -2.604  -2.648  1.00  0.00    -0.367 OA
ATOM     47  H13 UNL     1      -0.653  -2.855  -3.425  1.00  0.00     0.213 HD
ENDBRANCH  45  46
BRANCH  45  48
HETATM   48  O14 UNL     1      -2.199  -1.259  -4.028  1.00  0.00    -0.367 OA
ATOM     49  H14 UNL     1      -1.713  -1.510  -4.805  1.00  0.00     0.213 HD
ENDBRANCH  45  48
ENDBRANCH  14  45
BRANCH  15  50
HETATM   50  C29 UNL     1      -3.646   0.666  -2.992  1.00  0.00     0.221 C 
BRANCH  50  51
HETATM   51  O15 UNL     1      -4.928   0.257  -3.370  1.00  0.00    -0.317 OA
BRANCH  51  52
HETATM   52  C30 UNL     1      -5.572   0.757  -4.496  1.00  0.00     0.255 C 
HETATM   53  C31 UNL     1      -6.928   0.275  -4.833  1.00  0.00     0.126 C 
HETATM   54  O16 UNL     1      -4.972   1.612  -5.197  1.00  0.00    -0.266 OA
ENDBRANCH  51  52
ENDBRANCH  50  51
ENDBRANCH  15  50
BRANCH   1  55
HETATM   55  O1  UNL     1      -5.801   0.586   4.046  1.00  0.00    -0.355 OA
HETATM   56  C1  UNL     1      -6.573   0.896   5.190  1.00  0.00     0.210 C 
ENDBRANCH   1  55
BRANCH   4  57
HETATM   57  O2  UNL     1      -7.247   2.755  -0.848  1.00  0.00    -0.358 OA
ATOM     58  H2  UNL     1      -6.728   2.541  -1.614  1.00  0.00     0.217 HD
ENDBRANCH   4  57
TORSDOF 17
