REMARK  4 active torsions:
REMARK  status: ('A' for Active; 'I' for Inactive)
REMARK    1  A    between atoms: N1_2  and  N2_3 
REMARK    2  A    between atoms: N1_2  and  N3_6 
REMARK    3  A    between atoms: N3_6  and  C2_8 
REMARK    4  A    between atoms: C2_8  and  N4_10 
REMARK       I    between atoms: N4_10  and  C3_12 
ROOT
HETATM    1  N3  UNL     1      -0.721   0.010  -0.277  1.00  0.00    -0.278 N 
ATOM      2  H3  UNL     1      -0.642   0.537  -1.147  1.00  0.00     0.185 HD
ENDROOT
BRANCH   1   3
HETATM    3  N1  UNL     1      -1.989  -0.317   0.212  1.00  0.00    -0.149 NA
HETATM    4  C1  UNL     1      -2.511   0.706   1.104  1.00  0.00     0.162 C 
BRANCH   3   5
HETATM    5  N2  UNL     1      -2.885  -0.549  -0.824  1.00  0.00    -0.346 NA
ATOM      6  H22 UNL     1      -3.810  -0.788  -0.467  1.00  0.00     0.172 HD
ATOM      7  H21 UNL     1      -2.519  -1.267  -1.450  1.00  0.00     0.172 HD
ENDBRANCH   3   5
ENDBRANCH   1   3
BRANCH   1   8
HETATM    8  C2  UNL     1       0.474  -0.381   0.420  1.00  0.00     0.191 C 
HETATM    9  S1  UNL     1       0.409  -1.221   1.808  1.00  0.00    -0.039 SA
BRANCH   8  10
HETATM   10  N4  UNL     1       1.727  -0.023  -0.120  1.00  0.00    -0.287 N 
HETATM   11  C3  UNL     1       2.956  -0.368   0.502  1.00  0.00     0.334 C 
HETATM   12  N5  UNL     1       4.155   0.042  -0.128  1.00  0.00    -0.040 NA
HETATM   13  O1  UNL     1       2.941  -1.016   1.574  1.00  0.00    -0.251 OA
ATOM     14  H4  UNL     1       1.751   0.505  -0.992  1.00  0.00     0.172 HD
ENDBRANCH   8  10
ENDBRANCH   1   8
TORSDOF 4
