REMARK  7 active torsions:
REMARK  status: ('A' for Active; 'I' for Inactive)
REMARK    1  A    between atoms: C5_11  and  C6_12 
REMARK    2  A    between atoms: C6_12  and  N3_13 
REMARK    3  A    between atoms: N3_13  and  C7_16 
REMARK    4  A    between atoms: C7_16  and  C8_17 
REMARK    5  A    between atoms: C8_17  and  N4_18 
REMARK    6  A    between atoms: C10_22  and  N6_23 
REMARK    7  A    between atoms: C11_28  and  N8_29 
ROOT
HETATM    1  C7  UNL     1      -0.795   0.015   0.156  1.00  0.00     0.255 C 
ENDROOT
BRANCH   1   2
HETATM    2  N3  UNL     1       0.542   0.587  -0.099  1.00  0.00    -0.069 N 
ATOM      3  H32 UNL     1       0.687   1.452   0.422  1.00  0.00     0.277 HD
ATOM      4  H31 UNL     1       0.617   0.962  -1.045  1.00  0.00     0.277 HD
BRANCH   2   5
HETATM    5  C6  UNL     1       1.564  -0.367   0.171  1.00  0.00     0.278 C 
BRANCH   5   6
HETATM    6  C5  UNL     1       2.910   0.208   0.018  1.00  0.00     0.058 A 
HETATM    7  C2  UNL     1       3.989  -0.685   0.229  1.00  0.00     0.023 A 
HETATM    8  C1  UNL     1       3.713  -2.120   0.564  1.00  0.00     0.069 C 
HETATM    9  N1  UNL     1       5.237  -0.218   0.121  1.00  0.00    -0.312 N 
HETATM   10  C3  UNL     1       5.442   1.073  -0.181  1.00  0.00     0.327 A 
ATOM     11  H1  UNL     1       6.031  -0.841   0.268  1.00  0.00     0.170 HD
HETATM   12  O1  UNL     1       6.618   1.525  -0.286  1.00  0.00    -0.247 OA
HETATM   13  N2  UNL     1       4.436   1.933  -0.384  1.00  0.00    -0.275 N 
HETATM   14  C4  UNL     1       3.168   1.515  -0.288  1.00  0.00     0.259 A 
ATOM     15  H2  UNL     1       4.636   2.907  -0.612  1.00  0.00     0.173 HD
HETATM   16  O2  UNL     1       2.258   2.340  -0.479  1.00  0.00    -0.267 OA
ENDBRANCH   5   6
ENDBRANCH   2   5
ENDBRANCH   1   2
BRANCH   1  17
HETATM   17  C8  UNL     1      -1.811   1.072  -0.149  1.00  0.00     0.195 C 
BRANCH  17  18
HETATM   18  N4  UNL     1      -3.146   0.550   0.088  1.00  0.00    -0.123 N 
HETATM   19  N5  UNL     1      -3.718   0.696   1.270  1.00  0.00    -0.292 N 
HETATM   20  C9  UNL     1      -4.940   0.237   1.513  1.00  0.00     0.156 A 
ATOM     21  H5  UNL     1      -3.208   1.173   2.014  1.00  0.00     0.186 HD
HETATM   22  C10 UNL     1      -5.655  -0.414   0.520  1.00  0.00     0.131 A 
HETATM   23  N7  UNL     1      -5.042  -0.538  -0.652  1.00  0.00    -0.175 N 
HETATM   24  C11 UNL     1      -3.796  -0.072  -0.903  1.00  0.00     0.694 A 
ATOM     25  H7  UNL     1      -5.539  -1.012  -1.406  1.00  0.00     0.186 HD
BRANCH  22  26
HETATM   26  N6  UNL     1      -6.848  -0.861   0.758  1.00  0.00    -0.384 N 
ATOM     27  H62 UNL     1      -7.319  -0.766   1.658  1.00  0.00     0.157 HD
ATOM     28  H61 UNL     1      -7.374  -1.340   0.027  1.00  0.00     0.157 HD
ENDBRANCH  22  26
BRANCH  24  29
HETATM   29  N8  UNL     1      -3.339  -0.277  -2.084  1.00  0.00    -0.233 N 
ATOM     30  H82 UNL     1      -2.400   0.074  -2.273  1.00  0.00     0.174 HD
ATOM     31  H81 UNL     1      -3.834  -0.751  -2.839  1.00  0.00     0.174 HD
ENDBRANCH  24  29
ENDBRANCH  17  18
ENDBRANCH   1  17
TORSDOF 7
