REMARK  17 active torsions:
REMARK  status: ('A' for Active; 'I' for Inactive)
REMARK    1  A    between atoms: C2_2  and  C3_3 
REMARK    2  A    between atoms: C3_3  and  C4_4 
REMARK    3  A    between atoms: C4_4  and  N1_5 
REMARK    4  A    between atoms: C7_9  and  C8_10 
REMARK    5  A    between atoms: C8_10  and  C9_11 
REMARK    6  A    between atoms: C9_11  and  C10_12 
REMARK    7  A    between atoms: C10_12  and  C11_13 
REMARK    8  A    between atoms: C11_13  and  N2_14 
REMARK    9  A    between atoms: C13_22  and  C14_23 
REMARK   10  A    between atoms: C14_23  and  C15_24 
REMARK   11  A    between atoms: C18_28  and  C19_29 
REMARK   12  A    between atoms: C19_29  and  C21_31 
REMARK   13  A    between atoms: C23_33  and  O3_34 
REMARK   14  A    between atoms: C25_38  and  C26_39 
REMARK   15  A    between atoms: C26_39  and  C27_40 
REMARK   16  A    between atoms: C31_47  and  C32_48 
REMARK   17  A    between atoms: C32_48  and  C33_49 
ROOT
HETATM    1  N1  UNL     1      -2.954   0.555   0.815  1.00  0.00    -0.340 N 
HETATM    2  C5  UNL     1      -2.655   0.994  -0.512  1.00  0.00     0.206 C 
HETATM    3  C6  UNL     1      -1.367   1.672  -0.748  1.00  0.00     0.167 C 
HETATM    4  O1  UNL     1      -0.735   1.336  -1.756  1.00  0.00    -0.294 OA
HETATM    5  C7  UNL     1      -0.722   2.716   0.066  1.00  0.00     0.156 C 
HETATM    6  N3  UNL     1      -0.083   2.274   1.270  1.00  0.00    -0.347 N 
ATOM      7  H3  UNL     1      -0.423   2.745   2.109  1.00  0.00     0.163 HD
HETATM    8  C12 UNL     1       0.902   1.337   1.523  1.00  0.00     0.254 C 
HETATM    9  O2  UNL     1       0.609   0.363   2.270  1.00  0.00    -0.270 OA
HETATM   10  C13 UNL     1       2.322   1.286   1.042  1.00  0.00     0.255 C 
HETATM   11  N4  UNL     1       2.837   0.124   0.567  1.00  0.00    -0.433 NA
HETATM   12  C18 UNL     1       3.149  -1.022   0.318  1.00  0.00     0.133 C 
HETATM   13  C23 UNL     1       2.733  -2.269   1.004  1.00  0.00     0.180 C 
HETATM   14  N5  UNL     1       1.522  -2.837   1.380  1.00  0.00    -0.325 N 
HETATM   15  C24 UNL     1       1.429  -3.089   2.856  1.00  0.00     0.159 C 
HETATM   16  C25 UNL     1       0.367  -3.295   0.615  1.00  0.00     0.101 C 
HETATM   17  C30 UNL     1      -0.280  -2.380  -0.276  1.00  0.00     0.272 C 
HETATM   18  O4  UNL     1       0.408  -1.650  -1.057  1.00  0.00    -0.266 OA
HETATM   19  N6  UNL     1      -1.692  -2.125  -0.454  1.00  0.00    -0.317 N 
ATOM     20  H6  UNL     1      -2.008  -1.997  -1.415  1.00  0.00     0.169 HD
HETATM   21  C31 UNL     1      -2.683  -2.032   0.542  1.00  0.00     0.100 C 
HETATM   22  C36 UNL     1      -2.700  -0.762   1.328  1.00  0.00     0.270 C 
HETATM   23  O5  UNL     1      -2.473  -0.790   2.597  1.00  0.00    -0.266 OA
ENDROOT
BRANCH   5  24
HETATM   24  C8  UNL     1       0.197   3.597  -0.799  1.00  0.00     0.033 C 
BRANCH  24  25
HETATM   25  C9  UNL     1       0.816   4.680   0.050  1.00  0.00     0.004 C 
BRANCH  25  26
HETATM   26  C10 UNL     1       1.742   5.561  -0.754  1.00  0.00     0.027 C 
BRANCH  26  27
HETATM   27  C11 UNL     1       0.982   6.224  -1.863  1.00  0.00     0.229 C 
BRANCH  27  28
HETATM   28  N2  UNL     1       1.879   7.086  -2.627  1.00  0.00    -0.079 N 
ATOM     29  H23 UNL     1       2.360   7.762  -2.034  1.00  0.00     0.274 HD
ATOM     30  H22 UNL     1       2.697   6.582  -2.970  1.00  0.00     0.274 HD
ATOM     31  H21 UNL     1       1.362   7.537  -3.382  1.00  0.00     0.274 HD
ENDBRANCH  27  28
ENDBRANCH  26  27
ENDBRANCH  25  26
ENDBRANCH  24  25
ENDBRANCH   5  24
BRANCH   1  32
HETATM   32  C4  UNL     1      -3.558   1.478   1.778  1.00  0.00     0.126 C 
BRANCH  32  33
HETATM   33  C3  UNL     1      -5.024   1.474   1.872  1.00  0.00     0.020 C 
BRANCH  33  34
HETATM   34  C2  UNL     1      -5.832   1.905   0.702  1.00  0.00    -0.003 C 
HETATM   35  C1  UNL     1      -5.616   3.368   0.315  1.00  0.00     0.005 C 
ENDBRANCH  33  34
ENDBRANCH  32  33
ENDBRANCH   1  32
BRANCH  10  36
HETATM   36  C14 UNL     1       3.186   1.913   2.188  1.00  0.00     0.053 C 
BRANCH  36  37
HETATM   37  C15 UNL     1       4.624   1.958   1.837  1.00  0.00    -0.019 C 
HETATM   38  C16 UNL     1       5.388   2.554   3.014  1.00  0.00     0.009 C 
HETATM   39  C17 UNL     1       4.788   3.025   0.732  1.00  0.00     0.009 C 
ENDBRANCH  36  37
ENDBRANCH  10  36
BRANCH  21  40
HETATM   40  C32 UNL     1      -4.034  -2.570   0.294  1.00  0.00     0.012 C 
BRANCH  40  41
HETATM   41  C33 UNL     1      -4.915  -2.103  -0.771  1.00  0.00     0.002 C 
HETATM   42  C34 UNL     1      -6.237  -2.924  -0.630  1.00  0.00     0.013 C 
HETATM   43  C35 UNL     1      -4.466  -2.444  -2.171  1.00  0.00     0.013 C 
ENDBRANCH  40  41
ENDBRANCH  21  40
BRANCH  12  44
HETATM   44  C19 UNL     1       4.157  -1.330  -0.785  1.00  0.00     0.049 C 
HETATM   45  C20 UNL     1       3.714  -2.293  -1.816  1.00  0.00     0.017 C 
BRANCH  44  46
HETATM   46  C21 UNL     1       4.745  -0.153  -1.464  1.00  0.00     0.007 C 
HETATM   47  C22 UNL     1       5.710  -0.701  -2.530  1.00  0.00     0.006 C 
ENDBRANCH  44  46
ENDBRANCH  12  44
BRANCH  13  48
HETATM   48  O3  UNL     1       3.822  -2.972   1.311  1.00  0.00    -0.344 OA
ATOM     49  H3  UNL     1       3.555  -3.771   1.751  1.00  0.00     0.219 HD
ENDBRANCH  13  48
BRANCH  16  50
HETATM   50  C26 UNL     1       0.591  -4.712   0.163  1.00  0.00     0.012 C 
BRANCH  50  51
HETATM   51  C27 UNL     1      -0.393  -5.441  -0.616  1.00  0.00     0.002 C 
HETATM   52  C28 UNL     1      -0.722  -4.863  -1.962  1.00  0.00     0.013 C 
HETATM   53  C29 UNL     1       0.162  -6.859  -0.906  1.00  0.00     0.013 C 
ENDBRANCH  50  51
ENDBRANCH  16  50
TORSDOF 17
