REMARK  3 active torsions:
REMARK  status: ('A' for Active; 'I' for Inactive)
REMARK    1  A    between atoms: C4_11  and  N4_12 
REMARK    2  A    between atoms: N4_12  and  S1_14 
REMARK    3  A    between atoms: S1_14  and  N5_15 
ROOT
HETATM    1  N1  UNL     1      -0.914  -1.817   0.185  1.00  0.00    -0.080 NA
HETATM    2  C1  UNL     1      -0.995  -0.450   0.587  1.00  0.00     0.153 A 
HETATM    3  N2  UNL     1      -1.614  -0.095   1.726  1.00  0.00    -0.295 N 
ATOM      4  H2  UNL     1      -2.038  -0.804   2.324  1.00  0.00     0.172 HD
HETATM    5  C2  UNL     1      -1.668   1.202   2.068  1.00  0.00     0.328 A 
HETATM    6  O1  UNL     1      -2.256   1.546   3.151  1.00  0.00    -0.247 OA
HETATM    7  N3  UNL     1      -1.106   2.136   1.276  1.00  0.00    -0.273 N 
ATOM      8  H3  UNL     1      -1.164   3.113   1.564  1.00  0.00     0.173 HD
HETATM    9  C3  UNL     1      -0.473   1.847   0.126  1.00  0.00     0.280 A 
HETATM   10  O2  UNL     1       0.036   2.768  -0.577  1.00  0.00    -0.265 OA
HETATM   11  C4  UNL     1      -0.416   0.519  -0.228  1.00  0.00     0.153 A 
ENDROOT
BRANCH  11  12
HETATM   12  N4  UNL     1       0.245   0.181  -1.436  1.00  0.00    -0.260 N 
ATOM     13  H4  UNL     1      -0.313   0.154  -2.290  1.00  0.00     0.180 HD
BRANCH  12  14
HETATM   14  S1  UNL     1       1.901  -0.183  -1.563  1.00  0.00     0.317 S 
HETATM   15  O3  UNL     1       2.742   0.541  -0.557  1.00  0.00    -0.183 OA
HETATM   16  O4  UNL     1       2.381   0.208  -2.933  1.00  0.00    -0.183 OA
BRANCH  14  17
HETATM   17  N5  UNL     1       2.225  -1.874  -1.360  1.00  0.00    -0.311 N 
ATOM     18  H52 UNL     1       1.492  -2.562  -1.184  1.00  0.00     0.170 HD
ATOM     19  H51 UNL     1       3.218  -2.092  -1.436  1.00  0.00     0.170 HD
ENDBRANCH  14  17
ENDBRANCH  12  14
ENDBRANCH  11  12
TORSDOF 3
