REMARK  3 active torsions:
REMARK  status: ('A' for Active; 'I' for Inactive)
REMARK    1  A    between atoms: O1_2  and  C2_3 
REMARK    2  A    between atoms: C2_3  and  N1_4 
REMARK    3  A    between atoms: C5_15  and  N6_16 
ROOT
HETATM    1  N1  UNL     1       0.749   0.804  -0.251  1.00  0.00    -0.069 N 
HETATM    2  N2  UNL     1       0.810   2.217  -0.510  1.00  0.00    -0.228 N 
ATOM      3  H2  UNL     1       1.701   2.671  -0.712  1.00  0.00     0.193 HD
HETATM    4  C3  UNL     1      -0.373   2.954  -0.480  1.00  0.00     0.355 A 
HETATM    5  O2  UNL     1      -0.410   4.209  -0.698  1.00  0.00    -0.244 OA
HETATM    6  N3  UNL     1      -1.604   2.328  -0.200  1.00  0.00    -0.225 N 
ATOM      7  H3  UNL     1      -2.468   2.869  -0.177  1.00  0.00     0.193 HD
HETATM    8  N4  UNL     1      -1.619   0.953   0.046  1.00  0.00    -0.024 N 
HETATM    9  C4  UNL     1      -0.485   0.177   0.029  1.00  0.00     0.745 A 
HETATM   10  N5  UNL     1      -0.580  -1.142   0.277  1.00  0.00    -0.019 N 
ATOM     11  H5  UNL     1       0.256  -1.726   0.267  1.00  0.00     0.203 HD
HETATM   12  C5  UNL     1      -1.778  -1.688   0.538  1.00  0.00     0.694 A 
HETATM   13  N7  UNL     1      -2.912  -0.965   0.564  1.00  0.00    -0.139 N 
ATOM     14  H7  UNL     1      -3.815  -1.396   0.764  1.00  0.00     0.189 HD
HETATM   15  C6  UNL     1      -2.802   0.347   0.315  1.00  0.00     0.374 A 
HETATM   16  O3  UNL     1      -3.842   1.065   0.330  1.00  0.00    -0.244 OA
ENDROOT
BRANCH   1  17
HETATM   17  C2  UNL     1       2.001   0.119  -0.300  1.00  0.00     0.269 C 
BRANCH  17  18
HETATM   18  O1  UNL     1       2.102  -1.193  -0.080  1.00  0.00    -0.349 OA
HETATM   19  C1  UNL     1       3.387  -1.693  -0.167  1.00  0.00     0.211 C 
ENDBRANCH  17  18
ENDBRANCH   1  17
BRANCH  12  20
HETATM   20  N6  UNL     1      -1.867  -2.963   0.776  1.00  0.00    -0.234 N 
ATOM     21  H62 UNL     1      -1.007  -3.511   0.756  1.00  0.00     0.174 HD
ATOM     22  H61 UNL     1      -2.777  -3.378   0.974  1.00  0.00     0.174 HD
ENDBRANCH  12  20
TORSDOF 3
