REMARK  3 active torsions:
REMARK  status: ('A' for Active; 'I' for Inactive)
REMARK    1  A    between atoms: N1_1  and  C1_4 
REMARK    2  A    between atoms: C2_7  and  C3_8 
REMARK    3  A    between atoms: C4_11  and  N4_12 
ROOT
HETATM    1  C1  UNL     1      -2.079  -0.716   0.108  1.00  0.00     0.679 A 
HETATM    2  N2  UNL     1      -0.879  -1.028   0.593  1.00  0.00    -0.184 N 
ATOM      3  H2  UNL     1      -0.821  -1.828   1.223  1.00  0.00     0.184 HD
HETATM    4  C2  UNL     1       0.266  -0.371   0.319  1.00  0.00     0.152 A 
HETATM    5  C4  UNL     1       0.188   0.706  -0.530  1.00  0.00     0.203 A 
HETATM    6  C5  UNL     1      -1.079   1.025  -1.033  1.00  0.00     0.295 A 
HETATM    7  O4  UNL     1      -1.176   2.022  -1.823  1.00  0.00    -0.265 OA
HETATM    8  N5  UNL     1      -2.188   0.334  -0.726  1.00  0.00    -0.154 N 
ATOM      9  H5  UNL     1      -3.093   0.599  -1.116  1.00  0.00     0.187 HD
ENDROOT
BRANCH   1  10
HETATM   10  N1  UNL     1      -3.152  -1.403   0.420  1.00  0.00    -0.234 N 
ATOM     11  H12 UNL     1      -3.069  -2.199   1.052  1.00  0.00     0.174 HD
ATOM     12  H11 UNL     1      -4.071  -1.164   0.048  1.00  0.00     0.174 HD
ENDBRANCH   1  10
BRANCH   4  13
HETATM   13  C3  UNL     1       1.539  -0.772   0.906  1.00  0.00     0.284 C 
HETATM   14  N3  UNL     1       2.767  -0.118   0.731  1.00  0.00    -0.056 NA
HETATM   15  O1  UNL     1       1.518  -1.816   1.647  1.00  0.00    -0.269 OA
ENDBRANCH   4  13
BRANCH   5  16
HETATM   16  N4  UNL     1       1.287   1.508  -0.926  1.00  0.00    -0.107 N 
HETATM   17  O2  UNL     1       2.060   1.099  -1.828  1.00  0.00    -0.531 OA
HETATM   18  O3  UNL     1       1.503   2.736  -0.359  1.00  0.00    -0.531 OA
ENDBRANCH   5  16
TORSDOF 3
