REMARK  4 active torsions:
REMARK  status: ('A' for Active; 'I' for Inactive)
REMARK    1  A    between atoms: N1_1  and  N2_4 
REMARK    2  A    between atoms: N2_4  and  C1_6 
REMARK    3  A    between atoms: C4_15  and  C5_16 
REMARK    4  A    between atoms: C5_16  and  N5_17 
ROOT
HETATM    1  C1  UNL     1       0.322  -0.730   0.377  1.00  0.00     0.141 A 
HETATM    2  N3  UNL     1      -0.114  -1.985   0.215  1.00  0.00    -0.292 N 
ATOM      3  H3  UNL     1       0.476  -2.752   0.538  1.00  0.00     0.172 HD
HETATM    4  C2  UNL     1      -1.287  -2.278  -0.350  1.00  0.00     0.328 A 
HETATM    5  O1  UNL     1      -1.660  -3.476  -0.487  1.00  0.00    -0.247 OA
HETATM    6  N4  UNL     1      -2.031  -1.263  -0.753  1.00  0.00    -0.275 N 
ATOM      7  H4  UNL     1      -2.933  -1.459  -1.188  1.00  0.00     0.173 HD
HETATM    8  C3  UNL     1      -1.642   0.037  -0.611  1.00  0.00     0.265 A 
HETATM    9  O2  UNL     1      -2.422   0.935  -1.028  1.00  0.00    -0.267 OA
HETATM   10  C4  UNL     1      -0.456   0.380  -0.044  1.00  0.00     0.099 A 
ENDROOT
BRANCH   1  11
HETATM   11  N2  UNL     1       1.610  -0.494   0.945  1.00  0.00    -0.291 N 
ATOM     12  H2  UNL     1       1.770  -0.566   1.950  1.00  0.00     0.188 HD
BRANCH  11  13
HETATM   13  N1  UNL     1       2.643  -0.159   0.063  1.00  0.00    -0.344 N 
ATOM     14  H12 UNL     1       2.467  -0.091  -0.939  1.00  0.00     0.176 HD
ATOM     15  H11 UNL     1       3.563   0.010   0.469  1.00  0.00     0.176 HD
ENDBRANCH  11  13
ENDBRANCH   1  11
BRANCH  10  16
HETATM   16  C5  UNL     1       0.087   1.684   0.200  1.00  0.00     0.188 C 
BRANCH  16  17
HETATM   17  N5  UNL     1      -0.344   2.817  -0.053  1.00  0.00    -0.126 N 
HETATM   18  O3  UNL     1       0.458   3.940   0.323  1.00  0.00    -0.532 OA
HETATM   19  O4  UNL     1      -1.497   3.174  -0.633  1.00  0.00    -0.532 OA
ENDBRANCH  16  17
ENDBRANCH  10  16
TORSDOF 4
