REMARK  3 active torsions:
REMARK  status: ('A' for Active; 'I' for Inactive)
REMARK    1  A    between atoms: N1_1  and  N2_4 
REMARK    2  A    between atoms: N2_4  and  N3_5 
REMARK       I    between atoms: N3_5  and  C1_7 
REMARK    3  A    between atoms: C1_7  and  C2_9 
ROOT
HETATM    1  C2  UNL     1      -0.568  -0.312  -0.228  1.00  0.00     0.084 A 
HETATM    2  C3  UNL     1      -1.044   0.383   0.888  1.00  0.00     0.099 A 
HETATM    3  C4  UNL     1      -2.340   0.797   1.028  1.00  0.00     0.249 A 
HETATM    4  O2  UNL     1      -2.584   1.421   2.125  1.00  0.00    -0.268 OA
HETATM    5  N4  UNL     1      -3.346   0.632   0.181  1.00  0.00    -0.284 N 
ATOM      6  H4  UNL     1      -4.249   1.014   0.462  1.00  0.00     0.172 HD
HETATM    7  C5  UNL     1      -3.298   0.015  -1.005  1.00  0.00     0.291 A 
HETATM    8  O3  UNL     1      -4.325  -0.094  -1.753  1.00  0.00    -0.260 OA
HETATM    9  S1  UNL     1      -1.763  -0.598  -1.411  1.00  0.00    -0.023 SA
ENDROOT
BRANCH   1  10
HETATM   10  C1  UNL     1       0.813  -0.751  -0.364  1.00  0.00     0.275 C 
HETATM   11  N3  UNL     1       1.796  -0.509   0.615  1.00  0.00    -0.250 N 
ATOM     12  H3  UNL     1       1.553  -0.005   1.467  1.00  0.00     0.187 HD
HETATM   13  O1  UNL     1       1.093  -1.371  -1.426  1.00  0.00    -0.266 OA
BRANCH  11  14
HETATM   14  N2  UNL     1       3.119  -0.964   0.418  1.00  0.00    -0.027 NA
BRANCH  14  15
HETATM   15  N1  UNL     1       3.980   0.020  -0.009  1.00  0.00    -0.329 N 
ATOM     16  H12 UNL     1       3.677   0.981  -0.164  1.00  0.00     0.174 HD
ATOM     17  H11 UNL     1       4.935  -0.308  -0.151  1.00  0.00     0.174 HD
ENDBRANCH  14  15
ENDBRANCH  11  14
ENDBRANCH   1  10
TORSDOF 3
