REMARK  9 active torsions:
REMARK  status: ('A' for Active; 'I' for Inactive)
REMARK    1  A    between atoms: C2_2  and  N1_4 
REMARK    2  A    between atoms: N1_4  and  C4_6 
REMARK    3  A    between atoms: C7_12  and  N3_13 
REMARK    4  A    between atoms: N3_13  and  C8_15 
REMARK    5  A    between atoms: C8_15  and  C9_16 
REMARK    6  A    between atoms: C8_15  and  C10_25 
REMARK    7  A    between atoms: C10_25  and  N8_26 
REMARK    8  A    between atoms: C10_25  and  O2_30 
REMARK    9  A    between atoms: C12_33  and  C13_34 
ROOT
HETATM    1  C4  UNL     1      -3.374  -0.633   0.701  1.00  0.00     0.682 A 
HETATM    2  N2  UNL     1      -2.753  -1.417  -0.183  1.00  0.00    -0.155 N 
ATOM      3  H2  UNL     1      -3.298  -2.138  -0.655  1.00  0.00     0.187 HD
HETATM    4  C5  UNL     1      -1.421  -1.305  -0.490  1.00  0.00     0.276 A 
HETATM    5  O1  UNL     1      -0.987  -2.115  -1.347  1.00  0.00    -0.267 OA
HETATM    6  C6  UNL     1      -0.641  -0.350   0.120  1.00  0.00     0.104 A 
HETATM    7  C7  UNL     1       0.707  -0.168  -0.157  1.00  0.00     0.054 A 
HETATM    8  C11 UNL     1       1.331   0.854   0.523  1.00  0.00     0.061 A 
HETATM    9  C12 UNL     1       0.702   1.687   1.446  1.00  0.00     0.049 A 
HETATM   10  N11 UNL     1      -0.602   1.442   1.658  1.00  0.00    -0.340 N 
ATOM     11  H11 UNL     1      -1.095   2.032   2.328  1.00  0.00     0.167 HD
HETATM   12  C17 UNL     1      -1.299   0.471   1.045  1.00  0.00     0.139 A 
HETATM   13  N12 UNL     1      -2.613   0.303   1.297  1.00  0.00    -0.175 N 
ATOM     14  H12 UNL     1      -3.055   0.920   1.978  1.00  0.00     0.186 HD
ENDROOT
BRANCH   7  15
HETATM   15  N3  UNL     1       1.397  -1.040  -1.007  1.00  0.00    -0.352 N 
ATOM     16  H3  UNL     1       0.908  -1.918  -1.180  1.00  0.00     0.166 HD
BRANCH  15  17
HETATM   17  C8  UNL     1       2.643  -0.938  -1.673  1.00  0.00     0.113 C 
BRANCH  17  18
HETATM   18  C9  UNL     1       2.879   0.247  -2.516  1.00  0.00     0.164 A 
HETATM   19  N4  UNL     1       2.503   1.525  -2.408  1.00  0.00    -0.267 N 
HETATM   20  N5  UNL     1       2.977   2.216  -3.416  1.00  0.00    -0.227 N 
ATOM     21  H4  UNL     1       1.932   1.906  -1.653  1.00  0.00     0.190 HD
HETATM   22  N6  UNL     1       3.661   1.436  -4.197  1.00  0.00    -0.227 N 
ATOM     23  H5  UNL     1       2.831   3.215  -3.564  1.00  0.00     0.210 HD
HETATM   24  N7  UNL     1       3.621   0.226  -3.676  1.00  0.00    -0.267 N 
ATOM     25  H6  UNL     1       4.140   1.709  -5.055  1.00  0.00     0.210 HD
ATOM     26  H7  UNL     1       4.071  -0.600  -4.071  1.00  0.00     0.190 HD
ENDBRANCH  17  18
BRANCH  17  27
HETATM   27  C10 UNL     1       3.859  -1.474  -1.020  1.00  0.00     0.371 C 
BRANCH  27  28
HETATM   28  N8  UNL     1       4.159  -1.082   0.308  1.00  0.00    -0.047 N 
ATOM     29  H83 UNL     1       4.186  -0.063   0.351  1.00  0.00     0.277 HD
ATOM     30  H82 UNL     1       3.353  -1.285   0.899  1.00  0.00     0.277 HD
ATOM     31  H81 UNL     1       4.997  -1.451   0.758  1.00  0.00     0.277 HD
ENDBRANCH  27  28
BRANCH  27  32
HETATM   32  O2  UNL     1       4.943  -1.229  -1.891  1.00  0.00    -0.365 OA
ATOM     33  H2  UNL     1       5.723  -1.573  -1.472  1.00  0.00     0.212 HD
ENDBRANCH  27  32
ENDBRANCH  17  27
ENDBRANCH  15  17
ENDBRANCH   7  15
BRANCH   9  34
HETATM   34  C13 UNL     1       1.397   2.753   2.140  1.00  0.00     0.021 A 
HETATM   35  C14 UNL     1       0.718   3.538   3.038  1.00  0.00     0.104 A 
HETATM   36  N9  UNL     1       1.359   4.521   3.677  1.00  0.00    -0.361 N 
HETATM   37  C15 UNL     1       2.660   4.783   3.480  1.00  0.00     0.180 A 
ATOM     38  H9  UNL     1       0.839   5.095   4.341  1.00  0.00     0.166 HD
HETATM   39  N10 UNL     1       3.351   4.034   2.609  1.00  0.00    -0.361 N 
HETATM   40  C16 UNL     1       2.715   3.018   1.939  1.00  0.00     0.104 A 
ATOM     41  H10 UNL     1       4.341   4.217   2.445  1.00  0.00     0.166 HD
ENDBRANCH   9  34
BRANCH   1  42
HETATM   42  N1  UNL     1      -4.624  -0.752   0.977  1.00  0.00    -0.222 N 
ATOM     43  H1  UNL     1      -4.984  -0.094   1.669  1.00  0.00     0.178 HD
BRANCH  42  44
HETATM   44  C2  UNL     1      -5.572  -1.665   0.458  1.00  0.00     0.091 C 
HETATM   45  C1  UNL     1      -5.850  -1.482  -1.021  1.00  0.00     0.032 C 
HETATM   46  C3  UNL     1      -5.304  -3.112   0.796  1.00  0.00     0.032 C 
ENDBRANCH  42  44
ENDBRANCH   1  42
TORSDOF 9
