REMARK  10 active torsions:
REMARK  status: ('A' for Active; 'I' for Inactive)
REMARK    1  A    between atoms: N1_1  and  C1_5 
REMARK    2  A    between atoms: C1_5  and  C2_6 
REMARK    3  A    between atoms: C2_6  and  C3_7 
REMARK    4  A    between atoms: C3_7  and  C4_8 
REMARK    5  A    between atoms: C4_8  and  N2_9 
REMARK    6  A    between atoms: C4_8  and  C5_13 
REMARK    7  A    between atoms: C5_13  and  N5_19 
REMARK    8  A    between atoms: N3_14  and  N4_16 
REMARK    9  A    between atoms: N5_19  and  N6_21 
REMARK       I    between atoms: N6_21  and  C6_23 
REMARK   10  A    between atoms: C6_23  and  C7_25 
ROOT
HETATM    1  C5  UNL     1       0.068   0.654   0.015  1.00  0.00     0.141 C 
HETATM    2  N3  UNL     1       0.396   1.175  -1.105  1.00  0.00    -0.293 N 
ATOM      3  H3  UNL     1       1.251   0.839  -1.549  1.00  0.00     0.187 HD
ENDROOT
BRANCH   1   4
HETATM    4  C4  UNL     1      -1.150   1.099   0.696  1.00  0.00     0.253 C 
BRANCH   4   5
HETATM    5  C3  UNL     1      -2.127  -0.042   0.895  1.00  0.00     0.042 C 
BRANCH   5   6
HETATM    6  C2  UNL     1      -2.616  -0.575  -0.451  1.00  0.00     0.030 C 
BRANCH   6   7
HETATM    7  C1  UNL     1      -3.585  -1.711  -0.257  1.00  0.00     0.230 C 
BRANCH   7   8
HETATM    8  N1  UNL     1      -4.743  -1.303   0.496  1.00  0.00    -0.079 N 
ATOM      9  H13 UNL     1      -4.478  -0.885   1.388  1.00  0.00     0.274 HD
ATOM     10  H12 UNL     1      -5.198  -0.496   0.070  1.00  0.00     0.274 HD
ATOM     11  H11 UNL     1      -5.399  -2.073   0.627  1.00  0.00     0.274 HD
ENDBRANCH   7   8
ENDBRANCH   6   7
ENDBRANCH   5   6
ENDBRANCH   4   5
BRANCH   4  12
HETATM   12  N2  UNL     1      -0.754   1.524   2.046  1.00  0.00    -0.068 N 
ATOM     13  H23 UNL     1      -1.543   1.762   2.648  1.00  0.00     0.275 HD
ATOM     14  H22 UNL     1      -0.386   0.766   2.621  1.00  0.00     0.275 HD
ATOM     15  H21 UNL     1      -0.096   2.292   1.912  1.00  0.00     0.275 HD
ENDBRANCH   4  12
ENDBRANCH   1   4
BRANCH   1  16
HETATM   16  N5  UNL     1       0.881  -0.343   0.585  1.00  0.00    -0.283 N 
ATOM     17  H5  UNL     1       0.530  -0.858   1.393  1.00  0.00     0.188 HD
BRANCH  16  18
HETATM   18  N6  UNL     1       2.150  -0.656   0.089  1.00  0.00    -0.262 N 
HETATM   19  C6  UNL     1       3.199   0.290   0.187  1.00  0.00     0.306 C 
HETATM   20  O1  UNL     1       2.986   1.404   0.719  1.00  0.00    -0.262 OA
ATOM     21  H6  UNL     1       2.320  -1.564  -0.343  1.00  0.00     0.190 HD
BRANCH  19  22
HETATM   22  C7  UNL     1       4.529  -0.014  -0.322  1.00  0.00     0.205 A 
HETATM   23  N7  UNL     1       5.613   0.784  -0.297  1.00  0.00    -0.262 N 
HETATM   24  N8  UNL     1       6.636   0.149  -0.858  1.00  0.00    -0.005 NA
ATOM     25  H7  UNL     1       5.644   1.727   0.091  1.00  0.00     0.186 HD
HETATM   26  N9  UNL     1       6.224  -1.048  -1.245  1.00  0.00    -0.225 N 
HETATM   27  N10 UNL     1       4.952  -1.146  -0.922  1.00  0.00    -0.267 N 
ATOM     28  H9  UNL     1       6.787  -1.761  -1.707  1.00  0.00     0.205 HD
ATOM     29  H10 UNL     1       4.368  -1.963  -1.100  1.00  0.00     0.190 HD
ENDBRANCH  19  22
ENDBRANCH  16  18
ENDBRANCH   1  16
BRANCH   2  30
HETATM   30  N4  UNL     1      -0.325   2.165  -1.764  1.00  0.00    -0.344 N 
ATOM     31  H42 UNL     1      -1.177   2.488  -1.305  1.00  0.00     0.176 HD
ATOM     32  H41 UNL     1      -0.063   2.581  -2.658  1.00  0.00     0.176 HD
ENDBRANCH   2  30
TORSDOF 10
