REMARK  3 active torsions:
REMARK  status: ('A' for Active; 'I' for Inactive)
REMARK    1  A    between atoms: C5_5  and  N1_6 
REMARK    2  A    between atoms: N1_6  and  C6_8 
REMARK    3  A    between atoms: C7_10  and  O1_11 
ROOT
HETATM    1  C1  UNL     1      -2.232   1.207  -0.104  1.00  0.00     0.010 C 
HETATM    2  C2  UNL     1      -1.470  -0.044   0.333  1.00  0.00    -0.016 C 
HETATM    3  C3  UNL     1      -0.547   0.247   1.457  1.00  0.00     0.006 C 
HETATM    4  C4  UNL     1       0.641  -0.662   1.550  1.00  0.00     0.028 C 
HETATM    5  C5  UNL     1       1.402  -0.808   0.273  1.00  0.00     0.110 C 
HETATM    6  C7  UNL     1       0.656  -0.250  -0.897  1.00  0.00     0.141 C 
HETATM    7  C8  UNL     1      -0.808  -0.600  -0.894  1.00  0.00     0.038 C 
ENDROOT
BRANCH   5   8
HETATM    8  N1  UNL     1       2.694  -0.192   0.387  1.00  0.00    -0.383 N 
ATOM      9  H1  UNL     1       3.375  -0.543   1.061  1.00  0.00     0.160 HD
BRANCH   8  10
HETATM   10  C6  UNL     1       2.984   0.810  -0.372  1.00  0.00     0.166 C 
HETATM   11  S1  UNL     1       3.925   1.599  -1.426  1.00  0.00    -0.075 SA
ENDBRANCH   8  10
ENDBRANCH   5   8
BRANCH   6  12
HETATM   12  O1  UNL     1       1.247  -0.648  -2.093  1.00  0.00    -0.394 OA
ATOM     13  H1  UNL     1       0.773  -0.294  -2.836  1.00  0.00     0.210 HD
ENDBRANCH   6  12
TORSDOF 3
