REMARK  6 active torsions:
REMARK  status: ('A' for Active; 'I' for Inactive)
REMARK    1  A    between atoms: C2_2  and  O1_3 
REMARK    2  A    between atoms: O1_3  and  C3_4 
REMARK    3  A    between atoms: C3_4  and  C4_6 
REMARK    4  A    between atoms: C5_7  and  C6_8 
REMARK    5  A    between atoms: C7_9  and  O3_10 
REMARK    6  A    between atoms: C8_14  and  N2_15 
ROOT
HETATM    1  C6  UNL     1      -0.025  -1.142   0.526  1.00  0.00     0.028 A 
HETATM    2  C7  UNL     1      -0.643  -2.329   0.889  1.00  0.00     0.152 A 
HETATM    3  N1  UNL     1      -0.045  -3.528   0.778  1.00  0.00    -0.322 N 
ATOM      4  H1  UNL     1      -0.533  -4.382   1.050  1.00  0.00     0.169 HD
HETATM    5  C8  UNL     1       1.177  -3.574   0.313  1.00  0.00     0.107 A 
HETATM    6  C9  UNL     1       1.866  -2.415  -0.069  1.00  0.00    -0.005 A 
HETATM    7  C10 UNL     1       3.269  -2.595  -0.466  1.00  0.00     0.053 C 
HETATM    8  C11 UNL     1       1.283  -1.150   0.023  1.00  0.00     0.012 A 
HETATM    9  C12 UNL     1       1.982   0.065  -0.320  1.00  0.00     0.043 C 
HETATM   10  C13 UNL     1       3.006   0.014  -1.433  1.00  0.00     0.289 C 
HETATM   11  N3  UNL     1       3.092   1.422  -1.948  1.00  0.00    -0.068 N 
ATOM     12  H31 UNL     1       2.243   1.701  -2.439  1.00  0.00     0.277 HD
ATOM     13  H32 UNL     1       3.748   1.505  -2.725  1.00  0.00     0.277 HD
HETATM   14  C14 UNL     1       3.411   2.315  -0.883  1.00  0.00     0.252 C 
HETATM   15  C15 UNL     1       2.340   2.320   0.197  1.00  0.00     0.147 C 
HETATM   16  N4  UNL     1       1.335   1.329  -0.244  1.00  0.00    -0.389 N 
ATOM     17  H4  UNL     1       0.355   1.518  -0.455  1.00  0.00     0.159 HD
ENDROOT
BRANCH   1  18
HETATM   18  C5  UNL     1      -0.789   0.062   0.571  1.00  0.00     0.023 C 
HETATM   19  C4  UNL     1      -2.119   0.050   0.423  1.00  0.00     0.083 C 
BRANCH  19  20
HETATM   20  C3  UNL     1      -2.908   1.298   0.470  1.00  0.00     0.282 C 
HETATM   21  O2  UNL     1      -2.336   2.390   0.650  1.00  0.00    -0.260 OA
BRANCH  20  22
HETATM   22  O1  UNL     1      -4.281   1.283   0.313  1.00  0.00    -0.319 OA
BRANCH  22  23
HETATM   23  C2  UNL     1      -4.989   2.514   0.369  1.00  0.00     0.174 C 
HETATM   24  C1  UNL     1      -6.458   2.348   0.141  1.00  0.00     0.034 C 
ENDBRANCH  22  23
ENDBRANCH  20  22
ENDBRANCH  19  20
ENDBRANCH   1  18
BRANCH   2  25
HETATM   25  O3  UNL     1      -1.934  -2.392   1.410  1.00  0.00    -0.345 OA
ATOM     26  H3  UNL     1      -2.357  -3.205   1.659  1.00  0.00     0.219 HD
ENDBRANCH   2  25
BRANCH   5  27
HETATM   27  N2  UNL     1       1.765  -4.724   0.212  1.00  0.00    -0.385 N 
ATOM     28  H22 UNL     1       1.264  -5.568   0.490  1.00  0.00     0.157 HD
ATOM     29  H21 UNL     1       2.718  -4.760  -0.151  1.00  0.00     0.157 HD
ENDBRANCH   5  27
TORSDOF 6
