REMARK  11 active torsions:
REMARK  status: ('A' for Active; 'I' for Inactive)
REMARK    1  A    between atoms: N1_2  and  C2_3 
REMARK    2  A    between atoms: N1_2  and  C23_33 
REMARK    3  A    between atoms: C2_3  and  C3_4 
REMARK    4  A    between atoms: C3_4  and  C4_5 
REMARK    5  A    between atoms: C4_5  and  N2_6 
REMARK    6  A    between atoms: C6_11  and  C8_13 
REMARK    7  A    between atoms: C11_17  and  O3_18 
REMARK    8  A    between atoms: C12_20  and  O4_21 
REMARK    9  A    between atoms: C14_24  and  C15_25 
REMARK   10  A    between atoms: C16_26  and  C17_27 
REMARK   11  A    between atoms: C23_33  and  C24_34 
ROOT
HETATM    1  N2  UNL     1       0.812  -0.255  -0.374  1.00  0.00    -0.320 N 
HETATM    2  C5  UNL     1       0.694   0.421  -1.696  1.00  0.00     0.320 C 
HETATM    3  O1  UNL     1       0.748   1.661  -1.826  1.00  0.00    -0.247 OA
HETATM    4  N3  UNL     1       0.528  -0.550  -2.693  1.00  0.00    -0.325 N 
ATOM      5  H3  UNL     1       0.362  -0.403  -3.689  1.00  0.00     0.165 HD
HETATM    6  C6  UNL     1       0.647  -1.830  -1.977  1.00  0.00     0.110 C 
HETATM    7  C7  UNL     1       2.143  -2.127  -1.964  1.00  0.00     0.049 C 
HETATM    8  C9  UNL     1       0.116  -1.478  -0.588  1.00  0.00     0.085 C 
HETATM    9  C10 UNL     1       0.603  -2.628   0.297  1.00  0.00     0.070 C 
HETATM   10  C11 UNL     1      -0.371  -3.002   1.359  1.00  0.00     0.149 C 
HETATM   11  C12 UNL     1      -1.665  -3.444   0.769  1.00  0.00     0.148 C 
HETATM   12  C13 UNL     1      -2.140  -2.640  -0.373  1.00  0.00     0.054 C 
HETATM   13  C14 UNL     1      -1.338  -1.379  -0.664  1.00  0.00     0.099 C 
ENDROOT
BRANCH   1  14
HETATM   14  C4  UNL     1       1.539   0.462   0.636  1.00  0.00     0.130 C 
BRANCH  14  15
HETATM   15  C3  UNL     1       3.026   0.155   0.676  1.00  0.00     0.050 C 
BRANCH  15  16
HETATM   16  C2  UNL     1       3.790   1.202   1.447  1.00  0.00     0.273 C 
BRANCH  16  17
HETATM   17  N1  UNL     1       4.118   2.313   0.493  1.00  0.00     0.092 N 
HETATM   18  C1  UNL     1       3.924   3.584   1.240  1.00  0.00     0.310 C 
BRANCH  17  19
HETATM   19  C23 UNL     1       5.600   2.267   0.335  1.00  0.00     0.388 C 
BRANCH  19  20
HETATM   20  C24 UNL     1       6.141   1.320  -0.652  1.00  0.00     0.413 C 
HETATM   21  F1  UNL     1       5.930   0.006  -0.517  1.00  0.00    -0.169 F 
HETATM   22  F2  UNL     1       7.542   1.506  -0.743  1.00  0.00    -0.169 F 
HETATM   23  F3  UNL     1       5.715   1.710  -1.939  1.00  0.00    -0.169 F 
ENDBRANCH  19  20
ENDBRANCH  17  19
ENDBRANCH  16  17
ENDBRANCH  15  16
ENDBRANCH  14  15
ENDBRANCH   1  14
BRANCH   6  24
HETATM   24  C8  UNL     1      -0.034  -2.874  -2.731  1.00  0.00     0.264 C 
HETATM   25  O2  UNL     1       0.542  -3.781  -3.290  1.00  0.00    -0.304 OA
ENDBRANCH   6  24
BRANCH  13  26
HETATM   26  C15 UNL     1      -1.933  -0.286   0.083  1.00  0.00    -0.099 C 
HETATM   27  C16 UNL     1      -2.506   0.545   0.689  1.00  0.00    -0.101 C 
BRANCH  27  28
HETATM   28  C17 UNL     1      -3.325   1.545   1.462  1.00  0.00     0.065 C 
HETATM   29  C18 UNL     1      -3.446   2.736   0.609  1.00  0.00     0.017 C 
HETATM   30  C19 UNL     1      -4.785   3.393   0.596  1.00  0.00     0.001 C 
HETATM   31  C20 UNL     1      -5.805   2.330   0.182  1.00  0.00     0.000 C 
HETATM   32  C21 UNL     1      -5.873   1.427   1.392  1.00  0.00     0.001 C 
HETATM   33  C22 UNL     1      -4.622   0.804   1.770  1.00  0.00     0.017 C 
ENDBRANCH  27  28
ENDBRANCH  13  26
BRANCH  10  34
HETATM   34  O3  UNL     1       0.167  -4.129   2.030  1.00  0.00    -0.393 OA
ATOM     35  H3  UNL     1      -0.455  -4.368   2.708  1.00  0.00     0.210 HD
ENDBRANCH  10  34
BRANCH  11  36
HETATM   36  O4  UNL     1      -1.518  -4.777   0.327  1.00  0.00    -0.393 OA
ATOM     37  H4  UNL     1      -2.343  -5.059  -0.049  1.00  0.00     0.210 HD
ENDBRANCH  11  36
TORSDOF 11
