REMARK  9 active torsions:
REMARK  status: ('A' for Active; 'I' for Inactive)
REMARK       I    between atoms: C2_4  and  N3_6 
REMARK    1  A    between atoms: C3_8  and  C4_9 
REMARK    2  A    between atoms: C3_8  and  N4_13 
REMARK    3  A    between atoms: C4_9  and  C5_10 
REMARK    4  A    between atoms: C5_10  and  O1_11 
REMARK    5  A    between atoms: N4_13  and  N5_15 
REMARK    6  A    between atoms: C7_17  and  C8_18 
REMARK    7  A    between atoms: C10_20  and  C11_21 
REMARK    8  A    between atoms: C11_21  and  N6_22 
REMARK    9  A    between atoms: C12_26  and  O2_27 
ROOT
HETATM    1  N5  UNL     1      -0.128  -0.645   0.395  1.00  0.00    -0.310 N 
ATOM      2  H5  UNL     1       0.568  -1.205   0.887  1.00  0.00     0.186 HD
HETATM    3  C7  UNL     1       0.335   0.289  -0.292  1.00  0.00     0.120 C 
ENDROOT
BRANCH   1   4
HETATM    4  N4  UNL     1      -1.413  -1.030   0.588  1.00  0.00    -0.289 N 
ATOM      5  H4  UNL     1      -1.603  -2.004   0.824  1.00  0.00     0.188 HD
BRANCH   4   6
HETATM    6  C3  UNL     1      -2.505  -0.128   0.474  1.00  0.00     0.100 C 
HETATM    7  N3  UNL     1      -2.335   1.124   0.568  1.00  0.00    -0.319 N 
HETATM    8  C2  UNL     1      -3.142   2.245   0.500  1.00  0.00     0.189 C 
ATOM      9  H3  UNL     1      -1.358   1.366   0.736  1.00  0.00     0.169 HD
HETATM   10  N1  UNL     1      -3.714   2.669  -0.567  1.00  0.00    -0.369 N 
HETATM   11  N2  UNL     1      -3.297   2.994   1.734  1.00  0.00    -0.064 NA
HETATM   12  C1  UNL     1      -4.503   3.880  -0.503  1.00  0.00     0.148 C 
ATOM     13  H1  UNL     1      -3.614   2.161  -1.446  1.00  0.00     0.161 HD
BRANCH   6  14
HETATM   14  C4  UNL     1      -3.868  -0.717   0.231  1.00  0.00     0.104 C 
BRANCH  14  15
HETATM   15  C5  UNL     1      -3.727  -2.188  -0.006  1.00  0.00     0.174 C 
BRANCH  15  16
HETATM   16  O1  UNL     1      -5.005  -2.788  -0.274  1.00  0.00    -0.396 OA
HETATM   17  C6  UNL     1      -4.721  -4.159  -0.489  1.00  0.00     0.201 C 
ENDBRANCH  15  16
ENDBRANCH  14  15
ENDBRANCH   6  14
ENDBRANCH   4   6
ENDBRANCH   1   4
BRANCH   3  18
HETATM   18  C8  UNL     1       1.811   0.465  -0.336  1.00  0.00     0.000 A 
HETATM   19  C9  UNL     1       2.678  -0.389   0.371  1.00  0.00     0.026 A 
HETATM   20  C10 UNL     1       4.022  -0.281   0.187  1.00  0.00     0.003 A 
HETATM   21  C12 UNL     1       4.482   0.687  -0.694  1.00  0.00     0.095 A 
HETATM   22  C14 UNL     1       3.668   1.538  -1.383  1.00  0.00     0.063 A 
HETATM   23 BR1  UNL     1       4.390   2.849  -2.575  1.00  0.00    -0.047 Br
HETATM   24  C15 UNL     1       2.298   1.419  -1.195  1.00  0.00     0.042 A 
HETATM   25 BR2  UNL     1       1.160   2.640  -2.154  1.00  0.00    -0.049 Br
BRANCH  20  26
HETATM   26  C11 UNL     1       5.020  -1.273   0.741  1.00  0.00     0.271 C 
BRANCH  26  27
HETATM   27  N6  UNL     1       5.358  -1.046   2.096  1.00  0.00    -0.075 N 
ATOM     28  H63 UNL     1       5.690  -0.091   2.229  1.00  0.00     0.274 HD
ATOM     29  H62 UNL     1       4.519  -1.018   2.676  1.00  0.00     0.274 HD
ATOM     30  H61 UNL     1       6.031  -1.715   2.470  1.00  0.00     0.274 HD
ENDBRANCH  26  27
ENDBRANCH  20  26
BRANCH  21  31
HETATM   31  O2  UNL     1       5.882   0.745  -0.840  1.00  0.00    -0.354 OA
HETATM   32  C13 UNL     1       6.477  -0.072  -1.863  1.00  0.00     0.210 C 
ENDBRANCH  21  31
ENDBRANCH   3  18
TORSDOF 9
