REMARK  6 active torsions:
REMARK  status: ('A' for Active; 'I' for Inactive)
REMARK    1  A    between atoms: N1_2  and  C2_3 
REMARK    2  A    between atoms: N1_2  and  C12_25 
REMARK    3  A    between atoms: N4_10  and  C5_12 
REMARK    4  A    between atoms: C7_14  and  C8_15 
REMARK    5  A    between atoms: C14_27  and  N8_28 
REMARK    6  A    between atoms: N8_28  and  C15_31 
ROOT
HETATM    1  C2  UNL     1       1.469   2.026   0.389  1.00  0.00     0.695 A 
HETATM    2  N2  UNL     1       2.027   2.537   1.490  1.00  0.00    -0.187 N 
ATOM      3  H2  UNL     1       1.424   3.002   2.169  1.00  0.00     0.185 HD
HETATM    4  C3  UNL     1       3.348   2.468   1.747  1.00  0.00     0.215 A 
HETATM    5  N3  UNL     1       4.186   1.857   0.868  1.00  0.00    -0.186 N 
ATOM      6  H3  UNL     1       5.188   1.799   1.052  1.00  0.00     0.185 HD
HETATM    7  C4  UNL     1       3.659   1.333  -0.247  1.00  0.00     0.699 A 
HETATM    8  N4  UNL     1       4.410   0.786  -1.132  1.00  0.00    -0.176 N 
ATOM      9  H4  UNL     1       3.931   0.409  -1.950  1.00  0.00     0.186 HD
HETATM   10  N7  UNL     1       2.329   1.421  -0.471  1.00  0.00    -0.022 N 
ATOM     11  H7  UNL     1       1.953   1.013  -1.327  1.00  0.00     0.203 HD
ENDROOT
BRANCH   1  12
HETATM   12  N1  UNL     1       0.092   2.112   0.056  1.00  0.00    -0.217 N 
HETATM   13  C1  UNL     1      -0.211   2.700  -1.242  1.00  0.00     0.169 C 
BRANCH  12  14
HETATM   14  C12 UNL     1      -0.957   1.645   0.910  1.00  0.00     0.105 C 
HETATM   15  C13 UNL     1      -1.677   0.392   0.517  1.00  0.00     0.059 C 
HETATM   16  C14 UNL     1      -2.988   1.113   0.615  1.00  0.00     0.190 C 
HETATM   17  C22 UNL     1      -2.273   2.413   0.679  1.00  0.00     0.059 C 
BRANCH  16  18
HETATM   18  N8  UNL     1      -3.863   0.888  -0.533  1.00  0.00    -0.065 N 
ATOM     19  H82 UNL     1      -4.675   1.506  -0.535  1.00  0.00     0.278 HD
ATOM     20  H81 UNL     1      -3.448   1.202  -1.410  1.00  0.00     0.278 HD
BRANCH  18  21
HETATM   21  C15 UNL     1      -4.235  -0.535  -0.560  1.00  0.00     0.213 C 
HETATM   22  C16 UNL     1      -5.043  -0.901   0.627  1.00  0.00     0.065 C 
HETATM   23  C17 UNL     1      -6.242  -1.728   0.322  1.00  0.00     0.025 C 
HETATM   24  C18 UNL     1      -6.580  -2.533   1.560  1.00  0.00     0.038 C 
HETATM   25  C19 UNL     1      -7.456  -0.886  -0.006  1.00  0.00     0.038 C 
HETATM   26  N9  UNL     1      -5.975  -2.694  -0.745  1.00  0.00    -0.372 N 
HETATM   27  C20 UNL     1      -5.321  -2.325  -1.784  1.00  0.00     0.110 C 
ATOM     28  H9  UNL     1      -6.307  -3.655  -0.662  1.00  0.00     0.161 HD
HETATM   29  N10 UNL     1      -5.048  -3.221  -2.817  1.00  0.00    -0.086 NA
HETATM   30  C21 UNL     1      -4.881  -0.924  -1.847  1.00  0.00     0.177 C 
HETATM   31 CL1  UNL     1      -3.789  -0.650  -3.238  1.00  0.00    -0.115 Cl
ENDBRANCH  18  21
ENDBRANCH  16  18
ENDBRANCH  12  14
ENDBRANCH   1  12
BRANCH   8  32
HETATM   32  C5  UNL     1       5.797   0.641  -1.119  1.00  0.00     0.123 A 
HETATM   33  C6  UNL     1       6.520  -0.340  -0.506  1.00  0.00     0.074 A 
HETATM   34  C7  UNL     1       7.895  -0.331  -0.619  1.00  0.00     0.017 A 
HETATM   35  N5  UNL     1       8.499   0.640  -1.329  1.00  0.00    -0.355 N 
HETATM   36  C11 UNL     1       7.802   1.603  -1.932  1.00  0.00     0.182 A 
ATOM     37  H5  UNL     1       9.516   0.639  -1.408  1.00  0.00     0.166 HD
HETATM   38  N6  UNL     1       6.487   1.597  -1.824  1.00  0.00    -0.338 N 
ATOM     39  H6  UNL     1       5.958   2.337  -2.286  1.00  0.00     0.168 HD
BRANCH  34  40
HETATM   40  C8  UNL     1       8.751  -1.363   0.021  1.00  0.00     0.036 A 
HETATM   41  C9  UNL     1       8.212  -2.585   0.626  1.00  0.00     0.011 A 
HETATM   42  C10 UNL     1       8.556  -1.436   1.516  1.00  0.00     0.011 A 
ENDBRANCH  34  40
ENDBRANCH   8  32
TORSDOF 6
