REMARK  7 active torsions:
REMARK  status: ('A' for Active; 'I' for Inactive)
REMARK    1  A    between atoms: N3_4  and  C2_6 
REMARK    2  A    between atoms: C2_6  and  C3_7 
REMARK    3  A    between atoms: C3_7  and  O1_8 
REMARK    4  A    between atoms: O1_8  and  C4_9 
REMARK    5  A    between atoms: C5_12  and  N5_13 
REMARK    6  A    between atoms: N5_13  and  O2_15 
REMARK    7  A    between atoms: C7_21  and  C8_22 
ROOT
HETATM    1  C4  UNL     1      -0.825   0.827   0.454  1.00  0.00     0.177 A 
HETATM    2  N4  UNL     1      -0.612   2.155   0.465  1.00  0.00    -0.167 N 
ATOM      3  H4  UNL     1       0.210   2.526   0.941  1.00  0.00     0.186 HD
HETATM    4  C5  UNL     1      -1.466   3.005  -0.142  1.00  0.00     0.706 A 
HETATM    5  N6  UNL     1      -2.549   2.527  -0.768  1.00  0.00    -0.153 N 
ATOM      6  H6  UNL     1      -3.193   3.172  -1.226  1.00  0.00     0.187 HD
HETATM    7  C6  UNL     1      -2.793   1.223  -0.799  1.00  0.00     0.278 A 
HETATM    8  O3  UNL     1      -3.823   0.780  -1.396  1.00  0.00    -0.266 OA
HETATM    9  C7  UNL     1      -1.949   0.305  -0.193  1.00  0.00     0.127 A 
ENDROOT
BRANCH   1  10
HETATM   10  O1  UNL     1       0.003  -0.060   1.048  1.00  0.00    -0.333 OA
BRANCH  10  11
HETATM   11  C3  UNL     1       1.182   0.019   1.735  1.00  0.00     0.197 C 
BRANCH  11  12
HETATM   12  C2  UNL     1       2.379   0.544   0.995  1.00  0.00     0.148 C 
BRANCH  12  13
HETATM   13  N3  UNL     1       2.689  -0.296  -0.168  1.00  0.00    -0.365 N 
HETATM   14  C1  UNL     1       3.895  -0.581  -0.512  1.00  0.00     0.197 C 
HETATM   15  N1  UNL     1       4.060  -1.401  -1.655  1.00  0.00    -0.067 NA
HETATM   16  N2  UNL     1       4.978  -0.074   0.249  1.00  0.00    -0.067 NA
ATOM     17  H3  UNL     1       1.919  -0.668  -0.724  1.00  0.00     0.161 HD
ENDBRANCH  12  13
ENDBRANCH  11  12
ENDBRANCH  10  11
ENDBRANCH   1  10
BRANCH   9  18
HETATM   18  C8  UNL     1      -2.245  -1.130  -0.234  1.00  0.00     0.117 C 
HETATM   19  N7  UNL     1      -3.067  -1.720  -1.059  1.00  0.00    -0.374 N 
HETATM   20  C9  UNL     1      -3.105  -3.137  -0.806  1.00  0.00     0.141 C 
ATOM     21  H7  UNL     1      -3.607  -1.244  -1.782  1.00  0.00     0.161 HD
HETATM   22  C10 UNL     1      -1.779  -3.377  -0.097  1.00  0.00     0.141 C 
HETATM   23  N8  UNL     1      -1.686  -2.098   0.633  1.00  0.00    -0.374 N 
ATOM     24  H8  UNL     1      -1.301  -1.944   1.565  1.00  0.00     0.161 HD
ENDBRANCH   9  18
BRANCH   4  25
HETATM   25  N5  UNL     1      -1.219   4.289  -0.106  1.00  0.00    -0.098 N 
ATOM     26  H5  UNL     1      -0.393   4.649   0.373  1.00  0.00     0.213 HD
BRANCH  25  27
HETATM   27  O2  UNL     1      -2.095   5.138  -0.726  1.00  0.00    -0.276 OA
ATOM     28  H2  UNL     1      -1.916   6.071  -0.700  1.00  0.00     0.245 HD
ENDBRANCH  25  27
ENDBRANCH   4  25
TORSDOF 7
