REMARK  2 active torsions:
REMARK  status: ('A' for Active; 'I' for Inactive)
REMARK    1  A    between atoms: C2_2  and  C4_4 
REMARK    2  A    between atoms: C4_4  and  C5_5 
ROOT
HETATM    1  C5  UNL     1       3.947  -0.703   0.105  1.00  0.00     0.277 C 
HETATM    2  N1  UNL     1       3.479   0.422   0.850  1.00  0.00    -0.062 N 
ATOM      3  H11 UNL     1       4.251   0.868   1.346  1.00  0.00     0.278 HD
ATOM      4  H12 UNL     1       2.917   0.115   1.644  1.00  0.00     0.278 HD
HETATM    5  C6  UNL     1       2.756   1.393   0.066  1.00  0.00     0.233 C 
HETATM    6  C7  UNL     1       2.529   2.604   0.946  1.00  0.00     0.027 C 
HETATM    7  C8  UNL     1       2.610   3.892   0.161  1.00  0.00     0.002 C 
HETATM    8  C9  UNL     1       1.368   4.147  -0.635  1.00  0.00     0.000 C 
HETATM    9  C10 UNL     1       0.110   3.901   0.163  1.00  0.00     0.000 C 
HETATM   10  C11 UNL     1      -1.011   4.661  -0.502  1.00  0.00     0.000 C 
HETATM   11  C12 UNL     1      -2.237   4.510   0.365  1.00  0.00     0.000 C 
HETATM   12  C13 UNL     1      -2.860   3.163   0.074  1.00  0.00     0.002 C 
HETATM   13  C14 UNL     1      -4.368   3.275  -0.065  1.00  0.00     0.027 C 
HETATM   14  C15 UNL     1      -5.070   2.729   1.162  1.00  0.00     0.232 C 
HETATM   15  N2  UNL     1      -5.938   1.638   0.780  1.00  0.00    -0.074 N 
ATOM     16  H21 UNL     1      -6.704   1.964   0.190  1.00  0.00     0.277 HD
ATOM     17  H22 UNL     1      -6.480   1.300   1.576  1.00  0.00     0.277 HD
HETATM   18  C16 UNL     1      -5.208   0.559   0.145  1.00  0.00     0.259 C 
HETATM   19  C17 UNL     1      -5.079  -0.605   1.105  1.00  0.00     0.259 C 
HETATM   20  N3  UNL     1      -5.235  -1.817   0.348  1.00  0.00    -0.073 N 
ATOM     21  H31 UNL     1      -5.564  -1.617  -0.597  1.00  0.00     0.277 HD
ATOM     22  H32 UNL     1      -6.029  -2.360   0.689  1.00  0.00     0.277 HD
HETATM   23  C18 UNL     1      -4.031  -2.624   0.317  1.00  0.00     0.236 C 
HETATM   24  C19 UNL     1      -3.221  -2.340  -0.939  1.00  0.00     0.054 C 
HETATM   25  C20 UNL     1      -3.485  -3.435  -1.893  1.00  0.00    -0.023 C 
HETATM   26  C21 UNL     1      -3.149  -4.679  -1.789  1.00  0.00     0.026 C 
HETATM   27  C22 UNL     1      -2.401  -5.289  -0.651  1.00  0.00     0.038 A 
HETATM   28  C23 UNL     1      -2.571  -6.568  -0.117  1.00  0.00     0.081 A 
HETATM   29  S1  UNL     1      -1.405  -6.582   1.131  1.00  0.00    -0.086 SA
HETATM   30  C24 UNL     1      -0.780  -5.010   0.917  1.00  0.00     0.051 A 
HETATM   31  N4  UNL     1      -1.491  -4.561  -0.091  1.00  0.00    -0.354 N 
ATOM     32  H4  UNL     1      -1.322  -3.618  -0.440  1.00  0.00     0.166 HD
HETATM   33  C25 UNL     1       0.284  -4.162   1.575  1.00  0.00     0.066 C 
HETATM   34  C26 UNL     1       1.397  -3.861   0.597  1.00  0.00     0.026 C 
HETATM   35  C27 UNL     1       1.389  -2.358   0.347  1.00  0.00     0.123 C 
HETATM   36  N5  UNL     1       2.032  -2.020  -0.907  1.00  0.00    -0.359 N 
ATOM     37  H5  UNL     1       1.761  -2.531  -1.747  1.00  0.00     0.162 HD
HETATM   38  C28 UNL     1       3.024  -1.007  -1.019  1.00  0.00     0.248 C 
HETATM   39  O1  UNL     1       3.145  -0.340  -2.078  1.00  0.00    -0.271 OA
ENDROOT
BRANCH   1  40
HETATM   40  C4  UNL     1       5.317  -0.535  -0.461  1.00  0.00     0.046 C 
BRANCH  40  41
HETATM   41  C2  UNL     1       6.381  -0.301   0.586  1.00  0.00    -0.020 C 
HETATM   42  C1  UNL     1       7.702  -0.154  -0.179  1.00  0.00     0.009 C 
HETATM   43  C3  UNL     1       6.173   0.944   1.382  1.00  0.00     0.009 C 
ENDBRANCH  40  41
ENDBRANCH   1  40
TORSDOF 2
