REMARK  3 active torsions:
REMARK  status: ('A' for Active; 'I' for Inactive)
REMARK    1  A    between atoms: C4_8  and  N3_9 
REMARK    2  A    between atoms: N3_9  and  N4_11 
REMARK    3  A    between atoms: C6_16  and  C7_17 
ROOT
HETATM    1  N4  UNL     1       0.179   0.374   0.844  1.00  0.00    -0.285 N 
ATOM      2  H4  UNL     1      -0.237   1.285   1.038  1.00  0.00     0.188 HD
HETATM    3  C5  UNL     1       1.460   0.247   0.888  1.00  0.00     0.126 C 
HETATM    4  N5  UNL     1       2.163  -0.924   0.648  1.00  0.00    -0.359 N 
ATOM      5  H5  UNL     1       1.814  -1.843   0.921  1.00  0.00     0.162 HD
HETATM    6  C6  UNL     1       3.438  -0.734  -0.024  1.00  0.00     0.180 C 
HETATM    7  S1  UNL     1       3.977   0.802   0.833  1.00  0.00    -0.106 SA
HETATM    8  C13 UNL     1       2.310   1.419   1.224  1.00  0.00     0.180 A 
HETATM    9  C14 UNL     1       2.176   1.873   2.601  1.00  0.00     0.253 A 
HETATM   10  O1  UNL     1       2.316   1.184   3.640  1.00  0.00    -0.271 OA
HETATM   11  N6  UNL     1       1.851   3.261   2.550  1.00  0.00    -0.325 N 
ATOM     12  H6  UNL     1       1.693   3.861   3.359  1.00  0.00     0.169 HD
HETATM   13  C15 UNL     1       1.782   3.679   1.178  1.00  0.00     0.043 A 
HETATM   14  C16 UNL     1       1.516   4.870   0.545  1.00  0.00     0.030 A 
HETATM   15  C17 UNL     1       1.509   5.022  -0.826  1.00  0.00     0.002 A 
HETATM   16  C18 UNL     1       1.785   3.913  -1.602  1.00  0.00     0.001 A 
HETATM   17  C19 UNL     1       2.058   2.695  -1.013  1.00  0.00     0.012 A 
HETATM   18  C20 UNL     1       2.056   2.583   0.366  1.00  0.00     0.004 A 
ENDROOT
BRANCH   1  19
HETATM   19  N3  UNL     1      -0.630  -0.671   0.547  1.00  0.00    -0.282 N 
ATOM     20  H3  UNL     1      -0.159  -1.575   0.577  1.00  0.00     0.188 HD
BRANCH  19  21
HETATM   21  C4  UNL     1      -1.855  -0.746   0.240  1.00  0.00     0.150 A 
HETATM   22  C3  UNL     1      -2.669   0.355   0.146  1.00  0.00     0.106 A 
HETATM   23  N2  UNL     1      -2.489   1.678   0.316  1.00  0.00    -0.296 N 
HETATM   24  C27 UNL     1      -4.015   0.197  -0.199  1.00  0.00     0.032 A 
HETATM   25  N1  UNL     1      -3.609   2.318   0.103  1.00  0.00    -0.304 N 
ATOM     26  H2  UNL     1      -1.606   2.118   0.574  1.00  0.00     0.187 HD
HETATM   27  C2  UNL     1      -4.588   1.435  -0.221  1.00  0.00     0.035 A 
ATOM     28  H1  UNL     1      -3.729   3.329   0.170  1.00  0.00     0.186 HD
HETATM   29  C1  UNL     1      -5.971   1.880  -0.516  1.00  0.00     0.070 C 
HETATM   30  C26 UNL     1      -4.519  -1.068  -0.442  1.00  0.00     0.005 A 
HETATM   31  C21 UNL     1      -3.653  -2.155  -0.334  1.00  0.00     0.045 A 
HETATM   32  C25 UNL     1      -5.829  -1.239  -0.780  1.00  0.00     0.014 A 
HETATM   33  N7  UNL     1      -2.380  -1.955  -0.003  1.00  0.00    -0.339 N 
HETATM   34  C22 UNL     1      -4.153  -3.416  -0.576  1.00  0.00     0.030 A 
ATOM     35  H7  UNL     1      -1.769  -2.768   0.070  1.00  0.00     0.167 HD
HETATM   36  C23 UNL     1      -5.470  -3.590  -0.915  1.00  0.00     0.002 A 
HETATM   37  C24 UNL     1      -6.331  -2.531  -1.025  1.00  0.00     0.001 A 
ENDBRANCH  19  21
ENDBRANCH   1  19
BRANCH   6  38
HETATM   38  C7  UNL     1       4.381  -1.832   0.234  1.00  0.00    -0.026 A 
HETATM   39  C8  UNL     1       4.550  -2.323   1.502  1.00  0.00     0.010 A 
HETATM   40  C9  UNL     1       5.455  -3.365   1.702  1.00  0.00     0.001 A 
HETATM   41  C10 UNL     1       6.169  -3.898   0.662  1.00  0.00     0.000 A 
HETATM   42  C11 UNL     1       6.003  -3.409  -0.610  1.00  0.00     0.001 A 
HETATM   43  C12 UNL     1       5.100  -2.369  -0.812  1.00  0.00     0.010 A 
ENDBRANCH   6  38
TORSDOF 3
