REMARK  9 active torsions:
REMARK  status: ('A' for Active; 'I' for Inactive)
REMARK       I    between atoms: C2_2  and  N1_4 
REMARK    1  A    between atoms: N2_7  and  C5_8 
REMARK    2  A    between atoms: C5_8  and  C6_9 
REMARK    3  A    between atoms: C8_13  and  N4_14 
REMARK    4  A    between atoms: N4_14  and  C9_16 
REMARK    5  A    between atoms: C9_16  and  C10_17 
REMARK    6  A    between atoms: C10_17  and  N5_18 
REMARK    7  A    between atoms: N5_18  and  C11_20 
REMARK    8  A    between atoms: C12_23  and  C13_24 
REMARK    9  A    between atoms: C20_38  and  N10_39 
ROOT
HETATM    1  C11 UNL     1       4.992   0.152  -0.070  1.00  0.00     0.131 A 
HETATM    2  N6  UNL     1       5.101  -0.458   1.111  1.00  0.00    -0.338 N 
ATOM      3  H6  UNL     1       4.300  -0.992   1.448  1.00  0.00     0.167 HD
HETATM    4  C12 UNL     1       6.208  -0.415   1.894  1.00  0.00     0.099 A 
HETATM    5  C14 UNL     1       7.295   0.304   1.446  1.00  0.00     0.101 A 
HETATM    6  C15 UNL     1       8.496   0.394   2.220  1.00  0.00     0.104 C 
HETATM    7  N7  UNL     1       9.464   0.488   2.847  1.00  0.00    -0.191 NA
HETATM    8  C16 UNL     1       7.273   0.973   0.226  1.00  0.00     0.087 A 
HETATM    9  N8  UNL     1       8.172   1.734  -0.446  1.00  0.00    -0.343 N 
ATOM     10  H8  UNL     1       9.116   1.972  -0.140  1.00  0.00     0.167 HD
HETATM   11  C17 UNL     1       7.577   2.118  -1.601  1.00  0.00     0.078 A 
HETATM   12  C18 UNL     1       8.227   2.959  -2.616  1.00  0.00     0.089 C 
HETATM   13  N9  UNL     1       6.323   1.587  -1.619  1.00  0.00    -0.341 N 
ATOM     14  H9  UNL     1       5.645   1.711  -2.371  1.00  0.00     0.167 HD
HETATM   15  C19 UNL     1       6.113   0.881  -0.509  1.00  0.00     0.106 A 
ENDROOT
BRANCH   4  16
HETATM   16  C13 UNL     1       6.236  -1.132   3.197  1.00  0.00     0.404 C 
HETATM   17  F1  UNL     1       6.107  -2.491   2.987  1.00  0.00    -0.207 F 
HETATM   18  F2  UNL     1       5.219  -0.732   4.040  1.00  0.00    -0.207 F 
ENDBRANCH   4  16
BRANCH   1  19
HETATM   19  N5  UNL     1       3.944   0.086  -0.775  1.00  0.00    -0.370 N 
ATOM     20  H5  UNL     1       3.932   0.578  -1.669  1.00  0.00     0.161 HD
BRANCH  19  21
HETATM   21  C10 UNL     1       2.769  -0.644  -0.386  1.00  0.00     0.165 C 
BRANCH  21  22
HETATM   22  C9  UNL     1       1.924   0.269   0.467  1.00  0.00     0.082 C 
BRANCH  22  23
HETATM   23  N4  UNL     1       0.720  -0.279   0.945  1.00  0.00    -0.351 N 
ATOM     24  H4  UNL     1       0.738  -0.528   1.934  1.00  0.00     0.166 HD
BRANCH  23  25
HETATM   25  C8  UNL     1      -0.376  -0.518   0.372  1.00  0.00     0.149 A 
HETATM   26  N3  UNL     1      -0.665  -0.288  -0.911  1.00  0.00    -0.347 N 
HETATM   27  C7  UNL     1      -1.862  -0.569  -1.468  1.00  0.00     0.116 A 
ATOM     28  H3  UNL     1       0.058   0.122  -1.502  1.00  0.00     0.167 HD
HETATM   29  C6  UNL     1      -2.858  -1.131  -0.661  1.00  0.00     0.044 A 
HETATM   30  N11 UNL     1      -2.597  -1.371   0.627  1.00  0.00    -0.341 N 
HETATM   31  C20 UNL     1      -1.395  -1.081   1.152  1.00  0.00     0.144 A 
ATOM     32  H11 UNL     1      -3.320  -1.780   1.219  1.00  0.00     0.167 HD
BRANCH  29  33
HETATM   33  C5  UNL     1      -4.172  -1.448  -1.273  1.00  0.00     0.175 C 
BRANCH  33  34
HETATM   34  N2  UNL     1      -4.977  -0.286  -1.440  1.00  0.00    -0.404 N 
HETATM   35  C4  UNL     1      -6.252  -0.558  -2.014  1.00  0.00     0.137 C 
HETATM   36  C3  UNL     1      -7.175  -1.143  -0.942  1.00  0.00     0.145 C 
HETATM   37  N1  UNL     1      -7.158  -0.303   0.236  1.00  0.00    -0.349 N 
HETATM   38  C2  UNL     1      -8.372  -0.062   0.924  1.00  0.00     0.215 C 
HETATM   39  C22 UNL     1      -5.939   0.304   0.740  1.00  0.00     0.145 C 
HETATM   40  C1  UNL     1      -8.410   0.808   2.154  1.00  0.00     0.117 C 
HETATM   41  O1  UNL     1      -9.425  -0.575   0.509  1.00  0.00    -0.274 OA
HETATM   42  C21 UNL     1      -4.980   0.650  -0.365  1.00  0.00     0.137 C 
ENDBRANCH  33  34
ENDBRANCH  29  33
BRANCH  31  43
HETATM   43  N10 UNL     1      -1.156  -1.317   2.397  1.00  0.00    -0.382 N 
ATOM     44 2H10 UNL     1      -0.243  -1.097   2.796  1.00  0.00     0.157 HD
ATOM     45 1H10 UNL     1      -1.898  -1.727   2.965  1.00  0.00     0.157 HD
ENDBRANCH  31  43
ENDBRANCH  23  25
ENDBRANCH  22  23
ENDBRANCH  21  22
ENDBRANCH  19  21
ENDBRANCH   1  19
TORSDOF 9
