REMARK  5 active torsions:
REMARK  status: ('A' for Active; 'I' for Inactive)
REMARK    1  A    between atoms: C2_2  and  C3_3 
REMARK    2  A    between atoms: N1_4  and  C4_6 
REMARK    3  A    between atoms: C4_6  and  N2_7 
REMARK    4  A    between atoms: N2_7  and  N3_8 
REMARK    5  A    between atoms: N3_8  and  C5_10 
ROOT
HETATM    1  N2  UNL     1       0.258  -0.754  -0.470  1.00  0.00    -0.121 NA
ENDROOT
BRANCH   1   2
HETATM    2  C4  UNL     1       1.046  -0.105   0.567  1.00  0.00     0.255 C 
BRANCH   2   3
HETATM    3  N1  UNL     1       2.429   0.021   0.113  1.00  0.00    -0.384 N 
HETATM    4  C3  UNL     1       3.395  -0.179   0.918  1.00  0.00     0.083 C 
ATOM      5  H1  UNL     1       2.622   0.271  -0.857  1.00  0.00     0.160 HD
BRANCH   4   6
HETATM    6  C2  UNL     1       4.767  -0.055   0.471  1.00  0.00     0.006 C 
HETATM    7  C1  UNL     1       5.141   0.260  -0.744  1.00  0.00     0.012 C 
ENDBRANCH   4   6
ENDBRANCH   2   3
ENDBRANCH   1   2
BRANCH   1   8
HETATM    8  N3  UNL     1      -1.048  -0.845   0.023  1.00  0.00    -0.299 N 
ATOM      9  H3  UNL     1      -1.413  -1.748   0.326  1.00  0.00     0.183 HD
BRANCH   8  10
HETATM   10  C5  UNL     1      -1.871   0.312   0.105  1.00  0.00     0.191 C 
HETATM   11  N4  UNL     1      -3.143   0.207  -0.041  1.00  0.00    -0.385 N 
HETATM   12  C6  UNL     1      -3.750  -1.069  -0.287  1.00  0.00     0.149 C 
HETATM   13  C7  UNL     1      -3.983   1.392   0.044  1.00  0.00     0.149 C 
ENDBRANCH   8  10
ENDBRANCH   1   8
TORSDOF 5
