REMARK  3 active torsions:
REMARK  status: ('A' for Active; 'I' for Inactive)
REMARK    1  A    between atoms: C5_5  and  O1_6 
REMARK    2  A    between atoms: C6_8  and  O2_9 
REMARK    3  A    between atoms: O2_9  and  O3_10 
ROOT
HETATM    1  C1  UNL     1      -2.622   1.096   0.935  1.00  0.00     0.019 C 
HETATM    2  C2  UNL     1      -1.426   0.861   0.033  1.00  0.00     0.004 C 
HETATM    3  C3  UNL     1      -2.006   0.403  -1.314  1.00  0.00     0.015 C 
HETATM    4  C4  UNL     1      -2.550  -0.961  -0.863  1.00  0.00     0.036 C 
HETATM    5  C5  UNL     1      -1.257  -1.511  -0.240  1.00  0.00     0.161 C 
HETATM    6  C6  UNL     1      -0.623  -0.299   0.447  1.00  0.00     0.153 C 
HETATM    7  C7  UNL     1       0.797  -0.273   0.006  1.00  0.00    -0.029 C 
HETATM    8  C8  UNL     1       1.327   0.777  -0.609  1.00  0.00    -0.007 C 
HETATM    9  C9  UNL     1       2.772   0.721  -1.022  1.00  0.00     0.042 C 
HETATM   10  C10 UNL     1       3.475   0.033   0.156  1.00  0.00     0.005 C 
HETATM   11  C11 UNL     1       3.033  -1.394   0.122  1.00  0.00     0.005 C 
HETATM   12  C12 UNL     1       1.563  -1.512   0.309  1.00  0.00     0.038 C 
HETATM   13  C13 UNL     1       0.534   1.964  -0.882  1.00  0.00     0.156 C 
HETATM   14  O4  UNL     1       0.914   2.822  -1.710  1.00  0.00    -0.293 OA
HETATM   15  C14 UNL     1      -0.730   2.145  -0.166  1.00  0.00     0.096 C 
ENDROOT
BRANCH   6  16
HETATM   16  O2  UNL     1      -0.632  -0.569   1.804  1.00  0.00    -0.224 OA
BRANCH  16  17
HETATM   17  O3  UNL     1      -0.168   0.433   2.520  1.00  0.00    -0.249 OA
ATOM     18  H3  UNL     1      -0.174   0.248   3.452  1.00  0.00     0.253 HD
ENDBRANCH  16  17
ENDBRANCH   6  16
BRANCH   5  19
HETATM   19  O1  UNL     1      -1.496  -2.540   0.628  1.00  0.00    -0.392 OA
ATOM     20  H1  UNL     1      -0.697  -2.880   1.013  1.00  0.00     0.210 HD
ENDBRANCH   5  19
TORSDOF 3
