REMARK  3 active torsions:
REMARK  status: ('A' for Active; 'I' for Inactive)
REMARK    1  A    between atoms: N1_1  and  C1_5 
REMARK    2  A    between atoms: C1_5  and  N2_6 
REMARK    3  A    between atoms: C1_5  and  C2_10 
ROOT
HETATM    1  C2  UNL     1      -0.403  -0.074  -0.094  1.00  0.00     0.146 C 
HETATM    2  N3  UNL     1       0.155  -1.296   0.014  1.00  0.00    -0.305 N 
ATOM      3  H3  UNL     1      -0.482  -2.077  -0.142  1.00  0.00     0.170 HD
HETATM    4  C3  UNL     1       1.424  -1.643   0.296  1.00  0.00     0.315 C 
HETATM    5  O1  UNL     1       1.649  -2.813   0.725  1.00  0.00    -0.262 OA
HETATM    6  C4  UNL     1       2.522  -0.802   0.148  1.00  0.00     0.317 C 
HETATM    7  O2  UNL     1       3.642  -1.344   0.256  1.00  0.00    -0.262 OA
HETATM    8  N4  UNL     1       2.547   0.525  -0.097  1.00  0.00    -0.271 N 
ATOM      9  H4  UNL     1       3.452   0.914  -0.360  1.00  0.00     0.174 HD
HETATM   10  C5  UNL     1       1.525   1.398  -0.037  1.00  0.00     0.328 C 
HETATM   11  O3  UNL     1       1.827   2.603  -0.105  1.00  0.00    -0.247 OA
HETATM   12  N5  UNL     1       0.204   1.113   0.089  1.00  0.00    -0.295 N 
ATOM     13  H5  UNL     1      -0.400   1.891   0.354  1.00  0.00     0.172 HD
ENDROOT
BRANCH   1  14
HETATM   14  C1  UNL     1      -1.831   0.020  -0.450  1.00  0.00     0.444 C 
BRANCH  14  15
HETATM   15  N1  UNL     1      -2.467   0.979   0.401  1.00  0.00    -0.043 N 
ATOM     16  H13 UNL     1      -3.461   1.070   0.193  1.00  0.00     0.277 HD
ATOM     17  H12 UNL     1      -2.543   0.643   1.361  1.00  0.00     0.277 HD
ATOM     18  H11 UNL     1      -1.985   1.876   0.350  1.00  0.00     0.277 HD
ENDBRANCH  14  15
BRANCH  14  19
HETATM   19  N2  UNL     1      -2.511  -1.246  -0.378  1.00  0.00    -0.043 N 
ATOM     20  H23 UNL     1      -2.587  -1.582   0.582  1.00  0.00     0.277 HD
ATOM     21  H22 UNL     1      -3.505  -1.155  -0.586  1.00  0.00     0.277 HD
ATOM     22  H21 UNL     1      -2.058  -1.929  -0.984  1.00  0.00     0.277 HD
ENDBRANCH  14  19
ENDBRANCH   1  14
TORSDOF 3
