REMARK  2 active torsions:
REMARK  status: ('A' for Active; 'I' for Inactive)
REMARK    1  A    between atoms: C3_5  and  N2_6 
REMARK    2  A    between atoms: N6_16  and  N7_17 
ROOT
HETATM    1  C1  UNL     1      -2.746   0.115   0.250  1.00  0.00     0.071 C 
HETATM    2  C2  UNL     1      -1.373   0.602   0.052  1.00  0.00     0.049 C 
HETATM    3  N1  UNL     1      -1.181   1.869  -0.371  1.00  0.00    -0.194 N 
ATOM      4  H1  UNL     1      -2.014   2.458  -0.368  1.00  0.00     0.184 HD
HETATM    5  C3  UNL     1      -0.044   2.478  -0.801  1.00  0.00     0.677 C 
HETATM    6  N3  UNL     1       1.068   1.855  -1.232  1.00  0.00    -0.173 N 
ATOM      7  H3  UNL     1       1.616   2.369  -1.922  1.00  0.00     0.186 HD
HETATM    8  C4  UNL     1       1.567   0.641  -0.882  1.00  0.00     0.169 A 
HETATM    9  N4  UNL     1       2.792   0.174  -1.158  1.00  0.00    -0.267 N 
ATOM     10  H4  UNL     1       3.529   0.660  -1.669  1.00  0.00     0.190 HD
HETATM   11  N5  UNL     1       2.858  -1.029  -0.642  1.00  0.00    -0.220 N 
ATOM     12  H5  UNL     1       3.680  -1.630  -0.698  1.00  0.00     0.210 HD
HETATM   13  N6  UNL     1       1.737  -1.369  -0.044  1.00  0.00    -0.183 N 
HETATM   14  C5  UNL     1       0.904  -0.340  -0.178  1.00  0.00     0.147 A 
HETATM   15  C6  UNL     1      -0.398  -0.327   0.333  1.00  0.00     0.103 C 
HETATM   16  N8  UNL     1      -0.749  -1.364   1.219  1.00  0.00    -0.098 NA
ENDROOT
BRANCH   5  17
HETATM   17  N2  UNL     1      -0.036   3.774  -0.792  1.00  0.00    -0.234 N 
ATOM     18  H22 UNL     1      -0.879   4.246  -0.465  1.00  0.00     0.174 HD
ATOM     19  H21 UNL     1       0.817   4.231  -1.115  1.00  0.00     0.174 HD
ENDBRANCH   5  17
BRANCH  13  20
HETATM   20  N7  UNL     1       1.431  -2.573   0.620  1.00  0.00    -0.322 N 
ATOM     21  H72 UNL     1       2.070  -3.362   0.723  1.00  0.00     0.179 HD
ATOM     22  H71 UNL     1       0.562  -2.837   1.084  1.00  0.00     0.179 HD
ENDBRANCH  13  20
TORSDOF 2
