REMARK  4 active torsions:
REMARK  status: ('A' for Active; 'I' for Inactive)
REMARK    1  A    between atoms: C2_3  and  C3_4 
REMARK    2  A    between atoms: C2_3  and  N5_18 
REMARK    3  A    between atoms: C3_4  and  C4_5 
REMARK    4  A    between atoms: N5_18  and  C8_20 
ROOT
HETATM    1  N1  UNL     1       2.934  -1.718  -2.401  1.00  0.00    -0.195 NA
HETATM    2  C1  UNL     1       2.193  -1.303  -1.580  1.00  0.00     0.084 C 
HETATM    3  C2  UNL     1       1.259  -0.832  -0.596  1.00  0.00     0.192 C 
ENDROOT
BRANCH   3   4
HETATM    4  C3  UNL     1      -0.173  -0.841  -1.173  1.00  0.00     0.141 C 
BRANCH   4   5
HETATM    5  C4  UNL     1      -1.203  -0.377  -0.238  1.00  0.00     0.451 C 
HETATM    6  N2  UNL     1      -1.317  -1.139   0.992  1.00  0.00    -0.013 N 
HETATM    7  C5  UNL     1      -2.670  -0.863   1.502  1.00  0.00     0.272 C 
ATOM      8  H22 UNL     1      -1.116  -2.133   0.879  1.00  0.00     0.282 HD
ATOM      9  H21 UNL     1      -0.577  -0.943   1.666  1.00  0.00     0.282 HD
HETATM   10  C6  UNL     1      -3.270  -0.061   0.394  1.00  0.00     0.242 C 
HETATM   11  C7  UNL     1      -2.665   1.319   0.411  1.00  0.00     0.272 C 
HETATM   12  N4  UNL     1      -2.569  -0.611  -0.767  1.00  0.00    -0.008 N 
HETATM   13  N3  UNL     1      -1.261   1.009   0.079  1.00  0.00    -0.013 N 
ATOM     14  H32 UNL     1      -0.607   1.279   0.813  1.00  0.00     0.282 HD
ATOM     15  H31 UNL     1      -0.883   1.604  -0.658  1.00  0.00     0.282 HD
ATOM     16  H42 UNL     1      -2.794  -0.222  -1.683  1.00  0.00     0.282 HD
ATOM     17  H41 UNL     1      -2.807  -1.559  -1.057  1.00  0.00     0.282 HD
ENDBRANCH   4   5
ENDBRANCH   3   4
BRANCH   3  18
HETATM   18  N5  UNL     1       1.481   0.450  -0.102  1.00  0.00    -0.378 N 
ATOM     19  H5  UNL     1       0.776   1.162  -0.293  1.00  0.00     0.156 HD
BRANCH  18  20
HETATM   20  C8  UNL     1       2.599   0.826   0.635  1.00  0.00     0.306 A 
HETATM   21  C9  UNL     1       3.961   0.840   0.006  1.00  0.00     0.288 A 
HETATM   22  N6  UNL     1       3.626  -0.146   0.979  1.00  0.00    -0.049 N 
ATOM     23  H62 UNL     1       4.051  -0.435   1.860  1.00  0.00     0.279 HD
ATOM     24  H61 UNL     1       3.653  -1.166   0.982  1.00  0.00     0.279 HD
ENDBRANCH  18  20
ENDBRANCH   3  18
TORSDOF 4
