REMARK  6 active torsions:
REMARK  status: ('A' for Active; 'I' for Inactive)
REMARK    1  A    between atoms: O1_1  and  C1_3 
REMARK    2  A    between atoms: C1_3  and  C2_4 
REMARK    3  A    between atoms: C1_3  and  N1_10 
REMARK    4  A    between atoms: N2_12  and  C9_13 
REMARK    5  A    between atoms: C12_16  and  O2_17 
REMARK    6  A    between atoms: N3_23  and  C16_24 
ROOT
HETATM    1  N1  UNL     1       1.031   0.504  -1.346  1.00  0.00    -0.308 N 
HETATM    2  C8  UNL     1      -0.005   1.504  -1.600  1.00  0.00     0.268 C 
HETATM    3  N2  UNL     1      -1.116   1.390  -0.696  1.00  0.00    -0.282 N 
HETATM    4  C15 UNL     1      -1.835   0.271  -0.198  1.00  0.00     0.336 C 
HETATM    5  O3  UNL     1      -2.951   0.522   0.286  1.00  0.00    -0.246 OA
HETATM    6  N3  UNL     1      -1.428  -1.106  -0.186  1.00  0.00    -0.262 N 
HETATM    7  C22 UNL     1      -0.271  -1.632  -0.847  1.00  0.00     0.071 A 
HETATM    8  C23 UNL     1      -0.308  -3.014  -0.976  1.00  0.00     0.032 A 
HETATM    9  C24 UNL     1       0.719  -3.689  -1.599  1.00  0.00     0.002 A 
HETATM   10  C25 UNL     1       1.797  -2.950  -2.097  1.00  0.00     0.002 A 
HETATM   11  C26 UNL     1       1.816  -1.597  -1.961  1.00  0.00     0.032 A 
HETATM   12  C27 UNL     1       0.788  -0.896  -1.334  1.00  0.00     0.065 A 
ENDROOT
BRANCH   1  13
HETATM   13  C1  UNL     1       2.325   0.949  -1.051  1.00  0.00     0.154 C 
BRANCH  13  14
HETATM   14  O1  UNL     1       2.604   2.089  -1.625  1.00  0.00    -0.345 OA
ATOM     15  H1  UNL     1       1.905   2.450  -2.157  1.00  0.00     0.219 HD
ENDBRANCH  13  14
BRANCH  13  16
HETATM   16  C2  UNL     1       3.378   0.406  -0.250  1.00  0.00     0.015 A 
HETATM   17  C3  UNL     1       3.259  -0.609   0.668  1.00  0.00     0.016 A 
HETATM   18  C4  UNL     1       4.339  -1.100   1.366  1.00  0.00     0.001 A 
HETATM   19  C5  UNL     1       5.599  -0.608   1.191  1.00  0.00     0.000 A 
HETATM   20  C6  UNL     1       5.762   0.412   0.280  1.00  0.00     0.001 A 
HETATM   21  C7  UNL     1       4.688   0.891  -0.406  1.00  0.00     0.016 A 
ENDBRANCH  13  16
ENDBRANCH   1  13
BRANCH   3  22
HETATM   22  C9  UNL     1      -1.592   2.643  -0.207  1.00  0.00     0.040 A 
HETATM   23  C10 UNL     1      -1.826   2.900   1.123  1.00  0.00     0.032 A 
HETATM   24  C11 UNL     1      -2.272   4.134   1.545  1.00  0.00     0.039 A 
HETATM   25  C12 UNL     1      -2.504   5.168   0.657  1.00  0.00     0.065 A 
HETATM   26  C13 UNL     1      -2.276   4.931  -0.687  1.00  0.00     0.039 A 
HETATM   27  C14 UNL     1      -1.830   3.695  -1.099  1.00  0.00     0.032 A 
BRANCH  25  28
HETATM   28  O2  UNL     1      -2.959   6.423   1.093  1.00  0.00    -0.361 OA
ATOM     29  H2  UNL     1      -3.118   7.133   0.483  1.00  0.00     0.217 HD
ENDBRANCH  25  28
ENDBRANCH   3  22
BRANCH   6  30
HETATM   30  C16 UNL     1      -2.212  -2.033   0.525  1.00  0.00     0.044 A 
HETATM   31  C17 UNL     1      -1.712  -2.570   1.702  1.00  0.00     0.030 A 
HETATM   32  C18 UNL     1      -2.452  -3.477   2.424  1.00  0.00     0.002 A 
HETATM   33  C19 UNL     1      -3.710  -3.865   1.982  1.00  0.00     0.000 A 
HETATM   34  C20 UNL     1      -4.227  -3.342   0.813  1.00  0.00     0.002 A 
HETATM   35  C21 UNL     1      -3.464  -2.439   0.114  1.00  0.00     0.030 A 
ENDBRANCH   6  30
TORSDOF 6
