REMARK  7 active torsions:
REMARK  status: ('A' for Active; 'I' for Inactive)
REMARK    1  A    between atoms: C2_2  and  S1_4 
REMARK    2  A    between atoms: S1_4  and  C4_5 
REMARK    3  A    between atoms: C4_5  and  C5_6 
REMARK       I    between atoms: C5_6  and  N1_8 
REMARK    4  A    between atoms: N1_8  and  N2_10 
REMARK    5  A    between atoms: N2_10  and  S2_12 
REMARK    6  A    between atoms: S2_12  and  C6_15 
REMARK    7  A    between atoms: C9_18  and  N3_19 
REMARK       I    between atoms: N3_19  and  C10_21 
ROOT
HETATM    1  S2  UNL     1       0.720  -2.409   0.894  1.00  0.00     0.276 S 
HETATM    2  O2  UNL     1       0.998  -3.287   2.071  1.00  0.00    -0.199 OA
HETATM    3  O3  UNL     1       0.448  -3.318  -0.273  1.00  0.00    -0.199 OA
ENDROOT
BRANCH   1   4
HETATM    4  N2  UNL     1      -0.673  -1.476   1.198  1.00  0.00    -0.220 N 
ATOM      5  H2  UNL     1      -0.870  -1.064   2.110  1.00  0.00     0.200 HD
BRANCH   4   6
HETATM    6  N1  UNL     1      -1.515  -1.321   0.114  1.00  0.00    -0.260 N 
HETATM    7  C5  UNL     1      -2.355  -0.153  -0.055  1.00  0.00     0.245 C 
HETATM    8  O1  UNL     1      -2.285   0.707   0.825  1.00  0.00    -0.271 OA
ATOM      9  H1  UNL     1      -1.546  -2.056  -0.593  1.00  0.00     0.190 HD
BRANCH   7  10
HETATM   10  C4  UNL     1      -3.214  -0.085  -1.240  1.00  0.00     0.178 C 
BRANCH  10  11
HETATM   11  S1  UNL     1      -4.303   1.298  -1.389  1.00  0.00    -0.156 SA
BRANCH  11  12
HETATM   12  C2  UNL     1      -5.668   1.405  -0.271  1.00  0.00     0.039 C 
HETATM   13  C1  UNL     1      -5.256   1.687   1.149  1.00  0.00     0.021 C 
HETATM   14  C3  UNL     1      -6.604   0.210  -0.347  1.00  0.00     0.021 C 
ENDBRANCH  11  12
ENDBRANCH  10  11
ENDBRANCH   7  10
ENDBRANCH   4   6
ENDBRANCH   1   4
BRANCH   1  15
HETATM   15  C6  UNL     1       2.137  -1.458   0.507  1.00  0.00     0.081 A 
HETATM   16  C7  UNL     1       2.979  -1.056   1.517  1.00  0.00     0.027 A 
HETATM   17  C8  UNL     1       4.123  -0.299   1.226  1.00  0.00     0.031 A 
HETATM   18  C9  UNL     1       4.458   0.074  -0.048  1.00  0.00     0.036 A 
HETATM   19  C11 UNL     1       3.584  -0.350  -1.041  1.00  0.00     0.031 A 
HETATM   20  C12 UNL     1       2.456  -1.094  -0.778  1.00  0.00     0.027 A 
BRANCH  18  21
HETATM   21  N3  UNL     1       5.587   0.827  -0.409  1.00  0.00    -0.311 N 
HETATM   22  C10 UNL     1       6.589   1.345   0.409  1.00  0.00     0.333 C 
HETATM   23  N4  UNL     1       7.660   2.089  -0.157  1.00  0.00    -0.040 NA
HETATM   24  O4  UNL     1       6.609   1.193   1.636  1.00  0.00    -0.251 OA
ATOM     25  H3  UNL     1       5.687   1.021  -1.405  1.00  0.00     0.170 HD
ENDBRANCH  18  21
ENDBRANCH   1  15
TORSDOF 7
