REMARK  10 active torsions:
REMARK  status: ('A' for Active; 'I' for Inactive)
REMARK    1  A    between atoms: O1_2  and  C2_3 
REMARK    2  A    between atoms: C4_5  and  O2_6 
REMARK    3  A    between atoms: C6_8  and  O3_9 
REMARK    4  A    between atoms: C9_12  and  C10_13 
REMARK    5  A    between atoms: C10_13  and  C11_14 
REMARK    6  A    between atoms: C11_14  and  N1_15 
REMARK    7  A    between atoms: N1_15  and  C12_17 
REMARK    8  A    between atoms: C15_26  and  N5_27 
REMARK    9  A    between atoms: C16_32  and  N7_33 
REMARK   10  A    between atoms: N7_33  and  O4_35 
ROOT
HETATM    1  C12 UNL     1      -2.744  -0.479   0.590  1.00  0.00     0.119 A 
HETATM    2  N2  UNL     1      -2.505  -1.434   1.505  1.00  0.00    -0.338 N 
ATOM      3  H2  UNL     1      -1.560  -1.614   1.844  1.00  0.00     0.168 HD
HETATM    4  C13 UNL     1      -3.554  -2.144   1.958  1.00  0.00     0.183 A 
HETATM    5  N3  UNL     1      -4.818  -1.938   1.534  1.00  0.00    -0.337 N 
ATOM      6  H3  UNL     1      -5.576  -2.507   1.911  1.00  0.00     0.168 HD
HETATM    7  C14 UNL     1      -5.087  -0.999   0.628  1.00  0.00     0.139 A 
HETATM    8  N4  UNL     1      -6.333  -0.738   0.159  1.00  0.00    -0.176 N 
ATOM      9  H4  UNL     1      -7.112  -1.289   0.518  1.00  0.00     0.186 HD
HETATM   10  C15 UNL     1      -6.587   0.204  -0.748  1.00  0.00     0.679 A 
HETATM   11  N6  UNL     1      -5.562   0.949  -1.236  1.00  0.00    -0.174 N 
ATOM     12  H6  UNL     1      -5.741   1.675  -1.930  1.00  0.00     0.186 HD
HETATM   13  C16 UNL     1      -4.315   0.726  -0.801  1.00  0.00     0.158 A 
HETATM   14  C17 UNL     1      -4.050  -0.252   0.140  1.00  0.00     0.099 A 
ENDROOT
BRANCH   1  15
HETATM   15  N1  UNL     1      -1.848   0.258   0.084  1.00  0.00    -0.375 N 
ATOM     16  H1  UNL     1      -2.178   0.939  -0.600  1.00  0.00     0.161 HD
BRANCH  15  17
HETATM   17  C11 UNL     1      -0.446   0.274   0.332  1.00  0.00     0.126 C 
BRANCH  17  18
HETATM   18  C10 UNL     1       0.372   0.110  -0.944  1.00  0.00     0.061 C 
BRANCH  18  19
HETATM   19  C9  UNL     1       1.818   0.140  -0.583  1.00  0.00    -0.020 A 
HETATM   20  C2  UNL     1       2.466  -0.923   0.004  1.00  0.00     0.077 A 
HETATM   21  C3  UNL     1       3.824  -0.869   0.332  1.00  0.00     0.076 A 
HETATM   22  C4  UNL     1       4.514   0.290   0.052  1.00  0.00     0.104 A 
HETATM   23  C6  UNL     1       3.897   1.374  -0.536  1.00  0.00     0.102 A 
HETATM   24  C8  UNL     1       2.571   1.286  -0.842  1.00  0.00     0.049 A 
BRANCH  20  25
HETATM   25  O1  UNL     1       1.751  -2.069   0.274  1.00  0.00    -0.355 OA
HETATM   26  C1  UNL     1       2.350  -3.206   0.878  1.00  0.00     0.210 C 
ENDBRANCH  20  25
BRANCH  22  27
HETATM   27  O2  UNL     1       5.859   0.374   0.364  1.00  0.00    -0.353 OA
HETATM   28  C5  UNL     1       6.620  -0.633   0.958  1.00  0.00     0.210 C 
ENDBRANCH  22  27
BRANCH  23  29
HETATM   29  O3  UNL     1       4.641   2.493  -0.787  1.00  0.00    -0.353 OA
HETATM   30  C7  UNL     1       4.187   3.674  -1.372  1.00  0.00     0.210 C 
ENDBRANCH  23  29
ENDBRANCH  18  19
ENDBRANCH  17  18
ENDBRANCH  15  17
ENDBRANCH   1  15
BRANCH  13  31
HETATM   31  N7  UNL     1      -3.343   1.418  -1.252  1.00  0.00    -0.252 N 
ATOM     32  H7  UNL     1      -2.414   1.207  -0.887  1.00  0.00     0.196 HD
BRANCH  31  33
HETATM   33  O4  UNL     1      -3.435   2.411  -2.175  1.00  0.00    -0.288 OA
ATOM     34  H4  UNL     1      -2.711   2.926  -2.511  1.00  0.00     0.244 HD
ENDBRANCH  31  33
ENDBRANCH  13  31
BRANCH  10  35
HETATM   35  N5  UNL     1      -7.802   0.384  -1.137  1.00  0.00    -0.234 N 
ATOM     36  H52 UNL     1      -8.572  -0.176  -0.770  1.00  0.00     0.174 HD
ATOM     37  H51 UNL     1      -7.996   1.105  -1.831  1.00  0.00     0.174 HD
ENDBRANCH  10  35
TORSDOF 10
