REMARK  1 active torsions:
REMARK  status: ('A' for Active; 'I' for Inactive)
REMARK    1  A    between atoms: C4_5  and  C5_6 
ROOT
HETATM    1  C1  UNL     1      -2.459   1.005  -0.300  1.00  0.00     0.310 C 
HETATM    2  N1  UNL     1      -1.337   0.098  -0.484  1.00  0.00     0.091 N 
HETATM    3  C2  UNL     1      -1.532  -1.021   0.418  1.00  0.00     0.273 C 
HETATM    4  C3  UNL     1      -0.172  -1.496   0.840  1.00  0.00     0.044 C 
HETATM    5  C4  UNL     1       0.744  -0.444   0.320  1.00  0.00     0.030 C 
HETATM    6  C6  UNL     1       1.320  -0.888  -0.983  1.00  0.00     0.245 C 
HETATM    7  N2  UNL     1       1.426   0.279  -1.827  1.00  0.00    -0.072 N 
ATOM      8  H21 UNL     1       1.144   0.100  -2.791  1.00  0.00     0.277 HD
ATOM      9  H22 UNL     1       2.392   0.545  -2.018  1.00  0.00     0.277 HD
HETATM   10  C7  UNL     1       0.665   1.332  -1.205  1.00  0.00     0.268 C 
HETATM   11  C8  UNL     1      -0.109   0.732  -0.071  1.00  0.00     0.259 C 
ENDROOT
BRANCH   5  12
HETATM   12  C5  UNL     1       1.810  -0.054   1.323  1.00  0.00     0.128 C 
HETATM   13 CL1  UNL     1       1.057   0.576   2.806  1.00  0.00    -0.130 Cl
ENDBRANCH   5  12
TORSDOF 1
