REMARK  7 active torsions:
REMARK  status: ('A' for Active; 'I' for Inactive)
REMARK    1  A    between atoms: C2_3  and  N2_4 
REMARK    2  A    between atoms: C4_6  and  N3_7 
REMARK    3  A    between atoms: C5_9  and  C6_10 
REMARK    4  A    between atoms: C9_20  and  C10_21 
REMARK       I    between atoms: C10_21  and  N7_23 
REMARK    5  A    between atoms: N7_23  and  C11_25 
REMARK    6  A    between atoms: C12_31  and  N11_32 
REMARK    7  A    between atoms: C13_37  and  N14_38 
ROOT
HETATM    1  N1  UNL     1      -5.554   3.033   2.823  1.00  0.00    -0.196 NA
HETATM    2  C1  UNL     1      -5.974   2.517   1.879  1.00  0.00     0.079 C 
HETATM    3  C2  UNL     1      -6.514   1.856   0.699  1.00  0.00     0.251 C 
ENDROOT
BRANCH   3   4
HETATM    4  N2  UNL     1      -5.678   0.737   0.308  1.00  0.00    -0.349 N 
HETATM    5  C3  UNL     1      -4.639   0.798  -0.545  1.00  0.00     0.123 A 
HETATM    6  C4  UNL     1      -4.071  -0.450  -0.689  1.00  0.00     0.082 A 
HETATM    7  C13 UNL     1      -4.803  -1.300   0.115  1.00  0.00     0.146 A 
HETATM    8  C14 UNL     1      -5.799  -0.535   0.725  1.00  0.00     0.130 A 
BRANCH   6   9
HETATM    9  N3  UNL     1      -2.964  -0.862  -1.477  1.00  0.00    -0.363 N 
HETATM   10  C5  UNL     1      -1.770  -0.456  -1.224  1.00  0.00     0.105 C 
ATOM     11  H3  UNL     1      -3.119  -1.495  -2.262  1.00  0.00     0.165 HD
BRANCH  10  12
HETATM   12  C6  UNL     1      -0.668  -0.939  -2.103  1.00  0.00     0.237 A 
HETATM   13  N4  UNL     1      -0.037  -2.118  -1.572  1.00  0.00    -0.348 N 
HETATM   14  C7  UNL     1       1.199  -1.903  -1.296  1.00  0.00     0.168 A 
ATOM     15  H4  UNL     1      -0.511  -3.011  -1.433  1.00  0.00     0.163 HD
HETATM   16  C8  UNL     1       2.452  -2.489  -0.773  1.00  0.00     0.147 A 
HETATM   17  N12 UNL     1       1.513  -0.560  -1.616  1.00  0.00    -0.217 N 
HETATM   18  N5  UNL     1       2.539  -3.701  -0.382  1.00  0.00    -0.382 N 
HETATM   19  N6  UNL     1       3.398  -1.440  -0.829  1.00  0.00    -0.320 N 
ATOM     20  H52 UNL     1       1.856  -4.458  -0.342  1.00  0.00     0.157 HD
ATOM     21  H51 UNL     1       3.403  -4.105  -0.021  1.00  0.00     0.157 HD
HETATM   22  C9  UNL     1       2.885  -0.358  -1.299  1.00  0.00     0.197 A 
ATOM     23  H6  UNL     1       4.370  -1.530  -0.533  1.00  0.00     0.169 HD
HETATM   24  N13 UNL     1       0.363   0.050  -2.117  1.00  0.00    -0.099 NA
BRANCH  22  25
HETATM   25  C10 UNL     1       3.589   0.930  -1.494  1.00  0.00     0.293 C 
HETATM   26  O1  UNL     1       2.980   1.917  -1.961  1.00  0.00    -0.264 OA
HETATM   27  N7  UNL     1       4.962   1.069  -1.158  1.00  0.00    -0.302 N 
ATOM     28  H7  UNL     1       5.669   1.096  -1.893  1.00  0.00     0.171 HD
BRANCH  27  29
HETATM   29  C11 UNL     1       5.313   1.161   0.088  1.00  0.00     0.167 A 
HETATM   30  N8  UNL     1       4.532   1.145   1.192  1.00  0.00    -0.266 N 
HETATM   31  N9  UNL     1       5.288   1.266   2.278  1.00  0.00    -0.019 NA
ATOM     32  H8  UNL     1       3.516   1.054   1.191  1.00  0.00     0.186 HD
HETATM   33  N10 UNL     1       6.555   1.362   1.915  1.00  0.00    -0.267 N 
HETATM   34  C12 UNL     1       6.605   1.301   0.578  1.00  0.00     0.158 A 
ATOM     35  H10 UNL     1       7.353   1.464   2.542  1.00  0.00     0.186 HD
BRANCH  34  36
HETATM   36  N11 UNL     1       7.643   1.356  -0.188  1.00  0.00    -0.382 N 
ATOM     37 2H11 UNL     1       7.681   1.310  -1.206  1.00  0.00     0.157 HD
ATOM     38 1H11 UNL     1       8.592   1.459   0.172  1.00  0.00     0.157 HD
ENDBRANCH  34  36
ENDBRANCH  27  29
ENDBRANCH  22  25
ENDBRANCH  10  12
ENDBRANCH   6   9
BRANCH   7  39
HETATM   39  N14 UNL     1      -4.568  -2.701   0.278  1.00  0.00    -0.112 N 
HETATM   40  O2  UNL     1      -3.385  -3.119   0.191  1.00  0.00    -0.532 OA
HETATM   41  O3  UNL     1      -5.633  -3.526   0.520  1.00  0.00    -0.532 OA
ENDBRANCH   7  39
ENDBRANCH   3   4
TORSDOF 7
