REMARK  3 active torsions:
REMARK  status: ('A' for Active; 'I' for Inactive)
REMARK    1  A    between atoms: N2_12  and  S1_14 
REMARK    2  A    between atoms: S1_14  and  N3_17 
REMARK    3  A    between atoms: N3_17  and  C10_19 
ROOT
HETATM    1  C1  UNL     1      -1.242   2.850  -1.856  1.00  0.00     0.103 C 
HETATM    2  C2  UNL     1      -1.655   1.848  -1.289  1.00  0.00    -0.144 C 
HETATM    3  C3  UNL     1      -2.132   0.668  -0.623  1.00  0.00     0.055 A 
HETATM    4  C4  UNL     1      -3.458   0.277  -0.830  1.00  0.00    -0.039 A 
HETATM    5  C5  UNL     1      -4.324   1.088  -1.724  1.00  0.00     0.050 C 
HETATM    6  C6  UNL     1      -3.938  -0.854  -0.200  1.00  0.00     0.033 A 
HETATM    7  C7  UNL     1      -3.065  -1.546   0.613  1.00  0.00     0.007 A 
HETATM    8  C8  UNL     1      -3.540  -2.779   1.317  1.00  0.00     0.068 C 
HETATM    9  N1  UNL     1      -1.782  -1.160   0.807  1.00  0.00    -0.345 N 
ATOM     10  H1  UNL     1      -1.177  -1.708   1.419  1.00  0.00     0.167 HD
HETATM   11  C9  UNL     1      -1.298  -0.062   0.201  1.00  0.00     0.134 A 
HETATM   12  N2  UNL     1      -0.108   0.347   0.346  1.00  0.00    -0.252 N 
ATOM     13  H2  UNL     1       0.157   1.193  -0.158  1.00  0.00     0.182 HD
ENDROOT
BRANCH  12  14
HETATM   14  S1  UNL     1       1.102  -0.399   1.319  1.00  0.00     0.321 S 
HETATM   15  O1  UNL     1       0.543  -0.442   2.736  1.00  0.00    -0.182 OA
HETATM   16  O2  UNL     1       1.271  -1.784   0.867  1.00  0.00    -0.182 OA
BRANCH  14  17
HETATM   17  N3  UNL     1       2.473   0.570   1.322  1.00  0.00    -0.294 N 
ATOM     18  H3  UNL     1       2.590   1.299   2.026  1.00  0.00     0.174 HD
BRANCH  17  19
HETATM   19  C10 UNL     1       3.458   0.362   0.339  1.00  0.00     0.031 C 
HETATM   20  C11 UNL     1       2.809   0.577  -1.035  1.00  0.00     0.038 C 
HETATM   21  C12 UNL     1       4.119  -0.969   0.306  1.00  0.00     0.038 C 
HETATM   22  C13 UNL     1       4.529   1.425   0.484  1.00  0.00     0.038 C 
ENDBRANCH  17  19
ENDBRANCH  14  17
ENDBRANCH  12  14
TORSDOF 3
