REMARK  4 active torsions:
REMARK  status: ('A' for Active; 'I' for Inactive)
REMARK    1  A    between atoms: C4_4  and  C5_5 
REMARK    2  A    between atoms: C6_6  and  C7_7 
REMARK    3  A    between atoms: C10_12  and  C11_13 
REMARK    4  A    between atoms: C14_20  and  C15_21 
ROOT
HETATM    1  C1  UNL     1       1.197   2.491  -0.280  1.00  0.00     0.026 C 
HETATM    2  C2  UNL     1       0.431   1.431  -0.167  1.00  0.00    -0.016 A 
HETATM    3  C3  UNL     1      -0.898   1.511   0.241  1.00  0.00     0.052 A 
HETATM    4  C4  UNL     1      -1.451   0.254   0.272  1.00  0.00     0.088 A 
HETATM    5  N1  UNL     1      -0.491  -0.588  -0.108  1.00  0.00    -0.349 N 
ATOM      6  H1  UNL     1      -0.600  -1.599  -0.184  1.00  0.00     0.167 HD
HETATM    7  C10 UNL     1       0.669   0.100  -0.384  1.00  0.00     0.044 A 
ENDROOT
BRANCH   7   8
HETATM    8  C11 UNL     1       1.752  -0.491  -0.782  1.00  0.00     0.051 C 
HETATM    9  C12 UNL     1       3.045   0.062  -1.122  1.00  0.00     0.035 A 
HETATM   10  S1  UNL     1       3.595   0.669  -2.648  1.00  0.00    -0.027 SA
HETATM   11  C14 UNL     1       4.166   0.226  -0.356  1.00  0.00     0.029 A 
HETATM   12  C13 UNL     1       5.184   1.078  -2.194  1.00  0.00     0.289 A 
HETATM   13  O1  UNL     1       6.127   1.590  -2.897  1.00  0.00    -0.260 OA
HETATM   14  N2  UNL     1       5.229   0.735  -0.904  1.00  0.00    -0.320 N 
ATOM     15  H2  UNL     1       6.081   0.870  -0.360  1.00  0.00     0.169 HD
BRANCH  11  16
HETATM   16  C15 UNL     1       4.129  -0.204   1.099  1.00  0.00     0.054 C 
HETATM   17  C16 UNL     1       4.270  -1.714   1.134  1.00  0.00     0.011 C 
ENDBRANCH  11  16
ENDBRANCH   7   8
BRANCH   4  18
HETATM   18  C5  UNL     1      -2.811  -0.100   0.643  1.00  0.00    -0.048 C 
HETATM   19  C6  UNL     1      -3.944  -0.372   0.938  1.00  0.00    -0.096 C 
BRANCH  19  20
HETATM   20  C7  UNL     1      -5.331  -0.682   1.296  1.00  0.00     0.057 C 
HETATM   21  C8  UNL     1      -6.252   0.498   1.006  1.00  0.00     0.023 C 
HETATM   22  C9  UNL     1      -5.777  -1.807   0.380  1.00  0.00     0.023 C 
ENDBRANCH  19  20
ENDBRANCH   4  18
TORSDOF 4
