REMARK  7 active torsions:
REMARK  status: ('A' for Active; 'I' for Inactive)
REMARK    1  A    between atoms: C2_2  and  C3_3 
REMARK    2  A    between atoms: C7_7  and  C8_8 
REMARK    3  A    between atoms: C9_9  and  O1_10 
REMARK    4  A    between atoms: C10_14  and  O2_15 
REMARK    5  A    between atoms: C11_17  and  N2_18 
REMARK    6  A    between atoms: N2_18  and  O3_20 
REMARK    7  A    between atoms: C12_22  and  C13_23 
ROOT
HETATM    1  C8  UNL     1       2.118  -0.506  -0.330  1.00  0.00     0.030 A 
HETATM    2  C9  UNL     1       3.105   0.103  -1.081  1.00  0.00     0.151 A 
HETATM    3  N1  UNL     1       4.306  -0.150  -0.495  1.00  0.00    -0.315 N 
ATOM      4  H1  UNL     1       5.201   0.184  -0.853  1.00  0.00     0.170 HD
HETATM    5  C10 UNL     1       4.168  -0.880   0.592  1.00  0.00     0.172 A 
HETATM    6  C11 UNL     1       2.785  -1.107   0.701  1.00  0.00     0.116 A 
ENDROOT
BRANCH   1   7
HETATM    7  C7  UNL     1       0.639  -0.453  -0.603  1.00  0.00     0.034 C 
HETATM    8  C6  UNL     1       0.218  -1.909  -0.160  1.00  0.00     0.011 C 
HETATM    9  C5  UNL     1      -1.093  -2.103  -0.911  1.00  0.00     0.014 C 
HETATM   10  C3  UNL     1      -2.081  -1.343  -0.030  1.00  0.00    -0.026 C 
HETATM   11  C4  UNL     1      -2.281  -2.206   1.223  1.00  0.00     0.019 C 
HETATM   12  C17 UNL     1      -1.646   0.024   0.258  1.00  0.00     0.022 C 
HETATM   13  C12 UNL     1      -0.178   0.405   0.243  1.00  0.00     0.023 C 
BRANCH  10  14
HETATM   14  C2  UNL     1      -3.373  -1.327  -0.754  1.00  0.00    -0.028 C 
HETATM   15  C1  UNL     1      -4.490  -0.924  -0.203  1.00  0.00     0.007 C 
ENDBRANCH  10  14
BRANCH  13  16
HETATM   16  C13 UNL     1      -0.240   1.870   0.040  1.00  0.00    -0.083 C 
HETATM   17  C14 UNL     1      -0.837   2.683   1.185  1.00  0.00     0.043 C 
HETATM   18  C15 UNL     1       0.156   2.588  -0.978  1.00  0.00    -0.028 C 
HETATM   19  C16 UNL     1       0.023   4.068  -1.042  1.00  0.00     0.036 C 
ENDBRANCH  13  16
ENDBRANCH   1   7
BRANCH   2  20
HETATM   20  O1  UNL     1       3.014   0.855  -2.247  1.00  0.00    -0.346 OA
ATOM     21  H1  UNL     1       3.693   1.274  -2.763  1.00  0.00     0.219 HD
ENDBRANCH   2  20
BRANCH   6  22
HETATM   22  N2  UNL     1       2.215  -1.821   1.776  1.00  0.00    -0.264 N 
ATOM     23  H2  UNL     1       1.904  -2.785   1.653  1.00  0.00     0.194 HD
BRANCH  22  24
HETATM   24  O3  UNL     1       2.096  -1.241   2.899  1.00  0.00    -0.289 OA
ATOM     25  H3  UNL     1       1.712  -1.722   3.623  1.00  0.00     0.244 HD
ENDBRANCH  22  24
ENDBRANCH   6  22
BRANCH   5  26
HETATM   26  O2  UNL     1       5.115  -1.352   1.467  1.00  0.00    -0.344 OA
ATOM     27  H2  UNL     1       5.015  -1.879   2.251  1.00  0.00     0.219 HD
ENDBRANCH   5  26
TORSDOF 7
