REMARK  3 active torsions:
REMARK  status: ('A' for Active; 'I' for Inactive)
REMARK    1  A    between atoms: C2_2  and  C4_4 
REMARK    2  A    between atoms: C4_4  and  N1_5 
REMARK    3  A    between atoms: C9_16  and  C10_17 
ROOT
HETATM    1  C10 UNL     1      -0.781  -0.629  -0.963  1.00  0.00     0.116 C 
HETATM    2  N4  UNL     1      -0.416   0.727  -0.857  1.00  0.00    -0.384 N 
ATOM      3  H4  UNL     1      -1.041   1.441  -0.483  1.00  0.00     0.159 HD
HETATM    4  C11 UNL     1       0.914   1.020  -1.321  1.00  0.00     0.146 C 
HETATM    5  C12 UNL     1       0.962   1.743  -2.655  1.00  0.00     0.187 C 
HETATM    6  O3  UNL     1       2.235   2.361  -2.693  1.00  0.00    -0.387 OA
HETATM    7  C13 UNL     1       3.268   1.480  -2.533  1.00  0.00     0.193 C 
HETATM    8  C14 UNL     1       3.960   1.515  -1.216  1.00  0.00     0.193 C 
HETATM    9  O4  UNL     1       5.364   1.375  -1.328  1.00  0.00    -0.387 OA
HETATM   10  C15 UNL     1       5.894   1.233  -0.048  1.00  0.00     0.195 C 
HETATM   11  C16 UNL     1       5.576  -0.068   0.606  1.00  0.00     0.258 C 
HETATM   12  N5  UNL     1       4.823   0.157   1.834  1.00  0.00    -0.073 N 
ATOM     13  H51 UNL     1       4.078   0.838   1.684  1.00  0.00     0.277 HD
ATOM     14  H52 UNL     1       5.383   0.669   2.515  1.00  0.00     0.277 HD
HETATM   15  C17 UNL     1       4.303  -1.051   2.405  1.00  0.00     0.232 C 
HETATM   16  C18 UNL     1       3.222  -0.739   3.380  1.00  0.00     0.029 C 
HETATM   17  C19 UNL     1       1.842  -1.162   2.930  1.00  0.00     0.021 C 
HETATM   18  C20 UNL     1       1.371  -0.418   1.692  1.00  0.00     0.123 C 
HETATM   19  N6  UNL     1       1.118  -1.383   0.642  1.00  0.00    -0.356 N 
ATOM     20  H6  UNL     1       1.895  -2.010   0.433  1.00  0.00     0.162 HD
HETATM   21  C21 UNL     1      -0.018  -1.583  -0.120  1.00  0.00     0.267 C 
HETATM   22  O5  UNL     1      -0.517  -2.771  -0.122  1.00  0.00    -0.266 OA
ENDROOT
BRANCH   1  23
HETATM   23  C9  UNL     1      -2.212  -0.992  -0.979  1.00  0.00     0.243 C 
HETATM   24  N1  UNL     1      -3.033  -0.688   0.134  1.00  0.00    -0.303 N 
HETATM   25  C5  UNL     1      -4.247  -1.382   0.537  1.00  0.00     0.243 C 
HETATM   26  O1  UNL     1      -4.494  -1.210   1.783  1.00  0.00    -0.271 OA
HETATM   27  C6  UNL     1      -5.273  -2.236  -0.114  1.00  0.00     0.225 C 
HETATM   28  N2  UNL     1      -4.646  -2.931  -1.216  1.00  0.00    -0.351 N 
HETATM   29  C7  UNL     1      -3.923  -2.549  -2.385  1.00  0.00     0.235 C 
ATOM     30  H2  UNL     1      -4.745  -3.943  -1.139  1.00  0.00     0.163 HD
HETATM   31  O2  UNL     1      -3.520  -3.575  -3.045  1.00  0.00    -0.272 OA
HETATM   32  C8  UNL     1      -3.533  -1.263  -3.009  1.00  0.00     0.219 C 
HETATM   33  N3  UNL     1      -2.842  -0.384  -2.134  1.00  0.00    -0.388 N 
ATOM     34  H3  UNL     1      -2.792   0.620  -2.309  1.00  0.00     0.156 HD
BRANCH  24  35
HETATM   35  C4  UNL     1      -2.788   0.356   1.039  1.00  0.00     0.073 C 
BRANCH  35  36
HETATM   36  C2  UNL     1      -3.423   1.687   0.717  1.00  0.00     0.016 C 
HETATM   37  C1  UNL     1      -3.070   2.728   1.786  1.00  0.00     0.015 C 
HETATM   38  C3  UNL     1      -4.934   1.649   0.675  1.00  0.00     0.015 C 
ENDBRANCH  35  36
ENDBRANCH  24  35
ENDBRANCH   1  23
TORSDOF 3
