REMARK  3 active torsions:
REMARK  status: ('A' for Active; 'I' for Inactive)
REMARK    1  A    between atoms: N4_14  and  C7_15 
REMARK    2  A    between atoms: C7_15  and  C8_16 
REMARK       I    between atoms: C8_16  and  N5_18 
REMARK    3  A    between atoms: N5_18  and  C9_20 
ROOT
HETATM    1  C1  UNL     1       7.820  -0.650   2.636  1.00  0.00     0.145 C 
HETATM    2  N1  UNL     1       7.103  -0.502   1.418  1.00  0.00    -0.387 N 
HETATM    3  C2  UNL     1       7.494  -1.342   0.337  1.00  0.00     0.352 C 
HETATM    4  N2  UNL     1       6.674  -1.050  -0.839  1.00  0.00    -0.058 N 
ATOM      5  H21 UNL     1       6.965  -0.187  -1.299  1.00  0.00     0.279 HD
ATOM      6  H22 UNL     1       5.727  -0.773  -0.581  1.00  0.00     0.279 HD
HETATM    7  C3  UNL     1       6.677  -2.161  -1.741  1.00  0.00     0.261 C 
HETATM    8  C4  UNL     1       5.257  -2.427  -2.195  1.00  0.00     0.260 C 
HETATM    9  N3  UNL     1       4.657  -1.193  -2.600  1.00  0.00    -0.072 N 
ATOM     10  H31 UNL     1       4.802  -1.013  -3.593  1.00  0.00     0.277 HD
ATOM     11  H32 UNL     1       5.158  -0.389  -2.221  1.00  0.00     0.277 HD
HETATM   12  C5  UNL     1       3.254  -1.158  -2.252  1.00  0.00     0.262 C 
HETATM   13  C6  UNL     1       2.929   0.160  -1.569  1.00  0.00     0.300 C 
HETATM   14  N4  UNL     1       1.810   0.023  -0.637  1.00  0.00     0.100 N 
HETATM   15  C20 UNL     1       2.276   0.566   0.628  1.00  0.00     0.292 C 
HETATM   16  C21 UNL     1       2.585  -0.482   1.662  1.00  0.00     0.152 C 
HETATM   17  N8  UNL     1       3.516  -1.487   1.256  1.00  0.00    -0.358 N 
ATOM     18  H8  UNL     1       3.152  -2.255   0.692  1.00  0.00     0.162 HD
HETATM   19  C22 UNL     1       4.901  -1.513   1.566  1.00  0.00     0.235 C 
HETATM   20  O2  UNL     1       5.400  -2.647   1.854  1.00  0.00    -0.272 OA
HETATM   21  C23 UNL     1       5.686  -0.280   1.545  1.00  0.00     0.220 C 
ENDROOT
BRANCH  14  22
HETATM   22  C7  UNL     1       0.737   0.834  -1.188  1.00  0.00     0.374 C 
BRANCH  22  23
HETATM   23  C8  UNL     1      -0.513   0.787  -0.430  1.00  0.00     0.246 C 
HETATM   24  O1  UNL     1      -0.651   0.073   0.601  1.00  0.00    -0.272 OA
HETATM   25  N5  UNL     1      -1.633   1.555  -0.832  1.00  0.00    -0.355 N 
ATOM     26  H5  UNL     1      -1.556   2.149  -1.658  1.00  0.00     0.162 HD
BRANCH  25  27
HETATM   27  C9  UNL     1      -2.904   1.521  -0.094  1.00  0.00     0.084 C 
HETATM   28  C10 UNL     1      -3.952   1.139  -1.079  1.00  0.00     0.025 C 
HETATM   29  C11 UNL     1      -3.620  -0.015  -1.946  1.00  0.00     0.002 C 
HETATM   30  C12 UNL     1      -4.476  -1.236  -1.800  1.00  0.00     0.002 C 
HETATM   31  C13 UNL     1      -5.037  -1.471  -0.451  1.00  0.00     0.027 C 
HETATM   32  C14 UNL     1      -6.515  -1.177  -0.343  1.00  0.00     0.232 C 
HETATM   33  N6  UNL     1      -6.851  -0.662   0.991  1.00  0.00    -0.074 N 
HETATM   34  C15 UNL     1      -7.799   0.400   0.934  1.00  0.00     0.251 C 
ATOM     35  H62 UNL     1      -7.171  -1.410   1.606  1.00  0.00     0.277 HD
ATOM     36  H61 UNL     1      -6.013  -0.382   1.500  1.00  0.00     0.277 HD
HETATM   37  C16 UNL     1      -7.298   1.758   1.294  1.00  0.00     0.146 C 
HETATM   38  N7  UNL     1      -6.354   1.846   2.338  1.00  0.00    -0.401 N 
HETATM   39  C17 UNL     1      -4.988   1.983   2.028  1.00  0.00     0.055 C 
ATOM     40  H7  UNL     1      -6.659   1.811   3.311  1.00  0.00     0.158 HD
HETATM   41  C18 UNL     1      -4.585   3.031   1.053  1.00  0.00     0.046 C 
HETATM   42  C19 UNL     1      -3.156   2.824   0.607  1.00  0.00     0.030 C 
ENDBRANCH  25  27
ENDBRANCH  22  23
ENDBRANCH  14  22
TORSDOF 3
