REMARK  6 active torsions:
REMARK  status: ('A' for Active; 'I' for Inactive)
REMARK    1  A    between atoms: C2_2  and  C5_5 
REMARK    2  A    between atoms: N1_8  and  C8_9 
REMARK    3  A    between atoms: C9_12  and  N3_13 
REMARK    4  A    between atoms: C13_17  and  C14_18 
REMARK    5  A    between atoms: C17_21  and  O1_22 
REMARK    6  A    between atoms: C21_29  and  C22_30 
ROOT
HETATM    1  C8  UNL     1      -1.279  -0.262   0.131  1.00  0.00     0.686 A 
HETATM    2  N2  UNL     1      -0.110  -0.887   0.223  1.00  0.00    -0.176 N 
ATOM      3  H2  UNL     1      -0.101  -1.907   0.235  1.00  0.00     0.186 HD
HETATM    4  C9  UNL     1       1.046  -0.239   0.300  1.00  0.00     0.124 A 
HETATM    5  C20 UNL     1       1.018   1.181   0.289  1.00  0.00     0.084 A 
HETATM    6  C21 UNL     1      -0.181   1.847   0.197  1.00  0.00     0.136 A 
HETATM    7  N5  UNL     1      -1.281   1.131   0.119  1.00  0.00    -0.186 N 
ATOM      8  H5  UNL     1      -2.175   1.617   0.047  1.00  0.00     0.184 HD
ENDROOT
BRANCH   4   9
HETATM    9  N3  UNL     1       2.343  -0.763   0.306  1.00  0.00    -0.347 N 
HETATM   10  C10 UNL     1       2.875  -1.347   1.460  1.00  0.00     0.065 C 
HETATM   11  C11 UNL     1       4.360  -1.573   1.441  1.00  0.00     0.045 C 
HETATM   12  C12 UNL     1       5.007  -1.858   0.142  1.00  0.00     0.016 C 
HETATM   13  C13 UNL     1       5.363  -0.721  -0.727  1.00  0.00     0.037 C 
HETATM   14  C18 UNL     1       4.215   0.285  -0.672  1.00  0.00     0.031 C 
HETATM   15  C19 UNL     1       2.983  -0.568  -1.017  1.00  0.00     0.130 C 
BRANCH  13  16
HETATM   16  C14 UNL     1       6.653  -0.058  -0.421  1.00  0.00     0.015 A 
HETATM   17  C15 UNL     1       7.572  -0.310   0.545  1.00  0.00     0.029 A 
HETATM   18  C16 UNL     1       8.594   0.583   0.424  1.00  0.00     0.058 A 
HETATM   19  C17 UNL     1       8.305   1.406  -0.638  1.00  0.00     0.140 A 
HETATM   20  N4  UNL     1       7.108   0.982  -1.129  1.00  0.00    -0.340 N 
ATOM     21  H4  UNL     1       6.626   1.399  -1.925  1.00  0.00     0.167 HD
BRANCH  19  22
HETATM   22  O1  UNL     1       9.080   2.459  -1.108  1.00  0.00    -0.346 OA
ATOM     23  H1  UNL     1       8.880   3.028  -1.842  1.00  0.00     0.219 HD
ENDBRANCH  19  22
ENDBRANCH  13  16
ENDBRANCH   4   9
BRANCH   1  24
HETATM   24  N1  UNL     1      -2.557  -0.795  -0.021  1.00  0.00    -0.197 N 
HETATM   25  C7  UNL     1      -3.098  -0.742  -1.420  1.00  0.00     0.147 C 
HETATM   26  C6  UNL     1      -4.292   0.200  -1.187  1.00  0.00     0.026 C 
HETATM   27  C5  UNL     1      -5.384  -0.693  -0.651  1.00  0.00    -0.001 C 
HETATM   28  C24 UNL     1      -4.825  -1.629   0.401  1.00  0.00     0.050 C 
HETATM   29  C23 UNL     1      -3.444  -1.297   0.929  1.00  0.00     0.082 C 
BRANCH  27  30
HETATM   30  C2  UNL     1      -6.527   0.129  -0.091  1.00  0.00    -0.047 C 
HETATM   31  C1  UNL     1      -6.999   1.123  -1.148  1.00  0.00     0.015 C 
HETATM   32  C3  UNL     1      -6.358   0.720   1.227  1.00  0.00     0.015 C 
HETATM   33  C4  UNL     1      -7.714  -0.872  -0.002  1.00  0.00     0.015 C 
ENDBRANCH  27  30
ENDBRANCH   1  24
BRANCH   6  34
HETATM   34  C22 UNL     1      -0.260   3.340   0.176  1.00  0.00     0.433 C 
HETATM   35  F1  UNL     1      -0.649   3.670  -1.112  1.00  0.00    -0.165 F 
HETATM   36  F2  UNL     1      -1.144   3.811   1.094  1.00  0.00    -0.165 F 
HETATM   37  F3  UNL     1       1.020   3.799   0.362  1.00  0.00    -0.165 F 
ENDBRANCH   6  34
TORSDOF 6
