REMARK  4 active torsions:
REMARK  status: ('A' for Active; 'I' for Inactive)
REMARK    1  A    between atoms: N1_2  and  C2_4 
REMARK    2  A    between atoms: C3_7  and  N3_8 
REMARK    3  A    between atoms: N6_15  and  N7_16 
REMARK    4  A    between atoms: N9_22  and  O1_23 
ROOT
HETATM    1  C2  UNL     1      -1.137  -0.513   0.013  1.00  0.00     0.717 A 
HETATM    2  N2  UNL     1      -2.463  -0.334  -0.084  1.00  0.00    -0.021 N 
ATOM      3  H2  UNL     1      -3.089  -1.138  -0.126  1.00  0.00     0.203 HD
HETATM    4  C3  UNL     1      -2.965   0.930  -0.126  1.00  0.00     0.693 A 
HETATM    5  N4  UNL     1      -2.116   1.960  -0.067  1.00  0.00    -0.161 N 
ATOM      6  H4  UNL     1      -2.491   2.908  -0.098  1.00  0.00     0.187 HD
HETATM    7  C4  UNL     1      -0.773   1.792   0.032  1.00  0.00     0.247 A 
HETATM    8  N5  UNL     1       0.083   2.951   0.098  1.00  0.00    -0.060 NA
HETATM    9  N6  UNL     1      -0.279   0.556   0.071  1.00  0.00    -0.039 N 
ENDROOT
BRANCH   9  10
HETATM   10  N7  UNL     1       1.113   0.325   0.158  1.00  0.00    -0.188 N 
HETATM   11  C5  UNL     1       1.733   0.094   1.435  1.00  0.00     0.288 C 
HETATM   12  N8  UNL     1       2.613  -1.035   1.339  1.00  0.00    -0.382 N 
HETATM   13  C6  UNL     1       3.195  -1.312   0.238  1.00  0.00     0.075 C 
ATOM     14  H8  UNL     1       2.775  -1.621   2.158  1.00  0.00     0.160 HD
HETATM   15  C7  UNL     1       3.021  -0.526  -0.988  1.00  0.00     0.191 C 
HETATM   16  N9  UNL     1       1.869   0.325  -0.998  1.00  0.00    -0.083 NA
BRANCH  16  17
HETATM   17  O1  UNL     1       2.212   1.533  -1.456  1.00  0.00    -0.292 OA
ATOM     18  H1  UNL     1       2.732   1.533  -2.251  1.00  0.00     0.239 HD
ENDBRANCH  16  17
ENDBRANCH   9  10
BRANCH   1  19
HETATM   19  N1  UNL     1      -0.612  -1.660   0.069  1.00  0.00    -0.228 N 
HETATM   20  C1  UNL     1      -1.282  -2.906   0.043  1.00  0.00     0.165 C 
ATOM     21  H1  UNL     1       0.405  -1.692   0.141  1.00  0.00     0.177 HD
ENDBRANCH   1  19
BRANCH   4  22
HETATM   22  N3  UNL     1      -4.234   1.116  -0.221  1.00  0.00    -0.234 N 
ATOM     23  H32 UNL     1      -4.882   0.330  -0.266  1.00  0.00     0.174 HD
ATOM     24  H31 UNL     1      -4.610   2.064  -0.252  1.00  0.00     0.174 HD
ENDBRANCH   4  22
TORSDOF 4
