REMARK  8 active torsions:
REMARK  status: ('A' for Active; 'I' for Inactive)
REMARK    1  A    between atoms: C2_2  and  C4_4 
REMARK    2  A    between atoms: C4_4  and  C5_5 
REMARK    3  A    between atoms: C8_8  and  C9_9 
REMARK       I    between atoms: C9_9  and  N1_11 
REMARK    4  A    between atoms: N1_11  and  C10_13 
REMARK    5  A    between atoms: C12_15  and  O2_16 
REMARK    6  A    between atoms: C12_15  and  N2_18 
REMARK    7  A    between atoms: C15_22  and  N3_23 
REMARK    8  A    between atoms: C20_29  and  C21_30 
ROOT
HETATM    1  C10 UNL     1      -0.559   0.944  -1.204  1.00  0.00     0.059 C 
HETATM    2  C11 UNL     1      -0.401   2.488  -1.384  1.00  0.00     0.073 C 
HETATM    3  C12 UNL     1      -1.920   0.574  -1.044  1.00  0.00     0.165 C 
ENDROOT
BRANCH   1   4
HETATM    4  N1  UNL     1       0.612   0.222  -1.072  1.00  0.00    -0.325 N 
HETATM    5  C9  UNL     1       1.793   0.875  -0.549  1.00  0.00     0.253 C 
HETATM    6  O1  UNL     1       1.653   2.081  -0.174  1.00  0.00    -0.271 OA
ATOM      7  H1  UNL     1       0.644  -0.762  -1.341  1.00  0.00     0.168 HD
BRANCH   5   8
HETATM    8  C8  UNL     1       3.114   0.303  -0.434  1.00  0.00     0.277 C 
HETATM    9  C7  UNL     1       3.529  -0.438   0.782  1.00  0.00     0.043 C 
HETATM   10  C6  UNL     1       5.054  -0.408   0.950  1.00  0.00     0.009 C 
HETATM   11  C5  UNL     1       5.816  -0.192  -0.308  1.00  0.00     0.011 C 
HETATM   12  C24 UNL     1       5.241   0.985  -1.082  1.00  0.00     0.238 C 
HETATM   13  N4  UNL     1       4.052   1.501  -0.431  1.00  0.00    -0.062 N 
ATOM     14  H42 UNL     1       3.667   2.345  -0.855  1.00  0.00     0.278 HD
ATOM     15  H41 UNL     1       4.214   1.913   0.488  1.00  0.00     0.278 HD
BRANCH  11  16
HETATM   16  C4  UNL     1       7.256   0.107  -0.032  1.00  0.00     0.010 C 
BRANCH  16  17
HETATM   17  C2  UNL     1       8.030  -0.951   0.679  1.00  0.00    -0.022 C 
HETATM   18  C1  UNL     1       9.453  -0.389   0.831  1.00  0.00     0.009 C 
HETATM   19  C3  UNL     1       8.160  -2.228  -0.085  1.00  0.00     0.009 C 
ENDBRANCH  16  17
ENDBRANCH  11  16
ENDBRANCH   5   8
ENDBRANCH   1   4
BRANCH   3  20
HETATM   20  O2  UNL     1      -2.628   0.665  -2.158  1.00  0.00    -0.344 OA
ATOM     21  H2  UNL     1      -3.539   0.417  -2.051  1.00  0.00     0.219 HD
ENDBRANCH   3  20
BRANCH   3  22
HETATM   22  N2  UNL     1      -2.702   0.153   0.008  1.00  0.00    -0.328 N 
HETATM   23  C13 UNL     1      -2.264  -0.586   1.175  1.00  0.00     0.170 C 
HETATM   24  C14 UNL     1      -3.366  -1.704   1.033  1.00  0.00     0.227 C 
HETATM   25  F1  UNL     1      -3.602  -2.144   2.293  1.00  0.00    -0.245 F 
HETATM   26  C15 UNL     1      -4.591  -0.962   0.411  1.00  0.00     0.304 C 
HETATM   27  C20 UNL     1      -4.089   0.403   0.451  1.00  0.00     0.031 C 
BRANCH  26  28
HETATM   28  N3  UNL     1      -5.699  -1.434   1.064  1.00  0.00     0.103 N 
HETATM   29  C16 UNL     1      -6.843  -0.721   1.385  1.00  0.00     0.275 C 
HETATM   30  C17 UNL     1      -7.763  -0.830   0.154  1.00  0.00     0.052 C 
HETATM   31  C18 UNL     1      -7.606  -2.304  -0.115  1.00  0.00     0.112 C 
HETATM   32 CL1  UNL     1      -7.914  -2.737  -1.806  1.00  0.00    -0.123 Cl
HETATM   33  C19 UNL     1      -6.216  -2.633   0.351  1.00  0.00     0.293 C 
ENDBRANCH  26  28
BRANCH  27  34
HETATM   34  C21 UNL     1      -4.704   1.615  -0.001  1.00  0.00     0.026 C 
HETATM   35  C22 UNL     1      -3.808   2.800   0.456  1.00  0.00     0.016 C 
HETATM   36  C23 UNL     1      -5.215   1.923  -1.318  1.00  0.00     0.016 C 
ENDBRANCH  27  34
ENDBRANCH   3  22
TORSDOF 8
