REMARK  7 active torsions:
REMARK  status: ('A' for Active; 'I' for Inactive)
REMARK    1  A    between atoms: C1_2  and  C2_3 
REMARK       I    between atoms: C1_2  and  N3_26 
REMARK       I    between atoms: N1_7  and  C6_8 
REMARK    2  A    between atoms: C6_8  and  C7_10 
REMARK    3  A    between atoms: C7_10  and  C8_11 
REMARK    4  A    between atoms: C7_10  and  N2_18 
REMARK    5  A    between atoms: C8_11  and  C9_12 
REMARK    6  A    between atoms: N2_18  and  S1_20 
REMARK    7  A    between atoms: S1_20  and  C15_23 
ROOT
HETATM    1  C7  UNL     1      -1.345   1.496  -0.107  1.00  0.00     0.185 C 
ENDROOT
BRANCH   1   2
HETATM    2  C6  UNL     1       0.058   1.583  -0.770  1.00  0.00     0.244 C 
HETATM    3  N1  UNL     1       1.125   0.857  -0.355  1.00  0.00    -0.337 N 
HETATM    4  C2  UNL     1       2.471   0.699  -0.992  1.00  0.00     0.179 C 
HETATM    5  C5  UNL     1       1.365   0.191   0.901  1.00  0.00     0.127 C 
HETATM    6  C3  UNL     1       3.203   1.482   0.064  1.00  0.00     0.037 C 
HETATM    7  C4  UNL     1       2.652   0.970   1.340  1.00  0.00     0.022 C 
HETATM    8  O2  UNL     1       0.142   2.394  -1.717  1.00  0.00    -0.271 OA
BRANCH   4   9
HETATM    9  C1  UNL     1       2.720  -0.719  -1.060  1.00  0.00     0.242 C 
HETATM   10  O1  UNL     1       1.686  -1.462  -1.267  1.00  0.00    -0.271 OA
HETATM   11  N3  UNL     1       3.947  -1.414  -0.932  1.00  0.00    -0.350 N 
HETATM   12  C16 UNL     1       5.268  -0.857  -0.772  1.00  0.00     0.126 C 
HETATM   13  C19 UNL     1       4.106  -2.892  -0.922  1.00  0.00     0.126 C 
HETATM   14  C17 UNL     1       6.230  -2.032  -0.797  1.00  0.00     0.021 C 
HETATM   15  C18 UNL     1       5.343  -3.035  -0.041  1.00  0.00     0.021 C 
ENDBRANCH   4   9
ENDBRANCH   1   2
BRANCH   1  16
HETATM   16  C8  UNL     1      -1.713   0.109  -0.104  1.00  0.00     0.040 C 
BRANCH  16  17
HETATM   17  C9  UNL     1      -3.093  -0.293   0.417  1.00  0.00    -0.012 C 
HETATM   18  C10 UNL     1      -3.043  -1.834   0.312  1.00  0.00     0.005 C 
HETATM   19  C11 UNL     1      -4.327  -2.531   0.522  1.00  0.00     0.000 C 
HETATM   20  C12 UNL     1      -5.446  -1.953  -0.288  1.00  0.00     0.000 C 
HETATM   21  C13 UNL     1      -4.811  -1.012  -1.295  1.00  0.00     0.000 C 
HETATM   22  C14 UNL     1      -4.178   0.135  -0.524  1.00  0.00     0.005 C 
ENDBRANCH  16  17
ENDBRANCH   1  16
BRANCH   1  23
HETATM   23  N2  UNL     1      -1.278   2.243   1.041  1.00  0.00    -0.303 N 
ATOM     24  H2  UNL     1      -0.953   1.736   1.864  1.00  0.00     0.173 HD
BRANCH  23  25
HETATM   25  S1  UNL     1      -1.634   3.809   1.299  1.00  0.00     0.258 S 
HETATM   26  O3  UNL     1      -1.310   4.155   2.780  1.00  0.00    -0.203 OA
HETATM   27  O4  UNL     1      -0.710   4.792   0.559  1.00  0.00    -0.203 OA
BRANCH  25  28
HETATM   28  C15 UNL     1      -3.261   4.431   1.062  1.00  0.00     0.320 C 
HETATM   29 CL1  UNL     1      -3.191   6.236   1.358  1.00  0.00    -0.089 Cl
HETATM   30 CL2  UNL     1      -4.303   3.807   2.353  1.00  0.00    -0.089 Cl
ENDBRANCH  25  28
ENDBRANCH  23  25
ENDBRANCH   1  23
TORSDOF 7
