REMARK  3 active torsions:
REMARK  status: ('A' for Active; 'I' for Inactive)
REMARK    1  A    between atoms: C1_4  and  N2_5 
REMARK    2  A    between atoms: C1_4  and  C3_10 
REMARK    3  A    between atoms: C3_10  and  N5_11 
ROOT
HETATM    1  C3  UNL     1      -1.166  -0.059   0.101  1.00  0.00     0.335 A 
HETATM    2  N6  UNL     1      -2.213   0.732  -0.513  1.00  0.00    -0.340 N 
ATOM      3  H6  UNL     1      -2.364   0.801  -1.519  1.00  0.00     0.163 HD
HETATM    4  C4  UNL     1      -2.928   1.336   0.368  1.00  0.00     0.181 A 
HETATM    5  N7  UNL     1      -2.476   1.048   1.672  1.00  0.00    -0.319 N 
ATOM      6  H7  UNL     1      -2.869   1.401   2.544  1.00  0.00     0.169 HD
HETATM    7  C5  UNL     1      -1.372   0.174   1.536  1.00  0.00     0.287 A 
HETATM    8  O1  UNL     1      -0.697  -0.306   2.509  1.00  0.00    -0.268 OA
ENDROOT
BRANCH   1   9
HETATM    9  C1  UNL     1       0.180   0.432  -0.265  1.00  0.00     0.144 C 
HETATM   10  N1  UNL     1       0.283   1.406  -1.080  1.00  0.00    -0.385 N 
ATOM     11  H12 UNL     1       1.211   1.745  -1.332  1.00  0.00     0.157 HD
ATOM     12  H11 UNL     1      -0.548   1.845  -1.478  1.00  0.00     0.157 HD
BRANCH   9  13
HETATM   13  N2  UNL     1       1.324  -0.172   0.283  1.00  0.00    -0.319 N 
HETATM   14  C2  UNL     1       2.427  -0.374  -0.326  1.00  0.00     0.202 C 
HETATM   15  N3  UNL     1       3.497  -0.996   0.354  1.00  0.00    -0.066 NA
HETATM   16  N4  UNL     1       2.551   0.030  -1.673  1.00  0.00    -0.066 NA
ATOM     17  H2  UNL     1       1.268  -0.476   1.255  1.00  0.00     0.169 HD
ENDBRANCH   9  13
ENDBRANCH   1   9
BRANCH   1  18
HETATM   18  N5  UNL     1      -1.345  -1.457  -0.261  1.00  0.00    -0.036 N 
ATOM     19  H53 UNL     1      -1.148  -1.614  -1.249  1.00  0.00     0.278 HD
ATOM     20  H52 UNL     1      -0.613  -2.042   0.142  1.00  0.00     0.278 HD
ATOM     21  H51 UNL     1      -2.273  -1.796  -0.009  1.00  0.00     0.278 HD
ENDBRANCH   1  18
TORSDOF 3
