REMARK  0 active torsions:
REMARK  status: ('A' for Active; 'I' for Inactive)
REMARK       I    between atoms: N3_4  and  C2_6 
REMARK       I    between atoms: C2_6  and  N4_8 
REMARK       I    between atoms: C3_10  and  N6_12 
REMARK       I    between atoms: N6_12  and  C4_14 
ROOT
HETATM    1  N1  UNL     1       2.825   0.753  -0.184  1.00  0.00    -0.066 NA
HETATM    2  C1  UNL     1       2.377  -0.454   0.383  1.00  0.00     0.204 C 
HETATM    3  N2  UNL     1       3.048  -1.044   1.475  1.00  0.00    -0.066 NA
HETATM    4  N3  UNL     1       1.340  -1.027  -0.102  1.00  0.00    -0.285 N 
ATOM      5  H3  UNL     1       1.031  -1.901   0.323  1.00  0.00     0.172 HD
HETATM    6  C2  UNL     1       0.597  -0.517  -1.196  1.00  0.00     0.328 C 
HETATM    7  O1  UNL     1       0.884  -0.874  -2.365  1.00  0.00    -0.247 OA
HETATM    8  N4  UNL     1      -0.477   0.396  -1.034  1.00  0.00    -0.282 N 
ATOM      9  H4  UNL     1      -0.448   1.265  -1.567  1.00  0.00     0.173 HD
HETATM   10  C3  UNL     1      -1.475   0.201  -0.266  1.00  0.00     0.201 C 
HETATM   11  N5  UNL     1      -1.594  -0.965   0.501  1.00  0.00    -0.063 NA
HETATM   12  N6  UNL     1      -2.487   1.227  -0.211  1.00  0.00    -0.275 N 
ATOM     13  H6  UNL     1      -2.390   2.073  -0.773  1.00  0.00     0.174 HD
HETATM   14  C4  UNL     1      -3.613   1.056   0.625  1.00  0.00     0.290 C 
HETATM   15  O2  UNL     1      -3.776   0.021   1.344  1.00  0.00    -0.629 OA
HETATM   16  O3  UNL     1      -4.591   2.028   0.690  1.00  0.00    -0.629 OA
ENDROOT
TORSDOF 0
