REMARK  6 active torsions:
REMARK  status: ('A' for Active; 'I' for Inactive)
REMARK    1  A    between atoms: C2_2  and  O2_4 
REMARK    2  A    between atoms: O2_4  and  C3_5 
REMARK    3  A    between atoms: C5_9  and  O5_10 
REMARK    4  A    between atoms: O5_10  and  S1_11 
REMARK    5  A    between atoms: S1_11  and  N1_12 
REMARK    6  A    between atoms: C6_17  and  O8_18 
ROOT
HETATM    1  C3  UNL     1      -1.023   0.359   0.359  1.00  0.00     0.192 C 
HETATM    2  C4  UNL     1      -0.811   1.828   0.071  1.00  0.00     0.245 C 
HETATM    3  O3  UNL     1       0.266   2.293   0.805  1.00  0.00    -0.236 OA
HETATM    4  O4  UNL     1       0.868   1.326   1.486  1.00  0.00    -0.204 OA
HETATM    5  C5  UNL     1       1.389   0.441   0.548  1.00  0.00     0.348 C 
HETATM    6  C6  UNL     1       0.233  -0.413   0.067  1.00  0.00     0.209 C 
ENDROOT
BRANCH   5   7
HETATM    7  O5  UNL     1       2.435  -0.311   1.034  1.00  0.00    -0.221 OA
BRANCH   7   8
HETATM    8  S1  UNL     1       3.860  -0.124   0.217  1.00  0.00     0.358 S 
HETATM    9  O6  UNL     1       4.592   1.138   0.606  1.00  0.00    -0.176 OA
HETATM   10  O7  UNL     1       4.770  -1.291   0.550  1.00  0.00    -0.176 OA
BRANCH   8  11
HETATM   11  N1  UNL     1       3.528  -0.123  -1.478  1.00  0.00    -0.306 N 
ATOM     12  H12 UNL     1       2.601  -0.222  -1.891  1.00  0.00     0.171 HD
ATOM     13  H11 UNL     1       4.407  -0.008  -1.982  1.00  0.00     0.171 HD
ENDBRANCH   8  11
ENDBRANCH   7   8
ENDBRANCH   5   7
BRANCH   6  14
HETATM   14  O8  UNL     1       0.203  -1.635   0.766  1.00  0.00    -0.388 OA
ATOM     15  H8  UNL     1       0.997  -2.123   0.581  1.00  0.00     0.210 HD
ENDBRANCH   6  14
BRANCH   1  16
HETATM   16  O2  UNL     1      -2.170  -0.160  -0.231  1.00  0.00    -0.311 OA
BRANCH  16  17
HETATM   17  C2  UNL     1      -3.262  -0.651   0.474  1.00  0.00     0.255 C 
HETATM   18  C1  UNL     1      -4.471  -1.198  -0.157  1.00  0.00     0.126 C 
HETATM   19  O1  UNL     1      -3.163  -0.603   1.729  1.00  0.00    -0.266 OA
ENDBRANCH  16  17
ENDBRANCH   1  16
TORSDOF 6
