REMARK  10 active torsions:
REMARK  status: ('A' for Active; 'I' for Inactive)
REMARK    1  A    between atoms: C2_2  and  C3_3 
REMARK    2  A    between atoms: C3_3  and  C5_5 
REMARK    3  A    between atoms: C11_12  and  O2_13 
REMARK    4  A    between atoms: C15_18  and  C16_19 
REMARK    5  A    between atoms: C19_22  and  O3_23 
REMARK    6  A    between atoms: C21_26  and  O4_27 
REMARK    7  A    between atoms: C23_31  and  C24_32 
REMARK    8  A    between atoms: C26_34  and  C27_35 
REMARK    9  A    between atoms: C27_35  and  O6_36 
REMARK   10  A    between atoms: C27_35  and  C28_38 
ROOT
HETATM    1  C5  UNL     1       0.234  -1.507   0.468  1.00  0.00    -0.021 C 
HETATM    2  C6  UNL     1       0.471  -0.883   1.788  1.00  0.00     0.012 C 
HETATM    3  C7  UNL     1       0.129   0.608   1.945  1.00  0.00     0.024 C 
HETATM    4  C8  UNL     1      -0.884   0.709   0.876  1.00  0.00     0.082 C 
HETATM    5  C9  UNL     1      -1.834  -0.206   1.551  1.00  0.00     0.144 C 
HETATM    6  O1  UNL     1      -1.933  -0.092   2.783  1.00  0.00    -0.297 OA
HETATM    7  C10 UNL     1      -2.749  -1.278   1.171  1.00  0.00     0.118 C 
HETATM    8  C11 UNL     1      -2.332  -1.126  -0.317  1.00  0.00     0.081 C 
HETATM    9  C12 UNL     1      -1.034  -1.747  -0.208  1.00  0.00     0.050 C 
HETATM   10  C13 UNL     1      -2.721   0.206  -0.766  1.00  0.00     0.070 C 
HETATM   11  C14 UNL     1      -3.847   0.008  -1.819  1.00  0.00     0.029 C 
HETATM   12  C15 UNL     1      -3.193   1.326   0.063  1.00  0.00    -0.023 C 
HETATM   13  C19 UNL     1      -1.845   1.813   0.632  1.00  0.00     0.105 C 
HETATM   14  C20 UNL     1      -1.421   2.337  -0.750  1.00  0.00     0.113 C 
HETATM   15  C21 UNL     1      -1.720   1.047  -1.551  1.00  0.00     0.179 C 
HETATM   16  O5  UNL     1      -0.514   0.540  -1.568  1.00  0.00    -0.347 OA
HETATM   17  C22 UNL     1      -0.036   0.514  -0.272  1.00  0.00     0.153 C 
HETATM   18  C23 UNL     1       0.993  -0.606  -0.426  1.00  0.00     0.053 C 
ENDROOT
BRANCH  18  19
HETATM   19  C24 UNL     1       2.370  -0.268  -0.517  1.00  0.00    -0.077 C 
HETATM   20  C25 UNL     1       2.511   0.698  -1.672  1.00  0.00     0.043 C 
HETATM   21  C26 UNL     1       3.417  -0.075   0.422  1.00  0.00     0.012 C 
BRANCH  21  22
HETATM   22  C27 UNL     1       4.762   0.329  -0.096  1.00  0.00     0.169 C 
BRANCH  22  23
HETATM   23  O6  UNL     1       5.648   0.266   1.127  1.00  0.00    -0.387 OA
ATOM     24  H6  UNL     1       6.502   0.522   0.798  1.00  0.00     0.210 HD
ENDBRANCH  22  23
BRANCH  22  25
HETATM   25  C28 UNL     1       4.976   1.773  -0.357  1.00  0.00    -0.061 C 
HETATM   26  C29 UNL     1       4.254   2.723   0.148  1.00  0.00     0.017 C 
HETATM   27  C30 UNL     1       6.161   2.132  -1.186  1.00  0.00     0.045 C 
ENDBRANCH  22  25
ENDBRANCH  21  22
ENDBRANCH  18  19
BRANCH   1  28
HETATM   28  C3  UNL     1       0.968  -2.842   0.539  1.00  0.00     0.012 C 
HETATM   29  C4  UNL     1       0.545  -3.672   1.741  1.00  0.00     0.015 C 
BRANCH  28  30
HETATM   30  C2  UNL     1       0.847  -3.692  -0.637  1.00  0.00    -0.032 C 
HETATM   31  C1  UNL     1       1.938  -4.076  -1.272  1.00  0.00     0.007 C 
ENDBRANCH  28  30
ENDBRANCH   1  28
BRANCH   8  32
HETATM   32  O2  UNL     1      -3.193  -2.098  -0.918  1.00  0.00    -0.388 OA
ATOM     33  H2  UNL     1      -2.938  -2.005  -1.828  1.00  0.00     0.210 HD
ENDBRANCH   8  32
BRANCH  13  34
HETATM   34  O3  UNL     1      -1.952   2.766   1.570  1.00  0.00    -0.384 OA
ATOM     35  H3  UNL     1      -2.567   3.473   1.414  1.00  0.00     0.211 HD
ENDBRANCH  13  34
BRANCH  15  36
HETATM   36  O4  UNL     1      -2.115   1.459  -2.787  1.00  0.00    -0.364 OA
ATOM     37  H4  UNL     1      -1.491   1.983  -3.276  1.00  0.00     0.213 HD
ENDBRANCH  15  36
BRANCH  12  38
HETATM   38  C16 UNL     1      -4.434   1.650   0.597  1.00  0.00    -0.065 C 
HETATM   39  C17 UNL     1      -5.391   2.225  -0.145  1.00  0.00     0.019 C 
HETATM   40  C18 UNL     1      -4.827   1.478   2.000  1.00  0.00     0.047 C 
ENDBRANCH  12  38
TORSDOF 10
