REMARK  9 active torsions:
REMARK  status: ('A' for Active; 'I' for Inactive)
REMARK    1  A    between atoms: O1_1  and  C1_3 
REMARK    2  A    between atoms: C1_3  and  C2_4 
REMARK    3  A    between atoms: C1_3  and  N6_30 
REMARK    4  A    between atoms: C5_7  and  N1_8 
REMARK    5  A    between atoms: N1_8  and  C6_10 
REMARK    6  A    between atoms: C9_15  and  N3_16 
REMARK    7  A    between atoms: N3_16  and  C10_18 
REMARK    8  A    between atoms: C10_18  and  C11_19 
REMARK    9  A    between atoms: N7_33  and  C20_34 
ROOT
HETATM    1  C2  UNL     1       1.406  -0.998  -1.922  1.00  0.00     0.015 A 
HETATM    2  C3  UNL     1       0.506  -1.984  -2.380  1.00  0.00     0.018 A 
HETATM    3  C4  UNL     1      -0.820  -1.737  -2.594  1.00  0.00     0.031 A 
HETATM    4  C5  UNL     1      -1.283  -0.466  -2.347  1.00  0.00     0.049 A 
HETATM    5  C16 UNL     1      -0.456   0.536  -1.900  1.00  0.00     0.031 A 
HETATM    6  C17 UNL     1       0.908   0.263  -1.685  1.00  0.00     0.018 A 
ENDROOT
BRANCH   4   7
HETATM    7  N1  UNL     1      -2.663  -0.154  -2.556  1.00  0.00    -0.192 N 
ATOM      8  H1  UNL     1      -2.988   0.282  -3.419  1.00  0.00     0.184 HD
BRANCH   7   9
HETATM    9  C6  UNL     1      -3.477  -0.451  -1.598  1.00  0.00     0.684 A 
HETATM   10  N2  UNL     1      -3.097  -1.023  -0.445  1.00  0.00    -0.202 N 
HETATM   11  C7  UNL     1      -3.953  -1.327   0.538  1.00  0.00     0.110 A 
ATOM     12  H2  UNL     1      -2.109  -1.236  -0.311  1.00  0.00     0.183 HD
HETATM   13  C8  UNL     1      -5.301  -1.038   0.358  1.00  0.00     0.066 A 
HETATM   14  C9  UNL     1      -5.704  -0.452  -0.818  1.00  0.00     0.118 A 
HETATM   15  N5  UNL     1      -4.781  -0.175  -1.763  1.00  0.00    -0.177 N 
ATOM     16  H5  UNL     1      -5.085   0.260  -2.634  1.00  0.00     0.186 HD
BRANCH  14  17
HETATM   17  N3  UNL     1      -6.962  -0.171  -1.016  1.00  0.00    -0.372 N 
ATOM     18  H3  UNL     1      -7.236   0.264  -1.897  1.00  0.00     0.161 HD
BRANCH  17  19
HETATM   19  C10 UNL     1      -7.979  -0.454  -0.034  1.00  0.00     0.160 C 
BRANCH  19  20
HETATM   20  C11 UNL     1      -8.029   0.557   1.049  1.00  0.00    -0.038 A 
HETATM   21  C12 UNL     1      -8.901   0.390   2.107  1.00  0.00     0.025 A 
HETATM   22  C13 UNL     1      -8.964   1.324   3.130  1.00  0.00     0.088 A 
HETATM   23  N4  UNL     1      -8.187   2.420   3.131  1.00  0.00    -0.375 N 
HETATM   24  C14 UNL     1      -7.324   2.597   2.096  1.00  0.00     0.088 A 
ATOM     25  H4  UNL     1      -8.243   3.101   3.888  1.00  0.00     0.164 HD
HETATM   26  C15 UNL     1      -7.243   1.688   1.074  1.00  0.00     0.025 A 
ENDBRANCH  19  20
ENDBRANCH  17  19
ENDBRANCH  14  17
ENDBRANCH   7   9
ENDBRANCH   4   7
BRANCH   1  27
HETATM   27  C1  UNL     1       2.775  -1.360  -1.729  1.00  0.00     0.148 C 
BRANCH  27  28
HETATM   28  O1  UNL     1       3.035  -2.614  -2.008  1.00  0.00    -0.346 OA
ATOM     29  H1  UNL     1       3.945  -2.855  -1.880  1.00  0.00     0.219 HD
ENDBRANCH  27  28
BRANCH  27  30
HETATM   30  N6  UNL     1       3.882  -0.627  -1.300  1.00  0.00    -0.358 N 
HETATM   31  C18 UNL     1       4.008   0.731  -0.913  1.00  0.00     0.145 C 
HETATM   32  C19 UNL     1       5.427   1.103  -0.476  1.00  0.00     0.144 C 
HETATM   33  N7  UNL     1       6.006   0.114   0.375  1.00  0.00    -0.364 N 
HETATM   34  C25 UNL     1       5.566  -1.258   0.247  1.00  0.00     0.144 C 
HETATM   35  C26 UNL     1       5.168  -1.389  -1.231  1.00  0.00     0.145 C 
BRANCH  33  36
HETATM   36  C20 UNL     1       6.996   0.420   1.336  1.00  0.00     0.102 A 
HETATM   37  C21 UNL     1       7.502   1.704   1.482  1.00  0.00     0.048 A 
HETATM   38  C22 UNL     1       8.464   1.996   2.420  1.00  0.00     0.005 A 
HETATM   39  C23 UNL     1       8.904   0.958   3.212  1.00  0.00     0.017 A 
HETATM   40  C24 UNL     1       8.421  -0.327   3.090  1.00  0.00     0.089 A 
HETATM   41  N8  UNL     1       7.483  -0.553   2.157  1.00  0.00    -0.352 N 
ATOM     42  H8  UNL     1       7.116  -1.500   2.057  1.00  0.00     0.166 HD
ENDBRANCH  33  36
ENDBRANCH  27  30
ENDBRANCH   1  27
TORSDOF 9
