REMARK  4 active torsions:
REMARK  status: ('A' for Active; 'I' for Inactive)
REMARK    1  A    between atoms: N1_1  and  C1_5 
REMARK    2  A    between atoms: C1_5  and  C2_6 
REMARK    3  A    between atoms: N2_7  and  C3_9 
REMARK    4  A    between atoms: C6_12  and  C7_13 
ROOT
HETATM    1  C3  UNL     1      -1.348  -1.025   0.258  1.00  0.00     0.119 A 
HETATM    2  C4  UNL     1      -1.072   0.266  -0.112  1.00  0.00     0.052 A 
HETATM    3  C5  UNL     1       0.256   0.659  -0.169  1.00  0.00     0.035 A 
HETATM    4  C6  UNL     1       1.312  -0.170   0.125  1.00  0.00     0.058 A 
HETATM    5  N3  UNL     1       0.960  -1.432   0.483  1.00  0.00    -0.298 N 
ATOM      6  H3  UNL     1       1.702  -2.094   0.713  1.00  0.00     0.187 HD
HETATM    7  N4  UNL     1      -0.268  -1.840   0.548  1.00  0.00    -0.285 N 
ATOM      8  H4  UNL     1      -0.447  -2.805   0.825  1.00  0.00     0.188 HD
ENDROOT
BRANCH   1   9
HETATM    9  N2  UNL     1      -2.498  -1.462   0.335  1.00  0.00    -0.353 N 
HETATM   10  C2  UNL     1      -3.834  -1.226   0.205  1.00  0.00     0.089 C 
ATOM     11  H2  UNL     1      -2.411  -2.436   0.626  1.00  0.00     0.166 HD
BRANCH  10  12
HETATM   12  C1  UNL     1      -4.279   0.163  -0.175  1.00  0.00     0.274 C 
BRANCH  12  13
HETATM   13  N1  UNL     1      -5.743   0.233  -0.266  1.00  0.00    -0.075 N 
ATOM     14  H13 UNL     1      -6.116  -0.471  -0.903  1.00  0.00     0.274 HD
ATOM     15  H12 UNL     1      -6.191  -0.085   0.593  1.00  0.00     0.274 HD
ATOM     16  H11 UNL     1      -6.044   1.173  -0.523  1.00  0.00     0.274 HD
ENDBRANCH  12  13
ENDBRANCH  10  12
ENDBRANCH   1   9
BRANCH   4  17
HETATM   17  C7  UNL     1       2.710   0.234   0.068  1.00  0.00    -0.008 A 
HETATM   18  C8  UNL     1       3.707  -0.675   0.383  1.00  0.00     0.014 A 
HETATM   19  C9  UNL     1       5.048  -0.372   0.354  1.00  0.00     0.001 A 
HETATM   20  C10 UNL     1       5.410   0.902  -0.007  1.00  0.00     0.000 A 
HETATM   21  C11 UNL     1       4.469   1.837  -0.327  1.00  0.00     0.001 A 
HETATM   22  C12 UNL     1       3.112   1.494  -0.287  1.00  0.00     0.014 A 
ENDBRANCH   4  17
TORSDOF 4
