REMARK  15 active torsions:
REMARK  status: ('A' for Active; 'I' for Inactive)
REMARK    1  A    between atoms: C2_2  and  C3_3 
REMARK    2  A    between atoms: C3_3  and  C4_4 
REMARK    3  A    between atoms: C4_4  and  C5_5 
REMARK    4  A    between atoms: C5_5  and  C6_6 
REMARK    5  A    between atoms: C6_6  and  C7_7 
REMARK    6  A    between atoms: C7_7  and  C8_8 
REMARK    7  A    between atoms: C8_8  and  C9_9 
REMARK    8  A    between atoms: C9_9  and  C10_10 
REMARK    9  A    between atoms: C10_10  and  C11_11 
REMARK   10  A    between atoms: C11_11  and  C12_12 
REMARK   11  A    between atoms: C12_12  and  N1_13 
REMARK   12  A    between atoms: N1_13  and  C13_14 
REMARK   13  A    between atoms: C13_14  and  C14_15 
REMARK   14  A    between atoms: C14_15  and  N2_16 
REMARK       I    between atoms: N2_16  and  C15_18 
REMARK   15  A    between atoms: N7_29  and  C18_30 
ROOT
HETATM    1  N1  UNL     1      -1.503   1.113   0.559  1.00  0.00     0.152 N 
HETATM    2  N5  UNL     1      -2.287   0.461  -0.458  1.00  0.00    -0.021 N 
ATOM      3  H5  UNL     1      -2.199   0.811  -1.412  1.00  0.00     0.215 HD
HETATM    4  C17 UNL     1      -3.171  -0.627  -0.245  1.00  0.00     0.697 C 
HETATM    5  N6  UNL     1      -4.084  -0.790  -1.151  1.00  0.00    -0.233 N 
ATOM      6  H61 UNL     1      -4.720  -1.573  -0.998  1.00  0.00     0.174 HD
ATOM      7  H62 UNL     1      -4.071  -0.117  -1.917  1.00  0.00     0.174 HD
HETATM    8  N7  UNL     1      -3.189  -1.564   0.822  1.00  0.00    -0.208 N 
HETATM    9  C24 UNL     1      -2.632  -1.425   2.142  1.00  0.00     0.170 C 
HETATM   10  C25 UNL     1      -1.696  -0.303   2.358  1.00  0.00     0.230 C 
HETATM   11  O1  UNL     1      -0.990   0.150   1.273  1.00  0.00    -0.181 OA
ENDROOT
BRANCH   1  12
HETATM   12  C12 UNL     1      -0.531   1.954  -0.046  1.00  0.00     0.304 C 
BRANCH  12  13
HETATM   13  C11 UNL     1       0.900   1.539  -0.043  1.00  0.00     0.033 C 
BRANCH  13  14
HETATM   14  C10 UNL     1       1.574   1.414   1.264  1.00  0.00     0.002 C 
BRANCH  14  15
HETATM   15  C9  UNL     1       3.054   1.018   1.113  1.00  0.00     0.000 C 
BRANCH  15  16
HETATM   16  C8  UNL     1       3.243  -0.285   0.423  1.00  0.00     0.000 C 
BRANCH  16  17
HETATM   17  C7  UNL     1       4.708  -0.666   0.287  1.00  0.00     0.000 C 
BRANCH  17  18
HETATM   18  C6  UNL     1       5.495   0.322  -0.483  1.00  0.00     0.000 C 
BRANCH  18  19
HETATM   19  C5  UNL     1       6.960  -0.140  -0.539  1.00  0.00     0.000 C 
BRANCH  19  20
HETATM   20  C4  UNL     1       7.149  -1.449  -1.197  1.00  0.00     0.000 C 
BRANCH  20  21
HETATM   21  C3  UNL     1       8.524  -1.951  -1.363  1.00  0.00    -0.000 C 
BRANCH  21  22
HETATM   22  C2  UNL     1       9.374  -2.196  -0.182  1.00  0.00    -0.005 C 
HETATM   23  C1  UNL     1       9.723  -1.042   0.682  1.00  0.00     0.005 C 
ENDBRANCH  21  22
ENDBRANCH  20  21
ENDBRANCH  19  20
ENDBRANCH  18  19
ENDBRANCH  17  18
ENDBRANCH  16  17
ENDBRANCH  15  16
ENDBRANCH  14  15
ENDBRANCH  13  14
ENDBRANCH  12  13
ENDBRANCH   1  12
BRANCH   1  24
HETATM   24  C13 UNL     1      -2.480   1.938   1.253  1.00  0.00     0.323 C 
BRANCH  24  25
HETATM   25  C14 UNL     1      -3.115   2.855   0.206  1.00  0.00     0.155 C 
BRANCH  25  26
HETATM   26  N2  UNL     1      -4.090   3.696   0.836  1.00  0.00    -0.363 N 
HETATM   27  C15 UNL     1      -4.852   4.659   0.110  1.00  0.00     0.183 C 
HETATM   28  N3  UNL     1      -4.471   6.031   0.060  1.00  0.00    -0.064 NA
HETATM   29  N4  UNL     1      -5.902   4.263  -0.505  1.00  0.00    -0.369 N 
HETATM   30  C16 UNL     1      -6.691   5.208  -1.245  1.00  0.00     0.148 C 
ATOM     31  H4  UNL     1      -6.177   3.281  -0.470  1.00  0.00     0.161 HD
ATOM     32  H2  UNL     1      -4.245   3.602   1.840  1.00  0.00     0.162 HD
ENDBRANCH  25  26
ENDBRANCH  24  25
ENDBRANCH   1  24
BRANCH   8  33
HETATM   33  C18 UNL     1      -3.855  -2.812   0.551  1.00  0.00     0.127 A 
HETATM   34  C19 UNL     1      -3.317  -3.559  -0.641  1.00  0.00     0.104 A 
HETATM   35  C20 UNL     1      -4.562  -3.967  -1.337  1.00  0.00     0.085 A 
HETATM   36  N8  UNL     1      -4.964  -4.657  -2.416  1.00  0.00    -0.354 N 
HETATM   37  N9  UNL     1      -5.649  -3.523  -0.727  1.00  0.00    -0.343 N 
HETATM   38  C21 UNL     1      -6.294  -4.652  -2.491  1.00  0.00     0.106 A 
ATOM     39  H8  UNL     1      -4.342  -5.117  -3.081  1.00  0.00     0.166 HD
HETATM   40  C22 UNL     1      -6.736  -3.929  -1.414  1.00  0.00     0.109 A 
HETATM   41  C23 UNL     1      -5.336  -2.755   0.465  1.00  0.00     0.156 A 
ENDBRANCH   8  33
TORSDOF 15
