REMARK  14 active torsions:
REMARK  status: ('A' for Active; 'I' for Inactive)
REMARK    1  A    between atoms: C2_2  and  C3_3 
REMARK    2  A    between atoms: C3_3  and  C4_4 
REMARK    3  A    between atoms: C4_4  and  C5_5 
REMARK    4  A    between atoms: C5_5  and  C6_6 
REMARK    5  A    between atoms: C6_6  and  C7_7 
REMARK    6  A    between atoms: C7_7  and  C8_8 
REMARK    7  A    between atoms: C8_8  and  C9_9 
REMARK    8  A    between atoms: C9_9  and  N1_10 
REMARK       I    between atoms: C10_12  and  N3_14 
REMARK    9  A    between atoms: C14_20  and  C15_21 
REMARK   10  A    between atoms: C15_21  and  N5_22 
REMARK   11  A    between atoms: N6_25  and  C18_26 
REMARK   12  A    between atoms: C18_26  and  C19_27 
REMARK   13  A    between atoms: C19_27  and  C20_28 
REMARK   14  A    between atoms: C20_28  and  N7_29 
REMARK       I    between atoms: N7_29  and  C21_31 
ROOT
HETATM    1  N1  UNL     1       2.568  -0.506  -0.002  1.00  0.00    -0.364 N 
ATOM      2  H1  UNL     1       2.454  -0.217  -0.974  1.00  0.00     0.162 HD
HETATM    3  C10 UNL     1       1.916   0.138   0.891  1.00  0.00     0.187 C 
HETATM    4  N2  UNL     1       2.052  -0.238   2.244  1.00  0.00    -0.064 NA
HETATM    5  N3  UNL     1       1.068   1.209   0.558  1.00  0.00    -0.343 N 
HETATM    6  C11 UNL     1       1.420   2.559   0.871  1.00  0.00     0.170 C 
HETATM    7  C12 UNL     1       1.507   3.320  -0.432  1.00  0.00     0.075 C 
HETATM    8  N4  UNL     1       0.440   3.057  -1.314  1.00  0.00    -0.399 N 
ATOM      9  H4  UNL     1       0.023   3.808  -1.864  1.00  0.00     0.158 HD
HETATM   10  C13 UNL     1      -0.045   1.725  -1.423  1.00  0.00     0.145 C 
HETATM   11  C14 UNL     1      -0.227   0.967  -0.133  1.00  0.00     0.131 C 
ENDROOT
BRANCH  11  12
HETATM   12  C15 UNL     1      -1.289   1.391   0.773  1.00  0.00     0.264 C 
BRANCH  12  13
HETATM   13  N5  UNL     1      -2.661   1.236   0.522  1.00  0.00    -0.056 N 
HETATM   14  C16 UNL     1      -3.109   0.403  -0.526  1.00  0.00     0.266 C 
HETATM   15  C17 UNL     1      -4.614   0.626  -0.769  1.00  0.00     0.265 C 
HETATM   16  N6  UNL     1      -5.247   0.930   0.464  1.00  0.00    -0.062 N 
HETATM   17  C22 UNL     1      -4.622   0.052   1.461  1.00  0.00     0.265 C 
HETATM   18  C24 UNL     1      -4.773   2.272   0.893  1.00  0.00     0.270 C 
HETATM   19  C23 UNL     1      -3.243   0.569   1.759  1.00  0.00     0.266 C 
HETATM   20  C25 UNL     1      -3.334   2.514   0.538  1.00  0.00     0.212 C 
HETATM   21  C26 UNL     1      -3.166   3.373  -0.657  1.00  0.00     0.042 C 
BRANCH  16  22
HETATM   22  C18 UNL     1      -6.644   1.011   0.519  1.00  0.00     0.239 C 
BRANCH  22  23
HETATM   23  C19 UNL     1      -7.527   0.126  -0.241  1.00  0.00     0.048 C 
BRANCH  23  24
HETATM   24  C20 UNL     1      -7.408  -1.330   0.095  1.00  0.00     0.124 C 
BRANCH  24  25
HETATM   25  N7  UNL     1      -8.338  -2.118  -0.705  1.00  0.00    -0.365 N 
HETATM   26  C21 UNL     1      -8.428  -3.497  -0.584  1.00  0.00     0.181 C 
HETATM   27  N8  UNL     1      -7.999  -4.097   0.463  1.00  0.00    -0.374 N 
HETATM   28  N9  UNL     1      -9.000  -4.267  -1.623  1.00  0.00    -0.064 NA
ATOM     29  H82 UNL     1      -7.586  -3.542   1.212  1.00  0.00     0.158 HD
ATOM     30  H81 UNL     1      -8.065  -5.111   0.552  1.00  0.00     0.158 HD
ATOM     31  H7  UNL     1      -8.941  -1.640  -1.375  1.00  0.00     0.162 HD
ENDBRANCH  24  25
ENDBRANCH  23  24
ENDBRANCH  22  23
ENDBRANCH  16  22
ENDBRANCH  12  13
ENDBRANCH  11  12
BRANCH   1  32
HETATM   32  C9  UNL     1       3.449  -1.607   0.269  1.00  0.00     0.122 C 
BRANCH  32  33
HETATM   33  C8  UNL     1       4.458  -1.705  -0.836  1.00  0.00     0.020 C 
BRANCH  33  34
HETATM   34  C7  UNL     1       5.441  -2.814  -0.680  1.00  0.00     0.002 C 
BRANCH  34  35
HETATM   35  C6  UNL     1       6.275  -2.757   0.544  1.00  0.00     0.000 C 
BRANCH  35  36
HETATM   36  C5  UNL     1       7.116  -1.507   0.649  1.00  0.00     0.000 C 
BRANCH  36  37
HETATM   37  C4  UNL     1       8.072  -1.346  -0.485  1.00  0.00     0.000 C 
BRANCH  37  38
HETATM   38  C3  UNL     1       8.849  -0.065  -0.264  1.00  0.00    -0.000 C 
BRANCH  38  39
HETATM   39  C2  UNL     1       9.847   0.181  -1.374  1.00  0.00    -0.005 C 
HETATM   40  C1  UNL     1      10.862  -0.909  -1.508  1.00  0.00     0.005 C 
ENDBRANCH  38  39
ENDBRANCH  37  38
ENDBRANCH  36  37
ENDBRANCH  35  36
ENDBRANCH  34  35
ENDBRANCH  33  34
ENDBRANCH  32  33
ENDBRANCH   1  32
TORSDOF 14
