REMARK  9 active torsions:
REMARK  status: ('A' for Active; 'I' for Inactive)
REMARK    1  A    between atoms: O1_2  and  C2_3 
REMARK       I    between atoms: C2_3  and  N1_5 
REMARK    2  A    between atoms: N1_5  and  C3_7 
REMARK    3  A    between atoms: C9_15  and  C10_16 
REMARK    4  A    between atoms: C10_16  and  C11_17 
REMARK    5  A    between atoms: C11_17  and  C12_18 
REMARK    6  A    between atoms: C12_18  and  C13_19 
REMARK    7  A    between atoms: C14_21  and  O4_22 
REMARK    8  A    between atoms: C15_24  and  O5_25 
REMARK    9  A    between atoms: O5_25  and  C16_26 
ROOT
HETATM    1  C3  UNL     1       1.339  -0.445  -0.423  1.00  0.00     0.158 C 
HETATM    2  C4  UNL     1      -0.050  -0.570  -0.923  1.00  0.00    -0.021 C 
HETATM    3  C5  UNL     1      -0.281  -1.723  -1.484  1.00  0.00    -0.019 C 
HETATM    4  C6  UNL     1      -1.494  -2.286  -2.116  1.00  0.00     0.031 C 
HETATM    5  C7  UNL     1      -1.964  -1.294  -3.141  1.00  0.00     0.047 C 
HETATM    6  C8  UNL     1      -2.409   0.023  -2.620  1.00  0.00     0.194 C 
HETATM    7 BR1  UNL     1      -4.383  -0.024  -2.810  1.00  0.00    -0.061 Br
HETATM    8  O3  UNL     1      -2.184   0.392  -1.382  1.00  0.00    -0.357 OA
HETATM    9  C9  UNL     1      -1.002   0.579  -0.779  1.00  0.00     0.116 C 
HETATM   10  C14 UNL     1      -0.301   1.865  -1.224  1.00  0.00     0.190 C 
HETATM   11  C15 UNL     1       1.038   2.075  -0.643  1.00  0.00     0.203 C 
HETATM   12  C18 UNL     1       1.830   0.919  -0.216  1.00  0.00     0.135 A 
HETATM   13  C19 UNL     1       2.837   1.102   0.916  1.00  0.00     0.212 A 
HETATM   14  O7  UNL     1       3.274   1.054  -0.384  1.00  0.00    -0.369 OA
ENDROOT
BRANCH   1  15
HETATM   15  N1  UNL     1       1.649  -1.257   0.730  1.00  0.00    -0.325 N 
HETATM   16  C2  UNL     1       2.557  -2.335   0.716  1.00  0.00     0.360 C 
HETATM   17  O2  UNL     1       3.182  -2.687  -0.308  1.00  0.00    -0.239 OA
ATOM     18  H1  UNL     1       1.182  -1.037   1.610  1.00  0.00     0.165 HD
BRANCH  16  19
HETATM   19  O1  UNL     1       2.783  -3.052   1.875  1.00  0.00    -0.309 OA
HETATM   20  C1  UNL     1       3.700  -4.145   1.875  1.00  0.00     0.215 C 
ENDBRANCH  16  19
ENDBRANCH   1  15
BRANCH   9  21
HETATM   21  C10 UNL     1      -1.259   0.775   0.688  1.00  0.00     0.046 C 
BRANCH  21  22
HETATM   22  C11 UNL     1      -1.877  -0.320   1.461  1.00  0.00     0.004 C 
BRANCH  22  23
HETATM   23  C12 UNL     1      -3.266  -0.725   1.077  1.00  0.00     0.011 C 
BRANCH  23  24
HETATM   24  C13 UNL     1      -3.670  -1.860   2.037  1.00  0.00     0.085 C 
HETATM   25 BR2  UNL     1      -3.596  -1.151   3.819  1.00  0.00    -0.097 Br
ENDBRANCH  23  24
ENDBRANCH  22  23
ENDBRANCH  21  22
ENDBRANCH   9  21
BRANCH  11  26
HETATM   26  O5  UNL     1       0.995   2.977   0.458  1.00  0.00    -0.310 OA
BRANCH  26  27
HETATM   27  C16 UNL     1       1.585   4.212   0.489  1.00  0.00     0.255 C 
HETATM   28  C17 UNL     1       1.517   5.125   1.660  1.00  0.00     0.126 C 
HETATM   29  O6  UNL     1       2.220   4.600  -0.522  1.00  0.00    -0.266 OA
ENDBRANCH  26  27
ENDBRANCH  11  26
BRANCH  10  30
HETATM   30  O4  UNL     1      -0.249   1.954  -2.611  1.00  0.00    -0.389 OA
ATOM     31  H4  UNL     1       0.186   2.752  -2.887  1.00  0.00     0.210 HD
ENDBRANCH  10  30
TORSDOF 9
