REMARK  8 active torsions:
REMARK  status: ('A' for Active; 'I' for Inactive)
REMARK       I    between atoms: N2_9  and  C6_10 
REMARK    1  A    between atoms: C6_10  and  O3_12 
REMARK    2  A    between atoms: O3_12  and  C7_13 
REMARK    3  A    between atoms: C7_13  and  C8_14 
REMARK    4  A    between atoms: C8_14  and  C9_15 
REMARK    5  A    between atoms: C9_15  and  C10_16 
REMARK    6  A    between atoms: C10_16  and  C11_17 
REMARK    7  A    between atoms: C10_16  and  C16_26 
REMARK       I    between atoms: C11_17  and  N3_19 
REMARK    8  A    between atoms: N3_19  and  C12_21 
ROOT
HETATM    1  C12 UNL     1      -3.135   1.126   2.865  1.00  0.00     0.122 A 
HETATM    2  C13 UNL     1      -2.324   0.815   4.047  1.00  0.00     0.091 C 
HETATM    3  N4  UNL     1      -1.678   0.590   4.972  1.00  0.00    -0.195 NA
HETATM    4  C14 UNL     1      -4.661   0.935   3.051  1.00  0.00     0.050 A 
HETATM    5  C15 UNL     1      -4.083   2.281   3.068  1.00  0.00     0.050 A 
ENDROOT
BRANCH   1   6
HETATM    6  N3  UNL     1      -2.641   0.834   1.544  1.00  0.00    -0.339 N 
HETATM    7  C11 UNL     1      -1.446   1.357   1.003  1.00  0.00     0.224 C 
HETATM    8  O4  UNL     1      -0.795   2.117   1.791  1.00  0.00    -0.273 OA
ATOM      9  H3  UNL     1      -3.192   0.206   0.959  1.00  0.00     0.164 HD
BRANCH   7  10
HETATM   10  C10 UNL     1      -0.934   1.077  -0.385  1.00  0.00     0.088 C 
BRANCH  10  11
HETATM   11  C9  UNL     1      -0.871  -0.339  -0.738  1.00  0.00     0.055 C 
BRANCH  11  12
HETATM   12  C8  UNL     1      -0.043  -1.349  -0.056  1.00  0.00     0.092 C 
HETATM   13  O5  UNL     1      -0.360  -1.035   1.330  1.00  0.00    -0.371 OA
HETATM   14  C20 UNL     1      -0.261  -2.062   2.190  1.00  0.00     0.247 C 
HETATM   15  C21 UNL     1      -1.262  -3.176   1.987  1.00  0.00     0.265 C 
HETATM   16  F1  UNL     1      -2.372  -2.996   2.782  1.00  0.00    -0.204 F 
HETATM   17  F2  UNL     1      -0.739  -4.407   2.332  1.00  0.00    -0.204 F 
HETATM   18  C22 UNL     1      -1.738  -3.119   0.554  1.00  0.00     0.094 C 
HETATM   19  C23 UNL     1      -0.600  -2.735  -0.395  1.00  0.00     0.002 C 
HETATM   20  C24 UNL     1      -1.292  -2.730  -1.767  1.00  0.00     0.039 C 
HETATM   21  C27 UNL     1       0.389  -3.818  -0.526  1.00  0.00     0.039 C 
HETATM   22  C25 UNL     1      -1.633  -4.136  -2.201  1.00  0.00     0.168 C 
HETATM   23  O6  UNL     1      -0.519  -4.880  -2.482  1.00  0.00    -0.391 OA
HETATM   24  C26 UNL     1       0.604  -4.290  -1.974  1.00  0.00     0.168 C 
BRANCH  12  25
HETATM   25  C7  UNL     1       1.428  -1.341  -0.055  1.00  0.00     0.219 C 
BRANCH  25  26
HETATM   26  O3  UNL     1       2.261  -0.296   0.137  1.00  0.00    -0.301 OA
BRANCH  26  27
HETATM   27  C6  UNL     1       2.640   0.661  -0.738  1.00  0.00     0.363 C 
HETATM   28  N2  UNL     1       3.511   1.737  -0.415  1.00  0.00    -0.313 N 
HETATM   29  C2  UNL     1       4.018   1.819   0.931  1.00  0.00     0.177 C 
HETATM   30  C5  UNL     1       3.885   2.720  -1.387  1.00  0.00     0.149 C 
HETATM   31  C1  UNL     1       4.842   0.606   1.318  1.00  0.00     0.043 C 
HETATM   32  C3  UNL     1       4.843   3.011   1.182  1.00  0.00     0.240 C 
HETATM   33  O1  UNL     1       4.943   3.433   2.377  1.00  0.00    -0.271 OA
HETATM   34  N1  UNL     1       5.494   3.645   0.102  1.00  0.00    -0.358 N 
HETATM   35  C4  UNL     1       5.358   3.073  -1.221  1.00  0.00     0.142 C 
ATOM     36  H1  UNL     1       6.048   4.488   0.250  1.00  0.00     0.162 HD
HETATM   37  O2  UNL     1       2.204   0.623  -1.941  1.00  0.00    -0.238 OA
ENDBRANCH  26  27
ENDBRANCH  25  26
ENDBRANCH  12  25
ENDBRANCH  11  12
ENDBRANCH  10  11
BRANCH  10  38
HETATM   38  C16 UNL     1      -1.798   1.829  -1.391  1.00  0.00    -0.039 C 
HETATM   39  C17 UNL     1      -1.847   3.313  -1.005  1.00  0.00     0.015 C 
HETATM   40  C18 UNL     1      -1.131   1.812  -2.767  1.00  0.00     0.015 C 
HETATM   41  C19 UNL     1      -3.150   1.261  -1.570  1.00  0.00     0.015 C 
ENDBRANCH  10  38
ENDBRANCH   7  10
ENDBRANCH   1   6
TORSDOF 8
