REMARK  4 active torsions:
REMARK  status: ('A' for Active; 'I' for Inactive)
REMARK    1  A    between atoms: N1_2  and  C3_4 
REMARK    2  A    between atoms: C3_4  and  S1_8 
REMARK    3  A    between atoms: S1_8  and  C4_9 
REMARK    4  A    between atoms: C4_9  and  C5_10 
ROOT
HETATM    1  C3  UNL     1       1.837   0.689  -0.093  1.00  0.00     0.135 C 
HETATM    2  N2  UNL     1       1.709   1.960   0.093  1.00  0.00    -0.380 N 
ATOM      3  H21 UNL     1       0.793   2.389   0.228  1.00  0.00     0.158 HD
ATOM      4  H22 UNL     1       2.560   2.523   0.100  1.00  0.00     0.158 HD
ENDROOT
BRANCH   1   5
HETATM    5  N1  UNL     1       3.105   0.095  -0.280  1.00  0.00    -0.371 N 
HETATM    6  C1  UNL     1       4.137   0.771  -1.049  1.00  0.00     0.151 C 
HETATM    7  C2  UNL     1       3.449  -1.200   0.274  1.00  0.00     0.151 C 
ENDBRANCH   1   5
BRANCH   1   8
HETATM    8  S1  UNL     1       0.338  -0.302  -0.105  1.00  0.00    -0.094 SA
BRANCH   8   9
HETATM    9  C4  UNL     1      -1.122   0.713   0.156  1.00  0.00     0.090 C 
BRANCH   9  10
HETATM   10  C5  UNL     1      -2.332  -0.177   0.134  1.00  0.00    -0.043 C 
HETATM   11  C6  UNL     1      -2.212  -1.202   1.229  1.00  0.00     0.015 C 
HETATM   12  C7  UNL     1      -2.379  -0.831  -1.242  1.00  0.00     0.015 C 
HETATM   13  C8  UNL     1      -3.588   0.638   0.353  1.00  0.00     0.015 C 
ENDBRANCH   9  10
ENDBRANCH   8   9
ENDBRANCH   1   8
TORSDOF 4
