REMARK  3 active torsions:
REMARK  status: ('A' for Active; 'I' for Inactive)
REMARK    1  A    between atoms: S1_2  and  N1_3 
REMARK    2  A    between atoms: S1_2  and  C2_7 
REMARK    3  A    between atoms: N1_3  and  O1_5 
ROOT
HETATM    1  C2  UNL     1       0.758   0.105  -0.014  1.00  0.00     0.058 C 
HETATM    2  C3  UNL     1       0.423   1.346   0.709  1.00  0.00     0.016 C 
HETATM    3  C4  UNL     1      -1.039   1.533   1.011  1.00  0.00     0.001 C 
HETATM    4  C5  UNL     1      -1.900   1.234  -0.211  1.00  0.00     0.000 C 
HETATM    5  C6  UNL     1      -2.898   0.167   0.077  1.00  0.00     0.000 C 
HETATM    6  C7  UNL     1      -2.467  -1.218  -0.162  1.00  0.00     0.000 C 
HETATM    7  C8  UNL     1      -1.072  -1.402  -0.663  1.00  0.00     0.001 C 
HETATM    8  C9  UNL     1      -0.013  -1.106   0.369  1.00  0.00     0.016 C 
ENDROOT
BRANCH   1   9
HETATM    9  S1  UNL     1       2.574  -0.204   0.130  1.00  0.00    -0.105 SA
HETATM   10  C1  UNL     1       3.313  -1.693  -0.674  1.00  0.00     0.104 C 
BRANCH   9  11
HETATM   11  N1  UNL     1       3.586   1.070   0.268  1.00  0.00    -0.253 N 
ATOM     12  H1  UNL     1       4.546   1.015  -0.073  1.00  0.00     0.201 HD
BRANCH  11  13
HETATM   13  O1  UNL     1       3.118   2.201   0.847  1.00  0.00    -0.284 OA
ATOM     14  H1  UNL     1       3.707   2.942   0.927  1.00  0.00     0.245 HD
ENDBRANCH  11  13
ENDBRANCH   9  11
ENDBRANCH   1   9
TORSDOF 3
