REMARK  4 active torsions:
REMARK  status: ('A' for Active; 'I' for Inactive)
REMARK    1  A    between atoms: N1_1  and  C1_4 
REMARK    2  A    between atoms: C4_9  and  C5_10 
REMARK    3  A    between atoms: C8_13  and  C9_14 
REMARK    4  A    between atoms: C12_19  and  N4_20 
ROOT
HETATM    1  C5  UNL     1       1.453   0.261   0.111  1.00  0.00     0.007 A 
HETATM    2  C6  UNL     1       0.841  -0.794  -0.526  1.00  0.00     0.017 A 
HETATM    3  C7  UNL     1      -0.552  -0.932  -0.512  1.00  0.00     0.033 A 
HETATM    4  C8  UNL     1      -1.332  -0.013   0.142  1.00  0.00     0.059 A 
HETATM    5  N6  UNL     1      -0.722   1.010   0.760  1.00  0.00    -0.363 N 
ATOM      6  H6  UNL     1      -1.292   1.699   1.250  1.00  0.00     0.165 HD
HETATM    7  C13 UNL     1       0.636   1.162   0.756  1.00  0.00     0.102 A 
ENDROOT
BRANCH   1   8
HETATM    8  C4  UNL     1       2.929   0.422   0.105  1.00  0.00     0.060 A 
HETATM    9  C3  UNL     1       3.530   1.477   0.744  1.00  0.00     0.118 A 
HETATM   10  N2  UNL     1       4.882   1.655   0.758  1.00  0.00    -0.370 N 
HETATM   11  C2  UNL     1       5.632   0.746   0.112  1.00  0.00     0.136 A 
ATOM     12  H2  UNL     1       5.307   2.447   1.240  1.00  0.00     0.164 HD
HETATM   13  C1  UNL     1       5.052  -0.320  -0.535  1.00  0.00     0.115 A 
HETATM   14  N7  UNL     1       3.710  -0.473  -0.533  1.00  0.00    -0.340 N 
ATOM     15  H7  UNL     1       3.287  -1.266  -1.015  1.00  0.00     0.167 HD
BRANCH  13  16
HETATM   16  N1  UNL     1       5.822  -1.166  -1.141  1.00  0.00    -0.384 N 
ATOM     17  H12 UNL     1       6.835  -1.050  -1.143  1.00  0.00     0.157 HD
ATOM     18  H11 UNL     1       5.392  -1.957  -1.621  1.00  0.00     0.157 HD
ENDBRANCH  13  16
ENDBRANCH   1   8
BRANCH   4  19
HETATM   19  C9  UNL     1      -2.799  -0.089   0.203  1.00  0.00     0.077 A 
HETATM   20  C10 UNL     1      -3.456  -1.125  -0.419  1.00  0.00     0.050 A 
HETATM   21  C11 UNL     1      -4.843  -1.146  -0.329  1.00  0.00     0.108 A 
HETATM   22  N3  UNL     1      -5.485  -0.183   0.344  1.00  0.00    -0.202 N 
HETATM   23  C12 UNL     1      -4.839   0.822   0.947  1.00  0.00     0.676 A 
ATOM     24  H3  UNL     1      -6.503  -0.217   0.399  1.00  0.00     0.183 HD
HETATM   25  N5  UNL     1      -3.501   0.855   0.868  1.00  0.00    -0.190 N 
ATOM     26  H5  UNL     1      -2.997   1.616   1.324  1.00  0.00     0.184 HD
BRANCH  23  27
HETATM   27  N4  UNL     1      -5.494   1.753   1.599  1.00  0.00    -0.234 N 
ATOM     28  H42 UNL     1      -6.512   1.728   1.659  1.00  0.00     0.174 HD
ATOM     29  H41 UNL     1      -5.002   2.519   2.059  1.00  0.00     0.174 HD
ENDBRANCH  23  27
ENDBRANCH   4  19
TORSDOF 4
