REMARK  4 active torsions:
REMARK  status: ('A' for Active; 'I' for Inactive)
REMARK    1  A    between atoms: C5_6  and  C6_7 
REMARK    2  A    between atoms: C6_7  and  N2_8 
REMARK    3  A    between atoms: C9_15  and  N5_16 
REMARK    4  A    between atoms: C10_21  and  N7_22 
ROOT
HETATM    1  N1  UNL     1      -6.102   1.225   2.142  1.00  0.00    -0.191 NA
HETATM    2  C1  UNL     1      -5.183   0.903   1.518  1.00  0.00     0.099 C 
HETATM    3  C2  UNL     1      -4.017   0.491   0.755  1.00  0.00     0.044 A 
HETATM    4  C3  UNL     1      -3.638  -0.832   0.694  1.00  0.00     0.023 A 
HETATM    5  C4  UNL     1      -2.535  -1.212  -0.029  1.00  0.00     0.010 A 
HETATM    6  C5  UNL     1      -1.737  -0.295  -0.740  1.00  0.00    -0.038 A 
HETATM    7  C12 UNL     1      -2.148   1.009  -0.654  1.00  0.00     0.010 A 
HETATM    8  C13 UNL     1      -3.254   1.408   0.068  1.00  0.00     0.023 A 
ENDROOT
BRANCH   6   9
HETATM    9  C6  UNL     1      -0.569  -0.795  -1.513  1.00  0.00     0.188 C 
BRANCH   9  10
HETATM   10  N2  UNL     1       0.518  -1.032  -0.633  1.00  0.00    -0.282 N 
HETATM   11  N3  UNL     1       0.558  -2.186   0.070  1.00  0.00    -0.307 N 
HETATM   12  C7  UNL     1       1.604  -2.231   0.875  1.00  0.00     0.140 A 
ATOM     13  H3  UNL     1      -0.135  -2.930  -0.011  1.00  0.00     0.186 HD
HETATM   14  C8  UNL     1       2.297  -1.047   0.697  1.00  0.00     0.098 A 
HETATM   15  N4  UNL     1       3.431  -0.540   1.232  1.00  0.00    -0.188 N 
HETATM   16  C11 UNL     1       1.585  -0.347  -0.242  1.00  0.00     0.123 A 
HETATM   17  C9  UNL     1       3.840   0.667   0.817  1.00  0.00     0.678 A 
ATOM     18  H4  UNL     1       3.960  -1.061   1.931  1.00  0.00     0.184 HD
HETATM   19  N6  UNL     1       3.182   1.389  -0.099  1.00  0.00    -0.175 N 
HETATM   20  C10 UNL     1       2.054   0.877  -0.625  1.00  0.00     0.145 A 
ATOM     21  H6  UNL     1       3.527   2.304  -0.391  1.00  0.00     0.186 HD
BRANCH  17  22
HETATM   22  N5  UNL     1       4.907   1.163   1.309  1.00  0.00    -0.234 N 
ATOM     23  H52 UNL     1       5.408   0.613   2.007  1.00  0.00     0.174 HD
ATOM     24  H51 UNL     1       5.218   2.082   0.993  1.00  0.00     0.174 HD
ENDBRANCH  17  22
BRANCH  20  25
HETATM   25  N7  UNL     1       1.420   1.529  -1.515  1.00  0.00    -0.383 N 
ATOM     26  H72 UNL     1       1.770   2.443  -1.801  1.00  0.00     0.157 HD
ATOM     27  H71 UNL     1       0.565   1.141  -1.914  1.00  0.00     0.157 HD
ENDBRANCH  20  25
ENDBRANCH   9  10
ENDBRANCH   6   9
TORSDOF 4
