REMARK  7 active torsions:
REMARK  status: ('A' for Active; 'I' for Inactive)
REMARK    1  A    between atoms: C2_2  and  O1_3 
REMARK    2  A    between atoms: O1_3  and  C3_4 
REMARK    3  A    between atoms: C8_9  and  C9_10 
REMARK    4  A    between atoms: C9_10  and  N1_11 
REMARK    5  A    between atoms: N1_11  and  N2_13 
REMARK    6  A    between atoms: N2_13  and  C10_15 
REMARK    7  A    between atoms: C13_24  and  N6_25 
ROOT
HETATM    1  C10 UNL     1       2.777  -0.928   0.732  1.00  0.00     0.152 A 
HETATM    2  N3  UNL     1       3.565  -2.046   0.628  1.00  0.00    -0.336 N 
ATOM      3  H3  UNL     1       3.189  -2.958   0.890  1.00  0.00     0.168 HD
HETATM    4  C11 UNL     1       4.824  -1.947   0.185  1.00  0.00     0.183 A 
HETATM    5  N4  UNL     1       5.346  -0.768  -0.166  1.00  0.00    -0.336 N 
ATOM      6  H4  UNL     1       6.309  -0.727  -0.499  1.00  0.00     0.168 HD
HETATM    7  C12 UNL     1       4.636   0.350  -0.090  1.00  0.00     0.153 A 
HETATM    8  N5  UNL     1       4.865   1.649  -0.358  1.00  0.00    -0.174 N 
ATOM      9  H5  UNL     1       5.750   2.011  -0.713  1.00  0.00     0.186 HD
HETATM   10  C13 UNL     1       3.797   2.407  -0.105  1.00  0.00     0.678 A 
HETATM   11  N7  UNL     1       2.850   1.555   0.342  1.00  0.00    -0.184 N 
ATOM     12  H7  UNL     1       1.908   1.829   0.622  1.00  0.00     0.184 HD
HETATM   13  C14 UNL     1       3.325   0.281   0.367  1.00  0.00     0.139 A 
ENDROOT
BRANCH   1  14
HETATM   14  N2  UNL     1       1.580  -1.022   1.153  1.00  0.00    -0.284 N 
ATOM     15  H2  UNL     1       1.342  -1.988   1.378  1.00  0.00     0.188 HD
BRANCH  14  16
HETATM   16  N1  UNL     1       0.580  -0.227   1.375  1.00  0.00    -0.309 N 
ATOM     17  H1  UNL     1       0.860   0.473   2.062  1.00  0.00     0.186 HD
BRANCH  16  18
HETATM   18  C9  UNL     1      -0.605  -0.017   1.044  1.00  0.00     0.121 C 
BRANCH  18  19
HETATM   19  C8  UNL     1      -1.333  -0.818   0.087  1.00  0.00     0.014 A 
HETATM   20  C3  UNL     1      -2.655  -0.462  -0.194  1.00  0.00     0.080 A 
HETATM   21  C4  UNL     1      -3.394  -1.196  -1.098  1.00  0.00     0.037 A 
HETATM   22  C5  UNL     1      -2.864  -2.287  -1.745  1.00  0.00     0.003 A 
HETATM   23  C6  UNL     1      -1.577  -2.659  -1.491  1.00  0.00     0.001 A 
HETATM   24  C7  UNL     1      -0.825  -1.916  -0.574  1.00  0.00     0.015 A 
BRANCH  20  25
HETATM   25  O1  UNL     1      -3.187   0.631   0.453  1.00  0.00    -0.351 OA
BRANCH  25  26
HETATM   26  C2  UNL     1      -4.516   1.002   0.181  1.00  0.00     0.171 C 
HETATM   27  C1  UNL     1      -4.948   2.216   0.974  1.00  0.00     0.034 C 
ENDBRANCH  25  26
ENDBRANCH  20  25
ENDBRANCH  18  19
ENDBRANCH  16  18
ENDBRANCH  14  16
ENDBRANCH   1  14
BRANCH  10  28
HETATM   28  N6  UNL     1       3.676   3.664  -0.248  1.00  0.00    -0.234 N 
ATOM     29  H62 UNL     1       4.392   4.308  -0.586  1.00  0.00     0.174 HD
ATOM     30  H61 UNL     1       2.859   4.244  -0.055  1.00  0.00     0.174 HD
ENDBRANCH  10  28
TORSDOF 7
