REMARK  9 active torsions:
REMARK  status: ('A' for Active; 'I' for Inactive)
REMARK    1  A    between atoms: C2_2  and  C3_3 
REMARK    2  A    between atoms: C3_3  and  C5_5 
REMARK    3  A    between atoms: C5_5  and  N1_6 
REMARK    4  A    between atoms: N1_6  and  C6_7 
REMARK       I    between atoms: N1_6  and  C20_25 
REMARK    5  A    between atoms: C6_7  and  C7_8 
REMARK    6  A    between atoms: C10_11  and  C11_12 
REMARK    7  A    between atoms: C11_12  and  N2_13 
REMARK       I    between atoms: N2_13  and  C13_15 
REMARK       I    between atoms: C13_15  and  N3_17 
REMARK    8  A    between atoms: N3_17  and  C14_19 
REMARK       I    between atoms: C20_25  and  N4_27 
REMARK    9  A    between atoms: N4_27  and  C21_29 
ROOT
HETATM    1  C7  UNL     1      -0.598   0.952   0.502  1.00  0.00     0.008 C 
HETATM    2  C8  UNL     1      -0.378   0.190  -0.758  1.00  0.00     0.007 C 
HETATM    3  C9  UNL     1       1.147   0.380  -0.924  1.00  0.00     0.007 C 
HETATM    4  C10 UNL     1       1.702   0.246   0.466  1.00  0.00     0.008 C 
HETATM    5  C18 UNL     1       0.506   0.372   1.379  1.00  0.00    -0.007 C 
HETATM    6  C19 UNL     1       0.043  -0.918   1.964  1.00  0.00     0.011 C 
ENDROOT
BRANCH   1   7
HETATM    7  C6  UNL     1      -1.907   0.811   1.178  1.00  0.00     0.132 C 
BRANCH   7   8
HETATM    8  N1  UNL     1      -3.062   1.215   0.413  1.00  0.00    -0.333 N 
HETATM    9  C20 UNL     1      -3.768   0.256  -0.338  1.00  0.00     0.318 C 
HETATM   10  O2  UNL     1      -4.728   0.664  -1.068  1.00  0.00    -0.247 OA
HETATM   11  N4  UNL     1      -3.536  -1.133  -0.379  1.00  0.00    -0.335 N 
ATOM     12  H4  UNL     1      -2.778  -1.512   0.189  1.00  0.00     0.165 HD
BRANCH   8  13
HETATM   13  C5  UNL     1      -3.481   2.610   0.387  1.00  0.00     0.135 C 
BRANCH  13  14
HETATM   14  C3  UNL     1      -4.460   2.977   1.461  1.00  0.00     0.021 C 
HETATM   15  C4  UNL     1      -5.714   2.181   1.498  1.00  0.00     0.016 C 
BRANCH  14  16
HETATM   16  C2  UNL     1      -4.799   4.416   1.328  1.00  0.00    -0.031 C 
HETATM   17  C1  UNL     1      -6.031   4.843   1.124  1.00  0.00     0.007 C 
ENDBRANCH  14  16
ENDBRANCH  13  14
ENDBRANCH   8  13
BRANCH  11  18
HETATM   18  C21 UNL     1      -4.311  -2.051  -1.181  1.00  0.00     0.023 C 
HETATM   19  C22 UNL     1      -4.231  -1.720  -2.657  1.00  0.00     0.037 C 
HETATM   20  C23 UNL     1      -5.762  -2.011  -0.788  1.00  0.00     0.037 C 
HETATM   21  C24 UNL     1      -3.801  -3.454  -0.999  1.00  0.00     0.037 C 
ENDBRANCH  11  18
ENDBRANCH   7   8
ENDBRANCH   1   7
BRANCH   4  22
HETATM   22  C11 UNL     1       2.435  -1.022   0.734  1.00  0.00     0.132 C 
BRANCH  22  23
HETATM   23  N2  UNL     1       3.578  -1.258  -0.085  1.00  0.00    -0.338 N 
HETATM   24  C12 UNL     1       3.576  -1.964  -1.342  1.00  0.00     0.154 C 
HETATM   25  C13 UNL     1       4.847  -0.754   0.383  1.00  0.00     0.318 C 
HETATM   26  O1  UNL     1       4.930  -0.125   1.484  1.00  0.00    -0.247 OA
HETATM   27  N3  UNL     1       6.029  -0.943  -0.364  1.00  0.00    -0.335 N 
ATOM     28  H3  UNL     1       5.994  -1.445  -1.251  1.00  0.00     0.165 HD
BRANCH  27  29
HETATM   29  C14 UNL     1       7.278  -0.433   0.119  1.00  0.00     0.023 C 
HETATM   30  C15 UNL     1       8.402  -0.760  -0.855  1.00  0.00     0.037 C 
HETATM   31  C16 UNL     1       7.616  -0.994   1.500  1.00  0.00     0.037 C 
HETATM   32  C17 UNL     1       7.204   1.071   0.233  1.00  0.00     0.037 C 
ENDBRANCH  27  29
ENDBRANCH  22  23
ENDBRANCH   4  22
TORSDOF 9
