REMARK  7 active torsions:
REMARK  status: ('A' for Active; 'I' for Inactive)
REMARK    1  A    between atoms: C11_14  and  C12_15 
REMARK    2  A    between atoms: C12_15  and  C13_16 
REMARK    3  A    between atoms: C13_16  and  C14_17 
REMARK    4  A    between atoms: C14_17  and  C15_18 
REMARK    5  A    between atoms: C15_18  and  C16_19 
REMARK    6  A    between atoms: C16_19  and  C17_20 
REMARK    7  A    between atoms: C17_20  and  C18_21 
ROOT
HETATM    1  C18 UNL     1       8.315  -0.512   0.614  1.00  0.00     0.124 C 
HETATM    2  C19 UNL     1       8.541  -1.632   1.530  1.00  0.00     0.059 C 
HETATM    3  N2  UNL     1       8.705  -2.518   2.236  1.00  0.00    -0.197 NA
ENDROOT
BRANCH   1   4
HETATM    4  C17 UNL     1       6.800  -0.311   0.500  1.00  0.00     0.014 C 
BRANCH   4   5
HETATM    5  C16 UNL     1       6.585   0.834  -0.436  1.00  0.00     0.001 C 
BRANCH   5   6
HETATM    6  C15 UNL     1       5.133   1.163  -0.657  1.00  0.00     0.000 C 
BRANCH   6   7
HETATM    7  C14 UNL     1       4.356   0.013  -1.239  1.00  0.00     0.000 C 
BRANCH   7   8
HETATM    8  C13 UNL     1       2.915   0.309  -1.472  1.00  0.00     0.002 C 
BRANCH   8   9
HETATM    9  C12 UNL     1       2.160   0.681  -0.231  1.00  0.00     0.024 C 
BRANCH   9  10
HETATM   10  C11 UNL     1       0.687   0.972  -0.518  1.00  0.00     0.077 C 
HETATM   11  C10 UNL     1       0.041   1.327   0.745  1.00  0.00     0.030 C 
HETATM   12  C9  UNL     1      -1.464   1.424   0.710  1.00  0.00    -0.001 C 
HETATM   13  C8  UNL     1      -1.836   1.307   2.147  1.00  0.00     0.007 C 
HETATM   14  C25 UNL     1      -2.165   0.534  -0.280  1.00  0.00    -0.006 C 
HETATM   15  C7  UNL     1      -3.151   0.779   2.503  1.00  0.00     0.026 C 
HETATM   16  C6  UNL     1      -3.733  -0.224   1.566  1.00  0.00     0.093 C 
HETATM   17  C2  UNL     1      -3.537   0.328   0.162  1.00  0.00    -0.013 C 
HETATM   18  N1  UNL     1      -5.130  -0.314   1.942  1.00  0.00    -0.356 N 
HETATM   19  C1  UNL     1      -4.244   1.678   0.241  1.00  0.00     0.018 C 
HETATM   20  C3  UNL     1      -4.460  -0.444  -0.724  1.00  0.00     0.021 C 
HETATM   21  C4  UNL     1      -5.927  -0.334  -0.365  1.00  0.00     0.103 C 
HETATM   22  C5  UNL     1      -6.134  -0.698   1.039  1.00  0.00     0.217 C 
HETATM   23  O1  UNL     1      -7.149  -1.314   1.395  1.00  0.00    -0.274 OA
ATOM     24  H1  UNL     1      -5.394  -0.089   2.901  1.00  0.00     0.162 HD
HETATM   25  C20 UNL     1      -1.247  -0.569  -0.669  1.00  0.00     0.034 C 
HETATM   26  C26 UNL     1      -2.298   1.367  -1.577  1.00  0.00     0.019 C 
HETATM   27  N3  UNL     1       0.002   0.012  -1.227  1.00  0.00    -0.408 N 
HETATM   28  C21 UNL     1      -0.787  -1.494   0.409  1.00  0.00     0.031 C 
HETATM   29  C24 UNL     1      -1.631  -1.486  -1.784  1.00  0.00     0.031 C 
ATOM     30  H3  UNL     1       0.351  -0.300  -2.133  1.00  0.00     0.154 HD
HETATM   31  C22 UNL     1      -1.269  -2.896   0.127  1.00  0.00     0.002 C 
HETATM   32  C23 UNL     1      -1.546  -2.918  -1.310  1.00  0.00     0.002 C 
ENDBRANCH   9  10
ENDBRANCH   8   9
ENDBRANCH   7   8
ENDBRANCH   6   7
ENDBRANCH   5   6
ENDBRANCH   4   5
ENDBRANCH   1   4
TORSDOF 7
