REMARK  4 active torsions:
REMARK  status: ('A' for Active; 'I' for Inactive)
REMARK    1  A    between atoms: C2_2  and  C3_3 
REMARK       I    between atoms: C3_3  and  N1_5 
REMARK    2  A    between atoms: N1_5  and  C4_7 
REMARK    3  A    between atoms: N2_11  and  N3_13 
REMARK       I    between atoms: C8_15  and  N5_17 
REMARK       I    between atoms: C9_19  and  N7_21 
REMARK       I    between atoms: N7_21  and  C10_22 
REMARK       I    between atoms: C10_22  and  N9_24 
REMARK    4  A    between atoms: C13_27  and  C14_28 
ROOT
HETATM    1  C4  UNL     1      -3.233   1.516   1.260  1.00  0.00     0.085 C 
HETATM    2  C5  UNL     1      -2.086   2.475   0.997  1.00  0.00     0.031 C 
HETATM    3  C6  UNL     1      -1.557   2.347  -0.394  1.00  0.00     0.056 C 
HETATM    4  C7  UNL     1      -0.920   0.981  -0.489  1.00  0.00     0.008 C 
HETATM    5  N2  UNL     1       0.076   0.792  -1.243  1.00  0.00    -0.306 N 
ATOM      6  H2  UNL     1       0.472  -0.148  -1.275  1.00  0.00     0.186 HD
HETATM    7  C13 UNL     1      -1.519  -0.084   0.318  1.00  0.00     0.039 C 
HETATM    8  C20 UNL     1      -2.942   0.138   0.742  1.00  0.00     0.036 C 
ENDROOT
BRANCH   5   9
HETATM    9  N3  UNL     1       0.676   1.772  -2.036  1.00  0.00    -0.274 N 
HETATM   10  C8  UNL     1       1.925   1.785  -2.336  1.00  0.00     0.210 C 
HETATM   11  N4  UNL     1       2.386   2.850  -3.153  1.00  0.00    -0.062 NA
HETATM   12  N5  UNL     1       2.854   0.820  -1.906  1.00  0.00    -0.292 N 
HETATM   13  C9  UNL     1       3.294   0.832  -0.668  1.00  0.00     0.272 C 
ATOM     14  H5  UNL     1       3.187   0.109  -2.557  1.00  0.00     0.172 HD
HETATM   15  N6  UNL     1       2.743   1.893   0.155  1.00  0.00    -0.049 NA
HETATM   16  N7  UNL     1       4.170  -0.016  -0.137  1.00  0.00    -0.341 NA
HETATM   17  C10 UNL     1       4.853  -0.801   0.418  1.00  0.00     0.267 C 
HETATM   18  N8  UNL     1       4.364  -1.578   1.543  1.00  0.00    -0.049 NA
HETATM   19  N9  UNL     1       6.232  -1.067   0.040  1.00  0.00    -0.353 N 
HETATM   20  C11 UNL     1       7.211  -0.112   0.473  1.00  0.00     0.152 C 
HETATM   21  C12 UNL     1       6.577  -2.226  -0.725  1.00  0.00     0.152 C 
ATOM     22  H3  UNL     1       0.088   2.522  -2.399  1.00  0.00     0.189 HD
ENDBRANCH   5   9
BRANCH   7  23
HETATM   23  C14 UNL     1      -1.432  -1.412  -0.372  1.00  0.00    -0.005 C 
HETATM   24  C15 UNL     1      -2.285  -2.469   0.325  1.00  0.00     0.005 C 
HETATM   25  C16 UNL     1      -2.389  -3.621  -0.682  1.00  0.00     0.000 C 
HETATM   26  C17 UNL     1      -1.074  -4.176  -1.089  1.00  0.00     0.000 C 
HETATM   27  C18 UNL     1      -0.037  -3.123  -1.392  1.00  0.00     0.000 C 
HETATM   28  C19 UNL     1      -0.035  -2.032  -0.317  1.00  0.00     0.005 C 
ENDBRANCH   7  23
BRANCH   1  29
HETATM   29  N1  UNL     1      -4.415   2.061   0.672  1.00  0.00    -0.353 N 
HETATM   30  C3  UNL     1      -5.546   2.495   1.403  1.00  0.00     0.240 C 
HETATM   31  O1  UNL     1      -5.602   2.434   2.668  1.00  0.00    -0.269 OA
ATOM     32  H1  UNL     1      -4.446   2.143  -0.344  1.00  0.00     0.163 HD
BRANCH  30  33
HETATM   33  C2  UNL     1      -6.720   3.040   0.745  1.00  0.00     0.064 C 
HETATM   34  C1  UNL     1      -7.787   3.451   1.410  1.00  0.00     0.017 C 
ENDBRANCH  30  33
ENDBRANCH   1  29
TORSDOF 4
