REMARK  3 active torsions:
REMARK  status: ('A' for Active; 'I' for Inactive)
REMARK       I    between atoms: N1_1  and  C1_5 
REMARK       I    between atoms: C1_5  and  N2_6 
REMARK       I    between atoms: C1_5  and  N3_10 
REMARK    1  A    between atoms: N3_10  and  C2_12 
REMARK    2  A    between atoms: C4_16  and  O1_17 
REMARK    3  A    between atoms: O1_17  and  N5_18 
ROOT
HETATM    1  C2  UNL     1       2.603   0.192  -0.496  1.00  0.00     0.680 A 
HETATM    2  N4  UNL     1       1.695   0.307  -1.479  1.00  0.00    -0.199 N 
ATOM      3  H4  UNL     1       1.993   0.615  -2.405  1.00  0.00     0.183 HD
HETATM    4  C3  UNL     1       0.403   0.023  -1.261  1.00  0.00     0.146 A 
HETATM    5  C4  UNL     1      -0.014  -0.395  -0.010  1.00  0.00     0.130 A 
HETATM    6  C8  UNL     1       0.958  -0.496   0.960  1.00  0.00     0.146 A 
HETATM    7  N8  UNL     1       2.235  -0.209   0.719  1.00  0.00    -0.199 N 
ATOM      8  H8  UNL     1       2.929  -0.296   1.462  1.00  0.00     0.183 HD
ENDROOT
BRANCH   1   9
HETATM    9  N3  UNL     1       3.809   0.487  -0.809  1.00  0.00    -0.173 N 
HETATM   10  C1  UNL     1       4.970   0.462   0.006  1.00  0.00     0.494 C 
HETATM   11  N1  UNL     1       4.868   1.433   1.064  1.00  0.00    -0.032 N 
HETATM   12  N2  UNL     1       5.311  -0.850   0.516  1.00  0.00    -0.032 N 
ATOM     13  H13 UNL     1       4.212   1.131   1.784  1.00  0.00     0.278 HD
ATOM     14  H12 UNL     1       5.719   1.462   1.626  1.00  0.00     0.278 HD
ATOM     15  H11 UNL     1       4.628   2.357   0.705  1.00  0.00     0.278 HD
ATOM     16  H23 UNL     1       6.162  -0.821   1.078  1.00  0.00     0.278 HD
ATOM     17  H22 UNL     1       4.655  -1.152   1.236  1.00  0.00     0.278 HD
ATOM     18  H21 UNL     1       5.383  -1.538  -0.234  1.00  0.00     0.278 HD
ATOM     19  H3  UNL     1       3.955   0.780  -1.775  1.00  0.00     0.181 HD
ENDBRANCH   1   9
BRANCH   5  20
HETATM   20  O1  UNL     1      -1.335  -0.693   0.240  1.00  0.00    -0.234 OA
BRANCH  20  21
HETATM   21  N5  UNL     1      -2.318  -0.600  -0.708  1.00  0.00    -0.247 N 
HETATM   22  C5  UNL     1      -3.521  -0.365  -0.328  1.00  0.00     0.125 C 
HETATM   23  C6  UNL     1      -3.980  -0.177   1.070  1.00  0.00     0.311 C 
HETATM   24  N7  UNL     1      -4.661  -0.237  -1.172  1.00  0.00    -0.354 N 
HETATM   25  N6  UNL     1      -5.288   0.457   0.875  1.00  0.00    -0.053 N 
HETATM   26  C7  UNL     1      -5.803  -0.287  -0.279  1.00  0.00     0.356 C 
ATOM     27  H62 UNL     1      -5.895   0.464   1.695  1.00  0.00     0.279 HD
ATOM     28  H61 UNL     1      -5.269   1.471   0.766  1.00  0.00     0.279 HD
ATOM     29  H7  UNL     1      -4.672  -0.133  -2.187  1.00  0.00     0.162 HD
ATOM     30  H5  UNL     1      -2.099  -0.715  -1.697  1.00  0.00     0.196 HD
ENDBRANCH  20  21
ENDBRANCH   5  20
TORSDOF 3
