REMARK  3 active torsions:
REMARK  status: ('A' for Active; 'I' for Inactive)
REMARK    1  A    between atoms: O1_2  and  C2_3 
REMARK    2  A    between atoms: C2_3  and  N1_4 
REMARK    3  A    between atoms: C5_14  and  N5_15 
ROOT
HETATM    1  N1  UNL     1      -1.191   0.154  -0.238  1.00  0.00    -0.231 N 
HETATM    2  N2  UNL     1      -0.824  -0.905  -0.924  1.00  0.00    -0.277 N 
ATOM      3  H2  UNL     1      -1.536  -1.441  -1.420  1.00  0.00     0.189 HD
HETATM    4  C3  UNL     1       0.479  -1.314  -0.997  1.00  0.00     0.142 A 
HETATM    5  N3  UNL     1       0.794  -2.346  -1.673  1.00  0.00    -0.383 N 
ATOM      6  H31 UNL     1       1.766  -2.651  -1.727  1.00  0.00     0.157 HD
ATOM      7  H32 UNL     1       0.114  -2.909  -2.184  1.00  0.00     0.157 HD
HETATM    8  C4  UNL     1       1.396  -0.554  -0.308  1.00  0.00     0.115 A 
HETATM    9  N4  UNL     1       2.703  -0.854  -0.304  1.00  0.00    -0.187 N 
ATOM     10  H4  UNL     1       3.039  -1.666  -0.822  1.00  0.00     0.184 HD
HETATM   11  C5  UNL     1       3.574  -0.087   0.382  1.00  0.00     0.679 A 
HETATM   12  N6  UNL     1       3.190   1.009   1.091  1.00  0.00    -0.155 N 
ATOM     13  H6  UNL     1       3.883   1.562   1.596  1.00  0.00     0.187 HD
HETATM   14  C6  UNL     1       1.898   1.357   1.122  1.00  0.00     0.277 A 
HETATM   15  O2  UNL     1       1.524   2.371   1.776  1.00  0.00    -0.266 OA
HETATM   16  C7  UNL     1       1.002   0.575   0.422  1.00  0.00     0.133 A 
HETATM   17  C8  UNL     1      -0.325   0.914   0.442  1.00  0.00     0.282 A 
HETATM   18  O3  UNL     1      -0.685   1.938   1.105  1.00  0.00    -0.265 OA
ENDROOT
BRANCH   1  19
HETATM   19  C2  UNL     1      -2.591   0.546  -0.193  1.00  0.00     0.319 C 
BRANCH  19  20
HETATM   20  O1  UNL     1      -3.174  -0.091   0.887  1.00  0.00    -0.375 OA
HETATM   21  C1  UNL     1      -4.537   0.254   0.979  1.00  0.00     0.203 C 
ENDBRANCH  19  20
ENDBRANCH   1  19
BRANCH  11  22
HETATM   22  N5  UNL     1       4.839  -0.401   0.370  1.00  0.00    -0.234 N 
ATOM     23  H52 UNL     1       5.127  -1.223  -0.161  1.00  0.00     0.174 HD
ATOM     24  H51 UNL     1       5.498   0.179   0.889  1.00  0.00     0.174 HD
ENDBRANCH  11  22
TORSDOF 3
