REMARK  5 active torsions:
REMARK  status: ('A' for Active; 'I' for Inactive)
REMARK    1  A    between atoms: C2_2  and  C3_3 
REMARK    2  A    between atoms: C3_3  and  C12_19 
REMARK    3  A    between atoms: C4_4  and  C5_5 
REMARK    4  A    between atoms: C7_11  and  N3_12 
REMARK    5  A    between atoms: C8_15  and  C9_16 
ROOT
HETATM    1  C5  UNL     1       0.812   0.713  -0.916  1.00  0.00     0.043 A 
HETATM    2  N1  UNL     1       0.702   1.981  -1.164  1.00  0.00    -0.352 N 
ATOM      3  H1  UNL     1      -0.126   2.295  -1.670  1.00  0.00     0.166 HD
HETATM    4  C6  UNL     1       1.609   2.917  -0.799  1.00  0.00     0.182 A 
HETATM    5  N2  UNL     1       2.714   2.509  -0.138  1.00  0.00    -0.338 N 
ATOM      6  H2  UNL     1       3.427   3.177   0.154  1.00  0.00     0.168 HD
HETATM    7  C7  UNL     1       2.846   1.199   0.123  1.00  0.00     0.108 A 
HETATM    8  C8  UNL     1       1.964   0.227  -0.227  1.00  0.00     0.016 A 
ENDROOT
BRANCH   1   9
HETATM    9  C4  UNL     1      -0.186  -0.288  -1.229  1.00  0.00     0.033 C 
HETATM   10  C3  UNL     1      -1.430  -0.338  -0.832  1.00  0.00    -0.070 C 
BRANCH  10  11
HETATM   11  C2  UNL     1      -2.231  -1.524  -1.339  1.00  0.00     0.030 C 
HETATM   12  C1  UNL     1      -2.533  -2.477  -0.200  1.00  0.00     0.010 C 
ENDBRANCH  10  11
BRANCH  10  13
HETATM   13  C12 UNL     1      -2.017   0.672   0.016  1.00  0.00    -0.028 C 
HETATM   14  C13 UNL     1      -2.463   1.864  -0.789  1.00  0.00     0.019 C 
HETATM   15  C14 UNL     1      -1.266   0.980   1.289  1.00  0.00     0.019 C 
HETATM   16  C15 UNL     1      -3.387   0.133   0.581  1.00  0.00     0.019 C 
ENDBRANCH  10  13
ENDBRANCH   1   9
BRANCH   8  17
HETATM   17  C9  UNL     1       2.107  -1.184   0.103  1.00  0.00     0.016 C 
HETATM   18  C10 UNL     1       3.512  -1.646  -0.248  1.00  0.00     0.015 C 
HETATM   19  C11 UNL     1       1.934  -1.358   1.616  1.00  0.00     0.015 C 
ENDBRANCH   8  17
BRANCH   7  20
HETATM   20  N3  UNL     1       3.892   0.933   0.868  1.00  0.00    -0.385 N 
ATOM     21  H32 UNL     1       4.554   1.663   1.131  1.00  0.00     0.157 HD
ATOM     22  H31 UNL     1       3.992  -0.062   1.066  1.00  0.00     0.157 HD
ENDBRANCH   7  20
TORSDOF 5
