REMARK  4 active torsions:
REMARK  status: ('A' for Active; 'I' for Inactive)
REMARK    1  A    between atoms: C3_3  and  C4_4 
REMARK    2  A    between atoms: C3_3  and  C11_11 
REMARK    3  A    between atoms: C4_4  and  C5_5 
REMARK    4  A    between atoms: C11_11  and  O1_12 
ROOT
HETATM    1  C1  UNL     1      -1.291  -1.874   1.943  1.00  0.00     0.012 C 
HETATM    2  C2  UNL     1      -0.899  -1.021   1.167  1.00  0.00    -0.110 C 
HETATM    3  C3  UNL     1      -0.439  -0.023   0.258  1.00  0.00     0.099 C 
ENDROOT
BRANCH   3   4
HETATM    4  C4  UNL     1       0.677  -0.345  -0.639  1.00  0.00     0.025 C 
BRANCH   4   5
HETATM    5  C5  UNL     1       1.971  -0.729   0.027  1.00  0.00    -0.013 C 
HETATM    6  C6  UNL     1       2.551   0.340   0.912  1.00  0.00     0.005 C 
HETATM    7  C7  UNL     1       3.321   1.330   0.034  1.00  0.00     0.000 C 
HETATM    8  C8  UNL     1       4.655   0.655  -0.305  1.00  0.00     0.000 C 
HETATM    9  C9  UNL     1       4.419  -0.847  -0.486  1.00  0.00     0.000 C 
HETATM   10  C10 UNL     1       3.014  -1.075  -1.035  1.00  0.00     0.005 C 
ENDBRANCH   4   5
ENDBRANCH   3   4
BRANCH   3  11
HETATM   11  C11 UNL     1      -1.610   0.657  -0.500  1.00  0.00     0.072 C 
HETATM   12  C12 UNL     1      -2.327  -0.304  -1.363  1.00  0.00     0.039 C 
HETATM   13  C13 UNL     1      -3.761  -0.549  -1.096  1.00  0.00     0.003 C 
HETATM   14  C14 UNL     1      -4.507   0.557  -0.424  1.00  0.00     0.000 C 
HETATM   15  C15 UNL     1      -3.749   0.902   0.835  1.00  0.00     0.003 C 
HETATM   16  C16 UNL     1      -2.410   1.438   0.472  1.00  0.00     0.039 C 
BRANCH  11  17
HETATM   17  O1  UNL     1      -0.980   1.592  -1.342  1.00  0.00    -0.389 OA
ATOM     18  H1  UNL     1      -1.697   2.008  -1.806  1.00  0.00     0.210 HD
ENDBRANCH  11  17
ENDBRANCH   3  11
TORSDOF 4
