REMARK  3 active torsions:
REMARK  status: ('A' for Active; 'I' for Inactive)
REMARK    1  A    between atoms: N1_1  and  O1_4 
REMARK    2  A    between atoms: O1_4  and  C1_5 
REMARK    3  A    between atoms: C2_6  and  N2_7 
ROOT
HETATM    1  C1  UNL     1       1.144   0.418  -0.051  1.00  0.00     0.211 A 
HETATM    2  C2  UNL     1       0.276  -0.671  -0.050  1.00  0.00     0.170 A 
HETATM    3  N5  UNL     1       0.839  -1.890  -0.113  1.00  0.00    -0.291 N 
ATOM      4  H5  UNL     1       0.239  -2.715  -0.114  1.00  0.00     0.172 HD
HETATM    5  C5  UNL     1       2.191  -2.054  -0.175  1.00  0.00     0.328 A 
HETATM    6  O3  UNL     1       2.704  -3.212  -0.234  1.00  0.00    -0.247 OA
HETATM    7  N6  UNL     1       3.046  -1.017  -0.177  1.00  0.00    -0.273 N 
ATOM      8  H6  UNL     1       4.055  -1.158  -0.224  1.00  0.00     0.173 HD
HETATM    9  C6  UNL     1       2.507   0.222  -0.114  1.00  0.00     0.289 A 
HETATM   10  O4  UNL     1       3.281   1.207  -0.115  1.00  0.00    -0.265 OA
ENDROOT
BRANCH   2  11
HETATM   11  N2  UNL     1      -1.127  -0.446   0.013  1.00  0.00    -0.252 N 
HETATM   12  C3  UNL     1      -2.186  -0.668  -0.911  1.00  0.00     0.277 C 
HETATM   13  N3  UNL     1      -3.156   0.346  -0.569  1.00  0.00    -0.324 N 
HETATM   14  C4  UNL     1      -2.984   0.619   0.814  1.00  0.00     0.336 C 
ATOM     15  H3  UNL     1      -3.832   0.781  -1.197  1.00  0.00     0.166 HD
HETATM   16  O2  UNL     1      -3.803   1.193   1.579  1.00  0.00    -0.246 OA
HETATM   17  N4  UNL     1      -1.704   0.116   1.169  1.00  0.00    -0.246 N 
ATOM     18  H4  UNL     1      -1.279   0.155   2.095  1.00  0.00     0.192 HD
ENDBRANCH   2  11
BRANCH   1  19
HETATM   19  O1  UNL     1       0.548   1.667   0.014  1.00  0.00    -0.235 OA
BRANCH  19  20
HETATM   20  N1  UNL     1       1.322   2.800   0.034  1.00  0.00    -0.305 N 
ATOM     21  H12 UNL     1       2.337   2.705   0.000  1.00  0.00     0.184 HD
ATOM     22  H11 UNL     1       0.883   3.720   0.082  1.00  0.00     0.184 HD
ENDBRANCH  19  20
ENDBRANCH   1  19
TORSDOF 3
