REMARK  0 active torsions:
REMARK  status: ('A' for Active; 'I' for Inactive)
ROOT
HETATM    1  O1  UNL     1       1.315  -1.711   2.481  1.00  0.00    -0.272 OA
HETATM    2  C1  UNL     1       2.195  -0.895   2.081  1.00  0.00     0.246 C 
HETATM    3  C2  UNL     1       1.716   0.248   1.287  1.00  0.00     0.375 C 
HETATM    4  N1  UNL     1       0.899  -0.103   0.137  1.00  0.00     0.055 N 
HETATM    5  C3  UNL     1       1.509  -0.911  -0.839  1.00  0.00     0.275 C 
HETATM    6  C4  UNL     1       2.169  -0.234  -1.992  1.00  0.00     0.058 C 
HETATM    7  C5  UNL     1       3.386   0.574  -1.664  1.00  0.00     0.234 C 
HETATM    8  N2  UNL     1       4.344  -0.261  -1.011  1.00  0.00    -0.075 N 
ATOM      9  H21 UNL     1       4.798  -0.879  -1.683  1.00  0.00     0.277 HD
ATOM     10  H22 UNL     1       3.876  -0.955  -0.428  1.00  0.00     0.277 HD
HETATM   11  C6  UNL     1       5.324   0.463  -0.247  1.00  0.00     0.234 C 
HETATM   12  C7  UNL     1       5.252   0.166   1.251  1.00  0.00     0.047 C 
HETATM   13  C8  UNL     1       4.678  -1.173   1.552  1.00  0.00     0.124 C 
HETATM   14  N3  UNL     1       3.536  -1.165   2.439  1.00  0.00    -0.359 N 
ATOM     15  H3  UNL     1       3.716  -1.375   3.421  1.00  0.00     0.162 HD
HETATM   16  C9  UNL     1       0.320   1.130  -0.337  1.00  0.00     0.275 C 
HETATM   17  C10 UNL     1      -0.949   1.508   0.408  1.00  0.00     0.059 C 
HETATM   18  C11 UNL     1      -2.131   1.377  -0.493  1.00  0.00     0.239 C 
HETATM   19  N4  UNL     1      -3.080   0.357  -0.086  1.00  0.00    -0.065 N 
HETATM   20  C12 UNL     1      -3.880   0.077  -1.249  1.00  0.00     0.237 C 
HETATM   21  C13 UNL     1      -5.327  -0.103  -0.992  1.00  0.00     0.028 C 
HETATM   22  C14 UNL     1      -5.681  -0.658   0.345  1.00  0.00     0.003 C 
HETATM   23  C15 UNL     1      -5.037   0.138   1.412  1.00  0.00     0.028 C 
HETATM   24  C16 UNL     1      -3.820   0.895   1.021  1.00  0.00     0.237 C 
HETATM   25  C17 UNL     1      -2.454  -0.864   0.354  1.00  0.00     0.266 C 
HETATM   26  C18 UNL     1      -1.109  -1.124  -0.292  1.00  0.00     0.235 C 
HETATM   27  O2  UNL     1      -0.147  -0.824   0.667  1.00  0.00    -0.200 OA
ENDROOT
TORSDOF 0
