REMARK  4 active torsions:
REMARK  status: ('A' for Active; 'I' for Inactive)
REMARK    1  A    between atoms: N1_2  and  C3_4 
REMARK    2  A    between atoms: C3_4  and  N2_6 
REMARK       I    between atoms: C4_8  and  N4_10 
REMARK       I    between atoms: N5_13  and  C7_14 
REMARK    3  A    between atoms: C7_14  and  O2_16 
REMARK    4  A    between atoms: O2_16  and  C8_17 
ROOT
HETATM    1  N2  UNL     1      -3.010   0.074   1.384  1.00  0.00    -0.307 N 
ATOM      2  H2  UNL     1      -2.930   1.052   1.663  1.00  0.00     0.171 HD
HETATM    3  C4  UNL     1      -2.049  -0.436   0.686  1.00  0.00     0.198 C 
HETATM    4  N3  UNL     1      -2.026  -1.765   0.233  1.00  0.00    -0.063 NA
HETATM    5  N4  UNL     1      -0.962   0.427   0.373  1.00  0.00    -0.309 N 
HETATM    6  C5  UNL     1       0.205   0.218   1.192  1.00  0.00     0.153 C 
HETATM    7  C6  UNL     1       1.200   1.343   1.078  1.00  0.00     0.148 C 
HETATM    8  N5  UNL     1       1.573   1.578  -0.281  1.00  0.00    -0.326 N 
HETATM    9  C7  UNL     1       2.678   0.855  -0.797  1.00  0.00     0.363 C 
HETATM   10  O1  UNL     1       3.096   0.977  -1.970  1.00  0.00    -0.238 OA
HETATM   11  C12 UNL     1       0.963   2.479  -1.234  1.00  0.00     0.135 C 
HETATM   12  C13 UNL     1      -0.479   2.644  -0.869  1.00  0.00     0.096 C 
HETATM   13  C14 UNL     1      -1.146   1.357  -0.671  1.00  0.00     0.080 C 
HETATM   14  N6  UNL     1      -2.035   0.991  -1.561  1.00  0.00    -0.389 N 
ATOM     15  H61 UNL     1      -2.168   1.664  -2.316  1.00  0.00     0.157 HD
ATOM     16  H62 UNL     1      -2.500   0.094  -1.423  1.00  0.00     0.157 HD
ENDROOT
BRANCH   1  17
HETATM   17  C3  UNL     1      -4.156  -0.631   1.782  1.00  0.00     0.175 C 
HETATM   18  S1  UNL     1      -4.080  -1.669   3.039  1.00  0.00    -0.041 SA
BRANCH  17  19
HETATM   19  N1  UNL     1      -5.369  -0.439   1.091  1.00  0.00    -0.367 N 
HETATM   20  C1  UNL     1      -6.567  -1.166   1.493  1.00  0.00     0.151 C 
HETATM   21  C2  UNL     1      -5.469   0.466  -0.019  1.00  0.00     0.151 C 
ENDBRANCH  17  19
ENDBRANCH   1  17
BRANCH   9  22
HETATM   22  O2  UNL     1       3.327  -0.033   0.041  1.00  0.00    -0.294 OA
BRANCH  22  23
HETATM   23  C8  UNL     1       4.434  -0.768  -0.449  1.00  0.00     0.061 C 
HETATM   24  C9  UNL     1       5.546   0.154  -0.906  1.00  0.00     0.046 C 
HETATM   25  C10 UNL     1       4.006  -1.680  -1.561  1.00  0.00     0.046 C 
HETATM   26  C11 UNL     1       4.923  -1.621   0.729  1.00  0.00     0.046 C 
ENDBRANCH  22  23
ENDBRANCH   9  22
TORSDOF 4
