REMARK  6 active torsions:
REMARK  status: ('A' for Active; 'I' for Inactive)
REMARK    1  A    between atoms: C2_2  and  C3_3 
REMARK    2  A    between atoms: C13_14  and  O2_15 
REMARK    3  A    between atoms: O2_15  and  C14_16 
REMARK       I    between atoms: C14_16  and  N1_18 
REMARK    4  A    between atoms: C22_26  and  O4_27 
REMARK    5  A    between atoms: C25_31  and  O5_32 
REMARK    6  A    between atoms: C26_34  and  O6_35 
ROOT
HETATM    1  C3  UNL     1      -4.444  -1.468   0.005  1.00  0.00     0.152 C 
HETATM    2  O1  UNL     1      -3.674  -0.377  -0.101  1.00  0.00    -0.375 OA
HETATM    3  C4  UNL     1      -2.595  -0.382   0.769  1.00  0.00     0.133 C 
HETATM    4  C5  UNL     1      -2.770  -1.568   1.609  1.00  0.00     0.026 C 
HETATM    5  C6  UNL     1      -1.921  -2.734   1.388  1.00  0.00     0.009 C 
HETATM    6  C7  UNL     1      -0.678  -2.510   0.559  1.00  0.00     0.011 C 
HETATM    7  C8  UNL     1      -0.179  -1.052   0.683  1.00  0.00    -0.029 C 
HETATM    8  C9  UNL     1      -0.116  -0.802   2.142  1.00  0.00     0.016 C 
HETATM    9  C10 UNL     1      -1.286  -0.253  -0.016  1.00  0.00     0.035 C 
HETATM   10  C11 UNL     1      -0.984   1.057  -0.560  1.00  0.00    -0.003 C 
HETATM   11  C12 UNL     1      -1.424   1.081  -2.053  1.00  0.00     0.019 C 
HETATM   12  C13 UNL     1      -1.661   2.294  -0.056  1.00  0.00     0.143 C 
HETATM   13  C17 UNL     1      -0.897   2.805   1.138  1.00  0.00     0.034 C 
HETATM   14  C18 UNL     1       0.524   2.446   0.727  1.00  0.00     0.013 C 
HETATM   15  C19 UNL     1       0.464   1.527  -0.452  1.00  0.00    -0.027 C 
HETATM   16  C20 UNL     1       0.729   2.445  -1.661  1.00  0.00     0.016 C 
HETATM   17  C21 UNL     1       1.510   0.451  -0.484  1.00  0.00     0.033 C 
HETATM   18  C22 UNL     1       2.790   1.007   0.044  1.00  0.00     0.135 C 
HETATM   19  C23 UNL     1       4.050   0.527  -0.595  1.00  0.00     0.015 C 
HETATM   20  C24 UNL     1       4.124   0.407  -2.045  1.00  0.00     0.021 C 
HETATM   21  C25 UNL     1       5.197   1.470  -0.176  1.00  0.00     0.158 C 
HETATM   22  C26 UNL     1       6.394   0.541  -0.377  1.00  0.00     0.155 C 
HETATM   23  C27 UNL     1       5.886  -0.878  -0.204  1.00  0.00    -0.015 C 
HETATM   24  C28 UNL     1       6.185  -1.768  -1.351  1.00  0.00     0.018 C 
HETATM   25  C29 UNL     1       6.642  -1.457   1.005  1.00  0.00     0.018 C 
HETATM   26  C30 UNL     1       4.491  -0.687   0.178  1.00  0.00     0.009 C 
HETATM   27  C31 UNL     1       3.519  -1.786  -0.077  1.00  0.00     0.007 C 
HETATM   28  C32 UNL     1       2.236  -1.671   0.655  1.00  0.00     0.011 C 
HETATM   29  C33 UNL     1       1.126  -0.920  -0.074  1.00  0.00    -0.029 C 
HETATM   30  C34 UNL     1       0.930  -1.857  -1.292  1.00  0.00     0.016 C 
HETATM   31  C35 UNL     1      -4.253  -1.933   1.401  1.00  0.00    -0.012 C 
HETATM   32  C36 UNL     1      -4.566  -3.349   1.688  1.00  0.00     0.018 C 
HETATM   33  C37 UNL     1      -5.141  -1.069   2.297  1.00  0.00     0.018 C 
ENDROOT
BRANCH  12  34
HETATM   34  O2  UNL     1      -3.013   2.381   0.032  1.00  0.00    -0.298 OA
BRANCH  34  35
HETATM   35  C14 UNL     1      -3.802   3.265  -0.615  1.00  0.00     0.362 C 
HETATM   36  O3  UNL     1      -3.261   4.112  -1.386  1.00  0.00    -0.238 OA
HETATM   37  N1  UNL     1      -5.231   3.317  -0.490  1.00  0.00    -0.337 N 
HETATM   38  C15 UNL     1      -5.972   2.409   0.359  1.00  0.00     0.154 C 
HETATM   39  C16 UNL     1      -6.002   4.299  -1.223  1.00  0.00     0.154 C 
ENDBRANCH  34  35
ENDBRANCH  12  34
BRANCH  18  40
HETATM   40  O4  UNL     1       3.040   0.918   1.397  1.00  0.00    -0.394 OA
ATOM     41  H4  UNL     1       3.855   1.272   1.733  1.00  0.00     0.210 HD
ENDBRANCH  18  40
BRANCH   1  42
HETATM   42  C2  UNL     1      -4.244  -2.498  -1.033  1.00  0.00    -0.005 C 
HETATM   43  C1  UNL     1      -5.234  -3.083  -1.683  1.00  0.00     0.009 C 
ENDBRANCH   1  42
BRANCH  21  44
HETATM   44  O5  UNL     1       5.220   2.511  -1.080  1.00  0.00    -0.392 OA
ATOM     45  H5  UNL     1       5.926   3.092  -0.822  1.00  0.00     0.210 HD
ENDBRANCH  21  44
BRANCH  22  46
HETATM   46  O6  UNL     1       7.301   0.902   0.647  1.00  0.00    -0.392 OA
ATOM     47  H6  UNL     1       8.045   0.325   0.522  1.00  0.00     0.210 HD
ENDBRANCH  22  46
TORSDOF 6
