REMARK  10 active torsions:
REMARK  status: ('A' for Active; 'I' for Inactive)
REMARK    1  A    between atoms: N1_2  and  C3_4 
REMARK    2  A    between atoms: C4_5  and  C5_6 
REMARK    3  A    between atoms: C5_6  and  C6_7 
REMARK    4  A    between atoms: C5_6  and  N2_19 
REMARK    5  A    between atoms: C6_7  and  C7_8 
REMARK    6  A    between atoms: C7_8  and  S1_9 
REMARK    7  A    between atoms: S1_9  and  C8_12 
REMARK       I    between atoms: N2_19  and  C14_21 
REMARK    8  A    between atoms: C14_21  and  C15_23 
REMARK       I    between atoms: C15_23  and  N3_25 
REMARK    9  A    between atoms: N3_25  and  C16_27 
REMARK   10  A    between atoms: C16_27  and  N4_30 
ROOT
HETATM    1  N4  UNL     1       5.150  -1.878   0.331  1.00  0.00    -0.297 N 
HETATM    2  C19 UNL     1       5.051  -2.841  -0.728  1.00  0.00     0.165 C 
HETATM    3  C20 UNL     1       5.171  -2.350   1.649  1.00  0.00     0.181 C 
HETATM    4  N5  UNL     1       5.180  -2.741   2.758  1.00  0.00    -0.172 NA
ENDROOT
BRANCH   1   5
HETATM    5  C16 UNL     1       5.228  -0.452   0.078  1.00  0.00     0.110 C 
HETATM    6  C17 UNL     1       5.323   0.303   1.384  1.00  0.00     0.064 C 
HETATM    7  C18 UNL     1       6.502  -0.198  -0.689  1.00  0.00     0.064 C 
BRANCH   5   8
HETATM    8  N3  UNL     1       4.070   0.038  -0.636  1.00  0.00    -0.326 N 
HETATM    9  C15 UNL     1       2.753  -0.038  -0.119  1.00  0.00     0.311 C 
HETATM   10  O4  UNL     1       2.632  -0.571   1.031  1.00  0.00    -0.262 OA
ATOM     11  H3  UNL     1       4.208   0.458  -1.555  1.00  0.00     0.165 HD
BRANCH   9  12
HETATM   12  C14 UNL     1       1.593   0.450  -0.826  1.00  0.00     0.314 C 
HETATM   13  N2  UNL     1       0.246   0.377  -0.306  1.00  0.00    -0.319 N 
ATOM     14  H2  UNL     1       0.088  -0.040   0.611  1.00  0.00     0.169 HD
HETATM   15  O3  UNL     1       1.736   0.966  -1.946  1.00  0.00    -0.262 OA
BRANCH  13  16
HETATM   16  C5  UNL     1      -0.876   0.878  -1.051  1.00  0.00     0.033 C 
BRANCH  16  17
HETATM   17  C4  UNL     1      -1.556   2.050  -0.491  1.00  0.00     0.046 C 
HETATM   18  C3  UNL     1      -0.998   3.246  -0.463  1.00  0.00     0.086 C 
BRANCH  18  19
HETATM   19  N1  UNL     1      -1.624   4.384   0.065  1.00  0.00    -0.398 N 
HETATM   20  C1  UNL     1      -3.054   4.510   0.089  1.00  0.00     0.148 C 
HETATM   21  C2  UNL     1      -0.819   5.461   0.601  1.00  0.00     0.148 C 
ENDBRANCH  18  19
ENDBRANCH  16  17
BRANCH  16  22
HETATM   22  C6  UNL     1      -1.740  -0.093  -1.746  1.00  0.00     0.018 C 
BRANCH  22  23
HETATM   23  C7  UNL     1      -2.887  -0.729  -1.093  1.00  0.00     0.175 C 
BRANCH  23  24
HETATM   24  S1  UNL     1      -2.680  -1.655   0.358  1.00  0.00     0.180 S 
HETATM   25  O1  UNL     1      -2.291  -0.664   1.465  1.00  0.00    -0.222 OA
HETATM   26  O2  UNL     1      -1.658  -2.721   0.318  1.00  0.00    -0.222 OA
BRANCH  24  27
HETATM   27  C8  UNL     1      -4.207  -2.408   0.878  1.00  0.00     0.076 A 
HETATM   28  C9  UNL     1      -4.311  -3.807   0.843  1.00  0.00     0.025 A 
HETATM   29  C10 UNL     1      -5.486  -4.423   1.212  1.00  0.00     0.002 A 
HETATM   30  C11 UNL     1      -6.544  -3.639   1.611  1.00  0.00     0.001 A 
HETATM   31  C12 UNL     1      -6.423  -2.268   1.640  1.00  0.00     0.020 A 
HETATM   32  C13 UNL     1      -5.239  -1.622   1.269  1.00  0.00     0.032 A 
HETATM   33 BR1  UNL     1      -5.075   0.266   1.344  1.00  0.00    -0.050 Br
ENDBRANCH  24  27
ENDBRANCH  23  24
ENDBRANCH  22  23
ENDBRANCH  16  22
ENDBRANCH  13  16
ENDBRANCH   9  12
ENDBRANCH   5   8
ENDBRANCH   1   5
TORSDOF 10
