REMARK  8 active torsions:
REMARK  status: ('A' for Active; 'I' for Inactive)
REMARK    1  A    between atoms: C2_2  and  O1_3 
REMARK    2  A    between atoms: C2_2  and  C15_23 
REMARK    3  A    between atoms: O1_3  and  C3_4 
REMARK    4  A    between atoms: C3_4  and  C4_6 
REMARK       I    between atoms: C4_6  and  N1_8 
REMARK    5  A    between atoms: N2_11  and  S1_12 
REMARK    6  A    between atoms: S1_12  and  C7_15 
REMARK       I    between atoms: C15_23  and  N3_25 
REMARK    7  A    between atoms: N3_25  and  C16_27 
REMARK    8  A    between atoms: C16_27  and  C17_28 
ROOT
HETATM    1  C4  UNL     1      -0.562  -0.572   0.132  1.00  0.00     0.319 C 
HETATM    2  O3  UNL     1      -0.378  -1.523   0.937  1.00  0.00    -0.262 OA
HETATM    3  N1  UNL     1      -1.854  -0.028   0.018  1.00  0.00    -0.340 N 
HETATM    4  C5  UNL     1      -2.977  -0.558   0.815  1.00  0.00     0.147 C 
HETATM    5  C6  UNL     1      -3.596   0.668   1.489  1.00  0.00     0.155 C 
HETATM    6  N2  UNL     1      -4.159   1.559   0.524  1.00  0.00    -0.304 N 
HETATM    7  C13 UNL     1      -3.681   1.375  -0.811  1.00  0.00     0.155 C 
HETATM    8  C14 UNL     1      -2.197   1.067  -0.860  1.00  0.00     0.147 C 
ENDROOT
BRANCH   1   9
HETATM    9  C3  UNL     1       0.536  -0.068  -0.645  1.00  0.00     0.352 C 
HETATM   10  O2  UNL     1       0.403   0.863  -1.460  1.00  0.00    -0.254 OA
BRANCH   9  11
HETATM   11  O1  UNL     1       1.822  -0.602  -0.521  1.00  0.00    -0.299 OA
BRANCH  11  12
HETATM   12  C2  UNL     1       2.925  -0.149  -1.250  1.00  0.00     0.220 C 
HETATM   13  C1  UNL     1       3.516  -1.283  -2.030  1.00  0.00     0.050 C 
BRANCH  12  14
HETATM   14  C15 UNL     1       3.953   0.432  -0.336  1.00  0.00     0.247 C 
HETATM   15  O6  UNL     1       3.709   0.449   0.895  1.00  0.00    -0.271 OA
HETATM   16  N3  UNL     1       5.171   0.952  -0.833  1.00  0.00    -0.355 N 
ATOM     17  H3  UNL     1       5.325   0.916  -1.841  1.00  0.00     0.162 HD
BRANCH  16  18
HETATM   18  C16 UNL     1       6.209   1.528  -0.020  1.00  0.00     0.161 C 
BRANCH  18  19
HETATM   19  C17 UNL     1       6.985   0.485   0.677  1.00  0.00    -0.041 A 
HETATM   20  C18 UNL     1       6.793   0.128   1.983  1.00  0.00     0.009 A 
HETATM   21  C19 UNL     1       7.579  -0.876   2.549  1.00  0.00     0.001 A 
HETATM   22  C20 UNL     1       8.559  -1.535   1.830  1.00  0.00     0.000 A 
HETATM   23  C21 UNL     1       8.739  -1.159   0.508  1.00  0.00     0.001 A 
HETATM   24  C22 UNL     1       7.970  -0.166  -0.071  1.00  0.00     0.009 A 
ENDBRANCH  18  19
ENDBRANCH  16  18
ENDBRANCH  12  14
ENDBRANCH  11  12
ENDBRANCH   9  11
ENDBRANCH   1   9
BRANCH   6  25
HETATM   25  S1  UNL     1      -5.795   1.926   0.685  1.00  0.00     0.260 S 
HETATM   26  O4  UNL     1      -6.122   2.657   1.956  1.00  0.00    -0.200 OA
HETATM   27  O5  UNL     1      -6.229   2.824  -0.465  1.00  0.00    -0.200 OA
BRANCH  25  28
HETATM   28  C7  UNL     1      -6.745   0.465   0.534  1.00  0.00     0.079 A 
HETATM   29  C8  UNL     1      -7.077  -0.299   1.641  1.00  0.00     0.025 A 
HETATM   30  C9  UNL     1      -7.837  -1.460   1.477  1.00  0.00     0.002 A 
HETATM   31  C10 UNL     1      -8.272  -1.877   0.254  1.00  0.00     0.000 A 
HETATM   32  C11 UNL     1      -7.941  -1.115  -0.852  1.00  0.00     0.002 A 
HETATM   33  C12 UNL     1      -7.187   0.038  -0.700  1.00  0.00     0.025 A 
ENDBRANCH  25  28
ENDBRANCH   6  25
TORSDOF 8
