REMARK  6 active torsions:
REMARK  status: ('A' for Active; 'I' for Inactive)
REMARK    1  A    between atoms: N3_4  and  C2_6 
REMARK    2  A    between atoms: C2_6  and  C3_7 
REMARK    3  A    between atoms: C3_7  and  C4_8 
REMARK    4  A    between atoms: C4_8  and  C5_9 
REMARK    5  A    between atoms: C6_12  and  C7_13 
REMARK    6  A    between atoms: N6_14  and  N7_16 
ROOT
HETATM    1  C5  UNL     1       0.892  -0.595   0.753  1.00  0.00     0.187 C 
HETATM    2  N4  UNL     1      -0.188  -0.102   1.565  1.00  0.00    -0.132 NA
HETATM    3  N5  UNL     1      -1.407  -0.709   1.319  1.00  0.00    -0.117 NA
HETATM    4  C6  UNL     1      -2.063  -0.036   0.242  1.00  0.00     0.235 C 
HETATM    5  N10 UNL     1      -2.709  -1.057  -0.577  1.00  0.00    -0.336 N 
ATOM      6  H10 UNL     1      -3.727  -1.112  -0.567  1.00  0.00     0.164 HD
HETATM    7  C9  UNL     1      -1.999  -1.972  -1.382  1.00  0.00     0.236 C 
HETATM    8  O1  UNL     1      -2.517  -3.045  -1.776  1.00  0.00    -0.272 OA
HETATM    9  C10 UNL     1      -0.605  -1.685  -1.786  1.00  0.00     0.225 C 
HETATM   10  N11 UNL     1       0.262  -2.439  -0.906  1.00  0.00    -0.351 N 
ATOM     11  H11 UNL     1       0.543  -3.371  -1.210  1.00  0.00     0.163 HD
HETATM   12  C11 UNL     1       0.747  -1.989   0.334  1.00  0.00     0.238 C 
HETATM   13  O2  UNL     1       1.098  -2.885   1.181  1.00  0.00    -0.272 OA
ENDROOT
BRANCH   1  14
HETATM   14  C4  UNL     1       2.167  -0.378   1.544  1.00  0.00     0.034 C 
BRANCH  14  15
HETATM   15  C3  UNL     1       3.392  -0.850   0.817  1.00  0.00     0.022 C 
BRANCH  15  16
HETATM   16  C2  UNL     1       3.517  -0.100  -0.470  1.00  0.00     0.122 C 
BRANCH  16  17
HETATM   17  N3  UNL     1       4.701  -0.514  -1.229  1.00  0.00    -0.367 N 
HETATM   18  C1  UNL     1       5.617   0.361  -1.399  1.00  0.00     0.196 C 
HETATM   19  N1  UNL     1       6.769  -0.019  -2.129  1.00  0.00    -0.067 NA
HETATM   20  N2  UNL     1       5.537   1.675  -0.899  1.00  0.00    -0.067 NA
ATOM     21  H3  UNL     1       4.790  -1.458  -1.605  1.00  0.00     0.161 HD
ENDBRANCH  16  17
ENDBRANCH  15  16
ENDBRANCH  14  15
ENDBRANCH   1  14
BRANCH   4  22
HETATM   22  C7  UNL     1      -3.044   0.976   0.697  1.00  0.00     0.123 C 
HETATM   23  N6  UNL     1      -4.068   0.590   1.347  1.00  0.00    -0.310 N 
ATOM     24  H6  UNL     1      -4.176  -0.407   1.532  1.00  0.00     0.185 HD
BRANCH  23  25
HETATM   25  N7  UNL     1      -5.052   1.462   1.821  1.00  0.00    -0.277 N 
HETATM   26  C8  UNL     1      -5.911   1.974   0.995  1.00  0.00     0.215 C 
HETATM   27  N8  UNL     1      -6.922   2.864   1.451  1.00  0.00    -0.065 NA
HETATM   28  N9  UNL     1      -5.856   1.655  -0.376  1.00  0.00    -0.065 NA
ATOM     29  H7  UNL     1      -5.094   1.695   2.813  1.00  0.00     0.189 HD
ENDBRANCH  23  25
ENDBRANCH   4  22
TORSDOF 6
