REMARK  16 active torsions:
REMARK  status: ('A' for Active; 'I' for Inactive)
REMARK    1  A    between atoms: N1_1  and  C1_4 
REMARK    2  A    between atoms: C2_7  and  C3_8 
REMARK    3  A    between atoms: C3_8  and  O1_9 
REMARK    4  A    between atoms: C3_8  and  N3_11 
REMARK    5  A    between atoms: N3_11  and  N4_12 
REMARK    6  A    between atoms: C4_15  and  N5_16 
REMARK    7  A    between atoms: C5_18  and  C6_19 
REMARK    8  A    between atoms: C6_19  and  O2_20 
REMARK    9  A    between atoms: C6_19  and  N6_22 
REMARK   10  A    between atoms: N6_22  and  C7_24 
REMARK   11  A    between atoms: C11_29  and  C12_30 
REMARK   12  A    between atoms: C12_30  and  O4_31 
REMARK   13  A    between atoms: C12_30  and  O5_33 
REMARK   14  A    between atoms: C13_35  and  C14_36 
REMARK   15  A    between atoms: C14_36  and  O6_37 
REMARK   16  A    between atoms: C14_36  and  C15_39 
ROOT
HETATM    1  N6  UNL     1      -1.496   0.245  -1.562  1.00  0.00    -0.345 N 
ATOM      2  H6  UNL     1      -1.712  -0.095  -2.499  1.00  0.00     0.164 HD
ENDROOT
BRANCH   1   3
HETATM    3  C6  UNL     1      -2.536   0.891  -0.778  1.00  0.00     0.259 C 
BRANCH   3   4
HETATM    4  C5  UNL     1      -3.762   0.970  -1.588  1.00  0.00     0.114 C 
HETATM    5  N5  UNL     1      -4.756   0.137  -1.513  1.00  0.00    -0.358 N 
ATOM      6  H5  UNL     1      -5.577   0.258  -2.106  1.00  0.00     0.165 HD
BRANCH   5   7
HETATM    7  C4  UNL     1      -4.685  -0.966  -0.577  1.00  0.00     0.110 A 
HETATM    8  C2  UNL     1      -4.998  -1.036   0.738  1.00  0.00     0.136 A 
HETATM    9  N2  UNL     1      -4.801  -2.162   1.363  1.00  0.00    -0.330 N 
HETATM   10  C1  UNL     1      -4.297  -3.209   0.682  1.00  0.00     0.144 A 
ATOM     11  H2  UNL     1      -5.025  -2.249   2.354  1.00  0.00     0.168 HD
HETATM   12  S1  UNL     1      -4.103  -2.558  -0.890  1.00  0.00    -0.034 SA
BRANCH   8  13
HETATM   13  C3  UNL     1      -5.539   0.227   1.429  1.00  0.00     0.267 C 
BRANCH  13  14
HETATM   14  O1  UNL     1      -5.291   0.204   2.711  1.00  0.00    -0.332 OA
ATOM     15  H1  UNL     1      -5.625   0.984   3.138  1.00  0.00     0.220 HD
ENDBRANCH  13  14
BRANCH  13  16
HETATM   16  N3  UNL     1      -6.164   1.174   0.786  1.00  0.00    -0.304 NA
BRANCH  16  17
HETATM   17  N4  UNL     1      -6.818   2.174   0.146  1.00  0.00    -0.278 N 
ATOM     18  H42 UNL     1      -6.613   2.080   1.141  1.00  0.00     0.191 HD
ATOM     19  H41 UNL     1      -7.307   2.915  -0.357  1.00  0.00     0.191 HD
ENDBRANCH  16  17
ENDBRANCH  13  16
ENDBRANCH   8  13
BRANCH  10  20
HETATM   20  N1  UNL     1      -4.041  -4.396   1.118  1.00  0.00    -0.380 N 
ATOM     21  H12 UNL     1      -4.157  -4.784   2.054  1.00  0.00     0.158 HD
ATOM     22  H11 UNL     1      -3.659  -5.189   0.602  1.00  0.00     0.158 HD
ENDBRANCH  10  20
ENDBRANCH   5   7
ENDBRANCH   3   4
BRANCH   3  23
HETATM   23  O2  UNL     1      -2.131   2.143  -0.310  1.00  0.00    -0.372 OA
ATOM     24  H2  UNL     1      -1.340   2.092   0.213  1.00  0.00     0.212 HD
ENDBRANCH   3  23
ENDBRANCH   1   3
BRANCH   1  25
HETATM   25  C7  UNL     1      -0.182   0.079  -1.043  1.00  0.00     0.117 A 
HETATM   26  C8  UNL     1      -0.010  -1.005  -0.304  1.00  0.00     0.052 A 
HETATM   27  C9  UNL     1       1.191  -1.470   0.372  1.00  0.00     0.043 A 
HETATM   28  C10 UNL     1       2.388  -0.878   0.389  1.00  0.00     0.104 A 
HETATM   29  O3  UNL     1       3.431  -1.347   1.020  1.00  0.00    -0.307 OA
HETATM   30  C16 UNL     1       2.770   0.301  -0.222  1.00  0.00     0.094 A 
HETATM   31  C11 UNL     1       4.481  -0.531   0.854  1.00  0.00     0.119 A 
HETATM   32  C13 UNL     1       4.127   0.528   0.078  1.00  0.00     0.046 A 
HETATM   33  N7  UNL     1       2.132   1.129  -0.950  1.00  0.00    -0.296 N 
HETATM   34  N8  UNL     1       0.784   1.069  -1.356  1.00  0.00    -0.285 N 
ATOM     35  H7  UNL     1       2.663   1.935  -1.280  1.00  0.00     0.187 HD
ATOM     36  H8  UNL     1       0.463   1.834  -1.950  1.00  0.00     0.188 HD
BRANCH  31  37
HETATM   37  C12 UNL     1       5.800  -0.837   1.477  1.00  0.00     0.313 C 
BRANCH  37  38
HETATM   38  O4  UNL     1       6.136  -2.189   1.295  1.00  0.00    -0.365 OA
ATOM     39  H4  UNL     1       6.977  -2.384   1.692  1.00  0.00     0.213 HD
ENDBRANCH  37  38
BRANCH  37  40
HETATM   40  O5  UNL     1       5.625  -0.633   2.859  1.00  0.00    -0.365 OA
ATOM     41  H5  UNL     1       6.466  -0.828   3.256  1.00  0.00     0.213 HD
ENDBRANCH  37  40
ENDBRANCH  31  37
BRANCH  32  42
HETATM   42  C14 UNL     1       4.916   1.687  -0.404  1.00  0.00     0.257 C 
BRANCH  42  43
HETATM   43  O6  UNL     1       5.008   2.691   0.581  1.00  0.00    -0.380 OA
ATOM     44  H6  UNL     1       5.514   3.434   0.272  1.00  0.00     0.211 HD
ENDBRANCH  42  43
BRANCH  42  45
HETATM   45  C15 UNL     1       6.239   1.348  -0.943  1.00  0.00     0.207 C 
HETATM   46  O7  UNL     1       7.264   1.975  -0.618  1.00  0.00    -0.646 OA
HETATM   47  O8  UNL     1       6.360   0.300  -1.837  1.00  0.00    -0.646 OA
ENDBRANCH  42  45
ENDBRANCH  32  42
ENDBRANCH   1  25
TORSDOF 16
