REMARK  3 active torsions:
REMARK  status: ('A' for Active; 'I' for Inactive)
REMARK    1  A    between atoms: N1_2  and  C3_4 
REMARK    2  A    between atoms: C5_8  and  C6_9 
REMARK       I    between atoms: C6_9  and  N3_11 
REMARK    3  A    between atoms: N3_11  and  N4_12 
REMARK       I    between atoms: N3_11  and  C7_15 
REMARK       I    between atoms: C7_15  and  N5_16 
REMARK       I    between atoms: C7_15  and  N6_20 
ROOT
HETATM    1  C6  UNL     1       1.208   0.895  -0.230  1.00  0.00     0.260 C 
HETATM    2  O1  UNL     1       1.316   1.503  -1.330  1.00  0.00    -0.270 OA
HETATM    3  N3  UNL     1       2.420   0.507   0.391  1.00  0.00    -0.211 N 
HETATM    4  C7  UNL     1       3.725   0.780  -0.187  1.00  0.00     0.503 C 
HETATM    5  N5  UNL     1       4.551   1.579   0.695  1.00  0.00    -0.031 N 
ATOM      6  H51 UNL     1       5.467   1.771   0.289  1.00  0.00     0.279 HD
ATOM      7  H52 UNL     1       4.636   1.147   1.615  1.00  0.00     0.279 HD
ATOM      8  H53 UNL     1       4.078   2.441   0.966  1.00  0.00     0.279 HD
HETATM    9  N6  UNL     1       4.404  -0.451  -0.444  1.00  0.00    -0.031 N 
ATOM     10  H61 UNL     1       5.320  -0.259  -0.850  1.00  0.00     0.279 HD
ATOM     11  H62 UNL     1       3.851  -1.081  -1.025  1.00  0.00     0.279 HD
ATOM     12  H63 UNL     1       4.467  -1.036   0.389  1.00  0.00     0.279 HD
ENDROOT
BRANCH   3  13
HETATM   13  N4  UNL     1       2.369  -0.166   1.609  1.00  0.00    -0.337 N 
ATOM     14  H42 UNL     1       1.453  -0.358   2.015  1.00  0.00     0.177 HD
ATOM     15  H41 UNL     1       3.242  -0.445   2.056  1.00  0.00     0.177 HD
ENDBRANCH   3  13
BRANCH   1  16
HETATM   16  C5  UNL     1      -0.064   0.586   0.407  1.00  0.00     0.187 C 
HETATM   17  C4  UNL     1      -0.342  -0.884   0.606  1.00  0.00     0.088 C 
HETATM   18  N2  UNL     1      -1.708  -1.180   0.502  1.00  0.00    -0.349 N 
HETATM   19  C3  UNL     1      -2.477  -0.409  -0.129  1.00  0.00     0.142 C 
ATOM     20  H2  UNL     1      -2.080  -2.023   0.939  1.00  0.00     0.167 HD
HETATM   21  S1  UNL     1      -1.483   0.944  -0.724  1.00  0.00    -0.074 SA
BRANCH  19  22
HETATM   22  N1  UNL     1      -3.850  -0.562  -0.323  1.00  0.00    -0.370 N 
HETATM   23  C1  UNL     1      -4.421  -1.049  -1.555  1.00  0.00     0.151 C 
HETATM   24  C2  UNL     1      -4.793  -0.224   0.750  1.00  0.00     0.151 C 
ENDBRANCH  19  22
ENDBRANCH   1  16
TORSDOF 3
