REMARK  9 active torsions:
REMARK  status: ('A' for Active; 'I' for Inactive)
REMARK    1  A    between atoms: C2_2  and  C3_3 
REMARK    2  A    between atoms: C3_3  and  C4_4 
REMARK    3  A    between atoms: C4_4  and  C5_5 
REMARK    4  A    between atoms: C6_6  and  C7_7 
REMARK    5  A    between atoms: C13_14  and  C14_15 
REMARK    6  A    between atoms: C13_14  and  C15_19 
REMARK    7  A    between atoms: C15_19  and  O2_20 
REMARK    8  A    between atoms: C20_28  and  C21_29 
REMARK    9  A    between atoms: C21_29  and  N2_30 
ROOT
HETATM    1  C7  UNL     1       2.570   0.163   1.003  1.00  0.00     0.020 A 
HETATM    2  C8  UNL     1       2.287  -0.689   2.079  1.00  0.00     0.022 A 
HETATM    3  C9  UNL     1       0.978  -1.077   2.274  1.00  0.00     0.023 A 
HETATM    4  C10 UNL     1       0.040  -0.642   1.452  1.00  0.00     0.034 A 
HETATM    5  C11 UNL     1       0.241   0.211   0.357  1.00  0.00     0.088 A 
HETATM    6  C12 UNL     1       1.565   0.596   0.170  1.00  0.00     0.058 A 
HETATM    7  O1  UNL     1      -0.717   0.640  -0.457  1.00  0.00    -0.325 OA
HETATM    8  C13 UNL     1      -1.982   0.065  -0.823  1.00  0.00     0.209 C 
HETATM    9  C20 UNL     1      -2.147  -1.278  -0.172  1.00  0.00     0.128 C 
HETATM   10  S1  UNL     1      -1.679  -1.142   1.606  1.00  0.00    -0.117 SA
ENDROOT
BRANCH   8  11
HETATM   11  C14 UNL     1      -1.773  -0.139  -2.314  1.00  0.00     0.423 C 
HETATM   12  F1  UNL     1      -0.666  -1.013  -2.407  1.00  0.00    -0.168 F 
HETATM   13  F2  UNL     1      -2.767  -0.774  -2.970  1.00  0.00    -0.168 F 
HETATM   14  F3  UNL     1      -1.323   1.007  -2.948  1.00  0.00    -0.168 F 
ENDBRANCH   8  11
BRANCH   8  15
HETATM   15  C15 UNL     1      -2.944   1.111  -0.432  1.00  0.00     0.102 C 
HETATM   16  C16 UNL     1      -2.510   2.499  -0.952  1.00  0.00     0.060 C 
HETATM   17  C17 UNL     1      -3.242   3.504  -0.045  1.00  0.00     0.117 C 
HETATM   18  N1  UNL     1      -4.621   3.422  -0.405  1.00  0.00    -0.421 N 
HETATM   19  C18 UNL     1      -4.999   2.313  -1.209  1.00  0.00     0.117 C 
ATOM     20  H1  UNL     1      -5.298   4.122  -0.102  1.00  0.00     0.153 HD
HETATM   21  C19 UNL     1      -4.371   0.994  -0.716  1.00  0.00     0.060 C 
BRANCH  15  22
HETATM   22  O2  UNL     1      -2.773   1.268   0.971  1.00  0.00    -0.386 OA
ATOM     23  H2  UNL     1      -3.393   1.942   1.223  1.00  0.00     0.210 HD
ENDBRANCH  15  22
ENDBRANCH   8  15
BRANCH   9  24
HETATM   24  C21 UNL     1      -3.405  -1.974  -0.254  1.00  0.00     0.290 C 
BRANCH  24  25
HETATM   25  N2  UNL     1      -3.344  -3.277   0.424  1.00  0.00     0.081 N 
HETATM   26  C22 UNL     1      -4.504  -4.085  -0.025  1.00  0.00     0.309 C 
HETATM   27  C23 UNL     1      -3.525  -3.175   1.866  1.00  0.00     0.309 C 
ENDBRANCH  24  25
ENDBRANCH   9  24
BRANCH   1  28
HETATM   28  C6  UNL     1       3.933   0.557   0.780  1.00  0.00    -0.067 C 
HETATM   29  C5  UNL     1       5.081   0.862   0.579  1.00  0.00    -0.101 C 
BRANCH  29  30
HETATM   30  C4  UNL     1       6.506   1.206   0.328  1.00  0.00     0.094 C 
BRANCH  30  31
HETATM   31  C3  UNL     1       7.178  -0.026  -0.302  1.00  0.00     0.012 C 
BRANCH  31  32
HETATM   32  C2  UNL     1       8.626   0.201  -0.595  1.00  0.00    -0.004 C 
HETATM   33  C1  UNL     1       9.331   0.522   0.715  1.00  0.00     0.005 C 
ENDBRANCH  31  32
ENDBRANCH  30  31
ENDBRANCH  29  30
ENDBRANCH   1  28
TORSDOF 9
