REMARK  4 active torsions:
REMARK  status: ('A' for Active; 'I' for Inactive)
REMARK    1  A    between atoms: N1_1  and  C1_4 
REMARK    2  A    between atoms: C2_7  and  C3_8 
REMARK    3  A    between atoms: N3_9  and  N4_11 
REMARK       I    between atoms: C4_13  and  N6_15 
REMARK    4  A    between atoms: N6_15  and  N7_17 
ROOT
HETATM    1  C1  UNL     1       3.667  -0.836   0.239  1.00  0.00     0.679 A 
HETATM    2  N2  UNL     1       2.510  -1.470   0.088  1.00  0.00    -0.191 N 
ATOM      3  H2  UNL     1       2.486  -2.485   0.188  1.00  0.00     0.184 HD
HETATM    4  C2  UNL     1       1.341  -0.800  -0.199  1.00  0.00     0.071 A 
HETATM    5  C5  UNL     1       1.450   0.554  -0.317  1.00  0.00     0.106 A 
HETATM    6  C6  UNL     1       2.682   1.194  -0.153  1.00  0.00     0.261 A 
HETATM    7  O3  UNL     1       2.742   2.447  -0.269  1.00  0.00    -0.268 OA
HETATM    8  N8  UNL     1       3.786   0.499   0.124  1.00  0.00    -0.156 N 
ATOM      9  H8  UNL     1       4.687   0.962   0.244  1.00  0.00     0.187 HD
ENDROOT
BRANCH   4  10
HETATM   10  C3  UNL     1       0.116  -1.558  -0.350  1.00  0.00     0.137 C 
HETATM   11  N3  UNL     1      -1.007  -1.127  -0.603  1.00  0.00    -0.307 N 
ATOM     12  H3  UNL     1      -1.718  -1.856  -0.660  1.00  0.00     0.186 HD
BRANCH  11  13
HETATM   13  N4  UNL     1      -1.487   0.103  -0.819  1.00  0.00    -0.273 N 
HETATM   14  C4  UNL     1      -2.684   0.530  -0.529  1.00  0.00     0.226 C 
HETATM   15  N5  UNL     1      -3.054   1.873  -0.818  1.00  0.00    -0.060 NA
HETATM   16  N6  UNL     1      -3.655  -0.298   0.074  1.00  0.00    -0.212 N 
ATOM     17  H6  UNL     1      -3.687  -1.292  -0.154  1.00  0.00     0.196 HD
ATOM     18  H4  UNL     1      -0.853   0.773  -1.254  1.00  0.00     0.189 HD
BRANCH  16  19
HETATM   19  N7  UNL     1      -4.565   0.232   0.975  1.00  0.00    -0.036 N 
HETATM   20  O1  UNL     1      -4.285   1.056   1.853  1.00  0.00    -0.516 OA
HETATM   21  O2  UNL     1      -5.885  -0.180   0.899  1.00  0.00    -0.516 OA
ENDBRANCH  16  19
ENDBRANCH  11  13
ENDBRANCH   4  10
BRANCH   1  22
HETATM   22  N1  UNL     1       4.716  -1.565   0.509  1.00  0.00    -0.234 N 
ATOM     23  H12 UNL     1       4.626  -2.577   0.596  1.00  0.00     0.174 HD
ATOM     24  H11 UNL     1       5.605  -1.078   0.625  1.00  0.00     0.174 HD
ENDBRANCH   1  22
TORSDOF 4
