REMARK  4 active torsions:
REMARK  status: ('A' for Active; 'I' for Inactive)
REMARK    1  A    between atoms: C2_3  and  N2_4 
REMARK    2  A    between atoms: C2_3  and  N6_14 
REMARK    3  A    between atoms: N2_4  and  C3_6 
REMARK    4  A    between atoms: N6_14  and  N7_15 
ROOT
HETATM    1  N1  UNL     1      -2.108   3.214  -1.319  1.00  0.00    -0.194 NA
HETATM    2  C1  UNL     1      -1.738   2.188  -0.926  1.00  0.00     0.104 C 
HETATM    3  C2  UNL     1      -1.287   0.893  -0.448  1.00  0.00     0.320 C 
ENDROOT
BRANCH   3   4
HETATM    4  N2  UNL     1       0.003   1.071   0.171  1.00  0.00    -0.192 N 
ATOM      5  H2  UNL     1       0.171   1.884   0.763  1.00  0.00     0.180 HD
BRANCH   4   6
HETATM    6  C3  UNL     1       0.933   0.224  -0.014  1.00  0.00     0.695 A 
HETATM    7  N3  UNL     1       0.856  -0.888  -0.764  1.00  0.00    -0.185 N 
HETATM    8  C4  UNL     1       2.048  -1.484  -0.684  1.00  0.00     0.215 A 
ATOM      9  H3  UNL     1       0.046  -1.213  -1.291  1.00  0.00     0.185 HD
HETATM   10  N4  UNL     1       2.834  -0.731   0.110  1.00  0.00    -0.281 N 
HETATM   11  N5  UNL     1       2.157   0.314   0.523  1.00  0.00    -0.131 N 
ATOM     12  H4  UNL     1       3.803  -0.940   0.352  1.00  0.00     0.188 HD
ATOM     13  H5  UNL     1       2.498   1.054   1.136  1.00  0.00     0.205 HD
ENDBRANCH   4   6
ENDBRANCH   3   4
BRANCH   3  14
HETATM   14  N6  UNL     1      -2.182   0.353   0.554  1.00  0.00    -0.107 NA
BRANCH  14  15
HETATM   15  N7  UNL     1      -1.774  -0.877   1.023  1.00  0.00    -0.346 N 
ATOM     16  H72 UNL     1      -0.930  -1.343   0.690  1.00  0.00     0.172 HD
ATOM     17  H71 UNL     1      -2.404  -1.257   1.729  1.00  0.00     0.172 HD
ENDBRANCH  14  15
ENDBRANCH   3  14
TORSDOF 4
