REMARK  0 active torsions:
REMARK  status: ('A' for Active; 'I' for Inactive)
ROOT
HETATM    1  C1  UNL     1      -3.079   0.477  -0.411  1.00  0.00     0.176 C 
HETATM    2  N1  UNL     1      -1.811   0.015   0.198  1.00  0.00    -0.316 N 
HETATM    3  C2  UNL     1      -1.421  -1.136  -0.377  1.00  0.00     0.082 C 
HETATM    4  C3  UNL     1      -0.530  -2.172   0.153  1.00  0.00     0.046 C 
HETATM    5  C4  UNL     1       0.916  -2.173  -0.430  1.00  0.00     0.005 C 
HETATM    6  C5  UNL     1       1.298  -0.789  -0.178  1.00  0.00     0.000 C 
HETATM    7  C6  UNL     1       2.543  -0.087  -0.347  1.00  0.00     0.000 C 
HETATM    8  C7  UNL     1       2.144   1.392  -0.130  1.00  0.00     0.002 C 
HETATM    9  C8  UNL     1       1.075   1.661   0.863  1.00  0.00     0.021 C 
HETATM   10  C9  UNL     1      -0.322   1.865   0.366  1.00  0.00     0.139 C 
HETATM   11  N2  UNL     1      -1.334   0.967   0.938  1.00  0.00    -0.335 N 
ATOM     12  H2  UNL     1      -1.655   1.090   1.898  1.00  0.00     0.180 HD
ENDROOT
TORSDOF 0
