REMARK  4 active torsions:
REMARK  status: ('A' for Active; 'I' for Inactive)
REMARK    1  A    between atoms: N1_6  and  C5_7 
REMARK    2  A    between atoms: N3_19  and  C14_20 
REMARK    3  A    between atoms: C14_20  and  O3_21 
REMARK    4  A    between atoms: C14_20  and  C15_23 
ROOT
HETATM    1  O1  UNL     1      -1.341   1.129   1.611  1.00  0.00    -0.271 OA
HETATM    2  C1  UNL     1      -1.285  -0.095   1.341  1.00  0.00     0.245 C 
HETATM    3  C2  UNL     1      -0.142  -0.978   1.545  1.00  0.00     0.212 C 
HETATM    4  C3  UNL     1      -0.567  -2.266   0.872  1.00  0.00     0.136 C 
HETATM    5  C4  UNL     1      -2.084  -2.227   1.055  1.00  0.00     0.154 C 
HETATM    6  N1  UNL     1      -2.379  -0.829   0.771  1.00  0.00    -0.344 N 
HETATM    7  N2  UNL     1      -0.249  -2.020  -0.518  1.00  0.00    -0.334 N 
ATOM      8  H2  UNL     1      -0.485  -2.631  -1.300  1.00  0.00     0.164 HD
HETATM    9  C13 UNL     1       0.460  -0.761  -0.614  1.00  0.00     0.325 C 
HETATM   10  O2  UNL     1       0.513  -0.054  -1.645  1.00  0.00    -0.247 OA
HETATM   11  N3  UNL     1       1.020  -0.567   0.661  1.00  0.00    -0.267 N 
ENDROOT
BRANCH  11  12
HETATM   12  C14 UNL     1       2.227  -0.098   1.137  1.00  0.00     0.131 C 
BRANCH  12  13
HETATM   13  O3  UNL     1       2.248   0.052   2.460  1.00  0.00    -0.348 OA
ATOM     14  H3  UNL     1       3.079   0.375   2.788  1.00  0.00     0.219 HD
ENDBRANCH  12  13
BRANCH  12  15
HETATM   15  C15 UNL     1       3.481   0.260   0.517  1.00  0.00     0.026 C 
HETATM   16  C16 UNL     1       3.361   0.851  -0.843  1.00  0.00     0.022 C 
HETATM   17  C17 UNL     1       4.718   1.282  -1.419  1.00  0.00    -0.013 C 
HETATM   18  C18 UNL     1       5.355   2.244  -0.487  1.00  0.00     0.009 C 
HETATM   19  C22 UNL     1       5.595   0.050  -1.559  1.00  0.00     0.009 C 
HETATM   20  C19 UNL     1       5.563   1.572   0.859  1.00  0.00    -0.013 C 
HETATM   21  C20 UNL     1       6.376   0.324   0.770  1.00  0.00     0.009 C 
HETATM   22  C24 UNL     1       4.227   1.245   1.433  1.00  0.00     0.022 C 
HETATM   23  C21 UNL     1       5.695  -0.613  -0.225  1.00  0.00    -0.013 C 
HETATM   24  C23 UNL     1       4.360  -0.978   0.382  1.00  0.00     0.022 C 
ENDBRANCH  12  15
ENDBRANCH  11  12
BRANCH   6  25
HETATM   25  C5  UNL     1      -3.521  -0.276   0.070  1.00  0.00     0.087 C 
HETATM   26  C6  UNL     1      -4.818  -0.570   0.781  1.00  0.00     0.025 C 
HETATM   27  C7  UNL     1      -5.497   0.650   1.316  1.00  0.00     0.002 C 
HETATM   28  C8  UNL     1      -6.147   1.507   0.289  1.00  0.00     0.000 C 
HETATM   29  C9  UNL     1      -6.471   0.821  -0.996  1.00  0.00     0.000 C 
HETATM   30  C10 UNL     1      -5.277   0.779  -1.930  1.00  0.00     0.000 C 
HETATM   31  C11 UNL     1      -4.780  -0.625  -2.078  1.00  0.00     0.002 C 
HETATM   32  C12 UNL     1      -3.523  -0.880  -1.317  1.00  0.00     0.025 C 
ENDBRANCH   6  25
TORSDOF 4
