REMARK  5 active torsions:
REMARK  status: ('A' for Active; 'I' for Inactive)
REMARK    1  A    between atoms: C2_2  and  C4_4 
REMARK    2  A    between atoms: C4_4  and  C5_5 
REMARK    3  A    between atoms: N2_12  and  C9_13 
REMARK    4  A    between atoms: C9_13  and  C10_14 
REMARK    5  A    between atoms: C10_14  and  N3_15 
ROOT
HETATM    1  C5  UNL     1      -0.399   1.049  -0.526  1.00  0.00     0.085 A 
HETATM    2  N1  UNL     1      -1.657   1.259  -0.072  1.00  0.00    -0.348 N 
ATOM      3  H1  UNL     1      -2.028   2.209  -0.043  1.00  0.00     0.167 HD
HETATM    4  C6  UNL     1      -2.425   0.237   0.341  1.00  0.00     0.025 A 
HETATM    5  C7  UNL     1      -1.871  -1.060   0.283  1.00  0.00     0.008 A 
HETATM    6  C8  UNL     1      -0.585  -1.250  -0.184  1.00  0.00     0.113 A 
HETATM    7  S1  UNL     1      -0.009  -2.784  -0.224  1.00  0.00    -0.059 SA
HETATM    8  N2  UNL     1       0.141  -0.180  -0.586  1.00  0.00    -0.325 N 
HETATM    9  C15 UNL     1      -2.983  -1.878   0.803  1.00  0.00     0.033 C 
HETATM   10  C16 UNL     1      -3.429  -1.025   1.999  1.00  0.00     0.022 C 
HETATM   11  C17 UNL     1      -3.763  -0.024   0.881  1.00  0.00     0.045 C 
HETATM   12  C18 UNL     1      -4.175  -1.252   0.093  1.00  0.00    -0.031 C 
HETATM   13  C19 UNL     1      -3.948  -1.137  -1.394  1.00  0.00     0.016 C 
HETATM   14  C20 UNL     1      -5.504  -1.823   0.423  1.00  0.00     0.016 C 
ENDROOT
BRANCH   8  15
HETATM   15  C9  UNL     1       1.490  -0.426  -1.064  1.00  0.00     0.161 C 
BRANCH  15  16
HETATM   16  C10 UNL     1       2.523  -0.396   0.036  1.00  0.00     0.292 C 
BRANCH  16  17
HETATM   17  N3  UNL     1       3.813  -0.626  -0.521  1.00  0.00     0.090 N 
HETATM   18  C11 UNL     1       4.901  -0.609   0.397  1.00  0.00     0.272 C 
HETATM   19  C12 UNL     1       5.381  -2.039   0.431  1.00  0.00     0.032 C 
HETATM   20  C13 UNL     1       5.196  -2.471  -1.019  1.00  0.00     0.032 C 
HETATM   21  C14 UNL     1       3.847  -1.816  -1.306  1.00  0.00     0.272 C 
ENDBRANCH  16  17
ENDBRANCH  15  16
ENDBRANCH   8  15
BRANCH   1  22
HETATM   22  C4  UNL     1       0.389   2.211  -0.973  1.00  0.00     0.080 C 
BRANCH  22  23
HETATM   23  C2  UNL     1      -0.409   3.506  -0.836  1.00  0.00    -0.016 C 
HETATM   24  C1  UNL     1      -0.811   3.754   0.588  1.00  0.00     0.010 C 
HETATM   25  C3  UNL     1       0.460   4.636  -1.311  1.00  0.00     0.010 C 
ENDBRANCH  22  23
ENDBRANCH   1  22
TORSDOF 5
