REMARK  7 active torsions:
REMARK  status: ('A' for Active; 'I' for Inactive)
REMARK    1  A    between atoms: C2_2  and  C3_3 
REMARK    2  A    between atoms: C15_16  and  O2_17 
REMARK    3  A    between atoms: O2_17  and  C16_18 
REMARK    4  A    between atoms: C16_18  and  C17_20 
REMARK    5  A    between atoms: C17_20  and  C18_21 
REMARK    6  A    between atoms: C20_23  and  C21_24 
REMARK    7  A    between atoms: C21_24  and  O4_25 
ROOT
HETATM    1  C3  UNL     1      -2.451  -1.701  -0.606  1.00  0.00    -0.041 C 
HETATM    2  C4  UNL     1      -2.628  -0.914   0.587  1.00  0.00     0.017 C 
HETATM    3  C5  UNL     1      -1.782   0.131   1.128  1.00  0.00     0.160 C 
HETATM    4  O1  UNL     1      -2.310   1.448   1.194  1.00  0.00    -0.370 OA
HETATM    5  C6  UNL     1      -1.955   2.139   0.012  1.00  0.00     0.059 C 
HETATM    6  C7  UNL     1      -3.359   2.104  -0.691  1.00  0.00     0.046 C 
HETATM    7  C8  UNL     1      -1.728   3.598   0.139  1.00  0.00     0.046 C 
HETATM    8  C9  UNL     1      -0.971   1.275  -0.561  1.00  0.00     0.035 C 
HETATM    9  C10 UNL     1       0.087   1.472  -1.523  1.00  0.00     0.010 C 
HETATM   10  C11 UNL     1       0.177   0.077  -2.225  1.00  0.00     0.016 C 
HETATM   11  C12 UNL     1      -0.018  -1.059  -1.312  1.00  0.00     0.002 C 
HETATM   12  C13 UNL     1       1.160  -2.006  -1.737  1.00  0.00     0.022 C 
HETATM   13  C14 UNL     1      -1.165  -1.928  -1.269  1.00  0.00    -0.004 C 
HETATM   14  C15 UNL     1       0.356  -0.756   0.130  1.00  0.00     0.157 C 
HETATM   15  C20 UNL     1      -0.452   0.435   0.549  1.00  0.00     0.045 C 
ENDROOT
BRANCH  14  16
HETATM   16  O2  UNL     1       1.709  -0.347   0.067  1.00  0.00    -0.314 OA
BRANCH  16  17
HETATM   17  C16 UNL     1       2.772  -1.004   0.661  1.00  0.00     0.259 C 
HETATM   18  O3  UNL     1       2.552  -2.033   1.306  1.00  0.00    -0.265 OA
BRANCH  17  19
HETATM   19  C17 UNL     1       4.129  -0.416   0.480  1.00  0.00     0.111 C 
BRANCH  19  20
HETATM   20  C18 UNL     1       4.618   0.322   1.692  1.00  0.00     0.005 C 
HETATM   21  C19 UNL     1       5.997   0.862   1.360  1.00  0.00     0.005 C 
ENDBRANCH  19  20
ENDBRANCH  17  19
ENDBRANCH  16  17
ENDBRANCH  14  16
BRANCH  15  22
HETATM   22  C21 UNL     1       0.382   1.079   1.606  1.00  0.00     0.179 C 
BRANCH  22  23
HETATM   23  O4  UNL     1      -0.114   2.244   2.160  1.00  0.00    -0.400 OA
ATOM     24  H4  UNL     1       0.417   2.654   2.833  1.00  0.00     0.209 HD
ENDBRANCH  22  23
ENDBRANCH  15  22
BRANCH   1  25
HETATM   25  C2  UNL     1      -3.149  -3.017  -0.582  1.00  0.00     0.001 C 
HETATM   26  C1  UNL     1      -3.564  -3.720   0.421  1.00  0.00     0.012 C 
ENDBRANCH   1  25
TORSDOF 7
