REMARK  6 active torsions:
REMARK  status: ('A' for Active; 'I' for Inactive)
REMARK    1  A    between atoms: C2_2  and  C3_3 
REMARK    2  A    between atoms: C3_3  and  C4_4 
REMARK    3  A    between atoms: C4_4  and  C5_5 
REMARK    4  A    between atoms: N3_11  and  C7_12 
REMARK    5  A    between atoms: C7_12  and  C8_13 
REMARK       I    between atoms: C8_13  and  N4_15 
REMARK    6  A    between atoms: C9_17  and  C10_18 
ROOT
HETATM    1  C8  UNL     1       0.301   1.330   0.056  1.00  0.00     0.241 C 
HETATM    2  O1  UNL     1       0.096   2.402  -0.556  1.00  0.00    -0.271 OA
HETATM    3  N4  UNL     1       1.569   0.739  -0.068  1.00  0.00    -0.335 N 
ATOM      4  H4  UNL     1       2.305   1.094   0.543  1.00  0.00     0.168 HD
HETATM    5  C9  UNL     1       1.886  -0.192  -0.865  1.00  0.00     0.104 C 
ENDROOT
BRANCH   1   6
HETATM    6  C7  UNL     1      -0.800   0.748   0.874  1.00  0.00     0.253 C 
BRANCH   6   7
HETATM    7  N3  UNL     1      -1.953   1.615   0.774  1.00  0.00    -0.271 N 
HETATM    8  C5  UNL     1      -2.958   1.576  -0.100  1.00  0.00     0.099 A 
HETATM    9  N1  UNL     1      -3.770   2.639   0.190  1.00  0.00    -0.340 N 
HETATM   10  C6  UNL     1      -3.267   3.317   1.228  1.00  0.00     0.199 A 
ATOM     11  H1  UNL     1      -4.627   2.878  -0.309  1.00  0.00     0.168 HD
HETATM   12  N2  UNL     1      -2.151   2.665   1.566  1.00  0.00    -0.292 N 
ATOM     13  H2  UNL     1      -1.533   2.937   2.330  1.00  0.00     0.188 HD
BRANCH   8  14
HETATM   14  C4  UNL     1      -3.244   0.674  -1.217  1.00  0.00     0.078 C 
BRANCH  14  15
HETATM   15  C3  UNL     1      -4.259  -0.350  -0.840  1.00  0.00     0.007 C 
BRANCH  15  16
HETATM   16  C2  UNL     1      -3.822  -1.190   0.314  1.00  0.00    -0.004 C 
HETATM   17  C1  UNL     1      -4.913  -2.210   0.620  1.00  0.00     0.005 C 
ENDBRANCH  15  16
ENDBRANCH  14  15
ENDBRANCH   8  14
ENDBRANCH   6   7
ENDBRANCH   1   6
BRANCH   5  18
HETATM   18  C10 UNL     1       3.211  -0.768  -0.953  1.00  0.00     0.009 A 
HETATM   19  C11 UNL     1       3.657  -1.786  -1.789  1.00  0.00     0.102 A 
HETATM   20  N5  UNL     1       4.957  -2.009  -1.542  1.00  0.00    -0.363 N 
HETATM   21  C12 UNL     1       5.395  -1.189  -0.583  1.00  0.00     0.063 A 
ATOM     22  H5  UNL     1       5.529  -2.706  -2.019  1.00  0.00     0.165 HD
HETATM   23  C13 UNL     1       4.304  -0.399  -0.201  1.00  0.00     0.020 A 
HETATM   24  C16 UNL     1       6.656  -0.967   0.085  1.00  0.00     0.053 A 
HETATM   25  C14 UNL     1       4.559   0.584   0.852  1.00  0.00     0.102 A 
HETATM   26  N6  UNL     1       5.712   0.733   1.410  1.00  0.00    -0.373 N 
HETATM   27  C15 UNL     1       6.814  -0.066   1.024  1.00  0.00     0.109 A 
ATOM     28  H6  UNL     1       5.831   1.436   2.139  1.00  0.00     0.164 HD
HETATM   29 BR1  UNL     1       8.138  -2.055  -0.448  1.00  0.00    -0.047 Br
ENDBRANCH   5  18
TORSDOF 6
