REMARK  11 active torsions:
REMARK  status: ('A' for Active; 'I' for Inactive)
REMARK    1  A    between atoms: C2_2  and  C3_3 
REMARK    2  A    between atoms: C3_3  and  C4_4 
REMARK    3  A    between atoms: C4_4  and  C5_5 
REMARK    4  A    between atoms: C5_5  and  C6_6 
REMARK    5  A    between atoms: C6_6  and  C7_7 
REMARK    6  A    between atoms: C7_7  and  O1_8 
REMARK    7  A    between atoms: O1_8  and  C8_9 
REMARK       I    between atoms: C8_9  and  N1_11 
REMARK    8  A    between atoms: N1_11  and  C9_13 
REMARK    9  A    between atoms: C13_19  and  O3_20 
REMARK   10  A    between atoms: C14_24  and  N4_25 
REMARK   11  A    between atoms: C18_33  and  O4_34 
ROOT
HETATM    1  C9  UNL     1      -2.054  -0.855   0.017  1.00  0.00     0.072 A 
HETATM    2  C10 UNL     1      -2.810   0.026  -0.741  1.00  0.00     0.064 A 
HETATM    3  C11 UNL     1      -4.188   0.099  -0.676  1.00  0.00     0.062 A 
HETATM    4  N2  UNL     1      -4.876   0.989  -1.449  1.00  0.00    -0.349 N 
ATOM      5  H2  UNL     1      -4.364   1.606  -2.080  1.00  0.00     0.166 HD
HETATM    6  C12 UNL     1      -6.217   1.066  -1.392  1.00  0.00     0.115 A 
HETATM    7  C13 UNL     1      -7.198   1.821  -2.010  1.00  0.00     0.171 A 
HETATM    8  N3  UNL     1      -8.408   1.437  -1.530  1.00  0.00    -0.320 N 
ATOM      9  H3  UNL     1      -9.306   1.830  -1.813  1.00  0.00     0.169 HD
HETATM   10  C14 UNL     1      -8.240   0.459  -0.623  1.00  0.00     0.130 A 
HETATM   11  C15 UNL     1      -6.902   0.164  -0.474  1.00  0.00     0.108 A 
HETATM   12  N5  UNL     1      -6.181  -0.696   0.268  1.00  0.00    -0.349 N 
ATOM     13  H5  UNL     1      -6.668  -1.324   0.908  1.00  0.00     0.166 HD
HETATM   14  C16 UNL     1      -4.832  -0.755   0.193  1.00  0.00     0.062 A 
HETATM   15  C17 UNL     1      -4.092  -1.636   0.952  1.00  0.00     0.070 A 
HETATM   16  C18 UNL     1      -2.724  -1.720   0.899  1.00  0.00     0.094 A 
ENDROOT
BRANCH   1  17
HETATM   17  N1  UNL     1      -0.652  -0.944  -0.034  1.00  0.00    -0.300 N 
HETATM   18  C8  UNL     1       0.215  -0.185  -0.835  1.00  0.00     0.365 C 
HETATM   19  O2  UNL     1      -0.120   0.692  -1.632  1.00  0.00    -0.238 OA
ATOM     20  H1  UNL     1      -0.218  -1.635   0.578  1.00  0.00     0.171 HD
BRANCH  18  21
HETATM   21  O1  UNL     1       1.612  -0.415  -0.752  1.00  0.00    -0.304 OA
BRANCH  21  22
HETATM   22  C7  UNL     1       2.507   0.334  -1.547  1.00  0.00     0.180 C 
BRANCH  22  23
HETATM   23  C6  UNL     1       3.925  -0.067  -1.301  1.00  0.00     0.027 C 
BRANCH  23  24
HETATM   24  C5  UNL     1       4.286   0.157   0.154  1.00  0.00     0.002 C 
BRANCH  24  25
HETATM   25  C4  UNL     1       5.716  -0.242   0.421  1.00  0.00     0.000 C 
BRANCH  25  26
HETATM   26  C3  UNL     1       6.035  -0.005   1.872  1.00  0.00    -0.000 C 
BRANCH  26  27
HETATM   27  C2  UNL     1       7.464  -0.387   2.215  1.00  0.00    -0.005 C 
HETATM   28  C1  UNL     1       8.489   0.376   1.446  1.00  0.00     0.005 C 
ENDBRANCH  26  27
ENDBRANCH  25  26
ENDBRANCH  24  25
ENDBRANCH  23  24
ENDBRANCH  22  23
ENDBRANCH  21  22
ENDBRANCH  18  21
ENDBRANCH   1  17
BRANCH  16  29
HETATM   29  O4  UNL     1      -2.007  -2.624   1.683  1.00  0.00    -0.358 OA
ATOM     30  H4  UNL     1      -2.460  -3.209   2.279  1.00  0.00     0.217 HD
ENDBRANCH  16  29
BRANCH   7  31
HETATM   31  O3  UNL     1      -6.968   2.813  -2.969  1.00  0.00    -0.344 OA
ATOM     32  H3  UNL     1      -7.642   3.331  -3.393  1.00  0.00     0.219 HD
ENDBRANCH   7  31
BRANCH  10  33
HETATM   33  N4  UNL     1      -9.219  -0.101   0.001  1.00  0.00    -0.384 N 
ATOM     34  H42 UNL     1     -10.209   0.117  -0.109  1.00  0.00     0.157 HD
ATOM     35  H41 UNL     1      -9.092  -0.843   0.689  1.00  0.00     0.157 HD
ENDBRANCH  10  33
TORSDOF 11
