REMARK  10 active torsions:
REMARK  status: ('A' for Active; 'I' for Inactive)
REMARK    1  A    between atoms: C2_2  and  C3_3 
REMARK    2  A    between atoms: N3_12  and  C11_14 
REMARK    3  A    between atoms: C11_14  and  C12_15 
REMARK    4  A    between atoms: C12_15  and  N4_16 
REMARK    5  A    between atoms: C13_18  and  O1_19 
REMARK    6  A    between atoms: C13_18  and  C14_21 
REMARK    7  A    between atoms: C14_21  and  N5_22 
REMARK    8  A    between atoms: C14_21  and  C15_26 
REMARK    9  A    between atoms: C15_26  and  C16_27 
REMARK   10  A    between atoms: C16_27  and  N6_28 
ROOT
HETATM    1  C11 UNL     1      -0.705  -0.779  -0.544  1.00  0.00     0.294 C 
ENDROOT
BRANCH   1   2
HETATM    2  N3  UNL     1      -2.049  -1.015  -0.863  1.00  0.00     0.122 N 
HETATM    3  N2  UNL     1      -2.603  -0.349  -1.957  1.00  0.00     0.128 N 
HETATM    4  C6  UNL     1      -3.744   0.089  -1.307  1.00  0.00     0.409 A 
HETATM    5  C8  UNL     1      -3.419  -1.088  -2.867  1.00  0.00     0.280 A 
HETATM    6  C9  UNL     1      -1.755   0.540  -2.684  1.00  0.00     0.313 C 
HETATM    7  N1  UNL     1      -4.074   1.384  -0.934  1.00  0.00     0.130 N 
HETATM    8  C7  UNL     1      -4.699  -0.683  -2.162  1.00  0.00     0.110 A 
HETATM    9  C20 UNL     1      -3.164  -0.683  -0.114  1.00  0.00     0.489 A 
HETATM   10  C4  UNL     1      -5.084   1.330   0.142  1.00  0.00     0.308 C 
HETATM   11  C5  UNL     1      -4.577   2.264  -1.925  1.00  0.00     0.313 C 
HETATM   12  C3  UNL     1      -4.620   0.427   1.262  1.00  0.00     0.216 C 
HETATM   13  N7  UNL     1      -3.180   0.103   1.070  1.00  0.00    -0.033 N 
ATOM     14  H72 UNL     1      -2.566   0.917   1.043  1.00  0.00     0.280 HD
ATOM     15  H71 UNL     1      -2.738  -0.340   1.875  1.00  0.00     0.280 HD
HETATM   16  C10 UNL     1      -2.107  -2.469  -1.204  1.00  0.00     0.312 C 
BRANCH  12  17
HETATM   17  C2  UNL     1      -4.867   1.049   2.595  1.00  0.00     0.030 C 
HETATM   18  C1  UNL     1      -4.404   0.151   3.729  1.00  0.00     0.007 C 
ENDBRANCH  12  17
ENDBRANCH   1   2
BRANCH   1  19
HETATM   19  C12 UNL     1      -0.240   0.294   0.328  1.00  0.00     0.151 C 
BRANCH  19  20
HETATM   20  N4  UNL     1       1.168   0.399   0.500  1.00  0.00    -0.371 N 
HETATM   21  C13 UNL     1       2.121  -0.371   0.560  1.00  0.00     0.142 C 
ATOM     22  H4  UNL     1       1.463   1.370   0.600  1.00  0.00     0.161 HD
BRANCH  21  23
HETATM   23  O1  UNL     1       2.007  -1.738   0.457  1.00  0.00    -0.348 OA
ATOM     24  H1  UNL     1       2.745  -2.334   0.503  1.00  0.00     0.219 HD
ENDBRANCH  21  23
BRANCH  21  25
HETATM   25  C14 UNL     1       3.505   0.170   0.756  1.00  0.00     0.258 C 
BRANCH  25  26
HETATM   26  N5  UNL     1       3.388   1.601   0.900  1.00  0.00    -0.068 N 
ATOM     27  H53 UNL     1       2.893   2.041   0.124  1.00  0.00     0.275 HD
ATOM     28  H52 UNL     1       2.743   1.876   1.641  1.00  0.00     0.275 HD
ATOM     29  H51 UNL     1       4.330   1.969   1.033  1.00  0.00     0.275 HD
ENDBRANCH  25  26
BRANCH  25  30
HETATM   30  C15 UNL     1       4.368  -0.200  -0.441  1.00  0.00     0.069 C 
BRANCH  30  31
HETATM   31  C16 UNL     1       5.762   0.268  -0.389  1.00  0.00     0.238 C 
BRANCH  31  32
HETATM   32  N6  UNL     1       6.604  -0.180   0.658  1.00  0.00    -0.079 N 
HETATM   33  C17 UNL     1       8.009  -0.259   0.218  1.00  0.00     0.271 C 
HETATM   34  C18 UNL     1       6.627   0.870   1.692  1.00  0.00     0.271 C 
HETATM   35  C19 UNL     1       6.263  -1.400   1.294  1.00  0.00     0.271 C 
ENDBRANCH  31  32
ENDBRANCH  30  31
ENDBRANCH  25  30
ENDBRANCH  21  25
ENDBRANCH  19  20
ENDBRANCH   1  19
TORSDOF 10
