REMARK  9 active torsions:
REMARK  status: ('A' for Active; 'I' for Inactive)
REMARK    1  A    between atoms: N1_2  and  C3_4 
REMARK    2  A    between atoms: C3_4  and  C4_5 
REMARK    3  A    between atoms: C4_5  and  C5_6 
REMARK    4  A    between atoms: C5_6  and  N2_7 
REMARK    5  A    between atoms: N2_7  and  C6_9 
REMARK    6  A    between atoms: C6_9  and  N3_11 
REMARK    7  A    between atoms: N3_11  and  C7_12 
REMARK    8  A    between atoms: C7_12  and  C8_13 
REMARK    9  A    between atoms: N5_16  and  O1_17 
ROOT
HETATM    1  N3  UNL     1       1.953  -0.293   0.070  1.00  0.00    -0.387 NA
ENDROOT
BRANCH   1   2
HETATM    2  C6  UNL     1       0.882  -0.902   0.533  1.00  0.00     0.244 C 
HETATM    3  S1  UNL     1       0.915  -2.558   0.892  1.00  0.00    -0.025 SA
BRANCH   2   4
HETATM    4  N2  UNL     1      -0.400  -0.338   0.723  1.00  0.00    -0.356 N 
ATOM      5  H2  UNL     1      -1.143  -0.920   1.110  1.00  0.00     0.162 HD
BRANCH   4   6
HETATM    6  C5  UNL     1      -0.688   1.022   0.390  1.00  0.00     0.125 C 
BRANCH   6   7
HETATM    7  C4  UNL     1      -2.231   1.219   0.483  1.00  0.00     0.050 C 
BRANCH   7   8
HETATM    8  C3  UNL     1      -2.852   0.235  -0.427  1.00  0.00     0.273 C 
BRANCH   8   9
HETATM    9  N1  UNL     1      -4.302   0.240  -0.495  1.00  0.00     0.080 N 
HETATM   10  C1  UNL     1      -4.694  -0.777  -1.500  1.00  0.00     0.309 C 
HETATM   11  C2  UNL     1      -4.892  -0.138   0.791  1.00  0.00     0.309 C 
ENDBRANCH   8   9
ENDBRANCH   7   8
ENDBRANCH   6   7
ENDBRANCH   4   6
ENDBRANCH   2   4
ENDBRANCH   1   2
BRANCH   1  12
HETATM   12  C7  UNL     1       2.919   0.248  -0.342  1.00  0.00     0.218 C 
BRANCH  12  13
HETATM   13  C8  UNL     1       4.342   0.127  -0.129  1.00  0.00     0.098 A 
HETATM   14  N4  UNL     1       5.302   0.644  -0.934  1.00  0.00    -0.271 N 
HETATM   15  N5  UNL     1       6.488   0.287  -0.541  1.00  0.00    -0.173 N 
ATOM     16  H4  UNL     1       5.117   1.237  -1.743  1.00  0.00     0.189 HD
HETATM   17  C9  UNL     1       6.361  -0.476   0.538  1.00  0.00     0.165 A 
HETATM   18  C10 UNL     1       4.999  -0.601   0.835  1.00  0.00     0.061 A 
HETATM   19 BR1  UNL     1       4.309  -1.535   2.337  1.00  0.00    -0.047 Br
BRANCH  15  20
HETATM   20  O1  UNL     1       7.740   0.600  -1.108  1.00  0.00    -0.268 OA
ATOM     21  H1  UNL     1       8.607   0.339  -0.821  1.00  0.00     0.247 HD
ENDBRANCH  15  20
ENDBRANCH  12  13
ENDBRANCH   1  12
TORSDOF 9
