REMARK  9 active torsions:
REMARK  status: ('A' for Active; 'I' for Inactive)
REMARK    1  A    between atoms: C2_2  and  C3_3 
REMARK    2  A    between atoms: N1_6  and  C6_7 
REMARK    3  A    between atoms: C6_7  and  C7_8 
REMARK    4  A    between atoms: C7_8  and  C8_9 
REMARK    5  A    between atoms: C8_9  and  C9_10 
REMARK    6  A    between atoms: N2_13  and  C12_14 
REMARK    7  A    between atoms: C14_16  and  C15_17 
REMARK    8  A    between atoms: C15_17  and  N3_18 
REMARK    9  A    between atoms: C20_27  and  N7_28 
ROOT
HETATM    1  C9  UNL     1      -0.462  -0.666  -0.505  1.00  0.00     0.014 A 
HETATM    2  C10 UNL     1      -0.326  -1.886   0.143  1.00  0.00     0.042 A 
HETATM    3  C11 UNL     1      -1.431  -2.652   0.296  1.00  0.00     0.094 A 
HETATM    4  N2  UNL     1      -2.632  -2.253  -0.163  1.00  0.00    -0.345 N 
HETATM    5  C14 UNL     1      -2.799  -1.073  -0.794  1.00  0.00     0.105 A 
HETATM    6  N6  UNL     1      -1.689  -0.294  -0.958  1.00  0.00    -0.343 N 
HETATM    7  C19 UNL     1      -1.696   0.948  -1.700  1.00  0.00     0.157 C 
ENDROOT
BRANCH   1   8
HETATM    8  C8  UNL     1       0.761   0.187  -0.651  1.00  0.00     0.059 C 
BRANCH   8   9
HETATM    9  C7  UNL     1       0.940   1.084   0.528  1.00  0.00     0.027 C 
BRANCH   9  10
HETATM   10  C6  UNL     1       2.127   1.974   0.525  1.00  0.00     0.147 C 
BRANCH  10  11
HETATM   11  N1  UNL     1       3.409   1.336   0.483  1.00  0.00    -0.194 N 
HETATM   12  C5  UNL     1       4.003   0.916   1.642  1.00  0.00     0.111 A 
HETATM   13  C4  UNL     1       5.224   0.279   1.670  1.00  0.00     0.043 A 
HETATM   14  C3  UNL     1       5.885   0.051   0.482  1.00  0.00     0.027 A 
HETATM   15  N8  UNL     1       5.290   0.469  -0.645  1.00  0.00    -0.196 N 
HETATM   16  C20 UNL     1       4.077   1.100  -0.655  1.00  0.00     0.678 A 
ATOM     17  H8  UNL     1       5.763   0.309  -1.534  1.00  0.00     0.184 HD
BRANCH  14  18
HETATM   18  C2  UNL     1       7.218  -0.638   0.458  1.00  0.00     0.053 C 
HETATM   19  C1  UNL     1       8.328   0.365   0.569  1.00  0.00     0.011 C 
ENDBRANCH  14  18
BRANCH  16  20
HETATM   20  N7  UNL     1       3.615   1.475  -1.805  1.00  0.00    -0.234 N 
ATOM     21  H72 UNL     1       2.710   1.946  -1.812  1.00  0.00     0.174 HD
ATOM     22  H71 UNL     1       4.123   1.295  -2.671  1.00  0.00     0.174 HD
ENDBRANCH  16  20
ENDBRANCH  10  11
ENDBRANCH   9  10
ENDBRANCH   8   9
ENDBRANCH   1   8
BRANCH   5  23
HETATM   23  C15 UNL     1      -4.117  -0.599  -1.243  1.00  0.00     0.222 C 
BRANCH  23  24
HETATM   24  N3  UNL     1      -4.846   0.247  -0.330  1.00  0.00    -0.278 N 
HETATM   25  C16 UNL     1      -4.821   1.579  -0.293  1.00  0.00     0.134 A 
HETATM   26  C17 UNL     1      -5.639   2.044   0.713  1.00  0.00     0.036 A 
HETATM   27  C18 UNL     1      -5.894   3.460   1.094  1.00  0.00     0.071 C 
HETATM   28  N4  UNL     1      -6.160   0.965   1.283  1.00  0.00    -0.287 N 
HETATM   29  N5  UNL     1      -5.681  -0.103   0.653  1.00  0.00    -0.020 NA
ATOM     30  H4  UNL     1      -6.813   0.957   2.067  1.00  0.00     0.184 HD
ENDBRANCH  23  24
ENDBRANCH   5  23
BRANCH   4  31
HETATM   31  C12 UNL     1      -3.711  -3.196  -0.015  1.00  0.00     0.125 C 
HETATM   32  C13 UNL     1      -3.680  -4.157  -1.228  1.00  0.00     0.027 C 
ENDBRANCH   4  31
TORSDOF 9
