REMARK  5 active torsions:
REMARK  status: ('A' for Active; 'I' for Inactive)
REMARK    1  A    between atoms: C2_2  and  O2_4 
REMARK    2  A    between atoms: O2_4  and  C3_5 
REMARK    3  A    between atoms: C4_6  and  O3_7 
REMARK    4  A    between atoms: C5_9  and  S1_10 
REMARK    5  A    between atoms: C7_16  and  O4_17 
ROOT
HETATM    1  S1  UNL     1      -2.800   1.122   0.972  1.00  0.00    -0.015 SA
HETATM    2  C6  UNL     1      -2.803   2.871   1.137  1.00  0.00     0.135 C 
HETATM    3  N1  UNL     1      -2.821   4.005   1.253  1.00  0.00    -0.184 NA
ENDROOT
BRANCH   1   4
HETATM    4  C5  UNL     1      -1.962   0.606  -0.556  1.00  0.00     0.295 C 
HETATM    5  C4  UNL     1      -0.498   0.915  -0.530  1.00  0.00     0.191 C 
HETATM    6  C3  UNL     1       0.319  -0.056   0.250  1.00  0.00     0.185 C 
HETATM    7  C8  UNL     1      -0.049  -1.480  -0.144  1.00  0.00     0.181 C 
HETATM    8  C7  UNL     1      -1.517  -1.724  -0.144  1.00  0.00     0.340 C 
HETATM    9  C9  UNL     1       0.571  -2.459   0.746  1.00  0.00     0.071 C 
HETATM   10  N2  UNL     1      -2.261  -0.745  -0.907  1.00  0.00    -0.031 N 
ATOM     11  H22 UNL     1      -3.263  -0.921  -0.838  1.00  0.00     0.281 HD
ATOM     12  H21 UNL     1      -2.130  -0.894  -1.908  1.00  0.00     0.281 HD
HETATM   13  N3  UNL     1       1.059  -3.251   1.466  1.00  0.00    -0.197 NA
BRANCH   5  14
HETATM   14  O3  UNL     1      -0.313   2.215  -0.067  1.00  0.00    -0.390 OA
ATOM     15  H3  UNL     1      -0.834   2.834  -0.564  1.00  0.00     0.210 HD
ENDBRANCH   5  14
BRANCH   6  16
HETATM   16  O2  UNL     1       1.679   0.108  -0.159  1.00  0.00    -0.312 OA
BRANCH  16  17
HETATM   17  C2  UNL     1       2.698   0.376   0.719  1.00  0.00     0.255 C 
HETATM   18  C1  UNL     1       4.068   0.519   0.137  1.00  0.00     0.126 C 
HETATM   19  O1  UNL     1       2.458   0.490   1.950  1.00  0.00    -0.266 OA
ENDBRANCH  16  17
ENDBRANCH   6  16
BRANCH   8  20
HETATM   20  O4  UNL     1      -1.738  -2.960  -0.773  1.00  0.00    -0.369 OA
ATOM     21  H4  UNL     1      -1.250  -3.603  -0.272  1.00  0.00     0.212 HD
ENDBRANCH   8  20
ENDBRANCH   1   4
TORSDOF 5
