REMARK  3 active torsions:
REMARK  status: ('A' for Active; 'I' for Inactive)
REMARK    1  A    between atoms: N1_2  and  C2_4 
REMARK    2  A    between atoms: C2_4  and  N2_6 
REMARK    3  A    between atoms: N3_11  and  O1_13 
ROOT
HETATM    1  N2  UNL     1       1.952  -0.902   0.525  1.00  0.00    -0.331 N 
ATOM      2  H2  UNL     1       2.126  -1.716   1.114  1.00  0.00     0.168 HD
HETATM    3  C3  UNL     1       0.739  -0.546   0.300  1.00  0.00     0.059 C 
HETATM    4  C4  UNL     1      -0.371  -1.321   0.897  1.00  0.00     0.125 C 
HETATM    5  C5  UNL     1      -1.653  -0.594   0.962  1.00  0.00     0.052 C 
HETATM    6  N3  UNL     1      -2.270  -0.481   2.087  1.00  0.00    -0.272 N 
ATOM      7  H3  UNL     1      -3.157   0.021   2.134  1.00  0.00     0.194 HD
HETATM    8  C6  UNL     1      -2.251   0.004  -0.266  1.00  0.00     0.040 A 
HETATM    9  C7  UNL     1      -3.579  -0.078  -0.609  1.00  0.00     0.102 A 
HETATM   10  N4  UNL     1      -4.677  -0.710   0.094  1.00  0.00    -0.093 NA
HETATM   11  S2  UNL     1      -3.666   0.763  -2.083  1.00  0.00    -0.058 SA
HETATM   12  C8  UNL     1      -2.035   1.206  -2.245  1.00  0.00     0.106 A 
HETATM   13  N5  UNL     1      -1.392   1.959  -3.302  1.00  0.00    -0.093 NA
HETATM   14  C9  UNL     1      -1.447   0.677  -1.124  1.00  0.00     0.052 A 
HETATM   15  S3  UNL     1       0.330   0.854  -0.710  1.00  0.00    -0.073 SA
ENDROOT
BRANCH   1  16
HETATM   16  C2  UNL     1       3.064  -0.197  -0.021  1.00  0.00     0.172 C 
HETATM   17  S1  UNL     1       3.000   0.526  -1.486  1.00  0.00    -0.041 SA
BRANCH  16  18
HETATM   18  N1  UNL     1       4.267  -0.121   0.732  1.00  0.00    -0.371 N 
HETATM   19  C1  UNL     1       5.425   0.586   0.218  1.00  0.00     0.148 C 
ATOM     20  H1  UNL     1       4.317  -0.570   1.647  1.00  0.00     0.161 HD
ENDBRANCH  16  18
ENDBRANCH   1  16
BRANCH   6  21
HETATM   21  O1  UNL     1      -1.735  -1.035   3.222  1.00  0.00    -0.290 OA
ATOM     22  H1  UNL     1      -2.190  -0.952   4.052  1.00  0.00     0.244 HD
ENDBRANCH   6  21
TORSDOF 3
