REMARK  4 active torsions:
REMARK  status: ('A' for Active; 'I' for Inactive)
REMARK    1  A    between atoms: C1_2  and  C2_4 
REMARK    2  A    between atoms: C2_4  and  N2_5 
REMARK       I    between atoms: N2_5  and  C3_7 
REMARK    3  A    between atoms: N4_9  and  O2_11 
REMARK       I    between atoms: N5_15  and  C6_16 
REMARK       I    between atoms: C6_16  and  N6_18 
REMARK    4  A    between atoms: N6_18  and  C7_20 
ROOT
HETATM    1  C2  UNL     1       2.964  -0.551   0.127  1.00  0.00     0.114 C 
HETATM    2  C4  UNL     1       2.074   0.570  -0.280  1.00  0.00     0.060 C 
HETATM    3  C5  UNL     1       0.643   0.167  -0.564  1.00  0.00     0.130 C 
HETATM    4  N5  UNL     1       0.100  -0.492   0.598  1.00  0.00    -0.334 N 
HETATM    5  C6  UNL     1      -1.295  -0.540   0.809  1.00  0.00     0.318 C 
HETATM    6  O3  UNL     1      -1.729  -1.126   1.843  1.00  0.00    -0.247 OA
HETATM    7  N6  UNL     1      -2.222   0.057  -0.116  1.00  0.00    -0.338 N 
ATOM      8  H6  UNL     1      -1.865   0.528  -0.947  1.00  0.00     0.164 HD
HETATM    9  C12 UNL     1       0.985  -1.110   1.554  1.00  0.00     0.130 C 
HETATM   10  C13 UNL     1       2.231  -1.642   0.873  1.00  0.00     0.060 C 
ENDROOT
BRANCH   7  11
HETATM   11  C7  UNL     1      -3.652   0.002   0.109  1.00  0.00     0.089 C 
HETATM   12  C8  UNL     1      -4.155   1.424   0.237  1.00  0.00     0.052 C 
HETATM   13  C9  UNL     1      -5.643   1.534   0.179  1.00  0.00     0.234 C 
HETATM   14  N7  UNL     1      -6.304   0.295  -0.146  1.00  0.00    -0.075 N 
HETATM   15  C10 UNL     1      -5.701  -0.320  -1.299  1.00  0.00     0.234 C 
ATOM     16  H72 UNL     1      -6.327  -0.340   0.652  1.00  0.00     0.277 HD
ATOM     17  H71 UNL     1      -7.308   0.424  -0.269  1.00  0.00     0.277 HD
HETATM   18  C11 UNL     1      -4.259  -0.701  -1.084  1.00  0.00     0.052 C 
ENDBRANCH   7  11
BRANCH   1  19
HETATM   19  C1  UNL     1       3.610  -1.220  -1.048  1.00  0.00     0.259 C 
HETATM   20  N1  UNL     1       2.758  -1.795  -2.013  1.00  0.00    -0.060 NA
HETATM   21  O1  UNL     1       4.838  -1.282  -1.191  1.00  0.00    -0.274 OA
ENDBRANCH   1  19
BRANCH   1  22
HETATM   22  N2  UNL     1       4.033  -0.040   0.975  1.00  0.00    -0.345 N 
HETATM   23  C3  UNL     1       4.982   0.906   0.502  1.00  0.00     0.209 C 
HETATM   24  N3  UNL     1       6.370   0.709   0.757  1.00  0.00    -0.062 NA
HETATM   25  N4  UNL     1       4.643   1.940  -0.151  1.00  0.00    -0.241 N 
ATOM     26  H4  UNL     1       3.647   2.070  -0.327  1.00  0.00     0.197 HD
ATOM     27  H2  UNL     1       4.102  -0.371   1.937  1.00  0.00     0.163 HD
BRANCH  25  28
HETATM   28  O2  UNL     1       5.480   2.886  -0.636  1.00  0.00    -0.287 OA
ATOM     29  H2  UNL     1       5.226   3.660  -1.125  1.00  0.00     0.244 HD
ENDBRANCH  25  28
ENDBRANCH   1  22
TORSDOF 4
