REMARK  4 active torsions:
REMARK  status: ('A' for Active; 'I' for Inactive)
REMARK    1  A    between atoms: C2_2  and  S1_3 
REMARK    2  A    between atoms: S1_3  and  C3_6 
REMARK    3  A    between atoms: C6_11  and  C7_12 
REMARK    4  A    between atoms: C9_14  and  O3_15 
ROOT
HETATM    1  C3  UNL     1       2.126  -0.659   0.184  1.00  0.00     0.140 A 
HETATM    2  N1  UNL     1       1.876   0.639   0.236  1.00  0.00    -0.346 N 
ATOM      3  H1  UNL     1       2.589   1.367   0.278  1.00  0.00     0.167 HD
HETATM    4  C4  UNL     1       0.518   0.871   0.225  1.00  0.00     0.034 A 
HETATM    5  C5  UNL     1       0.016   2.089   0.270  1.00  0.00     0.044 C 
HETATM    6  C6  UNL     1      -0.125  -0.335   0.164  1.00  0.00    -0.000 A 
HETATM    7  C12 UNL     1       0.919  -1.278   0.139  1.00  0.00    -0.011 A 
HETATM    8  C13 UNL     1       0.728  -2.735   0.073  1.00  0.00     0.052 C 
ENDROOT
BRANCH   6   9
HETATM    9  C7  UNL     1      -1.388  -0.640   0.131  1.00  0.00     0.035 C 
HETATM   10  C8  UNL     1      -2.575   0.153   0.148  1.00  0.00     0.084 A 
HETATM   11  C9  UNL     1      -3.167   0.597  -1.038  1.00  0.00     0.160 A 
HETATM   12  C11 UNL     1      -3.160   0.451   1.368  1.00  0.00     0.263 A 
HETATM   13  N2  UNL     1      -4.299   1.308  -0.986  1.00  0.00    -0.288 N 
HETATM   14  C10 UNL     1      -4.848   1.584   0.209  1.00  0.00     0.329 A 
ATOM     15  H2  UNL     1      -4.741   1.637  -1.844  1.00  0.00     0.172 HD
HETATM   16  O4  UNL     1      -5.915   2.257   0.222  1.00  0.00    -0.247 OA
HETATM   17  N3  UNL     1      -4.293   1.166   1.364  1.00  0.00    -0.275 N 
ATOM     18  H3  UNL     1      -4.743   1.398   2.250  1.00  0.00     0.173 HD
HETATM   19  O5  UNL     1      -2.625   0.049   2.458  1.00  0.00    -0.267 OA
BRANCH  11  20
HETATM   20  O3  UNL     1      -2.579   0.297  -2.257  1.00  0.00    -0.345 OA
ATOM     21  H3  UNL     1      -2.981   0.599  -3.063  1.00  0.00     0.219 HD
ENDBRANCH  11  20
ENDBRANCH   6   9
BRANCH   1  22
HETATM   22  S1  UNL     1       3.728  -1.379   0.177  1.00  0.00     0.212 S 
HETATM   23  O1  UNL     1       3.934  -2.319   1.305  1.00  0.00    -0.217 OA
HETATM   24  O2  UNL     1       3.882  -2.075  -1.168  1.00  0.00    -0.217 OA
BRANCH  22  25
HETATM   25  C2  UNL     1       4.906  -0.106   0.250  1.00  0.00     0.105 C 
HETATM   26  C1  UNL     1       5.349   0.524  -0.836  1.00  0.00     0.024 C 
ENDBRANCH  22  25
ENDBRANCH   1  22
TORSDOF 4
