REMARK  9 active torsions:
REMARK  status: ('A' for Active; 'I' for Inactive)
REMARK    1  A    between atoms: C2_2  and  C3_3 
REMARK    2  A    between atoms: C3_3  and  C4_4 
REMARK    3  A    between atoms: C4_4  and  C5_5 
REMARK    4  A    between atoms: C5_5  and  C6_6 
REMARK    5  A    between atoms: C9_11  and  C10_12 
REMARK    6  A    between atoms: C10_12  and  O1_13 
REMARK    7  A    between atoms: C10_12  and  C11_15 
REMARK    8  A    between atoms: C11_15  and  C12_16 
REMARK    9  A    between atoms: C12_16  and  O2_17 
ROOT
HETATM    1  C6  UNL     1       1.114  -0.981   0.176  1.00  0.00    -0.002 C 
HETATM    2  C7  UNL     1       1.014  -0.223  -1.127  1.00  0.00     0.028 C 
HETATM    3  C8  UNL     1      -0.221   0.580  -1.280  1.00  0.00     0.144 C 
HETATM    4  N1  UNL     1      -1.019   0.501  -0.123  1.00  0.00    -0.400 N 
ATOM      5  H1  UNL     1      -0.739   0.959   0.744  1.00  0.00     0.154 HD
HETATM    6  C9  UNL     1      -2.232  -0.242  -0.207  1.00  0.00     0.139 C 
HETATM    7  C13 UNL     1      -2.174  -1.386   0.737  1.00  0.00     0.241 A 
HETATM    8  N2  UNL     1      -2.739  -2.660   0.485  1.00  0.00    -0.060 N 
ATOM      9  H21 UNL     1      -3.370  -3.060  -0.209  1.00  0.00     0.278 HD
ATOM     10  H22 UNL     1      -3.442  -3.253   0.927  1.00  0.00     0.278 HD
HETATM   11  C14 UNL     1      -1.309  -2.467   0.608  1.00  0.00     0.223 A 
HETATM   12  C15 UNL     1      -0.465  -2.845  -0.511  1.00  0.00     0.024 C 
HETATM   13  C16 UNL     1      -0.984  -2.784  -1.909  1.00  0.00     0.022 C 
HETATM   14  C17 UNL     1      -0.162  -1.744  -2.660  1.00  0.00     0.054 C 
HETATM   15  S1  UNL     1      -0.984  -0.137  -2.759  1.00  0.00    -0.139 SA
HETATM   16  C18 UNL     1       1.024  -1.464  -1.854  1.00  0.00     0.011 C 
HETATM   17  C19 UNL     1       0.906  -2.234  -0.560  1.00  0.00     0.002 C 
ENDROOT
BRANCH   6  18
HETATM   18  C10 UNL     1      -3.341   0.726   0.268  1.00  0.00     0.144 C 
BRANCH  18  19
HETATM   19  O1  UNL     1      -2.997   1.071   1.574  1.00  0.00    -0.393 OA
ATOM     20  H1  UNL     1      -3.678   1.666   1.866  1.00  0.00     0.210 HD
ENDBRANCH  18  19
BRANCH  18  21
HETATM   21  C11 UNL     1      -3.362   1.965  -0.558  1.00  0.00     0.060 C 
BRANCH  21  22
HETATM   22  C12 UNL     1      -4.458   2.868  -0.052  1.00  0.00     0.166 C 
BRANCH  22  23
HETATM   23  O2  UNL     1      -5.702   2.220  -0.150  1.00  0.00    -0.401 OA
ATOM     24  H2  UNL     1      -6.393   2.789   0.169  1.00  0.00     0.209 HD
ENDBRANCH  22  23
ENDBRANCH  21  22
ENDBRANCH  18  21
ENDBRANCH   6  18
BRANCH   1  25
HETATM   25  C5  UNL     1       2.500  -0.873   0.818  1.00  0.00     0.005 C 
BRANCH  25  26
HETATM   26  C4  UNL     1       2.881   0.533   1.132  1.00  0.00     0.000 C 
BRANCH  26  27
HETATM   27  C3  UNL     1       4.278   0.488   1.766  1.00  0.00    -0.000 C 
BRANCH  27  28
HETATM   28  C2  UNL     1       4.743   1.895   2.119  1.00  0.00    -0.005 C 
HETATM   29  C1  UNL     1       4.789   2.714   0.862  1.00  0.00     0.005 C 
ENDBRANCH  27  28
ENDBRANCH  26  27
ENDBRANCH  25  26
ENDBRANCH   1  25
TORSDOF 9
