REMARK  5 active torsions:
REMARK  status: ('A' for Active; 'I' for Inactive)
REMARK    1  A    between atoms: N1_2  and  C3_4 
REMARK    2  A    between atoms: C3_4  and  C4_5 
REMARK    3  A    between atoms: C5_9  and  N4_10 
REMARK    4  A    between atoms: C6_11  and  N5_12 
REMARK    5  A    between atoms: C9_19  and  N7_20 
REMARK       I    between atoms: N7_20  and  C10_22 
REMARK       I    between atoms: C10_22  and  N8_23 
REMARK       I    between atoms: C10_22  and  N9_27 
ROOT
HETATM    1  N4  UNL     1      -0.420   1.098   0.264  1.00  0.00    -0.102 N 
HETATM    2  C6  UNL     1      -0.341   2.438   0.265  1.00  0.00     0.688 A 
HETATM    3  N6  UNL     1      -1.608   2.884   0.204  1.00  0.00    -0.174 N 
ATOM      4  H6  UNL     1      -1.875   3.868   0.190  1.00  0.00     0.186 HD
HETATM    5  C7  UNL     1      -2.474   1.860   0.164  1.00  0.00     0.159 A 
HETATM    6  C8  UNL     1      -1.730   0.701   0.202  1.00  0.00     0.149 A 
HETATM    7  C9  UNL     1      -2.334  -0.537   0.176  1.00  0.00     0.140 A 
HETATM    8  N10 UNL     1      -3.666  -0.589   0.112  1.00  0.00    -0.292 N 
ATOM      9  H10 UNL     1      -4.131  -1.496   0.091  1.00  0.00     0.172 HD
HETATM   10  C11 UNL     1      -4.419   0.554   0.074  1.00  0.00     0.329 A 
HETATM   11  O1  UNL     1      -5.683   0.497   0.013  1.00  0.00    -0.246 OA
HETATM   12  N11 UNL     1      -3.822   1.754   0.100  1.00  0.00    -0.287 N 
HETATM   13  C12 UNL     1      -4.605   2.971   0.064  1.00  0.00     0.163 C 
ENDROOT
BRANCH   7  14
HETATM   14  N7  UNL     1      -1.641  -1.580   0.215  1.00  0.00    -0.325 N 
HETATM   15  C10 UNL     1      -2.002  -2.954   0.203  1.00  0.00     0.481 C 
HETATM   16  N8  UNL     1      -2.592  -3.392  -1.043  1.00  0.00    -0.033 N 
HETATM   17  N9  UNL     1      -2.908  -3.303   1.268  1.00  0.00    -0.033 N 
ATOM     18  H83 UNL     1      -3.392  -2.808  -1.286  1.00  0.00     0.278 HD
ATOM     19  H82 UNL     1      -1.977  -3.175  -1.827  1.00  0.00     0.278 HD
ATOM     20  H81 UNL     1      -2.851  -4.378  -1.052  1.00  0.00     0.278 HD
ATOM     21  H93 UNL     1      -2.527  -3.033   2.175  1.00  0.00     0.278 HD
ATOM     22  H92 UNL     1      -3.736  -2.708   1.253  1.00  0.00     0.278 HD
ATOM     23  H91 UNL     1      -3.167  -4.289   1.259  1.00  0.00     0.278 HD
ATOM     24  H7  UNL     1      -0.636  -1.412   0.264  1.00  0.00     0.165 HD
ENDBRANCH   7  14
BRANCH   1  25
HETATM   25  C5  UNL     1       0.664   0.160   0.316  1.00  0.00     0.259 C 
HETATM   26  N3  UNL     1       1.382  -0.043   1.367  1.00  0.00    -0.266 N 
HETATM   27  N2  UNL     1       2.356  -1.018   1.096  1.00  0.00    -0.103 NA
ATOM     28  H3  UNL     1       1.261   0.433   2.261  1.00  0.00     0.186 HD
HETATM   29  C4  UNL     1       2.475  -1.066  -0.345  1.00  0.00     0.273 C 
HETATM   30  O2  UNL     1       1.137  -0.680  -0.705  1.00  0.00    -0.295 OA
BRANCH  29  31
HETATM   31  C3  UNL     1       3.371   0.028  -0.859  1.00  0.00     0.322 C 
BRANCH  31  32
HETATM   32  N1  UNL     1       4.774  -0.221  -0.579  1.00  0.00     0.083 N 
HETATM   33  C1  UNL     1       5.088  -0.145   0.831  1.00  0.00     0.309 C 
HETATM   34  C2  UNL     1       5.504   0.869  -1.245  1.00  0.00     0.309 C 
ENDBRANCH  31  32
ENDBRANCH  29  31
ENDBRANCH   1  25
BRANCH   2  35
HETATM   35  N5  UNL     1       0.745   3.158   0.319  1.00  0.00    -0.234 N 
ATOM     36  H52 UNL     1       1.706   2.820   0.365  1.00  0.00     0.174 HD
ATOM     37  H51 UNL     1       0.805   4.176   0.320  1.00  0.00     0.174 HD
ENDBRANCH   2  35
TORSDOF 5
