REMARK  16 active torsions:
REMARK  status: ('A' for Active; 'I' for Inactive)
REMARK    1  A    between atoms: N1_2  and  C2_3 
REMARK    2  A    between atoms: N1_2  and  C21_29 
REMARK    3  A    between atoms: C2_3  and  C3_4 
REMARK    4  A    between atoms: C3_4  and  C4_5 
REMARK    5  A    between atoms: C5_6  and  C6_7 
REMARK    6  A    between atoms: C9_10  and  C10_11 
REMARK    7  A    between atoms: C10_11  and  N2_12 
REMARK    8  A    between atoms: C13_15  and  C14_16 
REMARK    9  A    between atoms: C14_16  and  N3_17 
REMARK   10  A    between atoms: N3_17  and  O1_18 
REMARK   11  A    between atoms: O1_18  and  C15_19 
REMARK   12  A    between atoms: C15_19  and  C16_20 
REMARK   13  A    between atoms: C16_20  and  N4_21 
REMARK   14  A    between atoms: C21_29  and  C22_30 
REMARK   15  A    between atoms: C25_33  and  C26_34 
REMARK   16  A    between atoms: C31_45  and  O2_46 
ROOT
HETATM    1  C3  UNL     1      -1.257   1.176  -3.989  1.00  0.00     0.124 C 
ENDROOT
BRANCH   1   2
HETATM    2  C2  UNL     1      -2.183   0.057  -4.151  1.00  0.00     0.284 C 
BRANCH   2   3
HETATM    3  N1  UNL     1      -3.271   0.029  -3.240  1.00  0.00     0.089 N 
HETATM    4  C1  UNL     1      -4.226  -0.954  -3.872  1.00  0.00     0.310 C 
BRANCH   3   5
HETATM    5  C21 UNL     1      -3.027  -0.551  -1.940  1.00  0.00     0.310 C 
BRANCH   5   6
HETATM    6  C22 UNL     1      -4.328  -0.594  -1.204  1.00  0.00    -0.030 A 
HETATM    7  C23 UNL     1      -5.066  -1.736  -1.099  1.00  0.00     0.010 A 
HETATM    8  C24 UNL     1      -6.265  -1.687  -0.389  1.00  0.00     0.013 A 
HETATM    9  C25 UNL     1      -6.746  -0.549   0.213  1.00  0.00    -0.023 A 
HETATM   10  C32 UNL     1      -5.973   0.600   0.090  1.00  0.00     0.013 A 
HETATM   11  C33 UNL     1      -4.796   0.565  -0.605  1.00  0.00     0.010 A 
BRANCH   9  12
HETATM   12  C26 UNL     1      -7.999  -0.526   0.957  1.00  0.00     0.010 A 
HETATM   13  C27 UNL     1      -8.948   0.452   0.620  1.00  0.00     0.017 A 
HETATM   14  C28 UNL     1     -10.169   0.554   1.248  1.00  0.00     0.034 A 
HETATM   15  C29 UNL     1     -10.499  -0.323   2.249  1.00  0.00     0.080 A 
HETATM   16  N5  UNL     1     -11.610  -0.442   3.013  1.00  0.00    -0.284 N 
HETATM   17  C30 UNL     1      -9.593  -1.291   2.602  1.00  0.00     0.111 A 
HETATM   18  N6  UNL     1     -11.384  -1.462   3.815  1.00  0.00    -0.242 N 
ATOM     19  H5  UNL     1     -12.448   0.138   2.975  1.00  0.00     0.188 HD
HETATM   20  N7  UNL     1     -10.183  -1.989   3.590  1.00  0.00    -0.281 N 
ATOM     21  H6  UNL     1     -12.042  -1.803   4.516  1.00  0.00     0.208 HD
ATOM     22  H7  UNL     1      -9.779  -2.786   4.082  1.00  0.00     0.188 HD
HETATM   23  C31 UNL     1      -8.347  -1.391   1.957  1.00  0.00     0.107 A 
BRANCH  23  24
HETATM   24  O2  UNL     1      -7.474  -2.377   2.352  1.00  0.00    -0.357 OA
ATOM     25  H2  UNL     1      -7.716  -2.978   3.047  1.00  0.00     0.217 HD
ENDBRANCH  23  24
ENDBRANCH   9  12
ENDBRANCH   5   6
ENDBRANCH   3   5
ENDBRANCH   2   3
ENDBRANCH   1   2
BRANCH   1  26
HETATM   26  C4  UNL     1      -0.507   1.294  -2.780  1.00  0.00    -0.099 C 
HETATM   27  C5  UNL     1       0.167   1.418  -1.792  1.00  0.00    -0.067 C 
BRANCH  27  28
HETATM   28  C6  UNL     1       1.013   1.570  -0.621  1.00  0.00     0.017 A 
HETATM   29  C7  UNL     1       0.919   0.764   0.487  1.00  0.00     0.021 A 
HETATM   30  C8  UNL     1       1.775   0.928   1.568  1.00  0.00     0.010 A 
HETATM   31  C9  UNL     1       2.724   1.899   1.539  1.00  0.00    -0.040 A 
HETATM   32  C19 UNL     1       2.840   2.725   0.441  1.00  0.00     0.010 A 
HETATM   33  C20 UNL     1       1.994   2.566  -0.632  1.00  0.00     0.021 A 
BRANCH  31  34
HETATM   34  C10 UNL     1       3.714   2.107   2.643  1.00  0.00     0.166 C 
BRANCH  34  35
HETATM   35  N2  UNL     1       4.868   1.215   2.384  1.00  0.00    -0.362 N 
HETATM   36  C11 UNL     1       4.916  -0.015   2.913  1.00  0.00     0.091 A 
HETATM   37  C12 UNL     1       5.949  -0.898   2.642  1.00  0.00     0.031 A 
HETATM   38  C13 UNL     1       6.971  -0.532   1.808  1.00  0.00    -0.002 A 
HETATM   39  C17 UNL     1       6.912   0.739   1.270  1.00  0.00     0.031 A 
HETATM   40  C18 UNL     1       5.861   1.598   1.566  1.00  0.00     0.091 A 
BRANCH  38  41
HETATM   41  C14 UNL     1       8.077  -1.453   1.487  1.00  0.00     0.229 C 
BRANCH  41  42
HETATM   42  N3  UNL     1       8.951  -1.169   0.736  1.00  0.00    -0.293 NA
BRANCH  42  43
HETATM   43  O1  UNL     1       9.930  -1.002  -0.030  1.00  0.00    -0.208 OA
BRANCH  43  44
HETATM   44  C15 UNL     1      11.295  -0.913   0.306  1.00  0.00     0.245 C 
BRANCH  44  45
HETATM   45  C16 UNL     1      12.101  -0.710  -0.968  1.00  0.00     0.259 C 
BRANCH  45  46
HETATM   46  N4  UNL     1      11.672   0.501  -1.610  1.00  0.00    -0.077 N 
ATOM     47  H43 UNL     1      10.667   0.513  -1.782  1.00  0.00     0.274 HD
ATOM     48  H42 UNL     1      11.721   1.308  -0.988  1.00  0.00     0.274 HD
ATOM     49  H41 UNL     1      12.212   0.637  -2.464  1.00  0.00     0.274 HD
ENDBRANCH  45  46
ENDBRANCH  44  45
ENDBRANCH  43  44
ENDBRANCH  42  43
ENDBRANCH  41  42
ENDBRANCH  38  41
ENDBRANCH  34  35
ENDBRANCH  31  34
ENDBRANCH  27  28
ENDBRANCH   1  26
TORSDOF 16
