REMARK  11 active torsions:
REMARK  status: ('A' for Active; 'I' for Inactive)
REMARK    1  A    between atoms: C2_2  and  C3_3 
REMARK    2  A    between atoms: C3_3  and  N1_4 
REMARK       I    between atoms: N1_4  and  C4_6 
REMARK       I    between atoms: C4_6  and  N3_11 
REMARK    3  A    between atoms: N2_7  and  O1_9 
REMARK    4  A    between atoms: N3_11  and  C5_13 
REMARK    5  A    between atoms: C6_16  and  N5_17 
REMARK    6  A    between atoms: C11_27  and  N8_28 
REMARK    7  A    between atoms: N8_28  and  C12_30 
REMARK    8  A    between atoms: C12_30  and  O2_31 
REMARK    9  A    between atoms: C12_30  and  C13_33 
REMARK   10  A    between atoms: C13_33  and  N9_34 
REMARK   11  A    between atoms: C13_33  and  O3_38 
ROOT
HETATM    1  C5  UNL     1       0.100   0.839   0.485  1.00  0.00     0.734 A 
HETATM    2  N4  UNL     1       0.970   1.740   0.976  1.00  0.00    -0.020 N 
ATOM      3  H4  UNL     1       1.836   1.412   1.404  1.00  0.00     0.203 HD
HETATM    4  C6  UNL     1       0.729   3.061   0.917  1.00  0.00     0.706 A 
HETATM    5  N6  UNL     1      -0.411   3.485   0.352  1.00  0.00    -0.021 N 
ATOM      6  H6  UNL     1      -0.601   4.486   0.304  1.00  0.00     0.203 HD
HETATM    7  C8  UNL     1      -1.311   2.620  -0.153  1.00  0.00     0.719 A 
HETATM    8  N7  UNL     1      -2.460   3.092  -0.720  1.00  0.00    -0.200 N 
ATOM      9  H7  UNL     1      -2.619   4.099  -0.752  1.00  0.00     0.183 HD
HETATM   10  C9  UNL     1      -3.385   2.269  -1.236  1.00  0.00     0.110 A 
HETATM   11  C10 UNL     1      -3.128   0.914  -1.170  1.00  0.00     0.067 A 
HETATM   12  C11 UNL     1      -1.963   0.458  -0.594  1.00  0.00     0.146 A 
HETATM   13  N10 UNL     1      -1.031   1.310  -0.073  1.00  0.00     0.039 N 
ENDROOT
BRANCH   1  14
HETATM   14  N3  UNL     1       0.290  -0.404   0.522  1.00  0.00    -0.019 N 
HETATM   15  C4  UNL     1       1.358  -1.125   1.035  1.00  0.00     0.712 C 
HETATM   16  N1  UNL     1       2.678  -1.146   0.509  1.00  0.00    -0.224 N 
HETATM   17  N2  UNL     1       1.148  -1.850   2.093  1.00  0.00    -0.098 N 
ATOM     18  H1  UNL     1       3.207  -0.276   0.452  1.00  0.00     0.177 HD
ATOM     19  H2  UNL     1       1.933  -2.380   2.472  1.00  0.00     0.213 HD
ATOM     20  H3  UNL     1      -0.455  -0.968   0.112  1.00  0.00     0.203 HD
BRANCH  16  21
HETATM   21  C3  UNL     1       3.289  -2.380   0.052  1.00  0.00     0.138 C 
BRANCH  21  22
HETATM   22  C2  UNL     1       4.692  -2.147  -0.463  1.00  0.00     0.016 C 
HETATM   23  C1  UNL     1       4.599  -1.169  -1.624  1.00  0.00     0.006 C 
ENDBRANCH  21  22
ENDBRANCH  16  21
BRANCH  17  24
HETATM   24  O1  UNL     1      -0.047  -1.947   2.725  1.00  0.00    -0.276 OA
ATOM     25  H1  UNL     1      -0.201  -2.477   3.498  1.00  0.00     0.245 HD
ENDBRANCH  17  24
ENDBRANCH   1  14
BRANCH   4  26
HETATM   26  N5  UNL     1       1.571   3.934   1.392  1.00  0.00    -0.229 N 
HETATM   27  C7  UNL     1       1.333   5.342   1.339  1.00  0.00     0.165 C 
ATOM     28  H5  UNL     1       2.435   3.599   1.819  1.00  0.00     0.177 HD
ENDBRANCH   4  26
BRANCH  12  29
HETATM   29  N8  UNL     1      -1.720  -0.782  -0.529  1.00  0.00    -0.345 N 
ATOM     30  H8  UNL     1      -0.834  -1.025  -0.085  1.00  0.00     0.163 HD
BRANCH  29  31
HETATM   31  C12 UNL     1      -2.488  -1.888  -0.978  1.00  0.00     0.275 C 
BRANCH  31  32
HETATM   32  O2  UNL     1      -2.878  -1.812  -2.321  1.00  0.00    -0.372 OA
ATOM     33  H2  UNL     1      -3.392  -2.552  -2.622  1.00  0.00     0.212 HD
ENDBRANCH  31  32
BRANCH  31  34
HETATM   34  C13 UNL     1      -3.651  -2.210  -0.061  1.00  0.00     0.365 C 
BRANCH  34  35
HETATM   35  N9  UNL     1      -4.212  -3.489  -0.451  1.00  0.00    -0.049 N 
ATOM     36  H93 UNL     1      -4.474  -3.516  -1.437  1.00  0.00     0.277 HD
ATOM     37  H92 UNL     1      -3.513  -4.232  -0.470  1.00  0.00     0.277 HD
ATOM     38  H91 UNL     1      -4.995  -3.706   0.166  1.00  0.00     0.277 HD
ENDBRANCH  34  35
BRANCH  34  39
HETATM   39  O3  UNL     1      -3.082  -2.396   1.219  1.00  0.00    -0.367 OA
ATOM     40  H3  UNL     1      -3.811  -2.598   1.794  1.00  0.00     0.212 HD
ENDBRANCH  34  39
ENDBRANCH  31  34
ENDBRANCH  29  31
ENDBRANCH  12  29
TORSDOF 11
