REMARK  3 active torsions:
REMARK  status: ('A' for Active; 'I' for Inactive)
REMARK    1  A    between atoms: S1_2  and  C2_3 
REMARK       I    between atoms: C2_3  and  N1_5 
REMARK    2  A    between atoms: N1_5  and  C3_7 
REMARK    3  A    between atoms: C4_12  and  S2_13 
ROOT
HETATM    1  C3  UNL     1      -0.064  -0.100  -0.806  1.00  0.00     0.169 A 
HETATM    2  N2  UNL     1       1.094  -0.594  -1.250  1.00  0.00    -0.278 N 
ATOM      3  H2  UNL     1       1.136  -1.114  -2.127  1.00  0.00     0.189 HD
HETATM    4  N3  UNL     1       2.142  -0.403  -0.558  1.00  0.00    -0.286 N 
ATOM      5  H3  UNL     1       3.037  -0.772  -0.880  1.00  0.00     0.188 HD
HETATM    6  C4  UNL     1       2.078   0.273   0.579  1.00  0.00     0.129 A 
HETATM    7  S3  UNL     1       0.408   0.655   0.653  1.00  0.00    -0.026 SA
ENDROOT
BRANCH   1   8
HETATM    8  N1  UNL     1      -1.245  -0.192  -1.376  1.00  0.00    -0.297 N 
HETATM    9  C2  UNL     1      -2.316   0.442  -0.661  1.00  0.00     0.285 C 
HETATM   10  O1  UNL     1      -2.111   1.411   0.089  1.00  0.00    -0.260 OA
ATOM     11  H1  UNL     1      -1.390  -0.678  -2.261  1.00  0.00     0.171 HD
BRANCH   9  12
HETATM   12  S1  UNL     1      -3.949  -0.236  -0.911  1.00  0.00    -0.073 SA
HETATM   13  C1  UNL     1      -5.113   0.723   0.086  1.00  0.00     0.100 C 
ENDBRANCH   9  12
ENDBRANCH   1   8
BRANCH   6  14
HETATM   14  S2  UNL     1       3.411   0.675   1.733  1.00  0.00    -0.108 SA
HETATM   15  C5  UNL     1       4.926  -0.039   1.036  1.00  0.00     0.097 C 
ENDBRANCH   6  14
TORSDOF 3
