REMARK  10 active torsions:
REMARK  status: ('A' for Active; 'I' for Inactive)
REMARK    1  A    between atoms: C2_2  and  C3_3 
REMARK    2  A    between atoms: C3_3  and  C4_4 
REMARK    3  A    between atoms: C4_4  and  C5_5 
REMARK    4  A    between atoms: C5_5  and  N1_6 
REMARK       I    between atoms: N1_6  and  C6_8 
REMARK       I    between atoms: C6_8  and  N2_10 
REMARK    5  A    between atoms: C13_17  and  C14_18 
REMARK    6  A    between atoms: C14_18  and  C15_19 
REMARK    7  A    between atoms: C15_19  and  C16_20 
REMARK       I    between atoms: C16_20  and  N3_22 
REMARK    8  A    between atoms: N3_22  and  C17_23 
REMARK    9  A    between atoms: C17_23  and  C18_24 
REMARK   10  A    between atoms: C18_24  and  C19_25 
ROOT
HETATM    1  N1  UNL     1      -5.764  -0.978  -0.055  1.00  0.00    -0.343 N 
ATOM      2  H1  UNL     1      -5.706  -1.273  -1.030  1.00  0.00     0.164 HD
HETATM    3  C6  UNL     1      -4.550  -0.760   0.616  1.00  0.00     0.319 C 
HETATM    4  O1  UNL     1      -4.760  -0.398   1.846  1.00  0.00    -0.247 OA
HETATM    5  N2  UNL     1      -3.232  -0.865   0.170  1.00  0.00    -0.320 N 
HETATM    6  C7  UNL     1      -2.688  -1.344  -1.041  1.00  0.00     0.094 C 
HETATM    7  C8  UNL     1      -3.425  -2.473  -1.733  1.00  0.00     0.026 C 
HETATM    8  C9  UNL     1      -3.644  -3.649  -0.841  1.00  0.00     0.002 C 
HETATM    9  C10 UNL     1      -2.276  -4.083  -0.344  1.00  0.00     0.001 C 
HETATM   10  C11 UNL     1      -1.143  -3.344  -0.967  1.00  0.00     0.007 C 
HETATM   11  C12 UNL     1      -1.265  -1.852  -0.991  1.00  0.00     0.013 C 
HETATM   12  C13 UNL     1      -0.349  -1.243  -0.013  1.00  0.00    -0.006 C 
HETATM   13  C25 UNL     1      -0.936   0.020   0.488  1.00  0.00     0.035 C 
HETATM   14  C26 UNL     1      -2.251  -0.281   1.130  1.00  0.00     0.030 C 
HETATM   15  C27 UNL     1      -2.042  -1.176   2.313  1.00  0.00     0.038 C 
HETATM   16  C28 UNL     1      -2.750   1.077   1.639  1.00  0.00     0.038 C 
ENDROOT
BRANCH  12  17
HETATM   17  C14 UNL     1       0.995  -0.946  -0.675  1.00  0.00     0.015 C 
BRANCH  17  18
HETATM   18  C15 UNL     1       1.948  -0.299   0.257  1.00  0.00     0.120 C 
BRANCH  18  19
HETATM   19  C16 UNL     1       3.259  -0.013  -0.506  1.00  0.00     0.290 C 
HETATM   20  O2  UNL     1       3.347  -0.673  -1.564  1.00  0.00    -0.257 OA
HETATM   21  N3  UNL     1       4.084   0.856   0.022  1.00  0.00    -0.388 NA
BRANCH  21  22
HETATM   22  C17 UNL     1       4.972   1.787   0.581  1.00  0.00     0.159 C 
BRANCH  22  23
HETATM   23  C18 UNL     1       6.320   1.209   0.862  1.00  0.00     0.064 C 
BRANCH  23  24
HETATM   24  C19 UNL     1       7.065   0.725  -0.344  1.00  0.00    -0.009 C 
HETATM   25  C20 UNL     1       8.402   0.177   0.202  1.00  0.00     0.005 C 
HETATM   26  C21 UNL     1       9.408   0.223  -0.920  1.00  0.00     0.000 C 
HETATM   27  C22 UNL     1       9.902   1.662  -1.044  1.00  0.00     0.000 C 
HETATM   28  C23 UNL     1       8.709   2.591  -0.758  1.00  0.00     0.000 C 
HETATM   29  C24 UNL     1       7.435   1.901  -1.234  1.00  0.00     0.005 C 
ENDBRANCH  23  24
ENDBRANCH  22  23
ENDBRANCH  21  22
ENDBRANCH  18  19
ENDBRANCH  17  18
ENDBRANCH  12  17
BRANCH   1  30
HETATM   30  C5  UNL     1      -7.093  -0.823   0.507  1.00  0.00     0.124 C 
BRANCH  30  31
HETATM   31  C4  UNL     1      -7.382   0.579   0.981  1.00  0.00     0.020 C 
BRANCH  31  32
HETATM   32  C3  UNL     1      -7.208   1.473  -0.247  1.00  0.00     0.001 C 
BRANCH  32  33
HETATM   33  C2  UNL     1      -7.442   2.919   0.054  1.00  0.00    -0.004 C 
HETATM   34  C1  UNL     1      -7.232   3.719  -1.206  1.00  0.00     0.005 C 
ENDBRANCH  32  33
ENDBRANCH  31  32
ENDBRANCH  30  31
ENDBRANCH   1  30
TORSDOF 10
