REMARK  5 active torsions:
REMARK  status: ('A' for Active; 'I' for Inactive)
REMARK    1  A    between atoms: C8_14  and  N3_15 
REMARK    2  A    between atoms: N4_18  and  C11_19 
REMARK    3  A    between atoms: C12_22  and  N6_23 
REMARK    4  A    between atoms: N6_23  and  C13_25 
REMARK    5  A    between atoms: C21_36  and  N9_37 
ROOT
HETATM    1  C11 UNL     1      -1.579  -0.442  -0.349  1.00  0.00     0.725 A 
HETATM    2  N5  UNL     1      -2.487   0.496  -0.016  1.00  0.00    -0.020 N 
ATOM      3  H5  UNL     1      -2.164   1.424   0.257  1.00  0.00     0.203 HD
HETATM    4  C12 UNL     1      -3.824   0.240  -0.033  1.00  0.00     0.694 A 
HETATM    5  N7  UNL     1      -4.194  -0.996  -0.397  1.00  0.00    -0.172 N 
ATOM      6  H7  UNL     1      -5.189  -1.217  -0.417  1.00  0.00     0.186 HD
HETATM    7  C18 UNL     1      -3.316  -1.962  -0.738  1.00  0.00     0.185 A 
HETATM    8  C19 UNL     1      -3.457  -3.272  -1.137  1.00  0.00     0.136 A 
HETATM    9  C20 UNL     1      -4.722  -3.925  -1.280  1.00  0.00     0.107 C 
HETATM   10  N8  UNL     1      -5.730  -4.456  -1.381  1.00  0.00    -0.191 NA
HETATM   11  C21 UNL     1      -2.181  -3.736  -1.340  1.00  0.00     0.139 A 
HETATM   12  N10 UNL     1      -1.305  -2.752  -1.077  1.00  0.00    -0.262 N 
ATOM     13  H10 UNL     1      -0.289  -2.816  -1.145  1.00  0.00     0.190 HD
HETATM   14  N11 UNL     1      -2.009  -1.668  -0.708  1.00  0.00    -0.065 N 
ENDROOT
BRANCH  11  15
HETATM   15  N9  UNL     1      -1.880  -4.927  -1.722  1.00  0.00    -0.383 N 
ATOM     16  H92 UNL     1      -2.545  -5.674  -1.922  1.00  0.00     0.157 HD
ATOM     17  H91 UNL     1      -0.932  -5.272  -1.873  1.00  0.00     0.157 HD
ENDBRANCH  11  15
BRANCH   4  18
HETATM   18  N6  UNL     1      -4.683   1.140   0.286  1.00  0.00    -0.221 N 
ATOM     19  H6  UNL     1      -4.353   2.066   0.557  1.00  0.00     0.178 HD
BRANCH  18  20
HETATM   20  C13 UNL     1      -6.101   0.877   0.271  1.00  0.00     0.099 C 
HETATM   21  C14 UNL     1      -6.905   2.166   0.258  1.00  0.00     0.026 C 
HETATM   22  C15 UNL     1      -8.292   1.728   0.670  1.00  0.00     0.002 C 
HETATM   23  C16 UNL     1      -8.129   0.407   1.385  1.00  0.00     0.002 C 
HETATM   24  C17 UNL     1      -6.611   0.210   1.506  1.00  0.00     0.026 C 
ENDBRANCH  18  20
ENDBRANCH   4  18
BRANCH   1  25
HETATM   25  N4  UNL     1      -0.175  -0.160  -0.324  1.00  0.00    -0.142 N 
HETATM   26  C10 UNL     1       0.444   0.793  -1.263  1.00  0.00     0.171 C 
HETATM   27  C9  UNL     1       1.565   1.509  -0.490  1.00  0.00     0.143 C 
HETATM   28  N3  UNL     1       2.595   0.604  -0.088  1.00  0.00    -0.379 N 
HETATM   29  C23 UNL     1       2.184  -0.685   0.303  1.00  0.00     0.161 C 
HETATM   30  C22 UNL     1       0.734  -0.742   0.589  1.00  0.00     0.277 C 
HETATM   31  O2  UNL     1       0.262  -1.293   1.624  1.00  0.00    -0.266 OA
BRANCH  28  32
HETATM   32  C8  UNL     1       3.776   0.645  -0.873  1.00  0.00     0.085 C 
HETATM   33  C7  UNL     1       4.489   1.963  -0.867  1.00  0.00     0.027 C 
HETATM   34  C6  UNL     1       5.142   1.935   0.499  1.00  0.00     0.025 C 
HETATM   35  C5  UNL     1       5.743   0.530   0.467  1.00  0.00     0.051 C 
HETATM   36  C2  UNL     1       7.105   0.645  -0.133  1.00  0.00     0.017 C 
HETATM   37  C4  UNL     1       6.072   0.027   1.805  1.00  0.00     0.091 C 
HETATM   38  C24 UNL     1       4.801  -0.303  -0.331  1.00  0.00     0.047 C 
HETATM   39  C1  UNL     1       7.525   0.375  -1.325  1.00  0.00     0.025 C 
HETATM   40  C3  UNL     1       7.935   1.164   0.971  1.00  0.00     0.253 C 
HETATM   41  O1  UNL     1       9.004   1.819   0.871  1.00  0.00    -0.268 OA
HETATM   42  N1  UNL     1       7.261   0.761   2.177  1.00  0.00    -0.312 N 
ATOM     43  H1  UNL     1       7.569   0.959   3.129  1.00  0.00     0.170 HD
HETATM   44  N2  UNL     1       5.542  -0.845   2.582  1.00  0.00    -0.388 N 
ATOM     45  H22 UNL     1       5.771  -1.195   3.512  1.00  0.00     0.157 HD
ATOM     46  H21 UNL     1       4.703  -1.363   2.320  1.00  0.00     0.157 HD
ENDBRANCH  28  32
ENDBRANCH   1  25
TORSDOF 5
