REMARK  3 active torsions:
REMARK  status: ('A' for Active; 'I' for Inactive)
REMARK    1  A    between atoms: N1_2  and  N2_3 
REMARK    2  A    between atoms: N1_2  and  N3_6 
REMARK    3  A    between atoms: N4_8  and  N5_10 
ROOT
HETATM    1  N5  UNL     1      -2.050   0.933   1.145  1.00  0.00    -0.249 N 
ATOM      2  H5  UNL     1      -2.394   1.430   1.967  1.00  0.00     0.192 HD
HETATM    3  C2  UNL     1      -0.763   0.733   1.031  1.00  0.00     0.247 A 
HETATM    4  N6  UNL     1      -0.245   0.087  -0.024  1.00  0.00    -0.314 N 
ATOM      5  H6  UNL     1      -0.887  -0.248  -0.742  1.00  0.00     0.170 HD
HETATM    6  C3  UNL     1       1.057  -0.145  -0.193  1.00  0.00     0.138 A 
HETATM    7  C4  UNL     1       1.849  -0.759  -1.138  1.00  0.00     0.291 A 
HETATM    8  O1  UNL     1       1.433  -1.308  -2.195  1.00  0.00    -0.264 OA
HETATM    9  N7  UNL     1       3.140  -0.692  -0.777  1.00  0.00    -0.258 N 
HETATM   10  C5  UNL     1       4.281  -1.219  -1.501  1.00  0.00     0.181 C 
HETATM   11  N8  UNL     1       3.183  -0.038   0.396  1.00  0.00    -0.286 N 
HETATM   12  C6  UNL     1       4.419   0.227   1.097  1.00  0.00     0.178 C 
HETATM   13  C7  UNL     1       1.946   0.311   0.786  1.00  0.00     0.134 A 
HETATM   14  C8  UNL     1       1.401   0.970   1.860  1.00  0.00     0.176 A 
HETATM   15  N9  UNL     1       2.110   1.420   2.795  1.00  0.00    -0.378 N 
ATOM     16  H91 UNL     1       1.705   1.910   3.593  1.00  0.00     0.158 HD
ATOM     17  H92 UNL     1       3.119   1.281   2.738  1.00  0.00     0.158 HD
HETATM   18  O2  UNL     1       0.076   1.152   1.935  1.00  0.00    -0.259 OA
ENDROOT
BRANCH   1  19
HETATM   19  N4  UNL     1      -2.961   0.505   0.210  1.00  0.00    -0.224 N 
HETATM   20  N3  UNL     1      -4.177   0.769   0.372  1.00  0.00    -0.212 N 
ATOM     21  H3  UNL     1      -4.497   1.295   1.185  1.00  0.00     0.211 HD
ATOM     22  H4  UNL     1      -2.652  -0.022  -0.607  1.00  0.00     0.210 HD
BRANCH  20  23
HETATM   23  N1  UNL     1      -5.077   0.322  -0.592  1.00  0.00    -0.230 N 
HETATM   24  C1  UNL     1      -5.475  -1.070  -0.708  1.00  0.00     0.201 C 
BRANCH  23  25
HETATM   25  N2  UNL     1      -5.625   1.233  -1.487  1.00  0.00    -0.328 N 
ATOM     26  H22 UNL     1      -6.284   0.906  -2.193  1.00  0.00     0.178 HD
ATOM     27  H21 UNL     1      -5.345   2.211  -1.406  1.00  0.00     0.178 HD
ENDBRANCH  23  25
ENDBRANCH  20  23
ENDBRANCH   1  19
TORSDOF 3
