REMARK  6 active torsions:
REMARK  status: ('A' for Active; 'I' for Inactive)
REMARK    1  A    between atoms: N1_2  and  C2_5 
REMARK    2  A    between atoms: C2_5  and  C3_6 
REMARK    3  A    between atoms: C3_6  and  N2_7 
REMARK    4  A    between atoms: C3_6  and  C5_12 
REMARK    5  A    between atoms: C5_12  and  N5_13 
REMARK    6  A    between atoms: C5_12  and  C6_17 
ROOT
HETATM    1  C3  UNL     1       0.327   0.072  -0.410  1.00  0.00     0.140 C 
ENDROOT
BRANCH   1   2
HETATM    2  C2  UNL     1       0.910   1.423  -0.749  1.00  0.00     0.259 C 
BRANCH   2   3
HETATM    3  N1  UNL     1       0.621   2.405   0.288  1.00  0.00    -0.077 N 
HETATM    4  C1  UNL     1       1.225   3.653  -0.145  1.00  0.00     0.267 C 
ATOM      5  H12 UNL     1       0.923   2.112   1.217  1.00  0.00     0.276 HD
ATOM      6  H11 UNL     1      -0.374   2.489   0.498  1.00  0.00     0.276 HD
ENDBRANCH   2   3
ENDBRANCH   1   2
BRANCH   1   7
HETATM    7  N2  UNL     1       0.836  -0.462   0.811  1.00  0.00    -0.359 N 
HETATM    8  C4  UNL     1       1.697  -1.414   0.894  1.00  0.00     0.197 C 
HETATM    9  N3  UNL     1       2.092  -1.820   2.199  1.00  0.00    -0.067 NA
HETATM   10  N4  UNL     1       2.276  -2.083  -0.209  1.00  0.00    -0.067 NA
ATOM     11  H2  UNL     1       0.492  -0.059   1.683  1.00  0.00     0.162 HD
ENDBRANCH   1   7
BRANCH   1  12
HETATM   12  C5  UNL     1      -1.174   0.106  -0.383  1.00  0.00     0.211 C 
BRANCH  12  13
HETATM   13  N5  UNL     1      -1.653   0.510  -1.710  1.00  0.00    -0.073 N 
ATOM     14  H53 UNL     1      -1.247   1.392  -2.021  1.00  0.00     0.274 HD
ATOM     15  H52 UNL     1      -1.288  -0.083  -2.456  1.00  0.00     0.274 HD
ATOM     16  H51 UNL     1      -2.673   0.533  -1.692  1.00  0.00     0.274 HD
ENDBRANCH  12  13
BRANCH  12  17
HETATM   17  C6  UNL     1      -1.691  -1.301  -0.164  1.00  0.00     0.018 A 
HETATM   18  C7  UNL     1      -3.201  -1.463  -0.109  1.00  0.00     0.007 A 
HETATM   19  C8  UNL     1      -2.373  -1.556   1.117  1.00  0.00     0.007 A 
ENDBRANCH  12  17
ENDBRANCH   1  12
TORSDOF 6
