REMARK  6 active torsions:
REMARK  status: ('A' for Active; 'I' for Inactive)
REMARK    1  A    between atoms: C1_2  and  C2_4 
REMARK    2  A    between atoms: C3_6  and  C4_7 
REMARK    3  A    between atoms: C7_12  and  N3_13 
REMARK    4  A    between atoms: C8_15  and  O2_16 
REMARK    5  A    between atoms: C8_15  and  C9_18 
REMARK    6  A    between atoms: C9_18  and  C10_19 
ROOT
HETATM    1  N3  UNL     1      -0.012  -1.775   0.595  1.00  0.00    -0.325 N 
ATOM      2  H3  UNL     1      -0.086  -2.642   1.127  1.00  0.00     0.169 HD
HETATM    3  C8  UNL     1       1.247  -1.559   0.155  1.00  0.00     0.130 C 
ENDROOT
BRANCH   3   4
HETATM    4  O2  UNL     1       2.097  -2.541   0.557  1.00  0.00    -0.348 OA
ATOM      5  H2  UNL     1       2.982  -2.389   0.248  1.00  0.00     0.219 HD
ENDBRANCH   3   4
BRANCH   3   6
HETATM    6  C9  UNL     1       1.925  -0.540  -0.647  1.00  0.00     0.058 A 
HETATM    7  C16 UNL     1       1.290   0.256  -1.751  1.00  0.00     0.025 A 
HETATM    8  C17 UNL     1       2.226  -0.889  -2.064  1.00  0.00     0.025 A 
BRANCH   6   9
HETATM    9  C10 UNL     1       2.997   0.184   0.139  1.00  0.00     0.042 A 
HETATM   10  C11 UNL     1       2.626   0.854   1.275  1.00  0.00     0.168 A 
HETATM   11  F1  UNL     1       1.346   0.939   1.738  1.00  0.00    -0.202 F 
HETATM   12  C12 UNL     1       3.534   1.535   2.102  1.00  0.00     0.197 A 
HETATM   13  F2  UNL     1       3.110   2.161   3.220  1.00  0.00    -0.199 F 
HETATM   14  C13 UNL     1       4.861   1.504   1.713  1.00  0.00     0.199 A 
HETATM   15  F3  UNL     1       5.742   2.156   2.501  1.00  0.00    -0.199 F 
HETATM   16  C14 UNL     1       5.278   0.851   0.593  1.00  0.00     0.197 A 
HETATM   17  F4  UNL     1       6.570   0.846   0.218  1.00  0.00    -0.199 F 
HETATM   18  C15 UNL     1       4.323   0.191  -0.186  1.00  0.00     0.168 A 
HETATM   19  F5  UNL     1       4.761  -0.462  -1.270  1.00  0.00    -0.202 F 
ENDBRANCH   6   9
ENDBRANCH   3   6
BRANCH   1  20
HETATM   20  C7  UNL     1      -1.284  -1.088   0.503  1.00  0.00     0.130 A 
HETATM   21  C2  UNL     1      -2.430  -1.639   1.055  1.00  0.00     0.115 A 
HETATM   22  S1  UNL     1      -3.623  -0.445   0.614  1.00  0.00    -0.068 SA
HETATM   23  C3  UNL     1      -2.603   0.638  -0.217  1.00  0.00     0.057 A 
HETATM   24  N2  UNL     1      -1.451   0.041  -0.109  1.00  0.00    -0.339 N 
ATOM     25  H2  UNL     1      -0.636   0.487  -0.529  1.00  0.00     0.168 HD
BRANCH  21  26
HETATM   26  C1  UNL     1      -2.692  -2.844   1.842  1.00  0.00     0.275 C 
HETATM   27  N1  UNL     1      -4.052  -3.147   2.192  1.00  0.00    -0.057 NA
HETATM   28  O1  UNL     1      -1.808  -3.646   2.236  1.00  0.00    -0.270 OA
ENDBRANCH  21  26
BRANCH  23  29
HETATM   29  C4  UNL     1      -2.970   1.931  -0.900  1.00  0.00     0.043 A 
HETATM   30  C5  UNL     1      -4.260   1.933  -1.655  1.00  0.00     0.012 A 
HETATM   31  C6  UNL     1      -4.115   2.681  -0.351  1.00  0.00     0.012 A 
ENDBRANCH  23  29
ENDBRANCH   1  20
TORSDOF 6
