REMARK  5 active torsions:
REMARK  status: ('A' for Active; 'I' for Inactive)
REMARK       I    between atoms: C1_2  and  N1_3 
REMARK       I    between atoms: C1_2  and  N3_23 
REMARK    1  A    between atoms: N1_3  and  C2_5 
REMARK    2  A    between atoms: C2_5  and  C3_6 
REMARK    3  A    between atoms: C6_9  and  N2_10 
REMARK    4  A    between atoms: N2_10  and  S1_12 
REMARK    5  A    between atoms: S1_12  and  C7_15 
ROOT
HETATM    1  C3  UNL     1      -0.196   0.239  -1.286  1.00  0.00     0.139 C 
HETATM    2  C4  UNL     1      -0.442  -1.067  -0.583  1.00  0.00     0.036 C 
HETATM    3  C5  UNL     1      -1.926  -1.081  -0.210  1.00  0.00     0.030 C 
HETATM    4  C6  UNL     1      -2.298   0.218   0.398  1.00  0.00     0.117 C 
HETATM    5  C11 UNL     1      -1.033   1.044   0.732  1.00  0.00     0.194 C 
HETATM    6  O4  UNL     1      -0.235   1.256  -0.358  1.00  0.00    -0.382 OA
ENDROOT
BRANCH   4   7
HETATM    7  N2  UNL     1      -3.052   1.019  -0.534  1.00  0.00    -0.308 N 
ATOM      8  H2  UNL     1      -2.775   1.172  -1.504  1.00  0.00     0.172 HD
BRANCH   7   9
HETATM    9  S1  UNL     1      -4.434   1.670   0.153  1.00  0.00     0.265 S 
HETATM   10  O2  UNL     1      -5.081   2.678  -0.772  1.00  0.00    -0.200 OA
HETATM   11  O3  UNL     1      -4.000   2.436   1.407  1.00  0.00    -0.200 OA
BRANCH   9  12
HETATM   12  C7  UNL     1      -5.599   0.502   0.708  1.00  0.00     0.121 A 
HETATM   13  C8  UNL     1      -5.678  -0.854   0.628  1.00  0.00     0.052 A 
HETATM   14  C9  UNL     1      -6.756  -1.466   1.159  1.00  0.00     0.019 A 
HETATM   15 BR1  UNL     1      -7.025  -3.397   1.131  1.00  0.00    -0.051 Br
HETATM   16  C10 UNL     1      -7.701  -0.674   1.746  1.00  0.00     0.070 A 
HETATM   17  S2  UNL     1      -7.071   0.892   1.545  1.00  0.00    -0.087 SA
ENDBRANCH   9  12
ENDBRANCH   7   9
ENDBRANCH   4   7
BRANCH   1  18
HETATM   18  C2  UNL     1       1.151   0.264  -1.982  1.00  0.00     0.156 C 
BRANCH  18  19
HETATM   19  N1  UNL     1       2.213   0.081  -1.046  1.00  0.00    -0.341 N 
HETATM   20  C1  UNL     1       3.567   0.069  -1.469  1.00  0.00     0.318 C 
HETATM   21  O1  UNL     1       3.835   0.222  -2.698  1.00  0.00    -0.247 OA
HETATM   22  N3  UNL     1       4.625  -0.112  -0.547  1.00  0.00    -0.334 N 
HETATM   23  C12 UNL     1       4.456  -0.296   0.873  1.00  0.00     0.127 C 
HETATM   24  C15 UNL     1       6.031  -0.143  -0.850  1.00  0.00     0.127 C 
HETATM   25  C13 UNL     1       5.721   0.268   1.490  1.00  0.00     0.022 C 
HETATM   26  C14 UNL     1       6.727   0.380   0.381  1.00  0.00     0.022 C 
ATOM     27  H1  UNL     1       1.995  -0.043  -0.057  1.00  0.00     0.164 HD
ENDBRANCH  18  19
ENDBRANCH   1  18
TORSDOF 5
