REMARK  13 active torsions:
REMARK  status: ('A' for Active; 'I' for Inactive)
REMARK    1  A    between atoms: C2_2  and  N1_3 
REMARK    2  A    between atoms: C2_2  and  C3_7 
REMARK    3  A    between atoms: C3_7  and  O2_9 
REMARK    4  A    between atoms: O2_9  and  C4_10 
REMARK    5  A    between atoms: C4_10  and  C5_11 
REMARK    6  A    between atoms: C6_12  and  O3_13 
REMARK    7  A    between atoms: C8_17  and  O5_18 
REMARK    8  A    between atoms: C9_20  and  N2_21 
REMARK       I    between atoms: N2_21  and  C10_23 
REMARK    9  A    between atoms: C10_23  and  C11_25 
REMARK   10  A    between atoms: C12_28  and  C13_29 
REMARK   11  A    between atoms: C13_29  and  N5_31 
REMARK   12  A    between atoms: N5_31  and  N6_33 
REMARK   13  A    between atoms: N8_39  and  N9_41 
ROOT
HETATM    1  N2  UNL     1      -1.168   0.342   0.198  1.00  0.00    -0.304 N 
ATOM      2  H2  UNL     1      -1.298  -0.223  -0.641  1.00  0.00     0.171 HD
HETATM    3  C10 UNL     1      -2.328   0.691   0.831  1.00  0.00     0.291 C 
HETATM    4  O6  UNL     1      -2.471   1.266   1.927  1.00  0.00    -0.264 OA
ENDROOT
BRANCH   1   5
HETATM    5  C9  UNL     1       0.182   0.630   0.507  1.00  0.00     0.148 A 
HETATM    6  C8  UNL     1       0.609   1.460   1.516  1.00  0.00     0.164 A 
HETATM    7  C7  UNL     1       1.982   1.733   1.671  1.00  0.00     0.243 A 
HETATM    8  C6  UNL     1       2.919   1.205   0.855  1.00  0.00     0.144 A 
HETATM    9  O4  UNL     1       2.334   2.497   2.605  1.00  0.00    -0.282 OA
HETATM   10  C5  UNL     1       2.474   0.363  -0.168  1.00  0.00     0.075 A 
HETATM   11  N11 UNL     1       1.166   0.100  -0.313  1.00  0.00    -0.334 N 
HETATM   12  C15 UNL     1       0.735  -0.809  -1.358  1.00  0.00     0.158 C 
BRANCH   6  13
HETATM   13  O5  UNL     1      -0.263   2.046   2.399  1.00  0.00    -0.354 OA
ATOM     14  H5  UNL     1      -1.189   1.862   2.294  1.00  0.00     0.218 HD
ENDBRANCH   6  13
BRANCH   8  15
HETATM   15  O3  UNL     1       4.270   1.483   1.018  1.00  0.00    -0.355 OA
ATOM     16  H3  UNL     1       4.572   2.055   1.713  1.00  0.00     0.218 HD
ENDBRANCH   8  15
BRANCH  10  17
HETATM   17  C4  UNL     1       3.548  -0.060  -1.113  1.00  0.00     0.239 C 
BRANCH  17  18
HETATM   18  O2  UNL     1       4.617  -0.653  -0.362  1.00  0.00    -0.314 OA
BRANCH  18  19
HETATM   19  C3  UNL     1       5.755  -1.117  -0.992  1.00  0.00     0.289 C 
HETATM   20  O1  UNL     1       5.840  -1.039  -2.253  1.00  0.00    -0.263 OA
BRANCH  19  21
HETATM   21  C2  UNL     1       6.850  -1.696  -0.150  1.00  0.00     0.278 C 
HETATM   22  C1  UNL     1       7.493  -0.592   0.693  1.00  0.00     0.050 C 
BRANCH  21  23
HETATM   23  N1  UNL     1       7.850  -2.205  -1.081  1.00  0.00    -0.066 N 
ATOM     24  H13 UNL     1       8.266  -1.468  -1.651  1.00  0.00     0.275 HD
ATOM     25  H12 UNL     1       8.701  -2.515  -0.612  1.00  0.00     0.275 HD
ATOM     26  H11 UNL     1       7.422  -2.941  -1.643  1.00  0.00     0.275 HD
ENDBRANCH  21  23
ENDBRANCH  19  21
ENDBRANCH  18  19
ENDBRANCH  17  18
ENDBRANCH  10  17
ENDBRANCH   1   5
BRANCH   3  27
HETATM   27  C11 UNL     1      -3.648   0.382   0.173  1.00  0.00     0.191 A 
HETATM   28  N3  UNL     1      -4.795   0.802   0.724  1.00  0.00    -0.320 N 
HETATM   29  C12 UNL     1      -6.016   0.595   0.160  1.00  0.00     0.165 A 
ATOM     30  H3  UNL     1      -4.751   1.303   1.612  1.00  0.00     0.169 HD
HETATM   31  N7  UNL     1      -6.036  -0.072  -1.013  1.00  0.00    -0.172 N 
HETATM   32  C14 UNL     1      -4.923  -0.509  -1.597  1.00  0.00     0.699 A 
ATOM     33  H7  UNL     1      -6.933  -0.247  -1.466  1.00  0.00     0.186 HD
HETATM   34  N8  UNL     1      -4.973  -1.163  -2.719  1.00  0.00    -0.138 N 
HETATM   35  N10 UNL     1      -3.722  -0.272  -0.984  1.00  0.00    -0.170 N 
ATOM     36  H8  UNL     1      -5.853  -1.367  -3.193  1.00  0.00     0.205 HD
ATOM     37  H10 UNL     1      -2.864  -0.604  -1.424  1.00  0.00     0.186 HD
BRANCH  29  38
HETATM   38  C13 UNL     1      -7.225   1.053   0.816  1.00  0.00     0.175 C 
HETATM   39  N4  UNL     1      -7.113   1.692   2.080  1.00  0.00    -0.077 NA
BRANCH  38  40
HETATM   40  N5  UNL     1      -8.363   0.871   0.279  1.00  0.00    -0.291 N 
ATOM     41  H5  UNL     1      -9.166   1.220   0.802  1.00  0.00     0.187 HD
BRANCH  40  42
HETATM   42  N6  UNL     1      -8.647   0.255  -0.933  1.00  0.00    -0.344 N 
ATOM     43  H62 UNL     1      -7.832  -0.087  -1.441  1.00  0.00     0.176 HD
ATOM     44  H61 UNL     1      -9.560   0.109  -1.364  1.00  0.00     0.176 HD
ENDBRANCH  40  42
ENDBRANCH  38  40
ENDBRANCH  29  38
BRANCH  34  45
HETATM   45  N9  UNL     1      -3.707  -1.577  -3.243  1.00  0.00    -0.331 N 
ATOM     46  H92 UNL     1      -2.835  -1.366  -2.757  1.00  0.00     0.177 HD
ATOM     47  H91 UNL     1      -3.746  -2.090  -4.124  1.00  0.00     0.177 HD
ENDBRANCH  34  45
ENDBRANCH   3  27
TORSDOF 13
