REMARK  5 active torsions:
REMARK  status: ('A' for Active; 'I' for Inactive)
REMARK    1  A    between atoms: S1_2  and  C3_4 
REMARK    2  A    between atoms: C3_4  and  C4_5 
REMARK    3  A    between atoms: C5_7  and  O2_8 
REMARK    4  A    between atoms: C6_10  and  O3_11 
REMARK    5  A    between atoms: C7_13  and  O4_14 
ROOT
HETATM    1  C4  UNL     1       0.454  -0.258   0.388  1.00  0.00     0.164 C 
HETATM    2  O1  UNL     1       1.488  -0.270   1.322  1.00  0.00    -0.350 OA
HETATM    3  C5  UNL     1       2.502  -0.909   0.571  1.00  0.00     0.288 C 
HETATM    4  C6  UNL     1       2.534  -0.127  -0.708  1.00  0.00     0.204 C 
HETATM    5  C7  UNL     1       1.095   0.402  -0.792  1.00  0.00     0.181 C 
ENDROOT
BRANCH   1   6
HETATM    6  C3  UNL     1      -0.740   0.505   0.921  1.00  0.00     0.097 C 
BRANCH   6   7
HETATM    7  S1  UNL     1      -2.066   0.530  -0.255  1.00  0.00    -0.225 SA
HETATM    8  C1  UNL     1      -3.419   1.452   0.474  1.00  0.00     0.078 C 
HETATM    9  C2  UNL     1      -2.672  -1.107  -0.564  1.00  0.00     0.078 C 
ENDBRANCH   6   7
ENDBRANCH   1   6
BRANCH   5  10
HETATM   10  O4  UNL     1       0.586   0.017  -2.008  1.00  0.00    -0.390 OA
ATOM     11  H4  UNL     1       0.993   0.436  -2.757  1.00  0.00     0.210 HD
ENDBRANCH   5  10
BRANCH   3  12
HETATM   12  O2  UNL     1       3.701  -0.950   1.240  1.00  0.00    -0.369 OA
ATOM     13  H2  UNL     1       4.382  -1.379   0.736  1.00  0.00     0.212 HD
ENDBRANCH   3  12
BRANCH   4  14
HETATM   14  O3  UNL     1       3.441   0.923  -0.652  1.00  0.00    -0.388 OA
ATOM     15  H3  UNL     1       3.461   1.418  -1.462  1.00  0.00     0.210 HD
ENDBRANCH   4  14
TORSDOF 5
