REMARK  6 active torsions:
REMARK  status: ('A' for Active; 'I' for Inactive)
REMARK    1  A    between atoms: C2_2  and  C3_3 
REMARK    2  A    between atoms: C3_3  and  N1_4 
REMARK    3  A    between atoms: C5_6  and  O1_7 
REMARK    4  A    between atoms: C6_9  and  O2_10 
REMARK    5  A    between atoms: C7_12  and  C8_13 
REMARK    6  A    between atoms: C8_13  and  O3_14 
ROOT
HETATM    1  N1  UNL     1       0.317  -1.121   0.272  1.00  0.00    -0.367 N 
HETATM    2  C4  UNL     1      -0.643  -1.524  -0.672  1.00  0.00     0.161 C 
HETATM    3  C5  UNL     1      -0.444  -0.595  -1.880  1.00  0.00     0.165 C 
HETATM    4  C6  UNL     1      -1.097   0.710  -1.402  1.00  0.00     0.159 C 
HETATM    5  C7  UNL     1      -0.326   1.211  -0.231  1.00  0.00     0.079 C 
HETATM    6  C9  UNL     1       0.648   0.234   0.346  1.00  0.00     0.073 C 
ENDROOT
BRANCH   1   7
HETATM    7  C3  UNL     1       0.516  -1.935   1.405  1.00  0.00     0.089 C 
BRANCH   7   8
HETATM    8  C2  UNL     1       1.575  -1.345   2.295  1.00  0.00     0.007 C 
HETATM    9  C1  UNL     1       1.281  -1.014   3.537  1.00  0.00     0.012 C 
ENDBRANCH   7   8
ENDBRANCH   1   7
BRANCH   3  10
HETATM   10  O1  UNL     1      -1.036  -1.088  -3.014  1.00  0.00    -0.391 OA
ATOM     11  H1  UNL     1      -0.913  -0.514  -3.761  1.00  0.00     0.210 HD
ENDBRANCH   3  10
BRANCH   5  12
HETATM   12  C8  UNL     1       0.394   2.485  -0.631  1.00  0.00     0.176 C 
BRANCH  12  13
HETATM   13  O3  UNL     1      -0.480   3.476  -1.035  1.00  0.00    -0.400 OA
ATOM     14  H3  UNL     1      -0.029   4.274  -1.285  1.00  0.00     0.209 HD
ENDBRANCH  12  13
ENDBRANCH   5  12
BRANCH   4  15
HETATM   15  O2  UNL     1      -1.206   1.595  -2.444  1.00  0.00    -0.392 OA
ATOM     16  H2  UNL     1      -1.610   2.402  -2.148  1.00  0.00     0.210 HD
ENDBRANCH   4  15
TORSDOF 6
