REMARK  9 active torsions:
REMARK  status: ('A' for Active; 'I' for Inactive)
REMARK       I    between atoms: C1_2  and  N1_3 
REMARK    1  A    between atoms: C1_2  and  C17_33 
REMARK    2  A    between atoms: N1_3  and  C2_5 
REMARK    3  A    between atoms: C2_5  and  C3_6 
REMARK    4  A    between atoms: C2_5  and  C11_23 
REMARK    5  A    between atoms: C3_6  and  O2_7 
REMARK    6  A    between atoms: C3_6  and  N2_9 
REMARK    7  A    between atoms: C4_16  and  C5_17 
REMARK    8  A    between atoms: C14_26  and  C15_27 
REMARK    9  A    between atoms: C15_27  and  O3_28 
ROOT
HETATM    1  C2  UNL     1       0.243  -0.624   0.355  1.00  0.00     0.211 C 
ENDROOT
BRANCH   1   2
HETATM    2  N1  UNL     1      -1.128  -0.995   0.862  1.00  0.00    -0.343 N 
HETATM    3  C1  UNL     1      -1.917  -1.931   0.173  1.00  0.00     0.222 C 
HETATM    4  O1  UNL     1      -1.479  -2.481  -0.883  1.00  0.00    -0.273 OA
ATOM      5  H1  UNL     1      -1.486  -0.562   1.713  1.00  0.00     0.163 HD
BRANCH   3   6
HETATM    6  C17 UNL     1      -3.275  -2.324   0.619  1.00  0.00     0.078 C 
HETATM    7  C18 UNL     1      -3.861  -3.473  -0.132  1.00  0.00     0.014 C 
HETATM    8  C19 UNL     1      -5.356  -3.204  -0.000  1.00  0.00     0.001 C 
HETATM    9  C20 UNL     1      -5.425  -1.732  -0.350  1.00  0.00     0.001 C 
HETATM   10  C21 UNL     1      -4.190  -1.136   0.269  1.00  0.00     0.014 C 
ENDBRANCH   3   6
ENDBRANCH   1   2
BRANCH   1  11
HETATM   11  C3  UNL     1       1.189  -1.231   1.280  1.00  0.00     0.170 C 
BRANCH  11  12
HETATM   12  O2  UNL     1       0.594  -1.813   2.309  1.00  0.00    -0.346 OA
ATOM     13  H2  UNL     1       1.211  -2.209   2.913  1.00  0.00     0.219 HD
ENDBRANCH  11  12
BRANCH  11  14
HETATM   14  N2  UNL     1       2.582  -1.342   1.357  1.00  0.00    -0.201 N 
HETATM   15  N3  UNL     1       3.138  -1.812   2.524  1.00  0.00    -0.218 N 
HETATM   16  N4  UNL     1       4.429  -1.815   2.440  1.00  0.00    -0.226 N 
ATOM     17  H3  UNL     1       2.607  -2.115   3.341  1.00  0.00     0.210 HD
HETATM   18  N5  UNL     1       4.757  -1.376   1.281  1.00  0.00    -0.268 N 
ATOM     19  H4  UNL     1       5.075  -2.115   3.170  1.00  0.00     0.210 HD
HETATM   20  C4  UNL     1       3.598  -1.073   0.573  1.00  0.00     0.157 A 
ATOM     21  H5  UNL     1       5.710  -1.267   0.935  1.00  0.00     0.190 HD
BRANCH  20  22
HETATM   22  C5  UNL     1       3.733  -0.545  -0.778  1.00  0.00     0.011 A 
HETATM   23  C6  UNL     1       2.960  -0.829  -1.854  1.00  0.00     0.015 A 
HETATM   24  C7  UNL     1       3.116  -0.219  -3.097  1.00  0.00     0.001 A 
HETATM   25  C8  UNL     1       4.091   0.721  -3.285  1.00  0.00     0.000 A 
HETATM   26  C9  UNL     1       4.889   1.026  -2.210  1.00  0.00     0.001 A 
HETATM   27  C10 UNL     1       4.732   0.424  -0.987  1.00  0.00     0.015 A 
ENDBRANCH  20  22
ENDBRANCH  11  14
ENDBRANCH   1  11
BRANCH   1  28
HETATM   28  C11 UNL     1       0.312   0.862   0.469  1.00  0.00     0.040 A 
HETATM   29  C12 UNL     1       0.523   1.669  -0.593  1.00  0.00     0.028 A 
HETATM   30  C13 UNL     1       0.590   3.063  -0.463  1.00  0.00     0.012 A 
HETATM   31  C14 UNL     1       0.439   3.631   0.778  1.00  0.00    -0.019 A 
HETATM   32  C16 UNL     1       0.226   2.779   1.840  1.00  0.00     0.097 A 
HETATM   33  N6  UNL     1       0.166   1.457   1.687  1.00  0.00    -0.367 N 
ATOM     34  H6  UNL     1       0.006   0.872   2.507  1.00  0.00     0.165 HD
BRANCH  31  35
HETATM   35  C15 UNL     1       0.506   5.098   0.968  1.00  0.00     0.204 C 
BRANCH  35  36
HETATM   36  O3  UNL     1       0.355   5.433   2.321  1.00  0.00    -0.396 OA
ATOM     37  H3  UNL     1       0.398   6.374   2.443  1.00  0.00     0.209 HD
ENDBRANCH  35  36
ENDBRANCH  31  35
ENDBRANCH   1  28
TORSDOF 9
