REMARK  15 active torsions:
REMARK  status: ('A' for Active; 'I' for Inactive)
REMARK    1  A    between atoms: C2_2  and  C4_4 
REMARK    2  A    between atoms: C4_4  and  C5_5 
REMARK    3  A    between atoms: C5_5  and  N1_6 
REMARK    4  A    between atoms: C5_5  and  C8_13 
REMARK    5  A    between atoms: N1_6  and  C6_9 
REMARK    6  A    between atoms: C6_9  and  C7_10 
REMARK    7  A    between atoms: C8_13  and  N2_15 
REMARK    8  A    between atoms: N2_15  and  C10_17 
REMARK    9  A    between atoms: C10_17  and  C11_18 
REMARK   10  A    between atoms: C10_17  and  C19_29 
REMARK       I    between atoms: C11_18  and  N3_20 
REMARK   11  A    between atoms: N3_20  and  C12_22 
REMARK   12  A    between atoms: C19_29  and  O4_30 
REMARK   13  A    between atoms: C19_29  and  N4_32 
REMARK   14  A    between atoms: C23_36  and  C24_37 
REMARK   15  A    between atoms: C24_37  and  C25_38 
ROOT
HETATM    1  C10 UNL     1      -0.154   0.692  -0.686  1.00  0.00     0.245 C 
ENDROOT
BRANCH   1   2
HETATM    2  N2  UNL     1      -0.933  -0.281  -0.156  1.00  0.00    -0.397 N 
ATOM      3  H2  UNL     1      -0.561  -1.183   0.140  1.00  0.00     0.154 HD
BRANCH   2   4
HETATM    4  C8  UNL     1      -2.367   0.067  -0.040  1.00  0.00     0.104 C 
HETATM    5  C9  UNL     1      -2.431   0.635   1.417  1.00  0.00     0.034 C 
BRANCH   4   6
HETATM    6  C5  UNL     1      -3.250  -1.129   0.051  1.00  0.00     0.208 C 
BRANCH   6   7
HETATM    7  C4  UNL     1      -3.574  -1.922  -1.127  1.00  0.00     0.039 C 
BRANCH   7   8
HETATM    8  C2  UNL     1      -4.470  -1.202  -2.121  1.00  0.00    -0.021 C 
HETATM    9  C1  UNL     1      -5.768  -0.758  -1.459  1.00  0.00     0.009 C 
HETATM   10  C3  UNL     1      -4.965  -2.240  -3.171  1.00  0.00     0.009 C 
ENDBRANCH   7   8
ENDBRANCH   6   7
BRANCH   6  11
HETATM   11  N1  UNL     1      -2.467  -2.020   1.001  1.00  0.00    -0.059 N 
ATOM     12  H12 UNL     1      -1.585  -2.358   0.616  1.00  0.00     0.278 HD
ATOM     13  H11 UNL     1      -2.066  -1.522   1.796  1.00  0.00     0.278 HD
BRANCH  11  14
HETATM   14  C6  UNL     1      -3.391  -3.084   1.377  1.00  0.00     0.345 C 
BRANCH  14  15
HETATM   15  C7  UNL     1      -3.564  -3.202   2.845  1.00  0.00     0.199 C 
HETATM   16  O1  UNL     1      -3.010  -2.546   3.728  1.00  0.00    -0.647 OA
HETATM   17  O2  UNL     1      -4.485  -4.203   3.241  1.00  0.00    -0.647 OA
ENDBRANCH  14  15
ENDBRANCH  11  14
ENDBRANCH   6  11
ENDBRANCH   4   6
ENDBRANCH   2   4
ENDBRANCH   1   2
BRANCH   1  18
HETATM   18  C11 UNL     1       0.981  -0.506  -1.129  1.00  0.00     0.248 C 
HETATM   19  O3  UNL     1       0.464  -1.338  -1.838  1.00  0.00    -0.271 OA
HETATM   20  N3  UNL     1       2.225  -0.394  -0.652  1.00  0.00    -0.354 N 
ATOM     21  H3  UNL     1       2.313   0.404  -0.023  1.00  0.00     0.162 HD
BRANCH  20  22
HETATM   22  C12 UNL     1       3.457  -1.089  -0.786  1.00  0.00     0.084 C 
HETATM   23  C13 UNL     1       4.529  -0.725   0.191  1.00  0.00     0.025 C 
HETATM   24  C14 UNL     1       4.773  -1.768   1.269  1.00  0.00     0.002 C 
HETATM   25  C15 UNL     1       5.626  -2.904   0.846  1.00  0.00     0.000 C 
HETATM   26  C16 UNL     1       5.853  -2.958  -0.651  1.00  0.00     0.000 C 
HETATM   27  C17 UNL     1       4.580  -3.208  -1.435  1.00  0.00     0.002 C 
HETATM   28  C18 UNL     1       3.337  -2.630  -0.767  1.00  0.00     0.025 C 
ENDBRANCH  20  22
ENDBRANCH   1  18
BRANCH   1  29
HETATM   29  C19 UNL     1       0.792   1.731  -0.659  1.00  0.00     0.146 C 
BRANCH  29  30
HETATM   30  O4  UNL     1       1.794   1.711  -1.510  1.00  0.00    -0.347 OA
ATOM     31  H4  UNL     1       2.433   2.413  -1.492  1.00  0.00     0.219 HD
ENDBRANCH  29  30
BRANCH  29  32
HETATM   32  N4  UNL     1       0.861   2.872   0.173  1.00  0.00    -0.358 N 
HETATM   33  C20 UNL     1       0.261   3.159   1.423  1.00  0.00     0.125 C 
HETATM   34  C21 UNL     1       1.140   4.193   2.110  1.00  0.00     0.022 C 
HETATM   35  C22 UNL     1       2.163   4.540   1.052  1.00  0.00     0.027 C 
HETATM   36  C23 UNL     1       1.409   4.201  -0.230  1.00  0.00     0.096 C 
BRANCH  36  37
HETATM   37  C24 UNL     1       0.235   5.144  -0.397  1.00  0.00     0.138 C 
BRANCH  37  38
HETATM   38  C25 UNL     1       0.681   6.446  -0.894  1.00  0.00     0.174 C 
HETATM   39  O5  UNL     1       1.427   6.595  -1.895  1.00  0.00    -0.648 OA
HETATM   40  O6  UNL     1       0.292   7.643  -0.274  1.00  0.00    -0.648 OA
ENDBRANCH  37  38
ENDBRANCH  36  37
ENDBRANCH  29  32
ENDBRANCH   1  29
TORSDOF 15
