REMARK  0 active torsions:
REMARK  status: ('A' for Active; 'I' for Inactive)
ROOT
HETATM    1  C1  UNL     1      -0.430  -1.778   1.334  1.00  0.00     0.013 C 
HETATM    2  C2  UNL     1      -0.522  -1.129  -0.026  1.00  0.00     0.020 C 
HETATM    3  C3  UNL     1      -1.945  -0.833  -0.294  1.00  0.00     0.040 C 
HETATM    4  C4  UNL     1      -2.266   0.281  -1.225  1.00  0.00     0.187 C 
HETATM    5  C5  UNL     1      -2.712   1.473  -0.354  1.00  0.00     0.035 C 
HETATM    6  C6  UNL     1      -1.404   1.604   0.449  1.00  0.00     0.038 C 
HETATM    7  C7  UNL     1      -0.375   1.263  -0.564  1.00  0.00     0.221 C 
HETATM    8  N1  UNL     1      -1.070   0.927  -1.794  1.00  0.00    -0.064 N 
ATOM      9  H11 UNL     1      -1.241   1.699  -2.438  1.00  0.00     0.278 HD
ATOM     10  H12 UNL     1      -0.542   0.377  -2.472  1.00  0.00     0.278 HD
HETATM   11  C8  UNL     1       0.451   0.008  -0.227  1.00  0.00     0.108 C 
HETATM   12  N2  UNL     1       1.202  -0.193  -1.448  1.00  0.00    -0.355 N 
ATOM     13  H2  UNL     1       0.765   0.208  -2.278  1.00  0.00     0.162 HD
HETATM   14  C9  UNL     1       2.278  -0.763  -1.668  1.00  0.00     0.157 C 
HETATM   15  N3  UNL     1       2.872  -0.872  -2.925  1.00  0.00    -0.075 NA
HETATM   16  S1  UNL     1       3.123  -1.474  -0.244  1.00  0.00    -0.038 SA
HETATM   17  C10 UNL     1       2.572  -0.395   1.101  1.00  0.00     0.103 A 
HETATM   18  N4  UNL     1       3.161  -0.064   2.224  1.00  0.00    -0.345 N 
ATOM     19  H4  UNL     1       4.070  -0.386   2.556  1.00  0.00     0.167 HD
HETATM   20  C11 UNL     1       2.323   0.789   2.855  1.00  0.00     0.181 A 
HETATM   21  N5  UNL     1       1.226   0.956   2.084  1.00  0.00    -0.351 N 
ATOM     22  H5  UNL     1       0.433   1.551   2.325  1.00  0.00     0.166 HD
HETATM   23  C12 UNL     1       1.324   0.221   0.941  1.00  0.00     0.075 A 
ENDROOT
TORSDOF 0
