REMARK  1 active torsions:
REMARK  status: ('A' for Active; 'I' for Inactive)
REMARK    1  A    between atoms: C11_19  and  C12_20 
ROOT
HETATM    1  N1  UNL     1       2.952  -3.629   0.208  1.00  0.00    -0.196 NA
HETATM    2  C1  UNL     1       2.231  -2.726   0.231  1.00  0.00     0.074 C 
HETATM    3  C2  UNL     1       1.308  -1.564   0.234  1.00  0.00     0.204 C 
HETATM    4  C3  UNL     1      -0.040  -2.024  -0.178  1.00  0.00     0.132 C 
HETATM    5  N2  UNL     1      -0.231  -3.297  -0.184  1.00  0.00    -0.382 N 
ATOM      6  H21 UNL     1      -1.158  -3.613  -0.467  1.00  0.00     0.158 HD
ATOM      7  H22 UNL     1       0.565  -3.871   0.096  1.00  0.00     0.158 HD
HETATM    8  O1  UNL     1      -1.122  -1.244  -0.559  1.00  0.00    -0.325 OA
HETATM    9  C4  UNL     1      -1.336   0.092  -0.157  1.00  0.00     0.093 C 
HETATM   10  C5  UNL     1      -2.041   0.043   1.184  1.00  0.00     0.040 C 
HETATM   11  C6  UNL     1      -2.922   1.253   1.295  1.00  0.00     0.003 C 
HETATM   12  C7  UNL     1      -4.143   1.034   0.403  1.00  0.00     0.000 C 
HETATM   13  C8  UNL     1      -3.637   0.491  -0.912  1.00  0.00     0.003 C 
HETATM   14  C9  UNL     1      -2.188   0.853  -1.149  1.00  0.00     0.040 C 
HETATM   15  C10 UNL     1       0.006   0.777  -0.008  1.00  0.00     0.271 C 
HETATM   16  N3  UNL     1       0.917   0.486  -1.070  1.00  0.00    -0.060 N 
ATOM     17  H31 UNL     1       1.447   1.320  -1.322  1.00  0.00     0.278 HD
ATOM     18  H32 UNL     1       0.410   0.332  -1.941  1.00  0.00     0.278 HD
HETATM   19  C11 UNL     1       1.807  -0.614  -0.806  1.00  0.00     0.268 C 
ENDROOT
BRANCH  19  20
HETATM   20  C12 UNL     1       3.189  -0.117  -0.487  1.00  0.00     0.085 A 
HETATM   21  C13 UNL     1       3.470   0.933   0.367  1.00  0.00     0.037 A 
HETATM   22  C14 UNL     1       4.838   1.091   0.405  1.00  0.00     0.027 A 
HETATM   23  C15 UNL     1       5.340   0.125  -0.431  1.00  0.00     0.142 A 
HETATM   24  O2  UNL     1       4.327  -0.548  -0.922  1.00  0.00    -0.325 OA
ENDBRANCH  19  20
TORSDOF 1
