REMARK  2 active torsions:
REMARK  status: ('A' for Active; 'I' for Inactive)
REMARK    1  A    between atoms: C2_2  and  N1_4 
REMARK       I    between atoms: N1_4  and  C4_6 
REMARK    2  A    between atoms: C4_6  and  C5_8 
ROOT
HETATM    1  N1  UNL     1      -0.599   0.320  -0.199  1.00  0.00    -0.357 N 
ATOM      2  H1  UNL     1      -0.587   0.418  -1.214  1.00  0.00     0.162 HD
HETATM    3  C4  UNL     1       0.622   0.448   0.511  1.00  0.00     0.225 C 
HETATM    4  O1  UNL     1       0.628   0.331   1.763  1.00  0.00    -0.273 OA
ENDROOT
BRANCH   3   5
HETATM    5  C5  UNL     1       1.897   0.715  -0.174  1.00  0.00     0.129 C 
HETATM    6  C6  UNL     1       2.308  -0.350  -1.194  1.00  0.00     0.248 C 
HETATM    7  N2  UNL     1       2.740  -1.155  -0.041  1.00  0.00    -0.073 N 
HETATM    8  C7  UNL     1       3.091   0.127   0.591  1.00  0.00     0.248 C 
ATOM      9  H22 UNL     1       2.116  -1.824   0.411  1.00  0.00     0.277 HD
ATOM     10  H21 UNL     1       3.419  -1.910  -0.137  1.00  0.00     0.277 HD
ENDBRANCH   3   5
BRANCH   1  11
HETATM   11  C2  UNL     1      -1.845   0.060   0.450  1.00  0.00     0.076 C 
HETATM   12  C1  UNL     1      -2.889   1.116   0.167  1.00  0.00     0.032 C 
HETATM   13  C3  UNL     1      -2.418  -1.266  -0.062  1.00  0.00     0.032 C 
ENDBRANCH   1  11
TORSDOF 2
