REMARK  2 active torsions:
REMARK  status: ('A' for Active; 'I' for Inactive)
REMARK    1  A    between atoms: C2_2  and  C3_3 
REMARK    2  A    between atoms: C5_5  and  C6_6 
REMARK       I    between atoms: C6_6  and  N1_8 
REMARK       I    between atoms: N1_8  and  C7_10 
ROOT
HETATM    1  C6  UNL     1       0.780   0.072   0.143  1.00  0.00     0.228 C 
HETATM    2  O1  UNL     1       1.089   1.286  -0.098  1.00  0.00    -0.273 OA
HETATM    3  N1  UNL     1       1.790  -0.925   0.076  1.00  0.00    -0.301 N 
ATOM      4  H1  UNL     1       1.545  -1.896   0.269  1.00  0.00     0.171 HD
HETATM    5  C7  UNL     1       3.133  -0.600  -0.253  1.00  0.00     0.188 C 
HETATM    6  N2  UNL     1       4.022  -1.515  -0.307  1.00  0.00    -0.373 N 
ATOM      7  H21 UNL     1       4.986  -1.282  -0.543  1.00  0.00     0.158 HD
ATOM      8  H22 UNL     1       3.760  -2.481  -0.112  1.00  0.00     0.158 HD
HETATM    9  N3  UNL     1       3.498   0.747  -0.525  1.00  0.00    -0.064 NA
ENDROOT
BRANCH   1  10
HETATM   10  C5  UNL     1      -0.620  -0.203   0.477  1.00  0.00     0.086 A 
HETATM   11  C3  UNL     1      -1.738   0.629   0.025  1.00  0.00     0.021 A 
HETATM   12  C4  UNL     1      -1.238   0.821   1.428  1.00  0.00     0.024 A 
BRANCH  11  13
HETATM   13  C2  UNL     1      -3.082  -0.009  -0.080  1.00  0.00    -0.031 C 
HETATM   14  C1  UNL     1      -3.760  -0.082  -1.204  1.00  0.00     0.007 C 
ENDBRANCH  11  13
ENDBRANCH   1  10
TORSDOF 2
