REMARK  2 active torsions:
REMARK  status: ('A' for Active; 'I' for Inactive)
REMARK       I    between atoms: C1_2  and  N3_8 
REMARK    1  A    between atoms: N2_3  and  C2_5 
REMARK    2  A    between atoms: N3_8  and  C5_10 
ROOT
HETATM    1  N1  UNL     1       0.555  -0.321   1.469  1.00  0.00    -0.064 NA
HETATM    2  C1  UNL     1       0.469  -0.247   0.053  1.00  0.00     0.184 C 
HETATM    3  N2  UNL     1       1.576  -0.010  -0.588  1.00  0.00    -0.360 N 
ATOM      4  H2  UNL     1       1.549   0.049  -1.606  1.00  0.00     0.162 HD
HETATM    5  N3  UNL     1      -0.753  -0.420  -0.639  1.00  0.00    -0.360 N 
ATOM      6  H3  UNL     1      -0.776  -0.374  -1.658  1.00  0.00     0.162 HD
ENDROOT
BRANCH   3   7
HETATM    7  C2  UNL     1       2.825   0.170   0.074  1.00  0.00     0.084 A 
HETATM    8  C3  UNL     1       3.883   0.998  -0.555  1.00  0.00     0.027 A 
HETATM    9  C4  UNL     1       4.079  -0.489  -0.464  1.00  0.00     0.027 A 
ENDBRANCH   3   7
BRANCH   5  10
HETATM   10  C5  UNL     1      -1.963  -0.661   0.102  1.00  0.00     0.084 C 
HETATM   11  C6  UNL     1      -3.216  -0.836  -0.658  1.00  0.00     0.025 C 
HETATM   12  C7  UNL     1      -3.583   0.612  -0.408  1.00  0.00     0.004 C 
HETATM   13  C8  UNL     1      -2.493   0.668   0.636  1.00  0.00     0.025 C 
ENDBRANCH   5  10
TORSDOF 2
