REMARK  3 active torsions:
REMARK  status: ('A' for Active; 'I' for Inactive)
REMARK    1  A    between atoms: N1_1  and  C1_4 
REMARK    2  A    between atoms: C2_7  and  N3_8 
REMARK    3  A    between atoms: N3_8  and  N4_10 
ROOT
HETATM    1  C1  UNL     1      -0.306   1.584   0.052  1.00  0.00     0.693 C 
HETATM    2  N2  UNL     1       0.731   0.756  -0.090  1.00  0.00    -0.021 N 
ATOM      3  H2  UNL     1       1.644   1.206  -0.158  1.00  0.00     0.203 HD
HETATM    4  C2  UNL     1       0.744  -0.589  -0.156  1.00  0.00     0.712 C 
HETATM    5  N5  UNL     1      -0.310  -1.423  -0.110  1.00  0.00    -0.170 N 
ATOM      6  H5  UNL     1      -0.102  -2.394  -0.342  1.00  0.00     0.186 HD
HETATM    7  C3  UNL     1      -1.590  -1.174   0.193  1.00  0.00     0.184 C 
HETATM    8  N6  UNL     1      -2.357  -2.201   0.189  1.00  0.00    -0.381 N 
ATOM      9  H61 UNL     1      -3.332  -2.011   0.420  1.00  0.00     0.157 HD
ATOM     10  H62 UNL     1      -1.952  -3.109  -0.037  1.00  0.00     0.157 HD
HETATM   11  C4  UNL     1      -2.136   0.050   0.498  1.00  0.00     0.303 C 
HETATM   12  O1  UNL     1      -3.337  -0.012   0.858  1.00  0.00    -0.263 OA
HETATM   13  N7  UNL     1      -1.554   1.284   0.459  1.00  0.00    -0.153 N 
ATOM     14  H7  UNL     1      -2.128   2.066   0.773  1.00  0.00     0.187 HD
ENDROOT
BRANCH   4  15
HETATM   15  N3  UNL     1       1.892  -1.187  -0.280  1.00  0.00    -0.138 N 
ATOM     16  H3  UNL     1       1.914  -2.205  -0.331  1.00  0.00     0.205 HD
BRANCH  15  17
HETATM   17  N4  UNL     1       3.090  -0.487  -0.345  1.00  0.00    -0.331 N 
ATOM     18  H42 UNL     1       3.050   0.531  -0.292  1.00  0.00     0.177 HD
ATOM     19  H41 UNL     1       3.991  -0.956  -0.442  1.00  0.00     0.177 HD
ENDBRANCH  15  17
ENDBRANCH   4  15
BRANCH   1  20
HETATM   20  N1  UNL     1      -0.159   2.837  -0.216  1.00  0.00    -0.234 N 
ATOM     21  H12 UNL     1       0.786   3.064  -0.524  1.00  0.00     0.174 HD
ATOM     22  H11 UNL     1      -0.952   3.470  -0.107  1.00  0.00     0.174 HD
ENDBRANCH   1  20
TORSDOF 3
