REMARK  15 active torsions:
REMARK  status: ('A' for Active; 'I' for Inactive)
REMARK    1  A    between atoms: N1_1  and  C1_4 
REMARK    2  A    between atoms: C2_9  and  N4_10 
REMARK    3  A    between atoms: N4_10  and  N5_12 
REMARK    4  A    between atoms: N5_12  and  C3_13 
REMARK    5  A    between atoms: C3_13  and  N6_14 
REMARK    6  A    between atoms: C3_13  and  C4_18 
REMARK    7  A    between atoms: C4_18  and  N9_24 
REMARK    8  A    between atoms: N7_19  and  N8_21 
REMARK    9  A    between atoms: N9_24  and  O1_25 
REMARK   10  A    between atoms: N9_24  and  C5_27 
REMARK   11  A    between atoms: C5_27  and  O2_28 
REMARK   12  A    between atoms: O2_28  and  C6_29 
REMARK   13  A    between atoms: C6_29  and  C7_31 
REMARK   14  A    between atoms: C7_31  and  N10_32 
REMARK   15  A    between atoms: C7_31  and  O4_36 
ROOT
HETATM    1  C4  UNL     1      -0.234  -2.404   0.388  1.00  0.00     0.169 C 
HETATM    2  N7  UNL     1      -0.690  -3.555   0.723  1.00  0.00    -0.291 N 
ATOM      3  H7  UNL     1      -0.058  -4.263   1.095  1.00  0.00     0.188 HD
ENDROOT
BRANCH   1   4
HETATM    4  C3  UNL     1       1.211  -2.082   0.533  1.00  0.00     0.365 C 
BRANCH   4   5
HETATM    5  N5  UNL     1       1.426  -0.962   1.417  1.00  0.00    -0.098 NA
BRANCH   5   6
HETATM    6  N4  UNL     1       2.801  -0.816   1.603  1.00  0.00    -0.280 N 
ATOM      7  H4  UNL     1       3.324  -1.482   2.172  1.00  0.00     0.184 HD
BRANCH   6   8
HETATM    8  C2  UNL     1       3.466   0.300   0.971  1.00  0.00     0.178 A 
HETATM    9  N3  UNL     1       4.747   0.633   1.008  1.00  0.00    -0.277 N 
HETATM   10  N2  UNL     1       5.161   1.657   0.388  1.00  0.00    -0.278 N 
ATOM     11  H3  UNL     1       5.404   0.062   1.539  1.00  0.00     0.189 HD
HETATM   12  C1  UNL     1       4.282   2.390  -0.302  1.00  0.00     0.160 A 
ATOM     13  H2  UNL     1       6.147   1.917   0.415  1.00  0.00     0.189 HD
HETATM   14  S1  UNL     1       2.824   1.537  -0.017  1.00  0.00    -0.015 SA
BRANCH  12  15
HETATM   15  N1  UNL     1       4.520   3.477  -1.003  1.00  0.00    -0.378 N 
ATOM     16  H12 UNL     1       5.388   3.985  -1.173  1.00  0.00     0.158 HD
ATOM     17  H11 UNL     1       3.849   4.036  -1.530  1.00  0.00     0.158 HD
ENDBRANCH  12  15
ENDBRANCH   6   8
ENDBRANCH   5   6
ENDBRANCH   4   5
BRANCH   4  18
HETATM   18  N6  UNL     1       1.859  -1.823  -0.721  1.00  0.00    -0.052 N 
ATOM     19  H63 UNL     1       1.562  -0.940  -1.135  1.00  0.00     0.276 HD
ATOM     20  H62 UNL     1       2.849  -1.603  -0.608  1.00  0.00     0.276 HD
ATOM     21  H61 UNL     1       1.707  -2.615  -1.346  1.00  0.00     0.276 HD
ENDBRANCH   4  18
ENDBRANCH   1   4
BRANCH   1  22
HETATM   22  N9  UNL     1      -1.144  -1.441  -0.127  1.00  0.00    -0.219 N 
BRANCH  22  23
HETATM   23  O1  UNL     1      -1.184  -1.276  -1.472  1.00  0.00    -0.284 OA
ATOM     24  H1  UNL     1      -1.792  -0.632  -1.816  1.00  0.00     0.245 HD
ENDBRANCH  22  23
BRANCH  22  25
HETATM   25  C5  UNL     1      -1.960  -0.716   0.810  1.00  0.00     0.336 C 
BRANCH  25  26
HETATM   26  O2  UNL     1      -2.817   0.235   0.222  1.00  0.00    -0.296 OA
BRANCH  26  27
HETATM   27  C6  UNL     1      -2.411   1.322  -0.531  1.00  0.00     0.317 C 
HETATM   28  O3  UNL     1      -1.186   1.491  -0.715  1.00  0.00    -0.260 OA
BRANCH  27  29
HETATM   29  C7  UNL     1      -3.442   2.230  -1.082  1.00  0.00     0.417 C 
BRANCH  29  30
HETATM   30  N10 UNL     1      -3.240   3.599  -0.675  1.00  0.00    -0.043 N 
ATOM     31 3H10 UNL     1      -3.185   3.677   0.341  1.00  0.00     0.278 HD
ATOM     32 2H10 UNL     1      -2.302   3.919  -0.914  1.00  0.00     0.278 HD
ATOM     33 1H10 UNL     1      -3.950   4.225  -1.055  1.00  0.00     0.278 HD
ENDBRANCH  29  30
BRANCH  29  34
HETATM   34  O4  UNL     1      -4.721   1.830  -0.740  1.00  0.00    -0.363 OA
ATOM     35  H4  UNL     1      -5.383   2.413  -1.094  1.00  0.00     0.212 HD
ENDBRANCH  29  34
ENDBRANCH  27  29
ENDBRANCH  26  27
ENDBRANCH  25  26
ENDBRANCH  22  25
ENDBRANCH   1  22
BRANCH   2  36
HETATM   36  N8  UNL     1      -2.029  -3.838   0.582  1.00  0.00    -0.344 N 
ATOM     37  H82 UNL     1      -2.648  -3.119   0.208  1.00  0.00     0.176 HD
ATOM     38  H81 UNL     1      -2.392  -4.753   0.848  1.00  0.00     0.176 HD
ENDBRANCH   2  36
TORSDOF 15
