REMARK  12 active torsions:
REMARK  status: ('A' for Active; 'I' for Inactive)
REMARK    1  A    between atoms: O1_2  and  C2_3 
REMARK    2  A    between atoms: C2_3  and  C3_5 
REMARK    3  A    between atoms: C3_5  and  O3_6 
REMARK    4  A    between atoms: O3_6  and  C4_7 
REMARK    5  A    between atoms: C10_14  and  C11_15 
REMARK    6  A    between atoms: C11_15  and  O5_16 
REMARK    7  A    between atoms: C11_15  and  C12_18 
REMARK    8  A    between atoms: C12_18  and  C14_20 
REMARK    9  A    between atoms: C15_22  and  C17_24 
REMARK   10  A    between atoms: C22_29  and  O7_30 
REMARK   11  A    between atoms: C22_29  and  C23_32 
REMARK   12  A    between atoms: C23_32  and  O8_33 
ROOT
HETATM    1  C14 UNL     1       0.888  -0.713   1.316  1.00  0.00     0.201 C 
HETATM    2  O6  UNL     1       1.308  -0.216   0.122  1.00  0.00    -0.368 OA
HETATM    3  C15 UNL     1       2.539  -0.710  -0.197  1.00  0.00     0.070 C 
HETATM    4  C16 UNL     1       2.488  -1.764  -1.292  1.00  0.00     0.047 C 
HETATM    5  C25 UNL     1       3.131  -1.345   1.030  1.00  0.00     0.120 C 
HETATM    6  C26 UNL     1       1.927  -1.589   1.905  1.00  0.00     0.272 C 
HETATM    7  F1  UNL     1       1.561  -2.921   1.895  1.00  0.00    -0.203 F 
HETATM    8  F2  UNL     1       2.279  -1.262   3.200  1.00  0.00    -0.203 F 
ENDROOT
BRANCH   1   9
HETATM    9  C12 UNL     1      -0.451  -1.439   1.108  1.00  0.00     0.046 C 
HETATM   10  C13 UNL     1      -0.882  -1.996   2.441  1.00  0.00     0.015 C 
BRANCH   9  11
HETATM   11  C11 UNL     1      -1.391  -0.405   0.580  1.00  0.00     0.132 C 
BRANCH  11  12
HETATM   12  C10 UNL     1      -2.809  -0.913   0.365  1.00  0.00     0.040 C 
HETATM   13  C9  UNL     1      -2.735  -2.029  -0.635  1.00  0.00    -0.023 C 
HETATM   14  C8  UNL     1      -3.516  -2.268  -1.702  1.00  0.00    -0.030 C 
HETATM   15  C7  UNL     1      -4.676  -1.481  -2.183  1.00  0.00     0.030 C 
HETATM   16  C6  UNL     1      -5.533  -1.148  -0.997  1.00  0.00     0.053 C 
HETATM   17  C3  UNL     1      -5.044   0.078  -0.225  1.00  0.00     0.159 C 
HETATM   18  C27 UNL     1      -3.570   0.218  -0.281  1.00  0.00     0.060 C 
BRANCH  17  19
HETATM   19  C2  UNL     1      -5.653   1.292  -0.861  1.00  0.00     0.294 C 
HETATM   20  O2  UNL     1      -6.492   2.027  -0.288  1.00  0.00    -0.262 OA
BRANCH  19  21
HETATM   21  O1  UNL     1      -5.287   1.643  -2.145  1.00  0.00    -0.324 OA
HETATM   22  C1  UNL     1      -5.777   2.745  -2.845  1.00  0.00     0.213 C 
ENDBRANCH  19  21
ENDBRANCH  17  19
BRANCH  17  23
HETATM   23  O3  UNL     1      -5.465  -0.136   1.088  1.00  0.00    -0.300 OA
BRANCH  23  24
HETATM   24  C4  UNL     1      -5.264   0.754   2.096  1.00  0.00     0.256 C 
HETATM   25  C5  UNL     1      -5.719   0.517   3.502  1.00  0.00     0.126 C 
HETATM   26  O4  UNL     1      -4.675   1.831   1.875  1.00  0.00    -0.266 OA
ENDBRANCH  23  24
ENDBRANCH  17  23
ENDBRANCH  11  12
BRANCH  11  27
HETATM   27  O5  UNL     1      -1.386   0.652   1.512  1.00  0.00    -0.394 OA
ATOM     28  H5  UNL     1      -0.501   0.969   1.646  1.00  0.00     0.210 HD
ENDBRANCH  11  27
ENDBRANCH   9  11
ENDBRANCH   1   9
BRANCH   3  29
HETATM   29  C17 UNL     1       3.404   0.419  -0.717  1.00  0.00     0.045 C 
HETATM   30  C18 UNL     1       3.591   1.502   0.264  1.00  0.00    -0.017 C 
HETATM   31  C19 UNL     1       4.764   1.946   0.687  1.00  0.00    -0.084 C 
HETATM   32  C20 UNL     1       4.880   3.047   1.681  1.00  0.00     0.043 C 
HETATM   33  C21 UNL     1       6.037   1.345   0.169  1.00  0.00     0.073 C 
HETATM   34  C22 UNL     1       5.751   0.946  -1.279  1.00  0.00     0.083 C 
HETATM   35  C24 UNL     1       4.693  -0.133  -1.241  1.00  0.00     0.051 C 
BRANCH  34  36
HETATM   36  O7  UNL     1       5.304   2.045  -1.990  1.00  0.00    -0.387 OA
ATOM     37  H7  UNL     1       5.126   1.797  -2.890  1.00  0.00     0.210 HD
ENDBRANCH  34  36
BRANCH  34  38
HETATM   38  C23 UNL     1       7.007   0.448  -1.944  1.00  0.00     0.202 C 
BRANCH  38  39
HETATM   39  O8  UNL     1       6.694   0.099  -3.253  1.00  0.00    -0.398 OA
ATOM     40  H8  UNL     1       7.486  -0.215  -3.673  1.00  0.00     0.209 HD
ENDBRANCH  38  39
ENDBRANCH  34  38
ENDBRANCH   3  29
TORSDOF 12
