REMARK  6 active torsions:
REMARK  status: ('A' for Active; 'I' for Inactive)
REMARK    1  A    between atoms: C5_7  and  C6_8 
REMARK    2  A    between atoms: C6_8  and  O2_12 
REMARK    3  A    between atoms: O2_12  and  C7_13 
REMARK    4  A    between atoms: C7_13  and  C8_14 
REMARK    5  A    between atoms: C8_14  and  O4_16 
REMARK    6  A    between atoms: O4_16  and  C9_17 
ROOT
HETATM    1  C6  UNL     1      -1.287   0.769   0.092  1.00  0.00     0.124 C 
HETATM    2  N1  UNL     1      -1.150   1.973  -0.349  1.00  0.00    -0.383 N 
ATOM      3  H11 UNL     1      -0.219   2.296  -0.611  1.00  0.00     0.158 HD
ATOM      4  H12 UNL     1      -1.978   2.565  -0.421  1.00  0.00     0.158 HD
ENDROOT
BRANCH   1   5
HETATM    5  C5  UNL     1      -2.625   0.305   0.468  1.00  0.00     0.136 C 
HETATM    6  C2  UNL     1      -3.121  -0.863  -0.255  1.00  0.00     0.050 C 
HETATM    7  C1  UNL     1      -2.488  -1.966  -0.574  1.00  0.00     0.047 C 
HETATM    8  O1  UNL     1      -4.467  -0.588  -0.568  1.00  0.00    -0.354 OA
HETATM    9  C3  UNL     1      -4.933   0.497   0.249  1.00  0.00     0.196 C 
HETATM   10  C4  UNL     1      -3.668   1.372   0.238  1.00  0.00     0.124 C 
HETATM   11 CL1  UNL     1      -3.601   2.099  -1.366  1.00  0.00    -0.121 Cl
ENDBRANCH   1   5
BRANCH   1  12
HETATM   12  O2  UNL     1      -0.164  -0.034   0.190  1.00  0.00    -0.329 OA
BRANCH  12  13
HETATM   13  C7  UNL     1       1.116   0.545   0.013  1.00  0.00     0.288 C 
BRANCH  13  14
HETATM   14  C8  UNL     1       2.199  -0.452   0.151  1.00  0.00     0.283 C 
HETATM   15  O3  UNL     1       1.900  -1.649   0.399  1.00  0.00    -0.263 OA
BRANCH  14  16
HETATM   16  O4  UNL     1       3.530  -0.132   0.021  1.00  0.00    -0.320 OA
BRANCH  16  17
HETATM   17  C9  UNL     1       4.585  -1.066   0.149  1.00  0.00     0.174 C 
HETATM   18  C10 UNL     1       5.877  -0.301  -0.065  1.00  0.00     0.034 C 
ENDBRANCH  16  17
ENDBRANCH  14  16
ENDBRANCH  13  14
ENDBRANCH  12  13
ENDBRANCH   1  12
TORSDOF 6
