REMARK  11 active torsions:
REMARK  status: ('A' for Active; 'I' for Inactive)
REMARK    1  A    between atoms: C2_2  and  C3_3 
REMARK       I    between atoms: C3_3  and  N1_5 
REMARK    2  A    between atoms: N1_5  and  C4_7 
REMARK    3  A    between atoms: C6_9  and  N2_10 
REMARK    4  A    between atoms: C7_14  and  C8_15 
REMARK    5  A    between atoms: C8_15  and  O2_16 
REMARK    6  A    between atoms: O2_16  and  C9_17 
REMARK    7  A    between atoms: C10_18  and  O3_19 
REMARK    8  A    between atoms: C15_27  and  O4_28 
REMARK    9  A    between atoms: C16_31  and  O6_32 
REMARK   10  A    between atoms: O6_32  and  C17_33 
REMARK   11  A    between atoms: N4_37  and  O7_39 
ROOT
HETATM    1  C4  UNL     1      -2.210   1.656  -0.251  1.00  0.00     0.142 C 
HETATM    2  C5  UNL     1      -0.909   1.857  -0.922  1.00  0.00     0.065 C 
HETATM    3  C6  UNL     1       0.269   1.465  -0.020  1.00  0.00     0.216 C 
HETATM    4  C7  UNL     1       0.060   0.038   0.374  1.00  0.00     0.178 C 
HETATM    5  O5  UNL     1      -1.109   0.073   1.185  1.00  0.00    -0.350 OA
HETATM    6  C16 UNL     1      -2.243   0.330   0.470  1.00  0.00     0.283 C 
ENDROOT
BRANCH   4   7
HETATM    7  C8  UNL     1       1.119  -0.597   1.192  1.00  0.00     0.202 C 
BRANCH   7   8
HETATM    8  O2  UNL     1       2.336  -0.831   0.732  1.00  0.00    -0.378 OA
BRANCH   8   9
HETATM    9  C9  UNL     1       3.259   0.060   0.377  1.00  0.00     0.182 C 
HETATM   10  C10 UNL     1       3.685  -0.136  -1.058  1.00  0.00     0.171 C 
HETATM   11  C11 UNL     1       4.940  -0.911  -1.255  1.00  0.00     0.104 C 
HETATM   12  C12 UNL     1       6.103  -0.016  -1.642  1.00  0.00     0.034 C 
HETATM   13  N3  UNL     1       5.270  -1.860  -0.233  1.00  0.00    -0.409 N 
HETATM   14  C13 UNL     1       5.137  -1.409   1.101  1.00  0.00     0.104 C 
ATOM     15  H3  UNL     1       5.582  -2.805  -0.455  1.00  0.00     0.154 HD
HETATM   16  C14 UNL     1       6.466  -1.382   1.856  1.00  0.00     0.034 C 
HETATM   17  C15 UNL     1       4.491  -0.089   1.282  1.00  0.00     0.171 C 
BRANCH  10  18
HETATM   18  O3  UNL     1       2.589  -0.744  -1.721  1.00  0.00    -0.391 OA
ATOM     19  H3  UNL     1       2.857  -0.867  -2.624  1.00  0.00     0.210 HD
ENDBRANCH  10  18
BRANCH  17  20
HETATM   20  O4  UNL     1       5.354   0.973   1.194  1.00  0.00    -0.391 OA
ATOM     21  H4  UNL     1       6.116   0.881   1.754  1.00  0.00     0.210 HD
ENDBRANCH  17  20
ENDBRANCH   8   9
ENDBRANCH   7   8
ENDBRANCH   4   7
BRANCH   3  22
HETATM   22  N2  UNL     1       0.291   2.269   1.169  1.00  0.00    -0.072 N 
ATOM     23  H23 UNL     1       0.298   3.265   0.951  1.00  0.00     0.274 HD
ATOM     24  H22 UNL     1      -0.597   2.227   1.669  1.00  0.00     0.274 HD
ATOM     25  H21 UNL     1       1.074   2.008   1.769  1.00  0.00     0.274 HD
ENDBRANCH   3  22
BRANCH   6  26
HETATM   26  O6  UNL     1      -2.473  -0.740  -0.404  1.00  0.00    -0.354 OA
BRANCH  26  27
HETATM   27  C17 UNL     1      -3.660  -1.374  -0.082  1.00  0.00     0.130 C 
HETATM   28  C18 UNL     1      -4.678  -1.322  -1.199  1.00  0.00     0.038 C 
HETATM   29  C19 UNL     1      -5.591  -2.492  -0.818  1.00  0.00     0.057 C 
HETATM   30  C20 UNL     1      -4.605  -3.534  -0.465  1.00  0.00     0.012 C 
HETATM   31  N4  UNL     1      -4.722  -4.783  -0.685  1.00  0.00    -0.277 N 
HETATM   32  C21 UNL     1      -3.467  -2.856   0.186  1.00  0.00     0.086 C 
ATOM     33  H4  UNL     1      -3.955  -5.384  -0.383  1.00  0.00     0.193 HD
BRANCH  31  34
HETATM   34  O7  UNL     1      -5.779  -5.380  -1.286  1.00  0.00    -0.290 OA
ATOM     35  H7  UNL     1      -5.866  -6.312  -1.450  1.00  0.00     0.244 HD
ENDBRANCH  31  34
ENDBRANCH  26  27
ENDBRANCH   6  26
BRANCH   1  36
HETATM   36  N1  UNL     1      -2.689   2.745   0.549  1.00  0.00    -0.348 N 
HETATM   37  C3  UNL     1      -3.864   3.455   0.242  1.00  0.00     0.240 C 
HETATM   38  O1  UNL     1      -4.523   3.125  -0.774  1.00  0.00    -0.269 OA
ATOM     39  H1  UNL     1      -2.156   3.016   1.375  1.00  0.00     0.163 HD
BRANCH  37  40
HETATM   40  C2  UNL     1      -4.368   4.564   1.040  1.00  0.00     0.064 C 
HETATM   41  C1  UNL     1      -5.476   5.215   0.728  1.00  0.00     0.017 C 
ENDBRANCH  37  40
ENDBRANCH   1  36
TORSDOF 11
