REMARK  15 active torsions:
REMARK  status: ('A' for Active; 'I' for Inactive)
REMARK    1  A    between atoms: C4_4  and  C5_5 
REMARK    2  A    between atoms: C5_5  and  C6_6 
REMARK    3  A    between atoms: C6_6  and  O1_7 
REMARK    4  A    between atoms: C6_6  and  C7_9 
REMARK    5  A    between atoms: C7_9  and  O2_10 
REMARK    6  A    between atoms: C7_9  and  C8_12 
REMARK    7  A    between atoms: C8_12  and  O3_13 
REMARK    8  A    between atoms: C10_16  and  C11_17 
REMARK    9  A    between atoms: C11_17  and  C12_18 
REMARK   10  A    between atoms: C12_18  and  C13_19 
REMARK   11  A    between atoms: C13_19  and  C14_20 
REMARK   12  A    between atoms: C14_20  and  C15_21 
REMARK   13  A    between atoms: C15_21  and  C16_22 
REMARK   14  A    between atoms: C26_32  and  O4_34 
REMARK   15  A    between atoms: C28_36  and  O5_37 
ROOT
HETATM    1  C14 UNL     1       0.062   0.321  -1.002  1.00  0.00     0.004 C 
ENDROOT
BRANCH   1   2
HETATM    2  C13 UNL     1       1.090  -0.605  -0.382  1.00  0.00     0.005 C 
BRANCH   2   3
HETATM    3  C12 UNL     1       1.519  -1.593  -1.433  1.00  0.00     0.038 C 
BRANCH   3   4
HETATM    4  C11 UNL     1       2.569  -2.540  -0.944  1.00  0.00    -0.038 C 
HETATM    5  C34 UNL     1       2.129  -3.796  -0.698  1.00  0.00     0.093 C 
HETATM    6  C35 UNL     1       3.092  -4.816  -0.237  1.00  0.00     0.082 C 
HETATM    7  F1  UNL     1       0.829  -4.137  -0.863  1.00  0.00    -0.211 F 
BRANCH   4   8
HETATM    8  C10 UNL     1       3.978  -2.224  -0.749  1.00  0.00     0.045 C 
HETATM    9  C2  UNL     1       4.749  -1.854  -1.954  1.00  0.00    -0.081 C 
HETATM   10  C1  UNL     1       4.429  -1.927  -3.213  1.00  0.00     0.015 C 
HETATM   11  C3  UNL     1       6.072  -1.351  -1.425  1.00  0.00     0.039 C 
HETATM   12  C4  UNL     1       5.855  -1.122   0.069  1.00  0.00    -0.007 C 
HETATM   13  C9  UNL     1       4.306  -1.094   0.183  1.00  0.00     0.018 C 
BRANCH  12  14
HETATM   14  C5  UNL     1       6.360   0.239   0.490  1.00  0.00     0.039 C 
BRANCH  14  15
HETATM   15  C6  UNL     1       7.838   0.310   0.203  1.00  0.00     0.149 C 
BRANCH  15  16
HETATM   16  O1  UNL     1       8.486  -0.675   0.933  1.00  0.00    -0.393 OA
ATOM     17  H1  UNL     1       9.418  -0.630   0.752  1.00  0.00     0.210 HD
ENDBRANCH  15  16
BRANCH  15  18
HETATM   18  C7  UNL     1       8.376   1.690   0.417  1.00  0.00     0.170 C 
BRANCH  18  19
HETATM   19  O2  UNL     1       7.633   2.551  -0.397  1.00  0.00    -0.391 OA
ATOM     20  H2  UNL     1       7.975   3.427  -0.261  1.00  0.00     0.210 HD
ENDBRANCH  18  19
BRANCH  18  21
HETATM   21  C8  UNL     1       8.253   2.134   1.867  1.00  0.00     0.198 C 
BRANCH  21  22
HETATM   22  O3  UNL     1       8.741   3.443   1.990  1.00  0.00    -0.398 OA
ATOM     23  H3  UNL     1       8.664   3.720   2.895  1.00  0.00     0.209 HD
ENDBRANCH  21  22
ENDBRANCH  18  21
ENDBRANCH  15  18
ENDBRANCH  14  15
ENDBRANCH  12  14
ENDBRANCH   4   8
ENDBRANCH   3   4
ENDBRANCH   2   3
ENDBRANCH   1   2
BRANCH   1  24
HETATM   24  C15 UNL     1      -0.412   1.386  -0.002  1.00  0.00     0.027 C 
BRANCH  24  25
HETATM   25  C16 UNL     1      -1.085   0.816   1.200  1.00  0.00    -0.024 C 
HETATM   26  C17 UNL     1      -2.269  -0.003   1.098  1.00  0.00    -0.078 C 
HETATM   27  C18 UNL     1      -2.626  -0.454   2.557  1.00  0.00     0.034 C 
HETATM   28  C33 UNL     1      -3.491   0.189   0.328  1.00  0.00     0.031 C 
HETATM   29  C19 UNL     1      -2.903  -1.935   2.455  1.00  0.00     0.009 C 
HETATM   30  C20 UNL     1      -3.986  -2.075   1.420  1.00  0.00    -0.013 C 
HETATM   31  C21 UNL     1      -3.523  -3.070   0.387  1.00  0.00     0.010 C 
HETATM   32  C22 UNL     1      -4.515  -0.819   0.891  1.00  0.00     0.002 C 
HETATM   33  C23 UNL     1      -5.479  -1.170  -0.222  1.00  0.00     0.033 C 
HETATM   34  C24 UNL     1      -6.264   0.118  -0.373  1.00  0.00    -0.020 C 
HETATM   35  C25 UNL     1      -5.642   1.268  -0.182  1.00  0.00    -0.039 C 
HETATM   36  C26 UNL     1      -6.564   2.462  -0.366  1.00  0.00     0.104 C 
HETATM   37  C31 UNL     1      -4.196   1.466   0.138  1.00  0.00    -0.010 C 
HETATM   38  C27 UNL     1      -7.760   2.061  -1.253  1.00  0.00     0.053 C 
HETATM   39  C28 UNL     1      -5.844   3.509  -1.172  1.00  0.00     0.156 C 
HETATM   40  C29 UNL     1      -4.816   2.742  -1.975  1.00  0.00     0.036 C 
HETATM   41  C30 UNL     1      -3.712   2.198  -1.145  1.00  0.00     0.017 C 
HETATM   42  C32 UNL     1      -4.150   2.411   1.307  1.00  0.00     0.021 C 
BRANCH  36  43
HETATM   43  O4  UNL     1      -7.132   2.902   0.797  1.00  0.00    -0.383 OA
ATOM     44  H4  UNL     1      -7.708   3.648   0.682  1.00  0.00     0.211 HD
ENDBRANCH  36  43
BRANCH  39  45
HETATM   45  O5  UNL     1      -6.681   4.111  -2.146  1.00  0.00    -0.392 OA
ATOM     46  H5  UNL     1      -6.226   4.772  -2.655  1.00  0.00     0.210 HD
ENDBRANCH  39  45
ENDBRANCH  24  25
ENDBRANCH   1  24
TORSDOF 15
