REMARK  5 active torsions:
REMARK  status: ('A' for Active; 'I' for Inactive)
REMARK    1  A    between atoms: O1_1  and  C1_3 
REMARK    2  A    between atoms: C2_4  and  O2_5 
REMARK    3  A    between atoms: C3_7  and  O3_8 
REMARK    4  A    between atoms: N1_10  and  C4_11 
REMARK    5  A    between atoms: C11_18  and  O4_19 
ROOT
HETATM    1  C1  UNL     1       3.319  -0.770  -0.253  1.00  0.00     0.155 A 
HETATM    2  C2  UNL     1       3.201   0.589  -0.447  1.00  0.00     0.155 A 
HETATM    3  C3  UNL     1       1.952   0.937   0.002  1.00  0.00     0.182 A 
HETATM    4  N1  UNL     1       1.291  -0.135   0.463  1.00  0.00    -0.288 N 
HETATM    5  C11 UNL     1       2.118  -1.183   0.311  1.00  0.00     0.182 A 
ENDROOT
BRANCH   4   6
HETATM    6  C4  UNL     1      -0.057  -0.202   1.027  1.00  0.00     0.164 C 
HETATM    7  C5  UNL     1      -0.922   0.852   0.689  1.00  0.00    -0.157 C 
HETATM    8  C6  UNL     1      -1.829   1.842   0.291  1.00  0.00     0.086 C 
HETATM    9  C7  UNL     1      -3.037   1.098  -0.379  1.00  0.00     0.038 C 
HETATM   10  C8  UNL     1      -2.663  -0.330  -0.769  1.00  0.00    -0.030 C 
HETATM   11  C9  UNL     1      -2.207  -1.301   0.184  1.00  0.00    -0.028 C 
HETATM   12  C10 UNL     1      -0.725  -1.517   0.493  1.00  0.00     0.064 C 
ENDBRANCH   4   6
BRANCH   3  13
HETATM   13  O3  UNL     1       1.438   2.215  -0.015  1.00  0.00    -0.344 OA
ATOM     14  H3  UNL     1       0.573   2.456   0.296  1.00  0.00     0.219 HD
ENDBRANCH   3  13
BRANCH   5  15
HETATM   15  O4  UNL     1       1.773  -2.462   0.680  1.00  0.00    -0.344 OA
ATOM     16  H4  UNL     1       0.952  -2.744   1.066  1.00  0.00     0.219 HD
ENDBRANCH   5  15
BRANCH   2  17
HETATM   17  O2  UNL     1       4.154   1.456  -0.991  1.00  0.00    -0.354 OA
ATOM     18  H2  UNL     1       4.073   2.393  -1.125  1.00  0.00     0.218 HD
ENDBRANCH   2  17
BRANCH   1  19
HETATM   19  O1  UNL     1       4.408  -1.576  -0.555  1.00  0.00    -0.354 OA
ATOM     20  H1  UNL     1       4.489  -2.513  -0.421  1.00  0.00     0.218 HD
ENDBRANCH   1  19
TORSDOF 5
