REMARK  6 active torsions:
REMARK  status: ('A' for Active; 'I' for Inactive)
REMARK    1  A    between atoms: N3_4  and  C2_6 
REMARK    2  A    between atoms: C2_6  and  C3_7 
REMARK    3  A    between atoms: C3_7  and  C4_8 
REMARK    4  A    between atoms: C4_8  and  C5_9 
REMARK    5  A    between atoms: C7_14  and  C8_15 
REMARK    6  A    between atoms: C8_15  and  N5_16 
ROOT
HETATM    1  C5  UNL     1       0.361  -1.218   0.616  1.00  0.00     0.176 C 
HETATM    2  N4  UNL     1      -0.804  -1.199   1.499  1.00  0.00    -0.346 N 
ATOM      3  H4  UNL     1      -0.783  -1.850   2.284  1.00  0.00     0.163 HD
HETATM    4  C6  UNL     1      -1.939  -0.399   1.396  1.00  0.00     0.242 C 
HETATM    5  O1  UNL     1      -2.242   0.316   2.429  1.00  0.00    -0.271 OA
HETATM    6  C7  UNL     1      -2.861  -0.253   0.245  1.00  0.00     0.194 C 
HETATM    7  N8  UNL     1      -3.062  -1.420  -0.548  1.00  0.00    -0.345 N 
ATOM      8  H8  UNL     1      -4.026  -1.591  -0.835  1.00  0.00     0.163 HD
HETATM    9  C10 UNL     1      -2.131  -2.365  -0.990  1.00  0.00     0.236 C 
HETATM   10  O2  UNL     1      -2.290  -3.600  -0.668  1.00  0.00    -0.272 OA
HETATM   11  C11 UNL     1      -0.920  -2.126  -1.825  1.00  0.00     0.225 C 
HETATM   12  N9  UNL     1       0.152  -2.892  -1.237  1.00  0.00    -0.351 N 
ATOM     13  H9  UNL     1       0.601  -3.638  -1.769  1.00  0.00     0.163 HD
HETATM   14  C12 UNL     1       0.575  -2.604   0.076  1.00  0.00     0.240 C 
HETATM   15  O3  UNL     1       1.128  -3.481   0.804  1.00  0.00    -0.271 OA
ENDROOT
BRANCH   1  16
HETATM   16  C4  UNL     1       1.583  -0.846   1.427  1.00  0.00     0.036 C 
BRANCH  16  17
HETATM   17  C3  UNL     1       2.858  -0.827   0.663  1.00  0.00     0.022 C 
BRANCH  17  18
HETATM   18  C2  UNL     1       2.783   0.166  -0.446  1.00  0.00     0.122 C 
BRANCH  18  19
HETATM   19  N3  UNL     1       4.034   0.218  -1.216  1.00  0.00    -0.367 N 
HETATM   20  C1  UNL     1       4.985   0.934  -0.726  1.00  0.00     0.196 C 
HETATM   21  N1  UNL     1       6.232   1.027  -1.428  1.00  0.00    -0.067 NA
HETATM   22  N2  UNL     1       4.850   1.646   0.496  1.00  0.00    -0.067 NA
ATOM     23  H3  UNL     1       4.143  -0.288  -2.095  1.00  0.00     0.161 HD
ENDBRANCH  18  19
ENDBRANCH  17  18
ENDBRANCH  16  17
ENDBRANCH   1  16
BRANCH   6  24
HETATM   24  C8  UNL     1      -2.502   0.957  -0.621  1.00  0.00     0.156 C 
BRANCH  24  25
HETATM   25  N5  UNL     1      -2.580   2.183   0.176  1.00  0.00    -0.364 N 
HETATM   26  C9  UNL     1      -3.741   2.735   0.283  1.00  0.00     0.197 C 
HETATM   27  N6  UNL     1      -3.923   3.944   1.046  1.00  0.00    -0.067 NA
HETATM   28  N7  UNL     1      -4.903   2.212  -0.327  1.00  0.00    -0.067 NA
ATOM     29  H5  UNL     1      -1.756   2.582   0.625  1.00  0.00     0.161 HD
ENDBRANCH  24  25
ENDBRANCH   6  24
TORSDOF 6
