REMARK  8 active torsions:
REMARK  status: ('A' for Active; 'I' for Inactive)
REMARK    1  A    between atoms: C3_4  and  O1_5 
REMARK    2  A    between atoms: N2_7  and  C4_8 
REMARK    3  A    between atoms: C4_8  and  C5_9 
REMARK       I    between atoms: C5_9  and  N3_11 
REMARK    4  A    between atoms: N4_14  and  C8_15 
REMARK    5  A    between atoms: C8_15  and  C9_16 
REMARK    6  A    between atoms: C9_16  and  N5_17 
REMARK    7  A    between atoms: N5_17  and  C10_19 
REMARK    8  A    between atoms: N9_26  and  C11_27 
ROOT
HETATM    1  C9  UNL     1      -2.599   3.058  -0.160  1.00  0.00     0.183 C 
ENDROOT
BRANCH   1   2
HETATM    2  C8  UNL     1      -1.225   2.800  -0.651  1.00  0.00     0.088 C 
BRANCH   2   3
HETATM    3  N4  UNL     1      -0.432   1.858  -0.002  1.00  0.00    -0.349 N 
HETATM    4  C7  UNL     1      -0.746   0.488  -0.064  1.00  0.00     0.088 C 
HETATM    5  C6  UNL     1       0.478  -0.286  -0.490  1.00  0.00     0.171 C 
HETATM    6  N3  UNL     1       1.726   0.298  -0.128  1.00  0.00    -0.341 N 
HETATM    7  C5  UNL     1       2.902  -0.501  -0.185  1.00  0.00     0.238 C 
HETATM    8  C17 UNL     1       1.902   1.674   0.302  1.00  0.00     0.171 C 
HETATM    9  O2  UNL     1       2.802  -1.695  -0.549  1.00  0.00    -0.272 OA
HETATM   10  C16 UNL     1       0.614   2.266   0.848  1.00  0.00     0.088 C 
BRANCH   7  11
HETATM   11  C4  UNL     1       4.243   0.019   0.170  1.00  0.00     0.238 C 
BRANCH  11  12
HETATM   12  N2  UNL     1       5.235  -1.009   0.013  1.00  0.00    -0.270 N 
HETATM   13  C3  UNL     1       5.912  -1.236  -1.123  1.00  0.00     0.162 A 
HETATM   14  C2  UNL     1       6.751  -2.287  -0.861  1.00  0.00     0.151 A 
HETATM   15  N1  UNL     1       6.588  -2.697   0.422  1.00  0.00    -0.310 N 
HETATM   16  C1  UNL     1       7.267  -3.763   1.105  1.00  0.00     0.160 C 
HETATM   17  C18 UNL     1       5.647  -1.899   0.956  1.00  0.00     0.330 A 
HETATM   18  O3  UNL     1       5.230  -1.982   2.139  1.00  0.00    -0.246 OA
BRANCH  13  19
HETATM   19  O1  UNL     1       5.813  -0.579  -2.315  1.00  0.00    -0.345 OA
ATOM     20  H1  UNL     1       5.231   0.150  -2.497  1.00  0.00     0.219 HD
ENDBRANCH  13  19
ENDBRANCH  11  12
ENDBRANCH   7  11
ENDBRANCH   2   3
ENDBRANCH   1   2
BRANCH   1  21
HETATM   21  N5  UNL     1      -3.479   1.908  -0.176  1.00  0.00    -0.218 N 
ATOM     22  H5  UNL     1      -3.119   0.992  -0.443  1.00  0.00     0.178 HD
BRANCH  21  23
HETATM   23  C10 UNL     1      -4.719   2.046   0.148  1.00  0.00     0.717 A 
HETATM   24  N6  UNL     1      -5.348   3.190   0.524  1.00  0.00    -0.115 N 
HETATM   25  N7  UNL     1      -6.622   2.937   0.778  1.00  0.00    -0.213 N 
ATOM     26  H6  UNL     1      -4.905   4.106   0.599  1.00  0.00     0.207 HD
HETATM   27  N8  UNL     1      -6.797   1.652   0.565  1.00  0.00    -0.206 N 
ATOM     28  H7  UNL     1      -7.329   3.607   1.080  1.00  0.00     0.210 HD
HETATM   29  N9  UNL     1      -5.655   1.075   0.179  1.00  0.00    -0.066 N 
ATOM     30  H8  UNL     1      -7.684   1.162   0.679  1.00  0.00     0.211 HD
BRANCH  29  31
HETATM   31  C11 UNL     1      -5.419  -0.281  -0.147  1.00  0.00     0.119 A 
HETATM   32  C12 UNL     1      -5.197  -1.210   0.843  1.00  0.00     0.037 A 
HETATM   33  C13 UNL     1      -4.962  -2.547   0.544  1.00  0.00     0.019 A 
HETATM   34  C14 UNL     1      -4.956  -2.929  -0.781  1.00  0.00     0.090 A 
HETATM   35  N10 UNL     1      -5.173  -2.016  -1.740  1.00  0.00    -0.351 N 
HETATM   36  C15 UNL     1      -5.400  -0.724  -1.446  1.00  0.00     0.128 A 
ATOM     37  H10 UNL     1      -5.166  -2.310  -2.717  1.00  0.00     0.166 HD
HETATM   38  N11 UNL     1      -5.603   0.115  -2.385  1.00  0.00    -0.384 N 
ATOM     39 2H11 UNL     1      -5.775   1.095  -2.162  1.00  0.00     0.157 HD
ATOM     40 1H11 UNL     1      -5.589  -0.214  -3.350  1.00  0.00     0.157 HD
ENDBRANCH  29  31
ENDBRANCH  21  23
ENDBRANCH   1  21
TORSDOF 8
