REMARK  4 active torsions:
REMARK  status: ('A' for Active; 'I' for Inactive)
REMARK    1  A    between atoms: N1_1  and  N2_4 
REMARK       I    between atoms: N2_4  and  C1_6 
REMARK       I    between atoms: C1_6  and  N3_7 
REMARK    2  A    between atoms: N6_12  and  S1_14 
REMARK    3  A    between atoms: S1_14  and  N7_17 
REMARK    4  A    between atoms: N7_17  and  N8_19 
ROOT
HETATM    1  N2  UNL     1       0.205  -1.698  -1.252  1.00  0.00    -0.138 N 
ATOM      2  H2  UNL     1      -0.236  -1.782  -2.168  1.00  0.00     0.205 HD
HETATM    3  C1  UNL     1       0.581  -0.429  -0.767  1.00  0.00     0.709 C 
HETATM    4  N3  UNL     1       1.942  -0.206  -0.459  1.00  0.00    -0.164 N 
ATOM      5  H3  UNL     1       2.627  -0.385  -1.193  1.00  0.00     0.186 HD
HETATM    6  C2  UNL     1       2.378   0.201   0.664  1.00  0.00     0.215 C 
HETATM    7  N4  UNL     1       1.471   0.464   1.711  1.00  0.00    -0.066 NA
HETATM    8  N5  UNL     1       3.762   0.390   0.860  1.00  0.00    -0.066 NA
HETATM    9  N6  UNL     1      -0.312   0.496  -0.613  1.00  0.00    -0.097 N 
ATOM     10  H6  UNL     1      -0.039   1.414  -0.261  1.00  0.00     0.199 HD
ENDROOT
BRANCH   1  11
HETATM   11  N1  UNL     1       0.433  -2.830  -0.489  1.00  0.00    -0.331 N 
ATOM     12  H12 UNL     1       0.875  -2.728   0.424  1.00  0.00     0.177 HD
ATOM     13  H11 UNL     1       0.161  -3.748  -0.840  1.00  0.00     0.177 HD
ENDBRANCH   1  11
BRANCH   9  14
HETATM   14  S1  UNL     1      -1.959   0.179  -1.001  1.00  0.00     0.350 S 
HETATM   15  O1  UNL     1      -2.243   0.351  -2.462  1.00  0.00    -0.180 OA
HETATM   16  O2  UNL     1      -2.244  -1.243  -0.603  1.00  0.00    -0.180 OA
BRANCH  14  17
HETATM   17  N7  UNL     1      -3.018   1.206  -0.094  1.00  0.00    -0.216 N 
ATOM     18  H7  UNL     1      -3.407   0.977   0.821  1.00  0.00     0.201 HD
BRANCH  17  19
HETATM   19  N8  UNL     1      -3.269   2.407  -0.798  1.00  0.00    -0.335 N 
ATOM     20  H82 UNL     1      -2.873   2.623  -1.713  1.00  0.00     0.177 HD
ATOM     21  H81 UNL     1      -3.893   3.012  -0.264  1.00  0.00     0.177 HD
ENDBRANCH  17  19
ENDBRANCH  14  17
ENDBRANCH   9  14
TORSDOF 4
