REMARK  14 active torsions:
REMARK  status: ('A' for Active; 'I' for Inactive)
REMARK    1  A    between atoms: C2_2  and  C4_4 
REMARK    2  A    between atoms: C4_4  and  C5_5 
REMARK    3  A    between atoms: C6_8  and  O1_9 
REMARK    4  A    between atoms: C7_11  and  C8_12 
REMARK    5  A    between atoms: C8_12  and  C9_13 
REMARK    6  A    between atoms: C13_20  and  C14_21 
REMARK    7  A    between atoms: C14_21  and  C15_22 
REMARK    8  A    between atoms: C18_27  and  O3_28 
REMARK    9  A    between atoms: C19_30  and  C20_31 
REMARK   10  A    between atoms: C20_31  and  C21_32 
REMARK       I    between atoms: N4_35  and  C24_36 
REMARK   11  A    between atoms: C24_36  and  C25_38 
REMARK   12  A    between atoms: C28_43  and  O5_44 
REMARK   13  A    between atoms: C29_46  and  C30_47 
REMARK   14  A    between atoms: C30_47  and  C31_48 
ROOT
HETATM    1  C5  UNL     1       3.254   1.516   0.149  1.00  0.00     0.175 C 
HETATM    2  N1  UNL     1       3.123   0.361   1.013  1.00  0.00    -0.359 N 
ATOM      3  H1  UNL     1       3.844   0.329   1.734  1.00  0.00     0.162 HD
HETATM    4  C6  UNL     1       2.259  -0.698   1.090  1.00  0.00     0.135 C 
HETATM    5  C7  UNL     1       2.052  -1.888   0.263  1.00  0.00     0.159 C 
HETATM    6  N2  UNL     1       1.547  -1.572  -1.089  1.00  0.00    -0.347 N 
ATOM      7  H2  UNL     1       2.224  -1.224  -1.768  1.00  0.00     0.163 HD
HETATM    8  C12 UNL     1       0.223  -1.707  -1.522  1.00  0.00     0.241 C 
HETATM    9  O2  UNL     1      -0.215  -0.835  -2.355  1.00  0.00    -0.271 OA
HETATM   10  C13 UNL     1      -0.761  -2.719  -1.161  1.00  0.00     0.176 C 
HETATM   11  N3  UNL     1      -1.653  -2.457  -0.092  1.00  0.00    -0.356 N 
ATOM     12  H3  UNL     1      -2.381  -3.170  -0.054  1.00  0.00     0.162 HD
HETATM   13  C18 UNL     1      -1.835  -1.536   0.907  1.00  0.00     0.162 C 
HETATM   14  C19 UNL     1      -2.198  -0.177   1.152  1.00  0.00     0.088 C 
HETATM   15  N4  UNL     1      -2.531   0.774   0.118  1.00  0.00    -0.222 N 
HETATM   16  C24 UNL     1      -3.363   0.365  -1.002  1.00  0.00     0.246 C 
HETATM   17  O4  UNL     1      -3.818  -0.774  -1.113  1.00  0.00    -0.271 OA
HETATM   18  N5  UNL     1      -2.131   2.115   0.161  1.00  0.00    -0.272 N 
ATOM     19  H5  UNL     1      -2.697   2.720  -0.434  1.00  0.00     0.189 HD
HETATM   20  C28 UNL     1      -1.123   2.805   0.843  1.00  0.00     0.154 C 
HETATM   21  C29 UNL     1       0.338   2.900   0.625  1.00  0.00     0.166 C 
HETATM   22  N8  UNL     1       0.808   2.041  -0.452  1.00  0.00    -0.347 N 
ATOM     23  H8  UNL     1       0.090   1.614  -1.037  1.00  0.00     0.163 HD
HETATM   24  C34 UNL     1       2.126   1.738  -0.772  1.00  0.00     0.241 C 
HETATM   25  O6  UNL     1       2.384   1.639  -2.027  1.00  0.00    -0.271 OA
ENDROOT
BRANCH  21  26
HETATM   26  C30 UNL     1       0.780   4.297   0.199  1.00  0.00     0.092 C 
BRANCH  26  27
HETATM   27  C31 UNL     1       0.515   5.388   1.091  1.00  0.00     0.028 A 
HETATM   28  C32 UNL     1       1.296   5.852   2.131  1.00  0.00     0.114 A 
HETATM   29  N6  UNL     1       0.678   6.925   2.697  1.00  0.00    -0.360 N 
HETATM   30  C33 UNL     1      -0.469   7.128   2.022  1.00  0.00     0.180 A 
ATOM     31  H6  UNL     1       1.020   7.473   3.486  1.00  0.00     0.166 HD
HETATM   32  N7  UNL     1      -0.554   6.205   1.067  1.00  0.00    -0.354 N 
ATOM     33  H7  UNL     1      -1.326   6.127   0.405  1.00  0.00     0.166 HD
ENDBRANCH  26  27
ENDBRANCH  21  26
BRANCH  20  34
HETATM   34  O5  UNL     1      -1.423   3.537   1.882  1.00  0.00    -0.347 OA
ATOM     35  H5  UNL     1      -0.739   4.006   2.345  1.00  0.00     0.219 HD
ENDBRANCH  20  34
BRANCH   1  36
HETATM   36  C4  UNL     1       4.615   1.502  -0.482  1.00  0.00     0.038 C 
BRANCH  36  37
HETATM   37  C2  UNL     1       4.972   2.627  -1.372  1.00  0.00    -0.020 C 
HETATM   38  C1  UNL     1       6.401   2.354  -1.877  1.00  0.00     0.009 C 
HETATM   39  C3  UNL     1       5.140   3.865  -0.470  1.00  0.00     0.009 C 
ENDBRANCH  36  37
ENDBRANCH   1  36
BRANCH  14  40
HETATM   40  C20 UNL     1      -3.155  -0.018   2.328  1.00  0.00     0.067 C 
BRANCH  40  41
HETATM   41  C21 UNL     1      -4.460  -0.631   2.305  1.00  0.00    -0.017 C 
HETATM   42  C22 UNL     1      -4.630  -2.097   2.187  1.00  0.00     0.010 C 
HETATM   43  C23 UNL     1      -5.113  -0.277   3.665  1.00  0.00     0.010 C 
ENDBRANCH  40  41
ENDBRANCH  14  40
BRANCH  16  44
HETATM   44  C25 UNL     1      -3.727   1.307  -2.097  1.00  0.00     0.072 C 
HETATM   45  C26 UNL     1      -4.231   0.541  -3.305  1.00  0.00     0.019 C 
HETATM   46  C27 UNL     1      -4.927   2.173  -1.701  1.00  0.00     0.019 C 
ENDBRANCH  16  44
BRANCH  13  47
HETATM   47  O3  UNL     1      -1.589  -2.088   2.111  1.00  0.00    -0.345 OA
ATOM     48  H3  UNL     1      -1.715  -1.450   2.803  1.00  0.00     0.219 HD
ENDBRANCH  13  47
BRANCH   4  49
HETATM   49  O1  UNL     1       1.444  -0.633   2.120  1.00  0.00    -0.348 OA
ATOM     50  H1  UNL     1       0.844  -1.368   2.173  1.00  0.00     0.219 HD
ENDBRANCH   4  49
BRANCH   5  51
HETATM   51  C8  UNL     1       3.136  -2.889   0.144  1.00  0.00     0.037 C 
BRANCH  51  52
HETATM   52  C9  UNL     1       3.637  -3.608   1.335  1.00  0.00    -0.020 C 
HETATM   53  C10 UNL     1       4.247  -2.687   2.349  1.00  0.00     0.009 C 
HETATM   54  C11 UNL     1       4.690  -4.619   0.883  1.00  0.00     0.009 C 
ENDBRANCH  51  52
ENDBRANCH   5  51
BRANCH  10  55
HETATM   55  C14 UNL     1      -1.499  -3.212  -2.420  1.00  0.00     0.038 C 
BRANCH  55  56
HETATM   56  C15 UNL     1      -2.523  -4.252  -2.152  1.00  0.00    -0.020 C 
HETATM   57  C16 UNL     1      -1.953  -5.494  -1.509  1.00  0.00     0.009 C 
HETATM   58  C17 UNL     1      -3.048  -4.675  -3.546  1.00  0.00     0.009 C 
ENDBRANCH  55  56
ENDBRANCH  10  55
TORSDOF 14
