REMARK  7 active torsions:
REMARK  status: ('A' for Active; 'I' for Inactive)
REMARK    1  A    between atoms: C2_2  and  C4_4 
REMARK    2  A    between atoms: C4_4  and  C5_5 
REMARK    3  A    between atoms: C5_5  and  N1_6 
REMARK    4  A    between atoms: N1_6  and  C7_8 
REMARK    5  A    between atoms: C7_8  and  C8_9 
REMARK    6  A    between atoms: C8_9  and  N2_10 
REMARK    7  A    between atoms: N2_10  and  C9_13 
ROOT
HETATM    1  C7  UNL     1       0.542  -0.057   0.159  1.00  0.00     0.143 C 
ENDROOT
BRANCH   1   2
HETATM    2  N1  UNL     1      -0.217   1.144   0.048  1.00  0.00    -0.415 N 
HETATM    3  C6  UNL     1       0.388   2.328   0.532  1.00  0.00     0.143 C 
BRANCH   2   4
HETATM    4  C5  UNL     1      -1.602   0.999   0.329  1.00  0.00     0.117 C 
BRANCH   4   5
HETATM    5  C4  UNL     1      -2.191  -0.262  -0.251  1.00  0.00     0.023 C 
BRANCH   5   6
HETATM    6  C2  UNL     1      -3.651  -0.294   0.224  1.00  0.00    -0.021 C 
HETATM    7  C1  UNL     1      -4.349   0.942  -0.265  1.00  0.00     0.009 C 
HETATM    8  C3  UNL     1      -4.384  -1.509  -0.298  1.00  0.00     0.009 C 
ENDBRANCH   5   6
ENDBRANCH   4   5
ENDBRANCH   2   4
ENDBRANCH   1   2
BRANCH   1   9
HETATM    9  C8  UNL     1       2.048   0.160   0.159  1.00  0.00     0.252 C 
BRANCH   9  10
HETATM   10  N2  UNL     1       2.748  -1.093   0.278  1.00  0.00    -0.069 N 
ATOM     11  H22 UNL     1       2.310  -1.678   0.989  1.00  0.00     0.277 HD
ATOM     12  H21 UNL     1       2.586  -1.670  -0.548  1.00  0.00     0.277 HD
BRANCH  10  13
HETATM   13  C9  UNL     1       4.157  -0.967   0.532  1.00  0.00     0.186 A 
HETATM   14  C10 UNL     1       5.111  -0.324  -0.371  1.00  0.00     0.035 A 
HETATM   15  C11 UNL     1       5.063  -1.817  -0.327  1.00  0.00     0.035 A 
ENDBRANCH  10  13
ENDBRANCH   9  10
ENDBRANCH   1   9
TORSDOF 7
