REMARK  9 active torsions:
REMARK  status: ('A' for Active; 'I' for Inactive)
REMARK    1  A    between atoms: C5_5  and  C6_6 
REMARK    2  A    between atoms: C8_10  and  O1_11 
REMARK    3  A    between atoms: O1_11  and  C9_12 
REMARK    4  A    between atoms: C9_12  and  C10_13 
REMARK    5  A    between atoms: C10_13  and  O3_15 
REMARK    6  A    between atoms: O3_15  and  C11_16 
REMARK    7  A    between atoms: C11_16  and  O4_17 
REMARK    8  A    between atoms: C12_19  and  C13_20 
REMARK    9  A    between atoms: C21_28  and  O5_29 
ROOT
HETATM    1  C6  UNL     1      -2.037   0.217  -0.514  1.00  0.00     0.017 C 
HETATM    2  N1  UNL     1      -1.545  -0.248   0.543  1.00  0.00    -0.386 N 
ATOM      3  H1  UNL     1      -1.784   0.102   1.471  1.00  0.00     0.159 HD
HETATM    4  C7  UNL     1      -0.656  -1.271   0.334  1.00  0.00     0.122 C 
HETATM    5  C8  UNL     1       0.647  -1.214   1.108  1.00  0.00     0.174 C 
HETATM    6  C12 UNL     1       1.381  -2.421   0.621  1.00  0.00    -0.049 C 
HETATM    7  C16 UNL     1       1.183  -2.962  -0.558  1.00  0.00    -0.012 C 
HETATM    8  C17 UNL     1       0.192  -2.444  -1.577  1.00  0.00    -0.021 C 
HETATM    9  C18 UNL     1      -0.875  -3.479  -1.704  1.00  0.00     0.019 C 
HETATM   10  C19 UNL     1       0.907  -2.371  -2.934  1.00  0.00     0.019 C 
HETATM   11  C20 UNL     1      -0.229  -1.111  -1.113  1.00  0.00     0.057 C 
HETATM   12  C21 UNL     1      -1.466  -0.514  -1.676  1.00  0.00     0.170 C 
ENDROOT
BRANCH   5  13
HETATM   13  O1  UNL     1       1.306  -0.065   0.725  1.00  0.00    -0.370 OA
BRANCH  13  14
HETATM   14  C9  UNL     1       1.490   0.863   1.722  1.00  0.00     0.279 C 
BRANCH  14  15
HETATM   15  C10 UNL     1       2.215   2.046   1.179  1.00  0.00     0.284 C 
HETATM   16  O2  UNL     1       2.548   2.058  -0.033  1.00  0.00    -0.263 OA
BRANCH  15  17
HETATM   17  O3  UNL     1       2.538   3.142   1.963  1.00  0.00    -0.294 OA
BRANCH  17  18
HETATM   18  C11 UNL     1       3.224   4.217   1.366  1.00  0.00     0.344 C 
BRANCH  18  19
HETATM   19  O4  UNL     1       3.473   5.235   2.284  1.00  0.00    -0.377 OA
ATOM     20  H4  UNL     1       3.936   5.960   1.881  1.00  0.00     0.212 HD
ENDBRANCH  18  19
ENDBRANCH  17  18
ENDBRANCH  15  17
ENDBRANCH  14  15
ENDBRANCH  13  14
ENDBRANCH   5  13
BRANCH   6  21
HETATM   21  C13 UNL     1       2.380  -3.041   1.523  1.00  0.00     0.009 C 
HETATM   22  C14 UNL     1       3.523  -2.100   1.851  1.00  0.00     0.014 C 
HETATM   23  C15 UNL     1       3.005  -4.255   0.873  1.00  0.00     0.014 C 
ENDBRANCH   6  21
BRANCH   1  24
HETATM   24  C5  UNL     1      -3.032   1.326  -0.688  1.00  0.00     0.041 C 
HETATM   25  C4  UNL     1      -2.474   2.462  -1.507  1.00  0.00     0.038 C 
HETATM   26  C3  UNL     1      -3.372   3.593  -1.072  1.00  0.00    -0.024 C 
HETATM   27  C2  UNL     1      -3.843   3.334   0.143  1.00  0.00    -0.087 C 
HETATM   28  C1  UNL     1      -4.764   4.211   0.915  1.00  0.00     0.043 C 
HETATM   29  C22 UNL     1      -3.313   2.028   0.624  1.00  0.00     0.044 C 
ENDBRANCH   1  24
BRANCH  12  30
HETATM   30  O5  UNL     1      -2.333  -1.350  -2.306  1.00  0.00    -0.389 OA
ATOM     31  H5  UNL     1      -1.968  -1.817  -3.048  1.00  0.00     0.210 HD
ENDBRANCH  12  30
TORSDOF 9
