REMARK  1 active torsions:
REMARK  status: ('A' for Active; 'I' for Inactive)
REMARK       I    between atoms: N2_3  and  C2_5 
REMARK    1  A    between atoms: C2_5  and  C3_7 
ROOT
HETATM    1  N1  UNL     1      -5.440   0.089   0.293  1.00  0.00    -0.172 NA
HETATM    2  C1  UNL     1      -4.349  -0.274   0.182  1.00  0.00     0.184 C 
HETATM    3  N2  UNL     1      -2.988  -0.716   0.065  1.00  0.00    -0.259 N 
ATOM      4  H2  UNL     1      -2.784  -1.708  -0.055  1.00  0.00     0.181 HD
HETATM    5  C2  UNL     1      -1.938   0.214   0.116  1.00  0.00     0.271 C 
HETATM    6  O1  UNL     1      -2.274   1.444   0.270  1.00  0.00    -0.266 OA
ENDROOT
BRANCH   5   7
HETATM    7  C3  UNL     1      -0.536  -0.085   0.013  1.00  0.00     0.124 A 
HETATM    8  C4  UNL     1       0.372   0.985   0.087  1.00  0.00     0.137 A 
HETATM    9  N3  UNL     1      -0.107   2.327   0.260  1.00  0.00    -0.081 NA
HETATM   10  N4  UNL     1       1.690   0.763  -0.003  1.00  0.00    -0.332 N 
HETATM   11  C5  UNL     1       2.234  -0.439  -0.164  1.00  0.00     0.121 A 
ATOM     12  H4  UNL     1       2.315   1.567   0.056  1.00  0.00     0.168 HD
HETATM   13  N5  UNL     1       3.634  -0.655  -0.257  1.00  0.00    -0.083 NA
HETATM   14  C6  UNL     1       1.399  -1.525  -0.243  1.00  0.00     0.101 A 
HETATM   15  C7  UNL     1       0.024  -1.327  -0.152  1.00  0.00     0.194 A 
HETATM   16  O2  UNL     1      -0.709  -2.338  -0.228  1.00  0.00    -0.287 OA
ENDBRANCH   5   7
TORSDOF 1
