REMARK  5 active torsions:
REMARK  status: ('A' for Active; 'I' for Inactive)
REMARK       I    between atoms: C1_4  and  N3_6 
REMARK    1  A    between atoms: N3_6  and  O1_8 
REMARK    2  A    between atoms: O1_8  and  C2_9 
REMARK       I    between atoms: C2_9  and  N4_11 
REMARK    3  A    between atoms: N4_11  and  C3_13 
REMARK    4  A    between atoms: C3_13  and  C4_14 
REMARK       I    between atoms: C4_14  and  N5_16 
REMARK    5  A    between atoms: N5_16  and  N6_18 
ROOT
HETATM    1  C2  UNL     1      -0.494   0.521   0.114  1.00  0.00     0.383 C 
HETATM    2  O2  UNL     1       0.117   0.330   1.196  1.00  0.00    -0.236 OA
HETATM    3  N4  UNL     1       0.155   0.971  -1.062  1.00  0.00    -0.327 N 
ATOM      4  H4  UNL     1      -0.407   1.109  -1.902  1.00  0.00     0.165 HD
ENDROOT
BRANCH   1   5
HETATM    5  O1  UNL     1      -1.861   0.258   0.151  1.00  0.00    -0.179 OA
BRANCH   5   6
HETATM    6  N3  UNL     1      -2.478  -0.178   1.297  1.00  0.00    -0.228 N 
HETATM    7  C1  UNL     1      -3.677  -0.942   1.290  1.00  0.00     0.206 C 
HETATM    8  N1  UNL     1      -4.386  -1.018   2.359  1.00  0.00    -0.372 N 
HETATM    9  N2  UNL     1      -4.140  -1.637   0.147  1.00  0.00    -0.062 NA
ATOM     10  H12 UNL     1      -5.246  -1.566   2.354  1.00  0.00     0.158 HD
ATOM     11  H11 UNL     1      -4.052  -0.517   3.183  1.00  0.00     0.158 HD
ATOM     12  H3  UNL     1      -2.057   0.057   2.196  1.00  0.00     0.198 HD
ENDBRANCH   5   6
ENDBRANCH   1   5
BRANCH   3  13
HETATM   13  C3  UNL     1       1.545   1.240  -1.131  1.00  0.00     0.229 C 
BRANCH  13  14
HETATM   14  C4  UNL     1       2.333   0.013  -0.860  1.00  0.00     0.253 C 
HETATM   15  O3  UNL     1       1.735  -1.088  -0.625  1.00  0.00    -0.270 OA
HETATM   16  N5  UNL     1       3.753   0.079  -0.864  1.00  0.00    -0.275 N 
ATOM     17  H5  UNL     1       4.227   0.963  -1.052  1.00  0.00     0.189 HD
BRANCH  16  18
HETATM   18  N6  UNL     1       4.489  -1.071  -0.610  1.00  0.00    -0.343 N 
ATOM     19  H62 UNL     1       4.000  -1.947  -0.424  1.00  0.00     0.176 HD
ATOM     20  H61 UNL     1       5.508  -1.024  -0.613  1.00  0.00     0.176 HD
ENDBRANCH  16  18
ENDBRANCH  13  14
ENDBRANCH   3  13
TORSDOF 5
