REMARK  6 active torsions:
REMARK  status: ('A' for Active; 'I' for Inactive)
REMARK    1  A    between atoms: N1_1  and  N2_4 
REMARK    2  A    between atoms: N2_4  and  C1_6 
REMARK    3  A    between atoms: C1_6  and  N3_8 
REMARK    4  A    between atoms: N3_8  and  N4_10 
REMARK    5  A    between atoms: N4_10  and  C2_12 
REMARK    6  A    between atoms: N6_17  and  N7_18 
ROOT
HETATM    1  N4  UNL     1      -0.370  -0.114  -0.975  1.00  0.00    -0.129 N 
ATOM      2  H4  UNL     1      -0.410  -0.175  -1.992  1.00  0.00     0.205 HD
ENDROOT
BRANCH   1   3
HETATM    3  N3  UNL     1      -1.552   0.068  -0.246  1.00  0.00    -0.261 N 
ATOM      4  H3  UNL     1      -1.601   0.817   0.445  1.00  0.00     0.190 HD
BRANCH   3   5
HETATM    5  C1  UNL     1      -2.684  -0.765  -0.446  1.00  0.00     0.205 C 
HETATM    6  S1  UNL     1      -2.657  -1.976  -1.540  1.00  0.00    -0.038 SA
BRANCH   5   7
HETATM    7  N2  UNL     1      -3.859  -0.540   0.320  1.00  0.00    -0.282 N 
ATOM      8  H2  UNL     1      -4.664  -1.147   0.167  1.00  0.00     0.189 HD
BRANCH   7   9
HETATM    9  N1  UNL     1      -3.960   0.472   1.271  1.00  0.00    -0.343 N 
ATOM     10  H12 UNL     1      -3.145   1.069   1.412  1.00  0.00     0.176 HD
ATOM     11  H11 UNL     1      -4.804   0.634   1.821  1.00  0.00     0.176 HD
ENDBRANCH   7   9
ENDBRANCH   5   7
ENDBRANCH   3   5
ENDBRANCH   1   3
BRANCH   1  12
HETATM   12  C2  UNL     1       0.892  -0.215  -0.311  1.00  0.00     0.709 C 
HETATM   13  N5  UNL     1       1.118  -1.017   0.675  1.00  0.00    -0.222 N 
HETATM   14  C3  UNL     1       2.479  -0.902   1.143  1.00  0.00     0.160 C 
ATOM     15  H5  UNL     1       0.424  -1.650   1.072  1.00  0.00     0.177 HD
HETATM   16  C4  UNL     1       3.164  -0.294  -0.075  1.00  0.00     0.187 C 
HETATM   17  N6  UNL     1       2.067   0.514  -0.603  1.00  0.00    -0.128 N 
BRANCH  17  18
HETATM   18  N7  UNL     1       2.103   1.731  -1.253  1.00  0.00    -0.329 N 
ATOM     19  H72 UNL     1       1.337   2.295  -1.622  1.00  0.00     0.177 HD
ATOM     20  H71 UNL     1       2.951   2.257  -1.464  1.00  0.00     0.177 HD
ENDBRANCH  17  18
ENDBRANCH   1  12
TORSDOF 6
