REMARK  8 active torsions:
REMARK  status: ('A' for Active; 'I' for Inactive)
REMARK    1  A    between atoms: C1_2  and  C2_4 
REMARK    2  A    between atoms: C2_4  and  N2_5 
REMARK    3  A    between atoms: N2_5  and  C3_6 
REMARK    4  A    between atoms: C3_6  and  O2_7 
REMARK    5  A    between atoms: C3_6  and  C4_9 
REMARK       I    between atoms: C4_9  and  N3_11 
REMARK    6  A    between atoms: N3_11  and  C5_13 
REMARK    7  A    between atoms: C6_18  and  S1_19 
REMARK    8  A    between atoms: S1_19  and  N6_20 
ROOT
HETATM    1  C5  UNL     1      -1.714   0.688  -1.469  1.00  0.00     0.169 A 
HETATM    2  N4  UNL     1      -2.993   0.705  -1.857  1.00  0.00    -0.278 N 
ATOM      3  H4  UNL     1      -3.234   0.695  -2.848  1.00  0.00     0.189 HD
HETATM    4  N5  UNL     1      -3.900   0.734  -0.974  1.00  0.00    -0.281 N 
ATOM      5  H5  UNL     1      -4.880   0.746  -1.255  1.00  0.00     0.188 HD
HETATM    6  C6  UNL     1      -3.584   0.749   0.311  1.00  0.00     0.208 A 
HETATM    7  S2  UNL     1      -1.876   0.717   0.238  1.00  0.00    -0.020 SA
ENDROOT
BRANCH   1   8
HETATM    8  N3  UNL     1      -0.644   0.658  -2.231  1.00  0.00    -0.298 N 
HETATM    9  C4  UNL     1       0.608   0.646  -1.532  1.00  0.00     0.312 C 
HETATM   10  O3  UNL     1       1.020   1.707  -1.108  1.00  0.00    -0.262 OA
ATOM     11  H3  UNL     1      -0.700   0.644  -3.249  1.00  0.00     0.171 HD
BRANCH   9  12
HETATM   12  C3  UNL     1       1.289  -0.627  -1.381  1.00  0.00     0.283 C 
BRANCH  12  13
HETATM   13  N2  UNL     1       2.514  -0.728  -0.727  1.00  0.00    -0.384 NA
BRANCH  13  14
HETATM   14  C2  UNL     1       3.698  -0.826  -0.094  1.00  0.00     0.256 C 
BRANCH  14  15
HETATM   15  C1  UNL     1       4.296   0.416   0.435  1.00  0.00     0.283 C 
HETATM   16  N1  UNL     1       5.561   0.245   1.106  1.00  0.00    -0.056 NA
HETATM   17  O1  UNL     1       3.798   1.525   0.340  1.00  0.00    -0.269 OA
ENDBRANCH  14  15
ENDBRANCH  13  14
ENDBRANCH  12  13
BRANCH  12  18
HETATM   18  O2  UNL     1       0.692  -1.664  -1.891  1.00  0.00    -0.331 OA
ATOM     19  H2  UNL     1      -0.144  -1.595  -2.337  1.00  0.00     0.220 HD
ENDBRANCH  12  18
ENDBRANCH   9  12
ENDBRANCH   1   8
BRANCH   6  20
HETATM   20  S1  UNL     1      -4.616   0.786   1.742  1.00  0.00     0.280 S 
HETATM   21  O4  UNL     1      -3.788   1.384   2.849  1.00  0.00    -0.199 OA
HETATM   22  O5  UNL     1      -5.889   1.499   1.507  1.00  0.00    -0.199 OA
BRANCH  20  23
HETATM   23  N6  UNL     1      -4.904  -0.885   2.161  1.00  0.00    -0.323 N 
ATOM     24  H62 UNL     1      -4.543  -1.703   1.670  1.00  0.00     0.169 HD
ATOM     25  H61 UNL     1      -5.500  -0.864   2.988  1.00  0.00     0.169 HD
ENDBRANCH  20  23
ENDBRANCH   6  20
TORSDOF 8
