REMARK  10 active torsions:
REMARK  status: ('A' for Active; 'I' for Inactive)
REMARK    1  A    between atoms: C2_2  and  N1_3 
REMARK    2  A    between atoms: N1_3  and  C3_4 
REMARK    3  A    between atoms: C5_6  and  O1_7 
REMARK    4  A    between atoms: C5_6  and  N2_9 
REMARK    5  A    between atoms: N2_9  and  C6_11 
REMARK    6  A    between atoms: C13_18  and  O2_19 
REMARK    7  A    between atoms: C13_18  and  C14_21 
REMARK    8  A    between atoms: C15_22  and  C16_23 
REMARK    9  A    between atoms: C16_23  and  N3_24 
REMARK   10  A    between atoms: N3_24  and  C17_25 
ROOT
HETATM    1  C6  UNL     1       1.039  -1.752  -0.731  1.00  0.00     0.093 C 
HETATM    2  C7  UNL     1       1.028  -0.436  -1.533  1.00  0.00     0.034 C 
HETATM    3  C8  UNL     1      -0.277   0.135  -1.026  1.00  0.00     0.035 C 
HETATM    4  C9  UNL     1      -1.165  -1.054  -0.803  1.00  0.00    -0.032 C 
HETATM    5  C10 UNL     1      -2.539  -0.786  -0.276  1.00  0.00     0.016 C 
HETATM    6  C11 UNL     1      -1.264  -2.038  -1.931  1.00  0.00     0.016 C 
HETATM    7  C12 UNL     1      -0.093  -1.408   0.232  1.00  0.00     0.055 C 
HETATM    8  C13 UNL     1       0.066   0.025   0.485  1.00  0.00     0.086 C 
ENDROOT
BRANCH   8   9
HETATM    9  O2  UNL     1       1.376   0.556   0.601  1.00  0.00    -0.385 OA
ATOM     10  H2  UNL     1       1.586   0.489   1.525  1.00  0.00     0.211 HD
ENDBRANCH   8   9
BRANCH   8  11
HETATM   11  C14 UNL     1      -0.792   0.781   1.366  1.00  0.00     0.009 C 
HETATM   12  C15 UNL     1      -0.839   2.097   1.389  1.00  0.00    -0.000 C 
BRANCH  12  13
HETATM   13  C16 UNL     1      -1.736   2.865   2.306  1.00  0.00     0.264 C 
BRANCH  13  14
HETATM   14  N3  UNL     1      -2.711   3.629   1.543  1.00  0.00    -0.064 N 
HETATM   15  C19 UNL     1      -3.925   2.852   1.367  1.00  0.00     0.238 C 
HETATM   16  C20 UNL     1      -4.536   3.206   0.036  1.00  0.00     0.029 C 
HETATM   17  C21 UNL     1      -3.563   4.190  -0.581  1.00  0.00     0.029 C 
HETATM   18  C22 UNL     1      -2.266   3.911   0.189  1.00  0.00     0.238 C 
BRANCH  14  19
HETATM   19  C17 UNL     1      -2.925   4.884   2.187  1.00  0.00     0.233 C 
HETATM   20  C18 UNL     1      -2.774   4.911   3.669  1.00  0.00     0.035 C 
ENDBRANCH  14  19
ENDBRANCH  13  14
ENDBRANCH  12  13
ENDBRANCH   8  11
BRANCH   1  21
HETATM   21  N2  UNL     1       2.267  -2.088  -0.138  1.00  0.00    -0.351 N 
ATOM     22  H2  UNL     1       2.567  -1.458   0.606  1.00  0.00     0.163 HD
BRANCH  21  23
HETATM   23  C5  UNL     1       3.127  -3.120  -0.394  1.00  0.00     0.215 C 
HETATM   24  N1  UNL     1       3.979  -4.144  -0.649  1.00  0.00    -0.348 N 
BRANCH  24  25
HETATM   25  C2  UNL     1       3.827  -5.244  -1.572  1.00  0.00     0.122 C 
HETATM   26  C1  UNL     1       4.376  -4.886  -2.965  1.00  0.00     0.026 C 
ENDBRANCH  24  25
BRANCH  24  27
HETATM   27  C3  UNL     1       5.313  -4.158   0.064  1.00  0.00     0.122 C 
HETATM   28  C4  UNL     1       6.304  -3.407  -0.786  1.00  0.00     0.026 C 
ENDBRANCH  24  27
BRANCH  23  29
HETATM   29  O1  UNL     1       2.168  -3.681  -1.565  1.00  0.00    -0.333 OA
ATOM     30  H1  UNL     1       1.571  -2.964  -1.386  1.00  0.00     0.220 HD
ENDBRANCH  23  29
ENDBRANCH  21  23
ENDBRANCH   1  21
TORSDOF 10
