REMARK  9 active torsions:
REMARK  status: ('A' for Active; 'I' for Inactive)
REMARK    1  A    between atoms: C2_2  and  C3_3 
REMARK    2  A    between atoms: C3_3  and  O2_5 
REMARK    3  A    between atoms: O2_5  and  C4_6 
REMARK    4  A    between atoms: C7_11  and  O5_12 
REMARK    5  A    between atoms: C8_14  and  N1_15 
REMARK    6  A    between atoms: N1_15  and  N2_17 
REMARK    7  A    between atoms: N2_17  and  N3_18 
REMARK    8  A    between atoms: C9_21  and  C10_22 
REMARK    9  A    between atoms: C10_22  and  O6_23 
ROOT
HETATM    1  C4  UNL     1       1.231  -1.224   0.095  1.00  0.00     0.271 C 
HETATM    2  C5  UNL     1       0.952  -2.430   0.923  1.00  0.00     0.292 C 
HETATM    3  O3  UNL     1       1.761  -3.411   1.042  1.00  0.00    -0.262 OA
HETATM    4  O4  UNL     1      -0.298  -2.270   1.503  1.00  0.00    -0.308 OA
HETATM    5  C6  UNL     1      -1.094  -1.572   0.598  1.00  0.00     0.203 C 
HETATM    6  C7  UNL     1      -2.195  -0.773   1.232  1.00  0.00     0.176 C 
HETATM    7  C8  UNL     1      -2.898   0.013   0.165  1.00  0.00     0.154 C 
HETATM    8  C9  UNL     1      -2.151   0.071  -1.134  1.00  0.00     0.069 C 
HETATM    9  C11 UNL     1      -0.660   0.229  -0.961  1.00  0.00     0.171 A 
HETATM   10  O7  UNL     1      -0.279   0.764   0.254  1.00  0.00    -0.362 OA
HETATM   11  C12 UNL     1      -0.106  -0.576   0.003  1.00  0.00     0.152 A 
ENDROOT
BRANCH   7  12
HETATM   12  N1  UNL     1      -3.309   1.327   0.626  1.00  0.00    -0.245 N 
ATOM     13  H1  UNL     1      -2.663   2.109   0.521  1.00  0.00     0.197 HD
BRANCH  12  14
HETATM   14  N2  UNL     1      -4.416   1.533   1.142  1.00  0.00    -0.248 NA
BRANCH  14  15
HETATM   15  N3  UNL     1      -5.447   1.457   1.838  1.00  0.00    -0.261 N 
ATOM     16  H32 UNL     1      -5.139   0.615   2.325  1.00  0.00     0.193 HD
ATOM     17  H31 UNL     1      -6.359   1.627   2.263  1.00  0.00     0.193 HD
ENDBRANCH  14  15
ENDBRANCH  12  14
ENDBRANCH   7  12
BRANCH   6  18
HETATM   18  O5  UNL     1      -1.686   0.019   2.254  1.00  0.00    -0.391 OA
ATOM     19  H5  UNL     1      -2.383   0.525   2.655  1.00  0.00     0.210 HD
ENDBRANCH   6  18
BRANCH   8  20
HETATM   20  C10 UNL     1      -2.739   1.178  -1.981  1.00  0.00     0.173 C 
BRANCH  20  21
HETATM   21  O6  UNL     1      -2.053   1.245  -3.196  1.00  0.00    -0.400 OA
ATOM     22  H6  UNL     1      -2.422   1.940  -3.728  1.00  0.00     0.209 HD
ENDBRANCH  20  21
ENDBRANCH   8  20
BRANCH   1  23
HETATM   23  O2  UNL     1       2.188  -0.456   0.802  1.00  0.00    -0.302 OA
BRANCH  23  24
HETATM   24  C3  UNL     1       3.411  -0.087   0.265  1.00  0.00     0.259 C 
HETATM   25  O1  UNL     1       3.659  -0.462  -0.903  1.00  0.00    -0.265 OA
BRANCH  24  26
HETATM   26  C2  UNL     1       4.419   0.713   0.989  1.00  0.00     0.106 C 
HETATM   27  C1  UNL     1       5.606   0.905   0.076  1.00  0.00     0.015 C 
ENDBRANCH  24  26
ENDBRANCH  23  24
ENDBRANCH   1  23
TORSDOF 9
