REMARK  4 active torsions:
REMARK  status: ('A' for Active; 'I' for Inactive)
REMARK    1  A    between atoms: O1_2  and  C2_3 
REMARK    2  A    between atoms: C4_9  and  N3_10 
REMARK    3  A    between atoms: N3_10  and  C5_12 
REMARK    4  A    between atoms: C5_12  and  C6_13 
ROOT
HETATM    1  C2  UNL     1       3.594   0.473   0.289  1.00  0.00     0.186 A 
HETATM    2  N1  UNL     1       3.753  -0.683   0.933  1.00  0.00    -0.330 N 
ATOM      3  H1  UNL     1       4.668  -0.935   1.307  1.00  0.00     0.168 HD
HETATM    4  C3  UNL     1       2.708  -1.520   1.092  1.00  0.00     0.184 A 
HETATM    5  N2  UNL     1       1.505  -1.219   0.616  1.00  0.00    -0.336 N 
ATOM      6  H2  UNL     1       0.734  -1.873   0.751  1.00  0.00     0.168 HD
HETATM    7  C4  UNL     1       1.289  -0.074  -0.037  1.00  0.00     0.148 A 
HETATM    8  C13 UNL     1       2.368   0.805  -0.209  1.00  0.00     0.210 A 
HETATM    9  F1  UNL     1       2.202   1.988  -0.869  1.00  0.00    -0.197 F 
ENDROOT
BRANCH   7  10
HETATM   10  N3  UNL     1       0.215   0.291  -0.518  1.00  0.00    -0.341 N 
ATOM     11  H3  UNL     1       0.356   1.203  -0.952  1.00  0.00     0.164 HD
BRANCH  10  12
HETATM   12  C5  UNL     1      -1.118  -0.071  -0.693  1.00  0.00     0.142 C 
HETATM   13  C10 UNL     1      -1.411  -1.540  -0.702  1.00  0.00     0.064 C 
HETATM   14  C11 UNL     1      -2.553  -1.691  -1.695  1.00  0.00     0.031 C 
HETATM   15  C12 UNL     1      -2.320  -0.507  -2.563  1.00  0.00     0.171 C 
HETATM   16  O2  UNL     1      -1.699   0.466  -1.850  1.00  0.00    -0.360 OA
BRANCH  12  17
HETATM   17  C6  UNL     1      -1.912   0.598   0.444  1.00  0.00    -0.001 C 
HETATM   18  C7  UNL     1      -3.369   0.315   0.404  1.00  0.00     0.019 C 
HETATM   19  C8  UNL     1      -1.304   0.242   1.775  1.00  0.00     0.019 C 
HETATM   20  C9  UNL     1      -1.716   2.110   0.283  1.00  0.00     0.019 C 
ENDBRANCH  12  17
ENDBRANCH  10  12
ENDBRANCH   7  10
BRANCH   1  21
HETATM   21  O1  UNL     1       4.668   1.354   0.115  1.00  0.00    -0.338 OA
HETATM   22  C1  UNL     1       5.918   0.992   0.635  1.00  0.00     0.211 C 
ENDBRANCH   1  21
TORSDOF 4
