REMARK  13 active torsions:
REMARK  status: ('A' for Active; 'I' for Inactive)
REMARK    1  A    between atoms: C2_2  and  C3_3 
REMARK    2  A    between atoms: C3_3  and  N1_4 
REMARK    3  A    between atoms: N1_4  and  C4_5 
REMARK       I    between atoms: N1_4  and  C7_8 
REMARK    4  A    between atoms: C4_5  and  C5_6 
REMARK    5  A    between atoms: C7_8  and  C8_10 
REMARK    6  A    between atoms: C8_10  and  N2_11 
REMARK       I    between atoms: N2_11  and  C9_13 
REMARK    7  A    between atoms: C9_13  and  C10_15 
REMARK    8  A    between atoms: C10_15  and  N3_16 
REMARK    9  A    between atoms: C11_17  and  S1_18 
REMARK   10  A    between atoms: S1_18  and  C12_19 
REMARK   11  A    between atoms: C12_19  and  C13_20 
REMARK       I    between atoms: C13_20  and  N4_22 
REMARK   12  A    between atoms: N4_22  and  C14_24 
REMARK   13  A    between atoms: C17_34  and  C18_35 
ROOT
HETATM    1  N3  UNL     1      -2.167  -0.230  -0.285  1.00  0.00    -0.302 N 
HETATM    2  C11 UNL     1      -2.957   0.579   0.504  1.00  0.00     0.163 A 
HETATM    3  N6  UNL     1      -3.751  -0.220   1.209  1.00  0.00    -0.278 N 
ATOM      4  H6  UNL     1      -4.449   0.091   1.885  1.00  0.00     0.189 HD
HETATM    5  N7  UNL     1      -3.505  -1.437   0.910  1.00  0.00    -0.283 N 
ATOM      6  H7  UNL     1      -3.974  -2.250   1.310  1.00  0.00     0.188 HD
HETATM    7  C17 UNL     1      -2.504  -1.479  -0.039  1.00  0.00     0.135 A 
ENDROOT
BRANCH   1   8
HETATM    8  C10 UNL     1      -1.150   0.353  -1.108  1.00  0.00     0.235 C 
BRANCH   8   9
HETATM    9  C9  UNL     1       0.151   0.471  -0.398  1.00  0.00     0.236 C 
HETATM   10  N2  UNL     1       1.092  -0.571  -0.535  1.00  0.00    -0.351 N 
ATOM     11  H2  UNL     1       0.839  -1.371  -1.115  1.00  0.00     0.163 HD
HETATM   12  O2  UNL     1       0.395   1.467   0.298  1.00  0.00    -0.272 OA
BRANCH  10  13
HETATM   13  C8  UNL     1       2.394  -0.575   0.096  1.00  0.00     0.225 C 
BRANCH  13  14
HETATM   14  C7  UNL     1       3.266   0.538  -0.333  1.00  0.00     0.238 C 
HETATM   15  N1  UNL     1       4.577   0.775   0.131  1.00  0.00    -0.344 N 
HETATM   16  O1  UNL     1       2.783   1.348  -1.198  1.00  0.00    -0.272 OA
BRANCH  15  17
HETATM   17  C3  UNL     1       5.343   1.905  -0.367  1.00  0.00     0.152 C 
BRANCH  17  18
HETATM   18  C2  UNL     1       6.133   1.522  -1.577  1.00  0.00    -0.017 C 
HETATM   19  C1  UNL     1       6.060   0.285  -2.037  1.00  0.00     0.008 C 
ENDBRANCH  17  18
ENDBRANCH  15  17
BRANCH  15  20
HETATM   20  C4  UNL     1       5.205  -0.068   1.102  1.00  0.00     0.152 C 
BRANCH  20  21
HETATM   21  C5  UNL     1       5.008   0.347   2.508  1.00  0.00    -0.017 C 
HETATM   22  C6  UNL     1       4.430  -0.410   3.431  1.00  0.00     0.008 C 
ENDBRANCH  20  21
ENDBRANCH  15  20
ENDBRANCH  13  14
ENDBRANCH  10  13
ENDBRANCH   8   9
ENDBRANCH   1   8
BRANCH   2  23
HETATM   23  S1  UNL     1      -2.963   2.356   0.608  1.00  0.00    -0.083 SA
BRANCH  23  24
HETATM   24  C12 UNL     1      -4.133   3.057  -0.611  1.00  0.00     0.185 C 
BRANCH  24  25
HETATM   25  C13 UNL     1      -4.166   4.518  -0.542  1.00  0.00     0.233 C 
HETATM   26  O3  UNL     1      -4.931   5.127  -1.333  1.00  0.00    -0.272 OA
HETATM   27  N4  UNL     1      -3.337   5.185   0.410  1.00  0.00    -0.306 N 
ATOM     28  H4  UNL     1      -2.348   4.965   0.525  1.00  0.00     0.171 HD
BRANCH  27  29
HETATM   29  C14 UNL     1      -3.946   6.107   1.129  1.00  0.00     0.150 A 
HETATM   30  N5  UNL     1      -3.412   6.871   2.080  1.00  0.00    -0.346 N 
HETATM   31  C15 UNL     1      -4.168   7.735   2.690  1.00  0.00     0.097 A 
ATOM     32  H5  UNL     1      -2.426   6.780   2.326  1.00  0.00     0.167 HD
HETATM   33  C16 UNL     1      -5.485   7.809   2.315  1.00  0.00     0.070 A 
HETATM   34  S2  UNL     1      -5.573   6.622   1.092  1.00  0.00    -0.064 SA
ENDBRANCH  27  29
ENDBRANCH  24  25
ENDBRANCH  23  24
ENDBRANCH   2  23
BRANCH   7  35
HETATM   35  C18 UNL     1      -1.949  -2.739  -0.525  1.00  0.00     0.016 A 
HETATM   36  C19 UNL     1      -1.508  -3.608   0.483  1.00  0.00     0.023 A 
HETATM   37  C20 UNL     1      -1.016  -4.867   0.238  1.00  0.00    -0.055 A 
HETATM   38  C21 UNL     1      -0.556  -5.775   1.328  1.00  0.00     0.049 C 
HETATM   39  C22 UNL     1      -0.964  -5.269  -1.078  1.00  0.00    -0.056 A 
HETATM   40  C23 UNL     1      -0.432  -6.630  -1.363  1.00  0.00     0.049 C 
HETATM   41  C24 UNL     1      -1.394  -4.428  -2.074  1.00  0.00     0.015 A 
HETATM   42  C25 UNL     1      -1.899  -3.139  -1.818  1.00  0.00    -0.048 A 
HETATM   43  C26 UNL     1      -2.419  -2.342  -2.980  1.00  0.00     0.049 C 
ENDBRANCH   7  35
TORSDOF 13
