REMARK  8 active torsions:
REMARK  status: ('A' for Active; 'I' for Inactive)
REMARK    1  A    between atoms: N1_2  and  C3_4 
REMARK    2  A    between atoms: C3_4  and  C4_5 
REMARK    3  A    between atoms: C4_5  and  N2_6 
REMARK    4  A    between atoms: N2_6  and  N3_8 
REMARK    5  A    between atoms: N3_8  and  C5_10 
REMARK    6  A    between atoms: C9_23  and  N9_24 
REMARK    7  A    between atoms: C10_29  and  N11_30 
REMARK    8  A    between atoms: N11_30  and  N12_31 
ROOT
HETATM    1  C5  UNL     1      -0.981  -1.128   0.479  1.00  0.00     0.154 A 
HETATM    2  N4  UNL     1      -0.571  -2.229   1.109  1.00  0.00    -0.313 N 
ATOM      3  H4  UNL     1       0.354  -2.599   0.890  1.00  0.00     0.170 HD
HETATM    4  C6  UNL     1      -1.321  -2.873   2.019  1.00  0.00     0.195 A 
HETATM    5  N5  UNL     1      -0.879  -4.052   2.657  1.00  0.00    -0.063 NA
HETATM    6  N6  UNL     1      -2.525  -2.378   2.314  1.00  0.00    -0.314 N 
ATOM      7  H6  UNL     1      -3.088  -2.859   3.016  1.00  0.00     0.170 HD
HETATM    8  C7  UNL     1      -3.031  -1.279   1.733  1.00  0.00     0.155 A 
HETATM    9  N7  UNL     1      -4.163  -0.569   1.953  1.00  0.00    -0.173 N 
ATOM     10  H7  UNL     1      -4.915  -0.800   2.603  1.00  0.00     0.186 HD
HETATM   11  C8  UNL     1      -4.096   0.504   1.141  1.00  0.00     0.709 A 
HETATM   12  N8  UNL     1      -4.982   1.502   0.997  1.00  0.00    -0.022 N 
ATOM     13  H8  UNL     1      -5.831   1.503   1.562  1.00  0.00     0.203 HD
HETATM   14  C9  UNL     1      -4.770   2.509   0.115  1.00  0.00     0.694 A 
HETATM   15  N10 UNL     1      -3.649   2.474  -0.623  1.00  0.00    -0.146 N 
ATOM     16  H10 UNL     1      -3.476   3.219  -1.298  1.00  0.00     0.188 HD
HETATM   17  C10 UNL     1      -2.711   1.443  -0.491  1.00  0.00     0.316 A 
HETATM   18  N13 UNL     1      -2.931   0.460   0.410  1.00  0.00    -0.093 N 
HETATM   19  C11 UNL     1      -2.245  -0.615   0.763  1.00  0.00     0.151 A 
ENDROOT
BRANCH   1  20
HETATM   20  N3  UNL     1      -0.073  -0.353   0.010  1.00  0.00    -0.284 N 
ATOM     21  H3  UNL     1      -0.418   0.472  -0.481  1.00  0.00     0.188 HD
BRANCH  20  22
HETATM   22  N2  UNL     1       1.249  -0.463   0.067  1.00  0.00    -0.309 N 
ATOM     23  H2  UNL     1       1.584  -0.950   0.898  1.00  0.00     0.186 HD
BRANCH  22  24
HETATM   24  C4  UNL     1       2.178  -0.081  -0.709  1.00  0.00     0.118 C 
BRANCH  24  25
HETATM   25  C3  UNL     1       3.607  -0.397  -0.284  1.00  0.00     0.077 C 
BRANCH  25  26
HETATM   26  N1  UNL     1       4.600   0.437  -0.834  1.00  0.00    -0.300 NA
HETATM   27  C1  UNL     1       5.892   0.277  -0.110  1.00  0.00     0.115 C 
HETATM   28  C2  UNL     1       4.850   0.328  -2.244  1.00  0.00     0.115 C 
ENDBRANCH  25  26
ENDBRANCH  24  25
ENDBRANCH  22  24
ENDBRANCH  20  22
ENDBRANCH   1  20
BRANCH  17  29
HETATM   29  N11 UNL     1      -1.877   1.430  -1.380  1.00  0.00    -0.293 NA
BRANCH  29  30
HETATM   30  N12 UNL     1      -0.988   1.400  -2.309  1.00  0.00    -0.277 N 
ATOM     31 2H12 UNL     1      -1.251   0.907  -1.455  1.00  0.00     0.191 HD
ATOM     32 1H12 UNL     1      -0.290   1.389  -3.053  1.00  0.00     0.191 HD
ENDBRANCH  29  30
ENDBRANCH  17  29
BRANCH  14  33
HETATM   33  N9  UNL     1      -5.614   3.449  -0.005  1.00  0.00    -0.234 N 
ATOM     34  H92 UNL     1      -6.466   3.476   0.556  1.00  0.00     0.174 HD
ATOM     35  H91 UNL     1      -5.454   4.207  -0.669  1.00  0.00     0.174 HD
ENDBRANCH  14  33
TORSDOF 8
