REMARK  8 active torsions:
REMARK  status: ('A' for Active; 'I' for Inactive)
REMARK    1  A    between atoms: C3_3  and  C4_4 
REMARK    2  A    between atoms: C4_4  and  C5_6 
REMARK    3  A    between atoms: N1_10  and  N2_11 
REMARK    4  A    between atoms: C8_12  and  O2_13 
REMARK    5  A    between atoms: C9_15  and  C10_16 
REMARK       I    between atoms: C10_16  and  N3_18 
REMARK    6  A    between atoms: N3_18  and  N4_20 
REMARK    7  A    between atoms: N5_23  and  N6_24 
REMARK    8  A    between atoms: C11_27  and  N7_28 
ROOT
HETATM    1  C1  UNL     1      -6.001   0.201  -1.837  1.00  0.00     0.012 C 
HETATM    2  C2  UNL     1      -5.070  -0.435  -1.404  1.00  0.00    -0.110 C 
HETATM    3  C3  UNL     1      -3.964  -1.229  -0.847  1.00  0.00     0.174 C 
ENDROOT
BRANCH   3   4
HETATM    4  C4  UNL     1      -2.797  -0.352  -0.623  1.00  0.00     0.171 C 
HETATM    5  O1  UNL     1      -2.379   0.382  -1.478  1.00  0.00    -0.294 OA
BRANCH   4   6
HETATM    6  C5  UNL     1      -2.134  -0.390   0.714  1.00  0.00     0.234 C 
HETATM    7  S1  UNL     1      -3.279   0.665   1.757  1.00  0.00    -0.133 SA
HETATM    8  C6  UNL     1      -2.439   2.236   1.227  1.00  0.00     0.098 C 
HETATM    9  C7  UNL     1      -1.030   1.704   1.310  1.00  0.00     0.156 C 
HETATM   10  N1  UNL     1      -0.930   0.388   0.775  1.00  0.00    -0.282 N 
BRANCH  10  11
HETATM   11  N2  UNL     1       0.310  -0.167   0.324  1.00  0.00    -0.060 N 
HETATM   12  C8  UNL     1       1.516   0.425   0.350  1.00  0.00     0.215 A 
HETATM   13  C9  UNL     1       2.502  -0.405  -0.169  1.00  0.00     0.196 A 
HETATM   14  N5  UNL     1       1.820  -1.542  -0.513  1.00  0.00    -0.082 N 
HETATM   15  C11 UNL     1       0.524  -1.380  -0.212  1.00  0.00     0.721 A 
BRANCH  12  16
HETATM   16  O2  UNL     1       1.807   1.717   0.830  1.00  0.00    -0.343 OA
ATOM     17  H2  UNL     1       2.660   2.136   0.848  1.00  0.00     0.219 HD
ENDBRANCH  12  16
BRANCH  13  18
HETATM   18  C10 UNL     1       3.919  -0.173  -0.329  1.00  0.00     0.293 C 
HETATM   19  O3  UNL     1       4.621  -1.112  -0.842  1.00  0.00    -0.264 OA
HETATM   20  N3  UNL     1       4.615   0.993   0.024  1.00  0.00    -0.271 N 
ATOM     21  H3  UNL     1       4.099   1.771   0.435  1.00  0.00     0.189 HD
BRANCH  20  22
HETATM   22  N4  UNL     1       6.011   1.124  -0.172  1.00  0.00    -0.342 N 
ATOM     23  H42 UNL     1       6.512   0.337  -0.584  1.00  0.00     0.176 HD
ATOM     24  H41 UNL     1       6.517   1.972   0.085  1.00  0.00     0.176 HD
ENDBRANCH  20  22
ENDBRANCH  13  18
BRANCH  14  25
HETATM   25  N6  UNL     1       2.447  -2.662  -1.097  1.00  0.00    -0.323 N 
ATOM     26  H62 UNL     1       3.433  -2.785  -1.326  1.00  0.00     0.178 HD
ATOM     27  H61 UNL     1       1.939  -3.509  -1.353  1.00  0.00     0.178 HD
ENDBRANCH  14  25
BRANCH  15  28
HETATM   28  N7  UNL     1      -0.339  -2.323  -0.437  1.00  0.00    -0.231 N 
ATOM     29  H72 UNL     1      -1.325  -2.200  -0.208  1.00  0.00     0.174 HD
ATOM     30  H71 UNL     1      -0.177  -3.244  -0.844  1.00  0.00     0.174 HD
ENDBRANCH  15  28
ENDBRANCH  10  11
ENDBRANCH   4   6
ENDBRANCH   3   4
TORSDOF 8
