REMARK  12 active torsions:
REMARK  status: ('A' for Active; 'I' for Inactive)
REMARK    1  A    between atoms: C2_2  and  C3_4 
REMARK    2  A    between atoms: C4_6  and  C5_7 
REMARK    3  A    between atoms: C5_7  and  O1_8 
REMARK    4  A    between atoms: O1_8  and  C6_9 
REMARK    5  A    between atoms: C7_10  and  N1_11 
REMARK       I    between atoms: N1_11  and  C8_13 
REMARK    6  A    between atoms: C8_13  and  C9_15 
REMARK    7  A    between atoms: C9_15  and  C12_18 
REMARK    8  A    between atoms: C12_18  and  C13_19 
REMARK    9  A    between atoms: C13_19  and  N2_20 
REMARK   10  A    between atoms: C18_25  and  O3_26 
REMARK   11  A    between atoms: C19_28  and  O4_29 
REMARK   12  A    between atoms: C21_34  and  C22_35 
ROOT
HETATM    1  C6  UNL     1      -2.254  -1.258  -0.542  1.00  0.00     0.128 A 
HETATM    2  C7  UNL     1      -0.999  -1.528  -0.855  1.00  0.00     0.107 A 
HETATM    3  C18 UNL     1      -0.635  -2.855  -1.373  1.00  0.00     0.131 A 
HETATM    4  C19 UNL     1      -1.577  -3.826  -1.536  1.00  0.00     0.130 A 
HETATM    5  C20 UNL     1      -2.892  -3.545  -1.203  1.00  0.00     0.100 A 
HETATM    6  N3  UNL     1      -3.995  -4.319  -1.242  1.00  0.00    -0.334 N 
ATOM      7  H3  UNL     1      -4.040  -5.289  -1.555  1.00  0.00     0.167 HD
HETATM    8  C21 UNL     1      -5.024  -3.582  -0.795  1.00  0.00     0.191 A 
HETATM    9  N4  UNL     1      -4.518  -2.366  -0.489  1.00  0.00    -0.334 N 
ATOM     10  H4  UNL     1      -5.063  -1.586  -0.123  1.00  0.00     0.167 HD
HETATM   11  C23 UNL     1      -3.203  -2.328  -0.733  1.00  0.00     0.100 A 
ENDROOT
BRANCH   2  12
HETATM   12  N1  UNL     1       0.175  -0.823  -0.596  1.00  0.00    -0.321 N 
HETATM   13  C8  UNL     1       1.057  -0.036  -1.286  1.00  0.00     0.234 C 
HETATM   14  O2  UNL     1       0.817   0.326  -2.470  1.00  0.00    -0.272 OA
ATOM     15  H1  UNL     1       0.455  -0.921   0.380  1.00  0.00     0.169 HD
BRANCH  13  16
HETATM   16  C9  UNL     1       2.371   0.408  -0.684  1.00  0.00     0.053 C 
HETATM   17  C10 UNL     1       3.316   0.561  -1.911  1.00  0.00     0.029 C 
HETATM   18  C11 UNL     1       2.813  -0.745   0.202  1.00  0.00     0.029 C 
BRANCH  16  19
HETATM   19  C12 UNL     1       2.483   1.619   0.055  1.00  0.00     0.008 C 
BRANCH  19  20
HETATM   20  C13 UNL     1       3.625   2.117   0.487  1.00  0.00     0.082 C 
BRANCH  20  21
HETATM   21  N2  UNL     1       4.952   1.727   0.412  1.00  0.00    -0.390 N 
HETATM   22  C14 UNL     1       5.710   0.628   0.892  1.00  0.00     0.122 C 
HETATM   23  C15 UNL     1       6.884   1.311   1.619  1.00  0.00     0.021 C 
HETATM   24  C16 UNL     1       7.159   2.489   0.710  1.00  0.00     0.021 C 
HETATM   25  C17 UNL     1       6.010   2.536  -0.299  1.00  0.00     0.122 C 
ENDBRANCH  20  21
ENDBRANCH  19  20
ENDBRANCH  16  19
ENDBRANCH  13  16
ENDBRANCH   2  12
BRANCH   1  26
HETATM   26  O1  UNL     1      -2.808  -0.132  -0.081  1.00  0.00    -0.343 OA
BRANCH  26  27
HETATM   27  C5  UNL     1      -2.821   0.537   1.116  1.00  0.00     0.204 C 
BRANCH  27  28
HETATM   28  C4  UNL     1      -4.100   1.237   1.327  1.00  0.00     0.020 C 
HETATM   29  C3  UNL     1      -4.352   2.481   1.478  1.00  0.00     0.028 C 
HETATM   30 CL2  UNL     1      -3.055   3.699   1.444  1.00  0.00    -0.088 Cl
BRANCH  29  31
HETATM   31  C2  UNL     1      -5.753   2.930   1.703  1.00  0.00     0.122 C 
HETATM   32  C1  UNL     1      -6.042   4.332   1.361  1.00  0.00     0.032 C 
HETATM   33 CL1  UNL     1      -6.043   2.732   3.469  1.00  0.00    -0.119 Cl
ENDBRANCH  29  31
ENDBRANCH  27  28
ENDBRANCH  26  27
ENDBRANCH   1  26
BRANCH   3  34
HETATM   34  O3  UNL     1       0.683  -3.048  -1.678  1.00  0.00    -0.356 OA
ATOM     35  H3  UNL     1       0.918  -3.905  -2.013  1.00  0.00     0.218 HD
ENDBRANCH   3  34
BRANCH   4  36
HETATM   36  O4  UNL     1      -1.222  -5.082  -2.012  1.00  0.00    -0.356 OA
ATOM     37  H4  UNL     1      -1.879  -5.759  -2.126  1.00  0.00     0.218 HD
ENDBRANCH   4  36
BRANCH   8  38
HETATM   38  C22 UNL     1      -6.443  -4.018  -0.592  1.00  0.00     0.449 C 
HETATM   39  F1  UNL     1      -6.435  -5.405  -0.759  1.00  0.00    -0.163 F 
HETATM   40  F2  UNL     1      -7.258  -3.480  -1.574  1.00  0.00    -0.163 F 
HETATM   41  F3  UNL     1      -6.835  -3.736   0.689  1.00  0.00    -0.163 F 
ENDBRANCH   8  38
TORSDOF 12
