REMARK  14 active torsions:
REMARK  status: ('A' for Active; 'I' for Inactive)
REMARK    1  A    between atoms: N1_2  and  C1_4 
REMARK    2  A    between atoms: C3_6  and  C4_7 
REMARK    3  A    between atoms: C4_7  and  C5_8 
REMARK    4  A    between atoms: C5_8  and  C6_9 
REMARK    5  A    between atoms: C6_9  and  C7_10 
REMARK    6  A    between atoms: C7_10  and  C8_11 
REMARK    7  A    between atoms: C8_11  and  C9_12 
REMARK    8  A    between atoms: C9_12  and  C10_13 
REMARK    9  A    between atoms: C10_13  and  C11_14 
REMARK   10  A    between atoms: C11_14  and  C12_15 
REMARK   11  A    between atoms: C12_15  and  N2_16 
REMARK   12  A    between atoms: N2_16  and  C13_19 
REMARK   13  A    between atoms: C13_19  and  C14_20 
REMARK   14  A    between atoms: C19_25  and  C20_26 
ROOT
HETATM    1  N2  UNL     1      -1.355  -0.824   0.031  1.00  0.00    -0.071 N 
ATOM      2  H21 UNL     1      -1.264   0.190  -0.031  1.00  0.00     0.277 HD
ATOM      3  H22 UNL     1      -1.935  -0.875   0.868  1.00  0.00     0.277 HD
ENDROOT
BRANCH   1   4
HETATM    4  C12 UNL     1      -0.055  -1.476   0.229  1.00  0.00     0.232 C 
BRANCH   4   5
HETATM    5  C11 UNL     1       0.592  -0.889   1.464  1.00  0.00     0.027 C 
BRANCH   5   6
HETATM    6  C10 UNL     1       1.932  -1.473   1.776  1.00  0.00     0.002 C 
BRANCH   6   7
HETATM    7  C9  UNL     1       2.897  -1.229   0.634  1.00  0.00     0.000 C 
BRANCH   7   8
HETATM    8  C8  UNL     1       4.266  -1.797   0.902  1.00  0.00     0.000 C 
BRANCH   8   9
HETATM    9  C7  UNL     1       4.911  -1.229   2.122  1.00  0.00     0.000 C 
BRANCH   9  10
HETATM   10  C6  UNL     1       5.108   0.250   2.088  1.00  0.00     0.000 C 
BRANCH  10  11
HETATM   11  C5  UNL     1       5.971   0.753   0.973  1.00  0.00     0.006 C 
BRANCH  11  12
HETATM   12  C4  UNL     1       7.369   0.174   1.019  1.00  0.00     0.059 C 
BRANCH  12  13
HETATM   13  C3  UNL     1       8.201   0.708  -0.096  1.00  0.00     0.029 A 
HETATM   14  C2  UNL     1       9.506   0.398  -0.362  1.00  0.00     0.082 A 
HETATM   15  C1  UNL     1       9.896   1.115  -1.477  1.00  0.00     0.190 A 
HETATM   16  N5  UNL     1       8.804   1.830  -1.837  1.00  0.00    -0.280 N 
HETATM   17  N4  UNL     1       7.806   1.596  -1.031  1.00  0.00    -0.303 N 
ATOM     18  H5  UNL     1       8.767   2.467  -2.633  1.00  0.00     0.188 HD
ATOM     19  H4  UNL     1       6.879   2.016  -1.097  1.00  0.00     0.186 HD
BRANCH  15  20
HETATM   20  N1  UNL     1      11.161   1.117  -2.123  1.00  0.00    -0.097 N 
HETATM   21  O1  UNL     1      11.326   1.834  -3.122  1.00  0.00    -0.530 OA
HETATM   22  O2  UNL     1      12.177   0.350  -1.660  1.00  0.00    -0.530 OA
ENDBRANCH  15  20
ENDBRANCH  12  13
ENDBRANCH  11  12
ENDBRANCH  10  11
ENDBRANCH   9  10
ENDBRANCH   8   9
ENDBRANCH   7   8
ENDBRANCH   6   7
ENDBRANCH   5   6
ENDBRANCH   4   5
ENDBRANCH   1   4
BRANCH   1  23
HETATM   23  C13 UNL     1      -2.032  -1.375  -1.127  1.00  0.00     0.270 C 
BRANCH  23  24
HETATM   24  C14 UNL     1      -3.329  -0.729  -1.349  1.00  0.00    -0.031 A 
HETATM   25  C15 UNL     1      -3.530  -0.074  -2.553  1.00  0.00     0.010 A 
HETATM   26  C16 UNL     1      -4.754   0.531  -2.742  1.00  0.00     0.014 A 
HETATM   27  C17 UNL     1      -5.737   0.489  -1.778  1.00  0.00    -0.007 A 
HETATM   28  C18 UNL     1      -7.014   1.004  -1.728  1.00  0.00     0.044 A 
HETATM   29  C26 UNL     1      -5.533  -0.171  -0.566  1.00  0.00     0.043 A 
HETATM   30  C19 UNL     1      -7.552   0.657  -0.512  1.00  0.00     0.043 A 
HETATM   31  N3  UNL     1      -6.648  -0.056   0.188  1.00  0.00    -0.355 N 
ATOM     32  H3  UNL     1      -6.782  -0.441   1.123  1.00  0.00     0.166 HD
HETATM   33  C27 UNL     1      -4.304  -0.774  -0.386  1.00  0.00     0.039 A 
BRANCH  30  34
HETATM   34  C20 UNL     1      -8.909   1.030  -0.080  1.00  0.00    -0.009 A 
HETATM   35  C21 UNL     1      -9.735   1.761  -0.900  1.00  0.00     0.013 A 
HETATM   36  C22 UNL     1     -11.002   2.112  -0.502  1.00  0.00     0.001 A 
HETATM   37  C23 UNL     1     -11.426   1.712   0.744  1.00  0.00     0.000 A 
HETATM   38  C24 UNL     1     -10.614   0.970   1.602  1.00  0.00     0.001 A 
HETATM   39  C25 UNL     1      -9.349   0.639   1.163  1.00  0.00     0.013 A 
ENDBRANCH  30  34
ENDBRANCH  23  24
ENDBRANCH   1  23
TORSDOF 14
