REMARK  15 active torsions:
REMARK  status: ('A' for Active; 'I' for Inactive)
REMARK    1  A    between atoms: C2_2  and  N1_3 
REMARK    2  A    between atoms: N1_3  and  C3_6 
REMARK    3  A    between atoms: C3_6  and  C4_7 
REMARK    4  A    between atoms: C4_7  and  C5_8 
REMARK    5  A    between atoms: C5_8  and  N2_9 
REMARK    6  A    between atoms: N2_9  and  C6_10 
REMARK       I    between atoms: N2_9  and  C13_17 
REMARK    7  A    between atoms: C6_10  and  C7_11 
REMARK       I    between atoms: C13_17  and  N3_19 
REMARK    8  A    between atoms: N3_19  and  N4_21 
REMARK       I    between atoms: N4_21  and  C14_23 
REMARK    9  A    between atoms: C14_23  and  C15_25 
REMARK   10  A    between atoms: C16_26  and  O3_27 
REMARK   11  A    between atoms: C20_34  and  N6_35 
REMARK   12  A    between atoms: N6_35  and  C21_37 
REMARK   13  A    between atoms: C21_37  and  C22_38 
REMARK   14  A    between atoms: C22_38  and  C23_39 
REMARK   15  A    between atoms: C23_39  and  N7_40 
ROOT
HETATM    1  C15 UNL     1       2.140  -0.991  -0.097  1.00  0.00     0.111 A 
HETATM    2  C16 UNL     1       3.083  -0.457   0.744  1.00  0.00     0.107 A 
HETATM    3  C18 UNL     1       4.448  -0.387   0.443  1.00  0.00     0.111 A 
HETATM    4  C19 UNL     1       5.387   0.166   1.272  1.00  0.00     0.276 A 
HETATM    5  O4  UNL     1       5.073   0.640   2.371  1.00  0.00    -0.267 OA
HETATM    6  N5  UNL     1       6.673   0.207   0.903  1.00  0.00    -0.155 N 
ATOM      7  H5  UNL     1       7.370   0.618   1.524  1.00  0.00     0.187 HD
HETATM    8  C20 UNL     1       7.046  -0.298  -0.295  1.00  0.00     0.682 A 
HETATM    9  N8  UNL     1       6.132  -0.848  -1.130  1.00  0.00    -0.175 N 
ATOM     10  H8  UNL     1       6.439  -1.223  -2.028  1.00  0.00     0.186 HD
HETATM   11  C24 UNL     1       4.831  -0.910  -0.802  1.00  0.00     0.141 A 
HETATM   12  N9  UNL     1       3.926  -1.442  -1.640  1.00  0.00    -0.327 N 
ATOM     13  H9  UNL     1       4.237  -1.817  -2.536  1.00  0.00     0.169 HD
HETATM   14  C25 UNL     1       2.626  -1.492  -1.326  1.00  0.00     0.119 A 
HETATM   15  N10 UNL     1       1.792  -2.008  -2.158  1.00  0.00    -0.385 N 
ATOM     16 1H10 UNL     1       2.143  -2.370  -3.045  1.00  0.00     0.157 HD
ATOM     17 2H10 UNL     1       0.801  -2.046  -1.919  1.00  0.00     0.157 HD
ENDROOT
BRANCH   1  18
HETATM   18  C14 UNL     1       0.713  -0.998   0.129  1.00  0.00     0.276 C 
HETATM   19  N4  UNL     1      -0.048  -0.240   1.005  1.00  0.00    -0.262 N 
ATOM     20  H4  UNL     1       0.407   0.445   1.608  1.00  0.00     0.190 HD
HETATM   21  O2  UNL     1       0.046  -1.835  -0.599  1.00  0.00    -0.266 OA
BRANCH  19  22
HETATM   22  N3  UNL     1      -1.446  -0.408   1.069  1.00  0.00    -0.249 N 
HETATM   23  C13 UNL     1      -2.324   0.697   1.141  1.00  0.00     0.337 C 
HETATM   24  N2  UNL     1      -3.722   0.479   1.205  1.00  0.00    -0.333 N 
HETATM   25  O1  UNL     1      -1.830   1.872   1.146  1.00  0.00    -0.245 OA
ATOM     26  H3  UNL     1      -1.834  -1.351   1.063  1.00  0.00     0.192 HD
BRANCH  24  27
HETATM   27  C5  UNL     1      -4.231  -0.866   1.265  1.00  0.00     0.129 C 
BRANCH  27  28
HETATM   28  C4  UNL     1      -4.433  -1.545  -0.045  1.00  0.00     0.047 C 
BRANCH  28  29
HETATM   29  C3  UNL     1      -4.962  -2.958   0.114  1.00  0.00     0.234 C 
BRANCH  29  30
HETATM   30  N1  UNL     1      -6.228  -3.003   0.785  1.00  0.00    -0.075 N 
ATOM     31  H12 UNL     1      -6.934  -2.413   0.345  1.00  0.00     0.277 HD
ATOM     32  H11 UNL     1      -6.215  -2.538   1.693  1.00  0.00     0.277 HD
BRANCH  30  33
HETATM   33  C2  UNL     1      -6.624  -4.401   0.867  1.00  0.00     0.228 C 
HETATM   34  C1  UNL     1      -7.962  -4.566   1.559  1.00  0.00     0.034 C 
ENDBRANCH  30  33
ENDBRANCH  29  30
ENDBRANCH  28  29
ENDBRANCH  27  28
ENDBRANCH  24  27
BRANCH  24  35
HETATM   35  C6  UNL     1      -4.606   1.604   1.234  1.00  0.00     0.132 C 
BRANCH  35  36
HETATM   36  C7  UNL     1      -5.097   2.062  -0.100  1.00  0.00     0.004 C 
HETATM   37  C8  UNL     1      -4.018   2.486  -1.063  1.00  0.00     0.006 C 
HETATM   38  C9  UNL     1      -4.656   3.047  -2.345  1.00  0.00     0.000 C 
HETATM   39  C10 UNL     1      -5.251   4.374  -1.971  1.00  0.00     0.000 C 
HETATM   40  C11 UNL     1      -5.741   4.441  -0.576  1.00  0.00     0.000 C 
HETATM   41  C12 UNL     1      -6.147   3.146   0.055  1.00  0.00     0.006 C 
ENDBRANCH  35  36
ENDBRANCH  24  35
ENDBRANCH  19  22
ENDBRANCH   1  18
BRANCH   2  42
HETATM   42  O3  UNL     1       2.677   0.040   1.978  1.00  0.00    -0.354 OA
HETATM   43  C17 UNL     1       2.689  -0.935   3.046  1.00  0.00     0.210 C 
ENDBRANCH   2  42
BRANCH   8  44
HETATM   44  N6  UNL     1       8.265  -0.261  -0.648  1.00  0.00    -0.226 N 
ATOM     45  H6  UNL     1       8.538  -0.646  -1.552  1.00  0.00     0.177 HD
BRANCH  44  46
HETATM   46  C21 UNL     1       9.261   0.312   0.204  1.00  0.00     0.139 C 
BRANCH  46  47
HETATM   47  C22 UNL     1      10.623   0.225  -0.454  1.00  0.00     0.047 C 
BRANCH  47  48
HETATM   48  C23 UNL     1      10.662   0.956  -1.767  1.00  0.00     0.231 C 
BRANCH  48  49
HETATM   49  N7  UNL     1      10.361   2.364  -1.626  1.00  0.00    -0.079 N 
ATOM     50  H73 UNL     1       9.467   2.503  -1.155  1.00  0.00     0.274 HD
ATOM     51  H72 UNL     1      10.977   2.804  -0.942  1.00  0.00     0.274 HD
ATOM     52  H71 UNL     1      10.387   2.860  -2.517  1.00  0.00     0.274 HD
ENDBRANCH  48  49
ENDBRANCH  47  48
ENDBRANCH  46  47
ENDBRANCH  44  46
ENDBRANCH   8  44
TORSDOF 15
