REMARK  3 active torsions:
REMARK  status: ('A' for Active; 'I' for Inactive)
REMARK    1  A    between atoms: N1_1  and  S1_4 
REMARK    2  A    between atoms: S1_4  and  N2_7 
REMARK       I    between atoms: N2_7  and  C1_9 
REMARK       I    between atoms: C1_9  and  N3_11 
REMARK    3  A    between atoms: N3_11  and  C2_13 
ROOT
HETATM    1  N2  UNL     1      -1.416   1.275  -0.054  1.00  0.00    -0.218 N 
ATOM      2  H2  UNL     1      -1.124   2.229   0.158  1.00  0.00     0.185 HD
HETATM    3  C1  UNL     1      -0.436   0.268  -0.322  1.00  0.00     0.349 C 
HETATM    4  O3  UNL     1      -0.738  -0.912  -0.590  1.00  0.00    -0.245 OA
HETATM    5  N3  UNL     1       0.906   0.645  -0.277  1.00  0.00    -0.138 N 
ATOM      6  H3  UNL     1       1.105   1.645  -0.235  1.00  0.00     0.189 HD
ENDROOT
BRANCH   1   7
HETATM    7  S1  UNL     1      -3.092   0.872  -0.090  1.00  0.00     0.320 S 
HETATM    8  O1  UNL     1      -3.685   1.315   1.235  1.00  0.00    -0.183 OA
HETATM    9  O2  UNL     1      -3.772   1.571  -1.230  1.00  0.00    -0.183 OA
BRANCH   7  10
HETATM   10  N1  UNL     1      -3.371  -0.811  -0.246  1.00  0.00    -0.311 N 
ATOM     11  H12 UNL     1      -3.851  -1.396   0.438  1.00  0.00     0.170 HD
ATOM     12  H11 UNL     1      -2.972  -1.109  -1.136  1.00  0.00     0.170 HD
ENDBRANCH   7  10
ENDBRANCH   1   7
BRANCH   5  13
HETATM   13  C2  UNL     1       1.914  -0.149  -0.284  1.00  0.00     0.712 A 
HETATM   14  N4  UNL     1       1.901  -1.489  -0.339  1.00  0.00    -0.117 N 
HETATM   15  N5  UNL     1       3.160  -1.918  -0.320  1.00  0.00     0.006 NA
ATOM     16  H4  UNL     1       1.069  -2.078  -0.387  1.00  0.00     0.202 HD
HETATM   17  N6  UNL     1       3.984  -0.887  -0.255  1.00  0.00     0.006 NA
HETATM   18  N7  UNL     1       3.217   0.191  -0.234  1.00  0.00    -0.117 N 
ATOM     19  H7  UNL     1       3.565   1.149  -0.186  1.00  0.00     0.202 HD
ENDBRANCH   5  13
TORSDOF 3
