REMARK  3 active torsions:
REMARK  status: ('A' for Active; 'I' for Inactive)
REMARK    1  A    between atoms: N1_2  and  C2_4 
REMARK    2  A    between atoms: C3_9  and  N4_10 
REMARK    3  A    between atoms: N4_10  and  N5_12 
ROOT
HETATM    1  C2  UNL     1      -1.101   0.610   0.443  1.00  0.00     0.186 A 
HETATM    2  N2  UNL     1      -0.509  -0.561   0.180  1.00  0.00    -0.267 N 
ATOM      3  H2  UNL     1      -1.079  -1.406   0.139  1.00  0.00     0.189 HD
HETATM    4  N3  UNL     1       0.802  -0.656  -0.030  1.00  0.00    -0.129 N 
ATOM      5  H3  UNL     1       1.239  -1.556  -0.230  1.00  0.00     0.205 HD
HETATM    6  C3  UNL     1       1.526   0.463   0.030  1.00  0.00     0.714 A 
HETATM    7  N6  UNL     1       0.980   1.658   0.290  1.00  0.00    -0.150 N 
ATOM      8  H6  UNL     1       1.565   2.493   0.328  1.00  0.00     0.188 HD
HETATM    9  C4  UNL     1      -0.341   1.748   0.500  1.00  0.00     0.304 A 
HETATM   10  O1  UNL     1      -0.880   2.883   0.750  1.00  0.00    -0.263 OA
ENDROOT
BRANCH   6  11
HETATM   11  N4  UNL     1       2.790   0.394  -0.169  1.00  0.00    -0.137 N 
ATOM     12  H4  UNL     1       3.359   1.239  -0.128  1.00  0.00     0.205 HD
BRANCH  11  13
HETATM   13  N5  UNL     1       3.386  -0.834  -0.441  1.00  0.00    -0.331 N 
ATOM     14  H52 UNL     1       2.802  -1.670  -0.478  1.00  0.00     0.177 HD
ATOM     15  H51 UNL     1       4.392  -0.889  -0.599  1.00  0.00     0.177 HD
ENDBRANCH  11  13
ENDBRANCH   6  11
BRANCH   1  16
HETATM   16  N1  UNL     1      -2.364   0.646   0.636  1.00  0.00    -0.375 N 
HETATM   17  C1  UNL     1      -3.164  -0.559   0.575  1.00  0.00     0.148 C 
ATOM     18  H1  UNL     1      -2.816   1.538   0.836  1.00  0.00     0.160 HD
ENDBRANCH   1  16
TORSDOF 3
