REMARK  4 active torsions:
REMARK  status: ('A' for Active; 'I' for Inactive)
REMARK    1  A    between atoms: N1_1  and  C1_4 
REMARK    2  A    between atoms: N5_16  and  C6_17 
REMARK    3  A    between atoms: C6_17  and  C7_18 
REMARK    4  A    between atoms: C7_18  and  C8_19 
ROOT
HETATM    1  C1  UNL     1       3.956  -0.326   0.237  1.00  0.00     0.134 A 
HETATM    2  N2  UNL     1       4.136   0.331  -0.916  1.00  0.00    -0.293 N 
ATOM      3  H2  UNL     1       5.066   0.403  -1.329  1.00  0.00     0.172 HD
HETATM    4  C2  UNL     1       3.075   0.895  -1.524  1.00  0.00     0.327 A 
HETATM    5  O1  UNL     1       3.293   1.501  -2.605  1.00  0.00    -0.247 OA
HETATM    6  N3  UNL     1       1.852   0.791  -0.966  1.00  0.00    -0.292 N 
ATOM      7  H3  UNL     1       1.057   1.222  -1.437  1.00  0.00     0.172 HD
HETATM    8  C3  UNL     1       1.644   0.134   0.198  1.00  0.00     0.143 A 
HETATM    9  C4  UNL     1       2.720  -0.450   0.834  1.00  0.00     0.122 A 
HETATM   10  N4  UNL     1       2.252  -1.033   1.954  1.00  0.00    -0.346 N 
ATOM     11  H4  UNL     1       2.821  -1.545   2.628  1.00  0.00     0.167 HD
HETATM   12  C5  UNL     1       0.925  -0.842   2.053  1.00  0.00     0.185 A 
HETATM   13  N5  UNL     1       0.578  -0.126   0.967  1.00  0.00    -0.327 N 
ENDROOT
BRANCH  13  14
HETATM   14  C6  UNL     1      -0.768   0.311   0.660  1.00  0.00     0.137 C 
BRANCH  14  15
HETATM   15  C7  UNL     1      -1.482  -0.717  -0.162  1.00  0.00     0.078 C 
BRANCH  15  16
HETATM   16  C8  UNL     1      -2.867  -0.209  -0.448  1.00  0.00     0.027 A 
HETATM   17  C9  UNL     1      -4.000  -0.400   0.298  1.00  0.00     0.114 A 
HETATM   18  N6  UNL     1      -5.019   0.225  -0.317  1.00  0.00    -0.360 N 
HETATM   19  C10 UNL     1      -4.550   0.799  -1.426  1.00  0.00     0.180 A 
ATOM     20  H6  UNL     1      -5.985   0.255   0.009  1.00  0.00     0.166 HD
HETATM   21  N7  UNL     1      -3.228   0.534  -1.508  1.00  0.00    -0.355 N 
ATOM     22  H7  UNL     1      -2.605   0.847  -2.253  1.00  0.00     0.166 HD
ENDBRANCH  15  16
ENDBRANCH  14  15
ENDBRANCH  13  14
BRANCH   1  23
HETATM   23  N1  UNL     1       4.955  -0.891   0.867  1.00  0.00    -0.383 N 
ATOM     24  H12 UNL     1       5.870  -0.799   0.425  1.00  0.00     0.157 HD
ATOM     25  H11 UNL     1       4.818  -1.391   1.745  1.00  0.00     0.157 HD
ENDBRANCH   1  23
TORSDOF 4
