REMARK  8 active torsions:
REMARK  status: ('A' for Active; 'I' for Inactive)
REMARK    1  A    between atoms: C2_2  and  C4_4 
REMARK    2  A    between atoms: C5_5  and  C6_6 
REMARK    3  A    between atoms: C6_6  and  O1_7 
REMARK    4  A    between atoms: C17_19  and  O2_20 
REMARK    5  A    between atoms: O2_20  and  C18_21 
REMARK       I    between atoms: C18_21  and  N1_23 
REMARK    6  A    between atoms: N1_23  and  C19_25 
REMARK    7  A    between atoms: C19_25  and  C20_26 
REMARK    8  A    between atoms: C20_26  and  N2_27 
ROOT
HETATM    1  C6  UNL     1      -4.825  -0.360  -0.868  1.00  0.00     0.128 C 
HETATM    2  C7  UNL     1      -4.767   0.580  -2.084  1.00  0.00     0.052 C 
HETATM    3  C8  UNL     1      -3.468   1.380  -1.888  1.00  0.00     0.010 C 
HETATM    4  C9  UNL     1      -2.689   0.334  -1.202  1.00  0.00     0.002 C 
HETATM    5  C10 UNL     1      -1.266   0.466  -0.972  1.00  0.00    -0.004 C 
HETATM    6  C11 UNL     1      -0.730   1.531  -0.107  1.00  0.00     0.006 C 
HETATM    7  C12 UNL     1       0.662   1.164   0.422  1.00  0.00     0.007 C 
HETATM    8  C13 UNL     1       1.347   0.190  -0.523  1.00  0.00     0.012 C 
HETATM    9  C14 UNL     1       2.807   0.118  -0.286  1.00  0.00    -0.016 C 
HETATM   10  C15 UNL     1       3.317   1.467   0.241  1.00  0.00     0.018 C 
HETATM   11  C16 UNL     1       3.527  -0.061  -1.627  1.00  0.00     0.018 C 
HETATM   12  C17 UNL     1       3.279  -0.918   0.657  1.00  0.00     0.148 C 
HETATM   13  C22 UNL     1       2.500  -2.164   0.770  1.00  0.00     0.112 C 
HETATM   14  C23 UNL     1       1.203  -2.225   0.112  1.00  0.00     0.138 C 
HETATM   15  O4  UNL     1       0.569  -3.249   0.208  1.00  0.00    -0.297 OA
HETATM   16  C24 UNL     1       0.641  -1.116  -0.652  1.00  0.00     0.025 C 
HETATM   17  C25 UNL     1       0.855  -1.539  -2.135  1.00  0.00     0.024 C 
HETATM   18  C26 UNL     1      -0.824  -0.944  -0.523  1.00  0.00     0.006 C 
HETATM   19  C27 UNL     1      -1.476  -1.123   0.788  1.00  0.00     0.007 C 
HETATM   20  C28 UNL     1      -2.983  -1.307   0.556  1.00  0.00     0.014 C 
HETATM   21  C29 UNL     1      -3.582  -0.063  -0.060  1.00  0.00     0.003 C 
HETATM   22  C30 UNL     1      -3.810   0.966   0.971  1.00  0.00     0.020 C 
ENDROOT
BRANCH  12  23
HETATM   23  O2  UNL     1       4.600  -1.283   0.224  1.00  0.00    -0.297 OA
BRANCH  23  24
HETATM   24  C18 UNL     1       5.736  -1.101   0.954  1.00  0.00     0.360 C 
HETATM   25  O3  UNL     1       5.671  -0.594   2.080  1.00  0.00    -0.239 OA
HETATM   26  N1  UNL     1       7.009  -1.503   0.403  1.00  0.00    -0.336 N 
ATOM     27  H1  UNL     1       7.034  -1.917  -0.529  1.00  0.00     0.164 HD
BRANCH  26  28
HETATM   28  C19 UNL     1       8.237  -1.340   1.119  1.00  0.00     0.142 C 
BRANCH  28  29
HETATM   29  C20 UNL     1       8.617   0.052   1.461  1.00  0.00     0.145 C 
BRANCH  29  30
HETATM   30  N2  UNL     1       8.863   0.959   0.394  1.00  0.00    -0.157 NA
HETATM   31  C21 UNL     1       7.720   1.350  -0.368  1.00  0.00     0.149 C 
HETATM   32  F1  UNL     1       9.451   2.063   0.887  1.00  0.00    -0.134 F 
ENDBRANCH  29  30
ENDBRANCH  28  29
ENDBRANCH  26  28
ENDBRANCH  23  24
ENDBRANCH  12  23
BRANCH   1  33
HETATM   33  C5  UNL     1      -6.049  -0.151  -0.116  1.00  0.00    -0.067 C 
HETATM   34  C4  UNL     1      -7.087   0.031   0.491  1.00  0.00    -0.099 C 
BRANCH  34  35
HETATM   35  C2  UNL     1      -8.350   0.281   1.223  1.00  0.00     0.057 C 
HETATM   36  C1  UNL     1      -8.239   1.572   2.014  1.00  0.00     0.023 C 
HETATM   37  C3  UNL     1      -9.492   0.495   0.223  1.00  0.00     0.023 C 
ENDBRANCH  34  35
ENDBRANCH   1  33
BRANCH   1  38
HETATM   38  O1  UNL     1      -4.782  -1.694  -1.251  1.00  0.00    -0.377 OA
ATOM     39  H1  UNL     1      -3.981  -1.831  -1.743  1.00  0.00     0.211 HD
ENDBRANCH   1  38
TORSDOF 8
