REMARK  15 active torsions:
REMARK  status: ('A' for Active; 'I' for Inactive)
REMARK    1  A    between atoms: C2_2  and  C3_3 
REMARK    2  A    between atoms: C3_3  and  N1_4 
REMARK    3  A    between atoms: C11_13  and  S1_14 
REMARK    4  A    between atoms: S1_14  and  C12_15 
REMARK    5  A    between atoms: C14_17  and  C15_18 
REMARK       I    between atoms: C15_18  and  N2_20 
REMARK    6  A    between atoms: N2_20  and  C17_22 
REMARK    7  A    between atoms: N3_25  and  C20_26 
REMARK    8  A    between atoms: C21_27  and  O3_28 
REMARK    9  A    between atoms: C21_27  and  N4_30 
REMARK   10  A    between atoms: C24_33  and  C25_34 
REMARK   11  A    between atoms: C25_34  and  C26_35 
REMARK   12  A    between atoms: C26_35  and  C27_36 
REMARK   13  A    between atoms: C27_36  and  C28_37 
REMARK   14  A    between atoms: C28_37  and  C29_38 
REMARK   15  A    between atoms: C29_38  and  C30_39 
ROOT
HETATM    1  C12 UNL     1      -1.179   0.199  -0.887  1.00  0.00     0.071 C 
HETATM    2  C13 UNL     1      -1.711  -0.882  -0.005  1.00  0.00     0.080 C 
HETATM    3  C14 UNL     1      -1.583  -2.102  -0.887  1.00  0.00     0.081 C 
HETATM    4  N3  UNL     1      -0.417  -1.939  -1.595  1.00  0.00    -0.350 N 
HETATM    5  C36 UNL     1      -0.292  -0.557  -1.899  1.00  0.00     0.144 C 
ENDROOT
BRANCH   4   6
HETATM    6  C20 UNL     1       0.520  -2.808  -2.023  1.00  0.00     0.146 C 
HETATM    7  C21 UNL     1       1.587  -3.496  -1.387  1.00  0.00     0.153 C 
BRANCH   7   8
HETATM    8  O3  UNL     1       2.193  -4.348  -2.201  1.00  0.00    -0.345 OA
ATOM      9  H3  UNL     1       2.907  -4.808  -1.775  1.00  0.00     0.219 HD
ENDBRANCH   7   8
BRANCH   7  10
HETATM   10  N4  UNL     1       2.171  -3.504  -0.121  1.00  0.00    -0.361 N 
HETATM   11  C22 UNL     1       1.855  -2.669   1.016  1.00  0.00     0.125 C 
HETATM   12  C23 UNL     1       3.028  -1.710   1.234  1.00  0.00     0.024 C 
HETATM   13  C24 UNL     1       4.333  -2.344   0.902  1.00  0.00    -0.012 C 
HETATM   14  C34 UNL     1       4.206  -3.821   1.218  1.00  0.00     0.024 C 
HETATM   15  C35 UNL     1       3.260  -4.479   0.207  1.00  0.00     0.125 C 
BRANCH  13  16
HETATM   16  C25 UNL     1       5.440  -1.750   1.694  1.00  0.00     0.005 C 
BRANCH  16  17
HETATM   17  C26 UNL     1       5.642  -0.263   1.464  1.00  0.00     0.000 C 
BRANCH  17  18
HETATM   18  C27 UNL     1       5.958   0.023   0.013  1.00  0.00     0.000 C 
BRANCH  18  19
HETATM   19  C28 UNL     1       6.183   1.494  -0.235  1.00  0.00     0.001 C 
BRANCH  19  20
HETATM   20  C29 UNL     1       7.342   2.033   0.565  1.00  0.00     0.015 C 
BRANCH  20  21
HETATM   21  C30 UNL     1       7.622   3.484   0.358  1.00  0.00     0.087 C 
HETATM   22  C31 UNL     1       7.953   3.771  -1.087  1.00  0.00     0.041 C 
HETATM   23  C32 UNL     1       9.348   3.182  -1.185  1.00  0.00     0.179 C 
HETATM   24  O4  UNL     1       9.885   3.307   0.132  1.00  0.00    -0.321 OA
HETATM   25  C33 UNL     1       8.936   3.783   1.013  1.00  0.00     0.263 C 
HETATM   26  O5  UNL     1       9.067   4.347   2.125  1.00  0.00    -0.265 OA
ENDBRANCH  20  21
ENDBRANCH  19  20
ENDBRANCH  18  19
ENDBRANCH  17  18
ENDBRANCH  16  17
ENDBRANCH  13  16
ENDBRANCH   7  10
ENDBRANCH   4   6
BRANCH   3  27
HETATM   27  C15 UNL     1      -1.959  -3.367  -0.321  1.00  0.00     0.266 C 
HETATM   28  O2  UNL     1      -1.130  -4.303  -0.260  1.00  0.00    -0.266 OA
HETATM   29  N2  UNL     1      -3.240  -3.637   0.186  1.00  0.00    -0.347 N 
HETATM   30  C16 UNL     1      -4.352  -2.711   0.186  1.00  0.00     0.153 C 
BRANCH  29  31
HETATM   31  C17 UNL     1      -3.499  -4.957   0.773  1.00  0.00     0.087 A 
HETATM   32  C18 UNL     1      -4.775  -5.670   0.474  1.00  0.00     0.027 A 
HETATM   33  C19 UNL     1      -4.434  -5.156   1.875  1.00  0.00     0.027 A 
ENDBRANCH  29  31
ENDBRANCH   3  27
BRANCH   1  34
HETATM   34  S1  UNL     1      -2.392   1.064  -1.785  1.00  0.00    -0.157 SA
BRANCH  34  35
HETATM   35  C11 UNL     1      -3.530   2.169  -1.047  1.00  0.00     0.061 C 
HETATM   36  C5  UNL     1      -4.614   1.445  -0.311  1.00  0.00     0.093 C 
HETATM   37  C4  UNL     1      -5.903   1.741  -1.067  1.00  0.00     0.225 C 
HETATM   38  C6  UNL     1      -4.911   1.961   1.053  1.00  0.00     0.040 C 
HETATM   39  N1  UNL     1      -6.720   2.505  -0.204  1.00  0.00    -0.344 N 
HETATM   40  O1  UNL     1      -6.135   1.352  -2.232  1.00  0.00    -0.273 OA
HETATM   41  C7  UNL     1      -5.829   3.139   0.789  1.00  0.00     0.088 C 
HETATM   42  C8  UNL     1      -5.118   4.258   0.063  1.00  0.00     0.025 C 
HETATM   43  C9  UNL     1      -3.657   4.298   0.330  1.00  0.00     0.003 C 
HETATM   44  C10 UNL     1      -2.843   3.166  -0.115  1.00  0.00     0.016 C 
BRANCH  39  45
HETATM   45  C3  UNL     1      -8.141   2.650  -0.265  1.00  0.00     0.152 C 
BRANCH  45  46
HETATM   46  C2  UNL     1      -8.466   3.825  -1.134  1.00  0.00    -0.017 C 
HETATM   47  C1  UNL     1      -9.145   4.849  -0.626  1.00  0.00     0.008 C 
ENDBRANCH  45  46
ENDBRANCH  39  45
ENDBRANCH  34  35
ENDBRANCH   1  34
TORSDOF 15
