REMARK  9 active torsions:
REMARK  status: ('A' for Active; 'I' for Inactive)
REMARK    1  A    between atoms: C2_2  and  C3_3 
REMARK    2  A    between atoms: C11_11  and  C12_12 
REMARK    3  A    between atoms: C12_12  and  C13_13 
REMARK    4  A    between atoms: N1_18  and  C17_19 
REMARK    5  A    between atoms: C17_19  and  C18_20 
REMARK    6  A    between atoms: C18_20  and  C19_21 
REMARK    7  A    between atoms: C19_21  and  N2_22 
REMARK    8  A    between atoms: N2_22  and  C20_25 
REMARK    9  A    between atoms: C20_25  and  C21_26 
ROOT
HETATM    1  C13 UNL     1      -0.274  -0.688   0.070  1.00  0.00     0.101 A 
HETATM    2  C14 UNL     1      -0.166  -1.958   0.828  1.00  0.00    -0.007 A 
HETATM    3  C15 UNL     1       0.879  -2.342   1.532  1.00  0.00     0.071 A 
HETATM    4  C16 UNL     1       2.089  -1.532   1.646  1.00  0.00     0.249 A 
HETATM    5  O1  UNL     1       3.074  -1.916   2.324  1.00  0.00    -0.268 OA
HETATM    6  N1  UNL     1       2.115  -0.293   0.962  1.00  0.00    -0.284 N 
HETATM    7  C22 UNL     1       1.013   0.109   0.215  1.00  0.00     0.234 A 
HETATM    8  O2  UNL     1       1.014   1.209  -0.417  1.00  0.00    -0.272 OA
ENDROOT
BRANCH   1   9
HETATM    9  C12 UNL     1      -1.405   0.162   0.496  1.00  0.00     0.024 C 
BRANCH   9  10
HETATM   10  C11 UNL     1      -2.796  -0.313   0.421  1.00  0.00     0.002 C 
HETATM   11  C3  UNL     1      -3.424  -0.663  -0.855  1.00  0.00    -0.023 C 
HETATM   12  C4  UNL     1      -2.673  -1.484  -1.836  1.00  0.00     0.020 C 
HETATM   13  C5  UNL     1      -3.936   0.541  -1.642  1.00  0.00     0.014 C 
HETATM   14  C6  UNL     1      -4.804   1.453  -0.816  1.00  0.00     0.005 C 
HETATM   15  C7  UNL     1      -3.965   1.908   0.357  1.00  0.00    -0.014 C 
HETATM   16  C8  UNL     1      -4.621   2.986   1.157  1.00  0.00     0.010 C 
HETATM   17  C9  UNL     1      -3.641   0.720   1.192  1.00  0.00    -0.010 C 
HETATM   18  C10 UNL     1      -4.772   0.118   1.944  1.00  0.00     0.011 C 
BRANCH  11  19
HETATM   19  C2  UNL     1      -4.666  -1.469  -0.537  1.00  0.00    -0.027 C 
HETATM   20  C1  UNL     1      -4.522  -2.717  -0.142  1.00  0.00     0.007 C 
ENDBRANCH  11  19
ENDBRANCH   9  10
ENDBRANCH   1   9
BRANCH   6  21
HETATM   21  C17 UNL     1       3.305   0.516   1.082  1.00  0.00     0.137 C 
BRANCH  21  22
HETATM   22  C18 UNL     1       4.345   0.230   0.025  1.00  0.00     0.048 C 
BRANCH  22  23
HETATM   23  C19 UNL     1       5.510   1.149   0.287  1.00  0.00     0.234 C 
BRANCH  23  24
HETATM   24  N2  UNL     1       6.575   0.968  -0.671  1.00  0.00    -0.074 N 
ATOM     25  H22 UNL     1       6.253   1.100  -1.630  1.00  0.00     0.277 HD
ATOM     26  H21 UNL     1       7.254   1.729  -0.636  1.00  0.00     0.277 HD
BRANCH  24  27
HETATM   27  C20 UNL     1       7.196  -0.319  -0.482  1.00  0.00     0.243 C 
BRANCH  27  28
HETATM   28  C21 UNL     1       8.325  -0.434  -1.513  1.00  0.00     0.113 C 
HETATM   29  S1  UNL     1       9.507   0.929  -1.213  1.00  0.00    -0.096 SA
ENDBRANCH  27  28
ENDBRANCH  24  27
ENDBRANCH  23  24
ENDBRANCH  22  23
ENDBRANCH  21  22
ENDBRANCH   6  21
TORSDOF 9
