REMARK  3 active torsions:
REMARK  status: ('A' for Active; 'I' for Inactive)
REMARK    1  A    between atoms: C4_6  and  C5_7 
REMARK    2  A    between atoms: C6_8  and  C7_9 
REMARK    3  A    between atoms: C7_9  and  O2_10 
ROOT
HETATM    1  C7  UNL     1       0.631  -0.890   0.006  1.00  0.00     0.261 C 
HETATM    2  C8  UNL     1      -0.067  -0.556   1.289  1.00  0.00     0.091 C 
HETATM    3  C9  UNL     1      -1.553  -0.720   1.171  1.00  0.00     0.078 C 
HETATM    4  C10 UNL     1      -2.069  -0.588  -0.228  1.00  0.00     0.258 C 
HETATM    5  C11 UNL     1      -2.418   0.836  -0.567  1.00  0.00     0.072 C 
HETATM    6  C12 UNL     1      -3.888   1.099  -0.618  1.00  0.00     0.007 C 
HETATM    7  C13 UNL     1      -4.672   0.387   0.449  1.00  0.00     0.028 C 
HETATM    8  C14 UNL     1      -4.201  -1.035   0.655  1.00  0.00     0.236 C 
HETATM    9  N2  UNL     1      -3.288  -1.396  -0.394  1.00  0.00    -0.040 N 
ATOM     10  H21 UNL     1      -3.098  -2.398  -0.426  1.00  0.00     0.280 HD
ATOM     11  H22 UNL     1      -3.698  -1.307  -1.324  1.00  0.00     0.280 HD
HETATM   12  O3  UNL     1      -1.174  -1.057  -1.189  1.00  0.00    -0.196 OA
HETATM   13  O4  UNL     1      -0.080  -0.326  -1.073  1.00  0.00    -0.184 OA
ENDROOT
BRANCH   1  14
HETATM   14  C6  UNL     1       2.003  -0.448  -0.013  1.00  0.00    -0.030 C 
HETATM   15  C5  UNL     1       3.158  -0.098  -0.025  1.00  0.00    -0.057 C 
BRANCH  15  16
HETATM   16  C4  UNL     1       4.538   0.295  -0.047  1.00  0.00     0.068 A 
HETATM   17  C1  UNL     1       5.037   1.572  -0.187  1.00  0.00     0.175 A 
HETATM   18  N1  UNL     1       4.213   2.723  -0.335  1.00  0.00    -0.073 NA
HETATM   19  O1  UNL     1       6.349   1.523  -0.159  1.00  0.00    -0.307 OA
HETATM   20  C2  UNL     1       6.785   0.296  -0.009  1.00  0.00     0.145 A 
HETATM   21  C3  UNL     1       5.667  -0.509   0.066  1.00  0.00     0.049 A 
ENDBRANCH  15  16
ENDBRANCH   1  14
BRANCH   1  22
HETATM   22  O2  UNL     1       0.520  -2.286  -0.174  1.00  0.00    -0.354 OA
ATOM     23  H2  UNL     1      -0.384  -2.577  -0.161  1.00  0.00     0.214 HD
ENDBRANCH   1  22
TORSDOF 3
