REMARK  11 active torsions:
REMARK  status: ('A' for Active; 'I' for Inactive)
REMARK    1  A    between atoms: N1_1  and  N2_4 
REMARK    2  A    between atoms: N2_4  and  C1_6 
REMARK    3  A    between atoms: C3_8  and  N3_9 
REMARK    4  A    between atoms: C5_13  and  N4_14 
REMARK    5  A    between atoms: C6_17  and  N5_18 
REMARK       I    between atoms: N5_18  and  C7_20 
REMARK    6  A    between atoms: C7_20  and  O6_22 
REMARK    7  A    between atoms: O6_22  and  N6_23 
REMARK       I    between atoms: N6_23  and  C8_25 
REMARK    8  A    between atoms: N8_27  and  N9_29 
REMARK       I    between atoms: N9_29  and  C9_31 
REMARK    9  A    between atoms: C9_31  and  C10_33 
REMARK   10  A    between atoms: C10_33  and  N10_34 
REMARK   11  A    between atoms: C11_41  and  C12_42 
ROOT
HETATM    1  N6  UNL     1      -0.106   2.094  -0.110  1.00  0.00    -0.227 N 
ATOM      2  H6  UNL     1       0.172   1.588  -0.951  1.00  0.00     0.198 HD
HETATM    3  C8  UNL     1       0.806   2.975   0.513  1.00  0.00     0.227 C 
HETATM    4  N7  UNL     1       0.365   4.252   1.034  1.00  0.00    -0.060 NA
HETATM    5  N8  UNL     1       2.039   2.624   0.610  1.00  0.00    -0.269 N 
ATOM      6  H8  UNL     1       2.720   3.239   1.055  1.00  0.00     0.190 HD
ENDROOT
BRANCH   1   7
HETATM    7  O6  UNL     1      -1.343   1.918   0.400  1.00  0.00    -0.178 OA
BRANCH   7   8
HETATM    8  C7  UNL     1      -2.250   0.970  -0.023  1.00  0.00     0.387 C 
HETATM    9  N5  UNL     1      -3.517   0.907   0.614  1.00  0.00    -0.297 N 
ATOM     10  H5  UNL     1      -3.768   1.543   1.371  1.00  0.00     0.171 HD
HETATM   11  O5  UNL     1      -1.903   0.206  -0.958  1.00  0.00    -0.236 OA
BRANCH   9  12
HETATM   12  C6  UNL     1      -4.415  -0.083   0.145  1.00  0.00     0.098 A 
HETATM   13  C1  UNL     1      -5.295   0.189  -0.874  1.00  0.00     0.079 A 
HETATM   14  C2  UNL     1      -6.153  -0.816  -1.296  1.00  0.00     0.069 A 
HETATM   15  C3  UNL     1      -6.142  -2.067  -0.719  1.00  0.00     0.107 A 
HETATM   16  C4  UNL     1      -5.252  -2.322   0.304  1.00  0.00     0.074 A 
HETATM   17  C5  UNL     1      -4.389  -1.324   0.732  1.00  0.00     0.134 A 
BRANCH  13  18
HETATM   18  N2  UNL     1      -5.301   1.490  -1.469  1.00  0.00    -0.305 N 
ATOM     19  H2  UNL     1      -4.696   1.669  -2.270  1.00  0.00     0.186 HD
BRANCH  18  20
HETATM   20  N1  UNL     1      -6.111   2.525  -0.987  1.00  0.00    -0.345 N 
ATOM     21  H12 UNL     1      -6.710   2.329  -0.185  1.00  0.00     0.176 HD
ATOM     22  H11 UNL     1      -6.115   3.453  -1.411  1.00  0.00     0.176 HD
ENDBRANCH  18  20
ENDBRANCH  13  18
BRANCH  15  23
HETATM   23  N3  UNL     1      -7.037  -3.074  -1.177  1.00  0.00    -0.116 N 
HETATM   24  O1  UNL     1      -7.824  -2.828  -2.090  1.00  0.00    -0.532 OA
HETATM   25  O2  UNL     1      -7.004  -4.313  -0.583  1.00  0.00    -0.532 OA
ENDBRANCH  15  23
BRANCH  17  26
HETATM   26  N4  UNL     1      -3.466  -1.559   1.779  1.00  0.00    -0.113 N 
HETATM   27  O3  UNL     1      -3.168  -0.601   2.515  1.00  0.00    -0.532 OA
HETATM   28  O4  UNL     1      -2.876  -2.771   2.039  1.00  0.00    -0.532 OA
ENDBRANCH  17  26
ENDBRANCH   9  12
ENDBRANCH   7   8
ENDBRANCH   1   7
BRANCH   5  29
HETATM   29  N9  UNL     1       2.428   1.390   0.098  1.00  0.00    -0.266 N 
HETATM   30  C9  UNL     1       2.183   0.208   0.864  1.00  0.00     0.256 C 
HETATM   31  O7  UNL     1       1.625   0.288   1.983  1.00  0.00    -0.270 OA
ATOM     32  H9  UNL     1       2.883   1.329  -0.813  1.00  0.00     0.190 HD
BRANCH  30  33
HETATM   33  C10 UNL     1       2.606  -1.097   0.299  1.00  0.00     0.257 C 
BRANCH  33  34
HETATM   34  N10 UNL     1       3.226  -1.015  -0.986  1.00  0.00    -0.250 N 
HETATM   35  N11 UNL     1       2.535  -1.066  -2.153  1.00  0.00    -0.224 N 
HETATM   36  N12 UNL     1       3.317  -0.979  -3.171  1.00  0.00    -0.226 N 
ATOM     37  H11 UNL     1       1.521  -1.161  -2.215  1.00  0.00     0.210 HD
HETATM   38  N13 UNL     1       4.523  -0.870  -2.697  1.00  0.00    -0.268 N 
ATOM     39  H12 UNL     1       3.045  -0.993  -4.154  1.00  0.00     0.210 HD
HETATM   40  C11 UNL     1       4.498  -0.889  -1.308  1.00  0.00     0.150 A 
ATOM     41  H13 UNL     1       5.367  -0.783  -3.264  1.00  0.00     0.190 HD
BRANCH  40  42
HETATM   42  C12 UNL     1       5.713  -0.810  -0.513  1.00  0.00     0.011 A 
HETATM   43  C13 UNL     1       6.932  -0.854  -1.203  1.00  0.00     0.015 A 
HETATM   44  C14 UNL     1       8.156  -0.771  -0.562  1.00  0.00     0.001 A 
HETATM   45  C15 UNL     1       8.221  -0.640   0.798  1.00  0.00     0.000 A 
HETATM   46  C16 UNL     1       7.051  -0.593   1.501  1.00  0.00     0.001 A 
HETATM   47  C17 UNL     1       5.811  -0.679   0.829  1.00  0.00     0.015 A 
ENDBRANCH  40  42
ENDBRANCH  33  34
ENDBRANCH  30  33
ENDBRANCH   5  29
TORSDOF 11
