REMARK  6 active torsions:
REMARK  status: ('A' for Active; 'I' for Inactive)
REMARK    1  A    between atoms: N1_1  and  C1_4 
REMARK    2  A    between atoms: C4_9  and  N3_10 
REMARK    3  A    between atoms: C5_17  and  C6_18 
REMARK    4  A    between atoms: C6_18  and  O1_19 
REMARK    5  A    between atoms: N6_29  and  C14_30 
REMARK    6  A    between atoms: C14_30  and  C15_31 
ROOT
HETATM    1  C1  UNL     1       5.185  -1.829  -0.308  1.00  0.00     0.678 A 
HETATM    2  N2  UNL     1       4.758  -0.880   0.543  1.00  0.00    -0.187 N 
ATOM      3  H2  UNL     1       5.384  -0.518   1.262  1.00  0.00     0.184 HD
HETATM    4  C2  UNL     1       3.503  -0.410   0.442  1.00  0.00     0.118 A 
HETATM    5  C3  UNL     1       2.711  -0.942  -0.553  1.00  0.00     0.108 A 
HETATM    6  C4  UNL     1       3.153  -1.914  -1.423  1.00  0.00     0.144 A 
HETATM    7  N4  UNL     1       4.411  -2.350  -1.281  1.00  0.00    -0.175 N 
ATOM      8  H4  UNL     1       4.780  -3.069  -1.903  1.00  0.00     0.186 HD
HETATM    9  N5  UNL     1       1.391  -0.427  -0.636  1.00  0.00    -0.350 N 
ATOM     10  H5  UNL     1       0.785  -0.806  -1.364  1.00  0.00     0.166 HD
HETATM   11  C5  UNL     1       0.902   0.468   0.123  1.00  0.00     0.074 A 
HETATM   12  C21 UNL     1       1.724   1.039   1.176  1.00  0.00     0.075 A 
HETATM   13  C22 UNL     1       2.965   0.615   1.322  1.00  0.00     0.148 A 
HETATM   14  F1  UNL     1       3.764   1.122   2.292  1.00  0.00    -0.204 F 
ENDROOT
BRANCH  11  15
HETATM   15  C6  UNL     1      -0.483   0.895  -0.092  1.00  0.00     0.211 A 
HETATM   16  C7  UNL     1      -0.669   2.297  -0.397  1.00  0.00     0.019 A 
HETATM   17  C8  UNL     1      -0.058   3.166  -1.329  1.00  0.00     0.013 A 
HETATM   18  C12 UNL     1      -1.642   2.799   0.415  1.00  0.00     0.043 A 
HETATM   19  C9  UNL     1      -0.425   4.470  -1.421  1.00  0.00     0.001 A 
HETATM   20  C10 UNL     1      -1.415   4.968  -0.591  1.00  0.00     0.001 A 
HETATM   21  C11 UNL     1      -2.035   4.152   0.332  1.00  0.00     0.018 A 
HETATM   22  C13 UNL     1      -2.111   1.724   1.282  1.00  0.00     0.257 A 
HETATM   23  O2  UNL     1      -3.024   1.850   2.168  1.00  0.00    -0.267 OA
HETATM   24  N6  UNL     1      -1.377   0.567   0.952  1.00  0.00    -0.302 N 
BRANCH  15  25
HETATM   25  O1  UNL     1      -0.964   0.184  -1.232  1.00  0.00    -0.361 OA
ATOM     26  H1  UNL     1      -1.862   0.461  -1.371  1.00  0.00     0.213 HD
ENDBRANCH  15  25
BRANCH  24  27
HETATM   27  C14 UNL     1      -1.589  -0.711   1.643  1.00  0.00     0.168 C 
BRANCH  27  28
HETATM   28  C15 UNL     1      -2.618  -1.504   0.932  1.00  0.00    -0.040 A 
HETATM   29  C16 UNL     1      -3.973  -1.396   1.180  1.00  0.00     0.009 A 
HETATM   30  C17 UNL     1      -4.898  -2.158   0.493  1.00  0.00     0.001 A 
HETATM   31  C18 UNL     1      -4.471  -3.049  -0.463  1.00  0.00     0.000 A 
HETATM   32  C19 UNL     1      -3.135  -3.173  -0.725  1.00  0.00     0.001 A 
HETATM   33  C20 UNL     1      -2.221  -2.412  -0.038  1.00  0.00     0.009 A 
ENDBRANCH  27  28
ENDBRANCH  24  27
ENDBRANCH  11  15
BRANCH   6  34
HETATM   34  N3  UNL     1       2.413  -2.406  -2.346  1.00  0.00    -0.383 N 
ATOM     35  H32 UNL     1       1.455  -2.074  -2.454  1.00  0.00     0.157 HD
ATOM     36  H31 UNL     1       2.740  -3.126  -2.990  1.00  0.00     0.157 HD
ENDBRANCH   6  34
BRANCH   1  37
HETATM   37  N1  UNL     1       6.409  -2.274  -0.194  1.00  0.00    -0.234 N 
ATOM     38  H12 UNL     1       6.995  -1.880   0.542  1.00  0.00     0.174 HD
ATOM     39  H11 UNL     1       6.733  -2.994  -0.840  1.00  0.00     0.174 HD
ENDBRANCH   1  37
TORSDOF 6
