REMARK  14 active torsions:
REMARK  status: ('A' for Active; 'I' for Inactive)
REMARK    1  A    between atoms: C2_2  and  C3_3 
REMARK    2  A    between atoms: C3_3  and  C5_5 
REMARK    3  A    between atoms: C5_5  and  N1_6 
REMARK    4  A    between atoms: C5_5  and  C17_32 
REMARK       I    between atoms: N1_6  and  C6_8 
REMARK    5  A    between atoms: C6_8  and  C7_10 
REMARK    6  A    between atoms: C7_10  and  O2_11 
REMARK    7  A    between atoms: C7_10  and  N2_13 
REMARK    8  A    between atoms: N2_13  and  C8_16 
REMARK    9  A    between atoms: C8_16  and  C9_17 
REMARK   10  A    between atoms: C8_16  and  C16_25 
REMARK   11  A    between atoms: C9_17  and  O3_18 
REMARK   12  A    between atoms: O3_18  and  C10_19 
REMARK   13  A    between atoms: C16_25  and  O4_26 
REMARK   14  A    between atoms: N3_28  and  O5_30 
ROOT
HETATM    1  N2  UNL     1       0.357  -1.054  -2.133  1.00  0.00    -0.026 N 
ATOM      2  H21 UNL     1       0.396  -0.138  -1.686  1.00  0.00     0.281 HD
ATOM      3  H22 UNL     1       1.037  -0.915  -2.880  1.00  0.00     0.281 HD
ENDROOT
BRANCH   1   4
HETATM    4  C7  UNL     1      -0.927  -1.281  -2.675  1.00  0.00     0.412 C 
BRANCH   4   5
HETATM    5  C6  UNL     1      -2.065  -1.335  -1.741  1.00  0.00     0.275 C 
HETATM    6  N1  UNL     1      -2.158  -0.401  -0.685  1.00  0.00    -0.343 N 
ATOM      7  H1  UNL     1      -1.429   0.304  -0.573  1.00  0.00     0.163 HD
HETATM    8  O1  UNL     1      -2.969  -2.190  -1.847  1.00  0.00    -0.269 OA
BRANCH   6   9
HETATM    9  C5  UNL     1      -3.273  -0.428   0.243  1.00  0.00     0.189 C 
BRANCH   9  10
HETATM   10  C3  UNL     1      -3.591   0.958   0.698  1.00  0.00     0.014 C 
HETATM   11  C4  UNL     1      -4.862   0.865   1.541  1.00  0.00     0.012 C 
BRANCH  10  12
HETATM   12  C2  UNL     1      -3.891   1.799  -0.542  1.00  0.00     0.002 C 
HETATM   13  C1  UNL     1      -4.326   3.192  -0.146  1.00  0.00     0.005 C 
ENDBRANCH  10  12
ENDBRANCH   9  10
BRANCH   9  14
HETATM   14  C17 UNL     1      -2.848  -1.285   1.432  1.00  0.00     0.197 C 
HETATM   15  O6  UNL     1      -1.994  -2.213   1.213  1.00  0.00    -0.646 OA
HETATM   16  O7  UNL     1      -3.381  -1.035   2.659  1.00  0.00    -0.646 OA
ENDBRANCH   9  14
ENDBRANCH   6   9
ENDBRANCH   4   5
BRANCH   4  17
HETATM   17  O2  UNL     1      -0.944  -2.399  -3.522  1.00  0.00    -0.363 OA
ATOM     18  H2  UNL     1      -0.210  -2.364  -4.124  1.00  0.00     0.212 HD
ENDBRANCH   4  17
ENDBRANCH   1   4
BRANCH   1  19
HETATM   19  C8  UNL     1       0.806  -2.057  -1.239  1.00  0.00     0.288 C 
BRANCH  19  20
HETATM   20  C9  UNL     1       1.337  -1.404   0.042  1.00  0.00     0.209 C 
BRANCH  20  21
HETATM   21  O3  UNL     1       2.334  -0.498  -0.277  1.00  0.00    -0.383 OA
BRANCH  21  22
HETATM   22  C10 UNL     1       2.886   0.035   0.882  1.00  0.00     0.121 C 
HETATM   23  C11 UNL     1       4.365  -0.196   0.781  1.00  0.00     0.032 C 
HETATM   24  C12 UNL     1       5.237   0.939   1.175  1.00  0.00     0.002 C 
HETATM   25  C13 UNL     1       4.843   2.280   0.642  1.00  0.00     0.000 C 
HETATM   26  C14 UNL     1       3.388   2.463   0.386  1.00  0.00     0.002 C 
HETATM   27  C15 UNL     1       2.495   1.487   1.062  1.00  0.00     0.032 C 
ENDBRANCH  21  22
ENDBRANCH  20  21
ENDBRANCH  19  20
BRANCH  19  28
HETATM   28  C16 UNL     1       1.802  -3.006  -1.802  1.00  0.00     0.169 C 
HETATM   29  N3  UNL     1       2.460  -2.744  -2.857  1.00  0.00    -0.249 N 
ATOM     30  H3  UNL     1       3.124  -3.446  -3.184  1.00  0.00     0.196 HD
BRANCH  28  31
HETATM   31  O4  UNL     1       2.032  -4.223  -1.164  1.00  0.00    -0.346 OA
ATOM     32  H4  UNL     1       2.669  -4.830  -1.524  1.00  0.00     0.219 HD
ENDBRANCH  28  31
BRANCH  29  33
HETATM   33  O5  UNL     1       2.346  -1.590  -3.590  1.00  0.00    -0.288 OA
ATOM     34  H5  UNL     1       2.838  -1.394  -4.379  1.00  0.00     0.244 HD
ENDBRANCH  29  33
ENDBRANCH  19  28
ENDBRANCH   1  19
TORSDOF 14
