REMARK  6 active torsions:
REMARK  status: ('A' for Active; 'I' for Inactive)
REMARK       I    between atoms: C2_2  and  N1_4 
REMARK    1  A    between atoms: N1_4  and  C3_6 
REMARK    2  A    between atoms: C3_6  and  C4_7 
REMARK    3  A    between atoms: C4_7  and  N2_8 
REMARK    4  A    between atoms: N3_12  and  C8_13 
REMARK    5  A    between atoms: C8_13  and  O2_14 
REMARK    6  A    between atoms: C8_13  and  N4_16 
ROOT
HETATM    1  C8  UNL     1       1.498   0.437   0.649  1.00  0.00     0.217 C 
ENDROOT
BRANCH   1   2
HETATM    2  N3  UNL     1       0.600   1.395   0.157  1.00  0.00    -0.346 N 
HETATM    3  C7  UNL     1       0.579   1.879  -1.195  1.00  0.00     0.128 C 
HETATM    4  C6  UNL     1      -0.597   1.188  -1.901  1.00  0.00     0.050 C 
HETATM    5  C5  UNL     1      -1.835   1.672  -1.167  1.00  0.00     0.274 C 
HETATM    6  N2  UNL     1      -2.120   0.699  -0.141  1.00  0.00     0.091 N 
HETATM    7  C16 UNL     1      -1.672   1.189   1.125  1.00  0.00     0.292 C 
HETATM    8  C15 UNL     1      -0.383   1.903   1.143  1.00  0.00     0.156 C 
BRANCH   6   9
HETATM    9  C4  UNL     1      -3.549   0.444  -0.019  1.00  0.00     0.292 C 
BRANCH   9  10
HETATM   10  C3  UNL     1      -4.113  -0.257  -1.206  1.00  0.00     0.152 C 
BRANCH  10  11
HETATM   11  N1  UNL     1      -5.529  -0.462  -1.019  1.00  0.00    -0.360 N 
HETATM   12  C2  UNL     1      -6.134  -1.214   0.007  1.00  0.00     0.213 C 
HETATM   13  C1  UNL     1      -7.619  -1.328   0.069  1.00  0.00     0.117 C 
HETATM   14  O1  UNL     1      -5.450  -1.785   0.863  1.00  0.00    -0.274 OA
ATOM     15  H1  UNL     1      -6.152  -0.020  -1.695  1.00  0.00     0.162 HD
ENDBRANCH  10  11
ENDBRANCH   9  10
ENDBRANCH   6   9
ENDBRANCH   1   2
BRANCH   1  16
HETATM   16  O2  UNL     1       1.306   0.208   1.938  1.00  0.00    -0.332 OA
ATOM     17  H2  UNL     1       1.914  -0.441   2.271  1.00  0.00     0.220 HD
ENDBRANCH   1  16
BRANCH   1  18
HETATM   18  N4  UNL     1       2.525  -0.294   0.043  1.00  0.00    -0.343 N 
HETATM   19  C9  UNL     1       2.918  -0.272  -1.344  1.00  0.00     0.133 C 
HETATM   20  C10 UNL     1       3.881  -1.399  -1.719  1.00  0.00     0.079 C 
HETATM   21  C11 UNL     1       5.047  -1.303  -0.812  1.00  0.00     0.039 A 
HETATM   22  N5  UNL     1       6.377  -1.294  -0.929  1.00  0.00    -0.303 N 
HETATM   23  C13 UNL     1       4.715  -1.200   0.540  1.00  0.00     0.029 A 
HETATM   24  N6  UNL     1       6.881  -1.190   0.283  1.00  0.00    -0.285 N 
ATOM     25  H5  UNL     1       6.906  -1.356  -1.799  1.00  0.00     0.186 HD
HETATM   26  C12 UNL     1       5.900  -1.129   1.213  1.00  0.00     0.123 A 
ATOM     27  H6  UNL     1       7.879  -1.159   0.493  1.00  0.00     0.188 HD
HETATM   28  N7  UNL     1       6.085  -1.024   2.487  1.00  0.00    -0.384 N 
ATOM     29  H72 UNL     1       6.971  -0.971   2.990  1.00  0.00     0.157 HD
ATOM     30  H71 UNL     1       5.346  -0.978   3.188  1.00  0.00     0.157 HD
HETATM   31  C14 UNL     1       3.299  -1.180   0.968  1.00  0.00     0.171 C 
ENDBRANCH   1  18
TORSDOF 6
