REMARK  14 active torsions:
REMARK  status: ('A' for Active; 'I' for Inactive)
REMARK    1  A    between atoms: C2_2  and  C3_3 
REMARK    2  A    between atoms: C3_3  and  C4_4 
REMARK    3  A    between atoms: C5_5  and  C6_6 
REMARK    4  A    between atoms: C6_6  and  C7_7 
REMARK    5  A    between atoms: C8_9  and  N1_10 
REMARK    6  A    between atoms: N3_13  and  C9_14 
REMARK    7  A    between atoms: C9_14  and  C10_15 
REMARK    8  A    between atoms: C13_18  and  C14_19 
REMARK    9  A    between atoms: N4_24  and  C19_25 
REMARK   10  A    between atoms: C19_25  and  C20_26 
REMARK   11  A    between atoms: C20_26  and  C21_27 
REMARK   12  A    between atoms: C26_32  and  O2_33 
REMARK   13  A    between atoms: C27_35  and  O3_36 
REMARK   14  A    between atoms: C28_38  and  O4_39 
ROOT
HETATM    1  N1  UNL     1       1.119   0.701   0.783  1.00  0.00    -0.249 N 
HETATM    2  N2  UNL     1       0.112   0.452   1.596  1.00  0.00    -0.236 N 
ATOM      3  H2  UNL     1       0.124  -0.254   2.332  1.00  0.00     0.209 HD
HETATM    4  N3  UNL     1      -0.936   1.256   1.323  1.00  0.00    -0.281 N 
HETATM    5  C23 UNL     1      -0.516   2.011   0.297  1.00  0.00     0.138 A 
HETATM    6  C24 UNL     1       0.777   1.685  -0.067  1.00  0.00     0.046 A 
HETATM    7  C25 UNL     1       1.634   2.256  -1.136  1.00  0.00     0.071 C 
ENDROOT
BRANCH   1   8
HETATM    8  C8  UNL     1       2.387  -0.012   0.854  1.00  0.00     0.277 C 
HETATM    9  O1  UNL     1       3.358   0.736   0.238  1.00  0.00    -0.354 OA
HETATM   10  C7  UNL     1       4.610   0.191   0.207  1.00  0.00     0.159 C 
HETATM   11  C28 UNL     1       5.117  -0.371   1.496  1.00  0.00     0.178 C 
HETATM   12  C27 UNL     1       4.035  -1.011   2.333  1.00  0.00     0.182 C 
HETATM   13  C26 UNL     1       2.812  -0.152   2.323  1.00  0.00     0.200 C 
BRANCH  10  14
HETATM   14  C6  UNL     1       5.545   1.311  -0.243  1.00  0.00     0.061 C 
BRANCH  14  15
HETATM   15  C5  UNL     1       6.951   0.908  -0.333  1.00  0.00    -0.028 C 
HETATM   16  C4  UNL     1       7.648   0.966  -1.467  1.00  0.00    -0.031 C 
BRANCH  16  17
HETATM   17  C3  UNL     1       9.075   0.554  -1.545  1.00  0.00     0.026 C 
BRANCH  17  18
HETATM   18  C2  UNL     1       9.286  -0.573  -2.517  1.00  0.00    -0.001 C 
HETATM   19  C1  UNL     1       8.518  -1.805  -2.166  1.00  0.00     0.005 C 
ENDBRANCH  17  18
ENDBRANCH  16  17
ENDBRANCH  14  15
ENDBRANCH  10  14
BRANCH  11  20
HETATM   20  O4  UNL     1       5.737   0.600   2.284  1.00  0.00    -0.390 OA
ATOM     21  H4  UNL     1       6.059   0.243   3.103  1.00  0.00     0.210 HD
ENDBRANCH  11  20
BRANCH  12  22
HETATM   22  O3  UNL     1       3.813  -2.320   1.975  1.00  0.00    -0.390 OA
ATOM     23  H3  UNL     1       4.590  -2.866   1.981  1.00  0.00     0.210 HD
ENDBRANCH  12  22
BRANCH  13  24
HETATM   24  O2  UNL     1       1.790  -0.648   3.097  1.00  0.00    -0.388 OA
ATOM     25  H2  UNL     1       2.053  -0.735   4.006  1.00  0.00     0.210 HD
ENDBRANCH  13  24
ENDBRANCH   1   8
BRANCH   4  26
HETATM   26  C9  UNL     1      -2.202   1.264   2.033  1.00  0.00     0.206 C 
BRANCH  26  27
HETATM   27  C10 UNL     1      -3.210   0.330   1.493  1.00  0.00     0.023 C 
HETATM   28  C11 UNL     1      -3.679  -0.671   2.257  1.00  0.00     0.000 C 
HETATM   29  C12 UNL     1      -4.671  -1.620   1.777  1.00  0.00     0.036 C 
HETATM   30  C13 UNL     1      -5.142  -1.459   0.378  1.00  0.00     0.014 C 
HETATM   31  C18 UNL     1      -4.071  -0.805  -0.493  1.00  0.00     0.128 C 
HETATM   32  N4  UNL     1      -3.753   0.434   0.187  1.00  0.00    -0.383 N 
BRANCH  30  33
HETATM   33  C14 UNL     1      -5.646  -2.736  -0.235  1.00  0.00    -0.046 C 
HETATM   34  C15 UNL     1      -6.099  -2.460  -1.664  1.00  0.00     0.015 C 
HETATM   35  C16 UNL     1      -6.900  -3.226   0.496  1.00  0.00     0.015 C 
HETATM   36  C17 UNL     1      -4.618  -3.826  -0.284  1.00  0.00     0.015 C 
ENDBRANCH  30  33
BRANCH  32  37
HETATM   37  C19 UNL     1      -3.977   1.735  -0.393  1.00  0.00     0.122 C 
BRANCH  37  38
HETATM   38  C20 UNL     1      -5.458   2.039  -0.541  1.00  0.00     0.019 C 
BRANCH  38  39
HETATM   39  C21 UNL     1      -5.611   3.414  -1.154  1.00  0.00    -0.003 C 
HETATM   40  C22 UNL     1      -7.109   3.697  -1.291  1.00  0.00     0.005 C 
ENDBRANCH  38  39
ENDBRANCH  37  38
ENDBRANCH  32  37
ENDBRANCH  26  27
ENDBRANCH   4  26
TORSDOF 14
