REMARK  12 active torsions:
REMARK  status: ('A' for Active; 'I' for Inactive)
REMARK    1  A    between atoms: C2_2  and  O1_3 
REMARK    2  A    between atoms: O1_3  and  C3_4 
REMARK    3  A    between atoms: C3_4  and  C4_6 
REMARK    4  A    between atoms: C4_6  and  S1_7 
REMARK    5  A    between atoms: S1_7  and  C5_8 
REMARK    6  A    between atoms: C7_10  and  C8_11 
REMARK    7  A    between atoms: C8_11  and  N1_12 
REMARK    8  A    between atoms: N1_12  and  C9_14 
REMARK    9  A    between atoms: C17_22  and  O3_23 
REMARK   10  A    between atoms: C19_25  and  C20_26 
REMARK       I    between atoms: C20_26  and  N2_28 
REMARK   11  A    between atoms: N2_28  and  C21_30 
REMARK   12  A    between atoms: C21_30  and  C22_31 
REMARK       I    between atoms: C22_31  and  N3_33 
ROOT
HETATM    1  C5  UNL     1      -1.561   0.826   1.084  1.00  0.00     0.049 C 
HETATM    2  C6  UNL     1      -0.854   1.750   0.170  1.00  0.00     0.024 C 
HETATM    3  C7  UNL     1      -0.208   1.157  -1.019  1.00  0.00     0.034 C 
HETATM    4  C17 UNL     1      -0.229  -0.332  -1.161  1.00  0.00     0.139 C 
HETATM    5  C19 UNL     1      -1.194  -1.084  -0.323  1.00  0.00     0.108 C 
HETATM    6  C26 UNL     1      -2.308  -0.211   0.262  1.00  0.00     0.032 C 
ENDROOT
BRANCH   5   7
HETATM    7  C20 UNL     1      -1.948  -2.140  -1.094  1.00  0.00     0.225 C 
HETATM    8  O4  UNL     1      -1.812  -2.148  -2.322  1.00  0.00    -0.273 OA
HETATM    9  N2  UNL     1      -2.770  -3.073  -0.436  1.00  0.00    -0.343 N 
ATOM     10  H2  UNL     1      -2.845  -3.015   0.580  1.00  0.00     0.163 HD
BRANCH   9  11
HETATM   11  C21 UNL     1      -3.506  -4.097  -1.106  1.00  0.00     0.114 A 
HETATM   12  C24 UNL     1      -2.696  -4.861  -2.175  1.00  0.00     0.044 A 
HETATM   13  C25 UNL     1      -3.892  -4.031  -2.535  1.00  0.00     0.044 A 
BRANCH  11  14
HETATM   14  C22 UNL     1      -4.343  -5.024  -0.263  1.00  0.00     0.245 C 
HETATM   15  O5  UNL     1      -5.007  -5.938  -0.853  1.00  0.00    -0.271 OA
HETATM   16  N3  UNL     1      -4.425  -4.930   1.131  1.00  0.00    -0.363 N 
HETATM   17  C23 UNL     1      -5.273  -5.889   1.867  1.00  0.00     0.149 C 
ATOM     18  H3  UNL     1      -3.906  -4.209   1.632  1.00  0.00     0.162 HD
ENDBRANCH  11  14
ENDBRANCH   9  11
ENDBRANCH   5   7
BRANCH   4  19
HETATM   19  O3  UNL     1       1.044  -0.880  -0.861  1.00  0.00    -0.389 OA
HETATM   20  C18 UNL     1       1.618  -1.554  -1.900  1.00  0.00     0.202 C 
ENDBRANCH   4  19
BRANCH   3  21
HETATM   21  C8  UNL     1       1.259   1.617  -1.045  1.00  0.00     0.121 C 
BRANCH  21  22
HETATM   22  N1  UNL     1       1.986   1.212   0.091  1.00  0.00    -0.417 N 
ATOM     23  H1  UNL     1       1.553   0.648   0.822  1.00  0.00     0.153 HD
BRANCH  22  24
HETATM   24  C9  UNL     1       3.345   1.618   0.182  1.00  0.00     0.076 C 
HETATM   25  C10 UNL     1       4.256   1.101  -0.880  1.00  0.00     0.025 C 
HETATM   26  C11 UNL     1       4.997  -0.155  -0.433  1.00  0.00     0.011 C 
HETATM   27  C12 UNL     1       6.037   0.192   0.620  1.00  0.00    -0.048 C 
HETATM   28  C13 UNL     1       6.246  -1.040   1.491  1.00  0.00     0.015 C 
HETATM   29  C14 UNL     1       7.347   0.608   0.004  1.00  0.00     0.015 C 
HETATM   30  C15 UNL     1       5.462   1.337   1.426  1.00  0.00     0.011 C 
HETATM   31  C16 UNL     1       3.947   1.253   1.527  1.00  0.00     0.025 C 
ENDBRANCH  22  24
ENDBRANCH  21  22
ENDBRANCH   3  21
BRANCH   1  32
HETATM   32  S1  UNL     1      -2.697   1.644   2.202  1.00  0.00    -0.154 SA
BRANCH  32  33
HETATM   33  C4  UNL     1      -4.170   2.322   1.495  1.00  0.00     0.185 C 
BRANCH  33  34
HETATM   34  C3  UNL     1      -4.014   3.472   0.582  1.00  0.00     0.268 C 
HETATM   35  O2  UNL     1      -4.130   3.389  -0.665  1.00  0.00    -0.264 OA
BRANCH  34  36
HETATM   36  O1  UNL     1      -3.719   4.755   1.075  1.00  0.00    -0.321 OA
BRANCH  36  37
HETATM   37  C2  UNL     1      -3.573   5.858   0.218  1.00  0.00     0.174 C 
HETATM   38  C1  UNL     1      -3.285   7.088   1.066  1.00  0.00     0.034 C 
ENDBRANCH  36  37
ENDBRANCH  34  36
ENDBRANCH  33  34
ENDBRANCH  32  33
ENDBRANCH   1  32
TORSDOF 12
