REMARK  4 active torsions:
REMARK  status: ('A' for Active; 'I' for Inactive)
REMARK    1  A    between atoms: N1_1  and  C1_4 
REMARK    2  A    between atoms: C4_16  and  C5_17 
REMARK    3  A    between atoms: C5_17  and  S2_18 
REMARK    4  A    between atoms: S2_18  and  C6_19 
ROOT
HETATM    1  C1  UNL     1      -2.922  -0.114   0.815  1.00  0.00     0.117 A 
HETATM    2  N2  UNL     1      -3.977   0.708   0.837  1.00  0.00    -0.322 N 
ATOM      3  H2  UNL     1      -4.709   0.594   1.538  1.00  0.00     0.169 HD
HETATM    4  C2  UNL     1      -4.056   1.693  -0.086  1.00  0.00     0.158 A 
HETATM    5  S1  UNL     1      -5.498   2.761  -0.000  1.00  0.00    -0.013 SA
HETATM    6  N3  UNL     1      -3.092   1.859  -1.025  1.00  0.00    -0.320 N 
ATOM      7  H3  UNL     1      -3.182   2.612  -1.708  1.00  0.00     0.169 HD
HETATM    8  C3  UNL     1      -2.011   1.043  -1.073  1.00  0.00     0.138 A 
HETATM    9  N4  UNL     1      -0.915   0.932  -1.838  1.00  0.00    -0.284 N 
ATOM     10  H4  UNL     1      -0.679   1.532  -2.628  1.00  0.00     0.188 HD
HETATM   11  N5  UNL     1      -0.188  -0.089  -1.397  1.00  0.00    -0.301 N 
ATOM     12  H5  UNL     1       0.698  -0.391  -1.802  1.00  0.00     0.186 HD
HETATM   13  C4  UNL     1      -0.787  -0.667  -0.340  1.00  0.00     0.053 A 
HETATM   14  C9  UNL     1      -1.943   0.048  -0.130  1.00  0.00     0.078 A 
ENDROOT
BRANCH  13  15
HETATM   15  C5  UNL     1      -0.258  -1.811   0.380  1.00  0.00     0.142 C 
BRANCH  15  16
HETATM   16  S2  UNL     1       1.318  -2.369  -0.321  1.00  0.00    -0.088 SA
BRANCH  16  17
HETATM   17  C6  UNL     1       2.582  -1.112  -0.072  1.00  0.00     0.147 A 
HETATM   18  N6  UNL     1       2.470   0.083   0.530  1.00  0.00    -0.318 N 
HETATM   19  C7  UNL     1       3.675   0.720   0.501  1.00  0.00     0.176 A 
ATOM     20  H6  UNL     1       1.616   0.456   0.945  1.00  0.00     0.169 HD
HETATM   21  N7  UNL     1       4.352   1.833   0.846  1.00  0.00    -0.222 N 
HETATM   22  C8  UNL     1       4.555  -0.124  -0.146  1.00  0.00     0.176 A 
HETATM   23  O1  UNL     1       5.577   1.687   0.437  1.00  0.00    -0.153 OA
ATOM     24  H7  UNL     1       3.973   2.642   1.338  1.00  0.00     0.198 HD
HETATM   25  N8  UNL     1       5.733   0.542  -0.154  1.00  0.00    -0.222 N 
ATOM     26  H8  UNL     1       6.604   0.199  -0.559  1.00  0.00     0.198 HD
HETATM   27  N9  UNL     1       3.861  -1.228  -0.482  1.00  0.00    -0.318 N 
ATOM     28  H9  UNL     1       4.246  -2.034  -0.974  1.00  0.00     0.169 HD
ENDBRANCH  16  17
ENDBRANCH  15  16
ENDBRANCH  13  15
BRANCH   1  29
HETATM   29  N1  UNL     1      -2.827  -1.044   1.672  1.00  0.00    -0.385 N 
ATOM     30  H12 UNL     1      -3.556  -1.165   2.375  1.00  0.00     0.157 HD
ATOM     31  H11 UNL     1      -2.023  -1.671   1.655  1.00  0.00     0.157 HD
ENDBRANCH   1  29
TORSDOF 4
