REMARK  7 active torsions:
REMARK  status: ('A' for Active; 'I' for Inactive)
REMARK    1  A    between atoms: C2_2  and  C3_3 
REMARK    2  A    between atoms: C3_3  and  C4_4 
REMARK    3  A    between atoms: C4_4  and  O1_5 
REMARK    4  A    between atoms: C4_4  and  C20_26 
REMARK    5  A    between atoms: O1_5  and  C5_6 
REMARK    6  A    between atoms: C11_14  and  C12_15 
REMARK    7  A    between atoms: C16_20  and  O2_21 
ROOT
HETATM    1  C5  UNL     1      -2.501   0.437   0.443  1.00  0.00     0.072 A 
HETATM    2  C6  UNL     1      -2.390  -0.609   1.329  1.00  0.00     0.039 A 
HETATM    3  C7  UNL     1      -1.207  -1.245   1.643  1.00  0.00     0.035 A 
HETATM    4  C8  UNL     1      -0.066  -0.796   1.025  1.00  0.00     0.062 A 
HETATM    5  C9  UNL     1      -0.110   0.239   0.135  1.00  0.00     0.063 A 
HETATM    6  C10 UNL     1      -1.312   0.862  -0.165  1.00  0.00     0.068 A 
HETATM    7  N1  UNL     1       1.149   0.442  -0.294  1.00  0.00    -0.340 N 
ATOM      8  H1  UNL     1       1.423   1.156  -0.969  1.00  0.00     0.167 HD
HETATM    9  C11 UNL     1       2.009  -0.437   0.297  1.00  0.00     0.118 A 
HETATM   10  N2  UNL     1       1.260  -1.183   1.094  1.00  0.00    -0.335 N 
HETATM   11  C19 UNL     1       1.699  -2.273   1.923  1.00  0.00     0.158 C 
ENDROOT
BRANCH   9  12
HETATM   12  C12 UNL     1       3.430  -0.446  -0.015  1.00  0.00     0.012 A 
HETATM   13  C13 UNL     1       4.371  -1.182   0.652  1.00  0.00     0.034 A 
HETATM   14  C14 UNL     1       5.714  -1.150   0.249  1.00  0.00     0.014 A 
HETATM   15 BR1  UNL     1       6.935  -2.215   1.251  1.00  0.00    -0.051 Br
HETATM   16  C15 UNL     1       6.102  -0.385  -0.812  1.00  0.00     0.055 A 
HETATM   17  C16 UNL     1       5.191   0.374  -1.515  1.00  0.00     0.070 A 
HETATM   18  C18 UNL     1       3.891   0.327  -1.106  1.00  0.00     0.052 A 
BRANCH  17  19
HETATM   19  O2  UNL     1       5.578   1.139  -2.576  1.00  0.00    -0.356 OA
HETATM   20  C17 UNL     1       6.929   1.197  -3.013  1.00  0.00     0.210 C 
ENDBRANCH  17  19
ENDBRANCH   9  12
BRANCH   1  21
HETATM   21  O1  UNL     1      -3.688   1.073   0.130  1.00  0.00    -0.337 OA
BRANCH  21  22
HETATM   22  C4  UNL     1      -4.955   0.814   0.610  1.00  0.00     0.221 C 
BRANCH  22  23
HETATM   23  C3  UNL     1      -5.887   0.354  -0.513  1.00  0.00     0.068 C 
BRANCH  23  24
HETATM   24  C2  UNL     1      -5.348  -0.884  -1.124  1.00  0.00    -0.034 C 
HETATM   25  C1  UNL     1      -5.040  -0.901  -2.401  1.00  0.00     0.007 C 
ENDBRANCH  23  24
ENDBRANCH  22  23
BRANCH  22  26
HETATM   26  C20 UNL     1      -5.555   1.967   1.338  1.00  0.00     0.261 C 
HETATM   27  N3  UNL     1      -4.830   3.172   1.478  1.00  0.00    -0.060 NA
HETATM   28  O3  UNL     1      -6.706   1.887   1.834  1.00  0.00    -0.274 OA
ENDBRANCH  22  26
ENDBRANCH  21  22
ENDBRANCH   1  21
TORSDOF 7
