REMARK  5 active torsions:
REMARK  status: ('A' for Active; 'I' for Inactive)
REMARK    1  A    between atoms: C2_2  and  C3_3 
REMARK    2  A    between atoms: C3_3  and  N1_4 
REMARK    3  A    between atoms: C5_9  and  C6_10 
REMARK    4  A    between atoms: C6_10  and  N3_11 
REMARK    5  A    between atoms: N3_11  and  N4_13 
ROOT
HETATM    1  N1  UNL     1      -1.154  -1.098   0.288  1.00  0.00    -0.375 N 
ATOM      2  H1  UNL     1      -1.587  -2.021   0.300  1.00  0.00     0.161 HD
HETATM    3  C4  UNL     1      -0.095  -0.927   0.979  1.00  0.00     0.098 A 
HETATM    4  N2  UNL     1       0.849  -1.594   1.879  1.00  0.00    -0.365 N 
ATOM      5  H2  UNL     1       1.160  -2.422   2.386  1.00  0.00     0.161 HD
HETATM    6  C5  UNL     1       1.017  -0.156   1.500  1.00  0.00     0.169 A 
ENDROOT
BRANCH   6   7
HETATM    7  C6  UNL     1       2.262   0.073   0.712  1.00  0.00     0.173 C 
BRANCH   7   8
HETATM    8  N3  UNL     1       2.056   0.768  -0.540  1.00  0.00    -0.320 N 
ATOM      9  H3  UNL     1       1.129   1.070  -0.839  1.00  0.00     0.181 HD
BRANCH   8  10
HETATM   10  N4  UNL     1       3.190   1.005  -1.319  1.00  0.00    -0.254 N 
HETATM   11  N5  UNL     1       4.360   1.148  -0.858  1.00  0.00    -0.331 N 
ATOM     12  H52 UNL     1       4.464   1.083   0.155  1.00  0.00     0.178 HD
ATOM     13  H51 UNL     1       5.189   1.321  -1.427  1.00  0.00     0.178 HD
ATOM     14  H4  UNL     1       3.067   1.067  -2.330  1.00  0.00     0.207 HD
ENDBRANCH   8  10
ENDBRANCH   7   8
ENDBRANCH   6   7
BRANCH   1  15
HETATM   15  C3  UNL     1      -1.777  -0.073  -0.508  1.00  0.00     0.147 C 
BRANCH  15  16
HETATM   16  C2  UNL     1      -3.195   0.138  -0.181  1.00  0.00    -0.018 C 
HETATM   17  C1  UNL     1      -4.121  -0.037  -1.104  1.00  0.00     0.008 C 
ENDBRANCH  15  16
ENDBRANCH   1  15
TORSDOF 5
