REMARK  12 active torsions:
REMARK  status: ('A' for Active; 'I' for Inactive)
REMARK    1  A    between atoms: C3_3  and  C4_4 
REMARK    2  A    between atoms: C4_4  and  C5_5 
REMARK    3  A    between atoms: C5_5  and  C6_6 
REMARK    4  A    between atoms: C6_6  and  C7_7 
REMARK    5  A    between atoms: C10_10  and  C11_11 
REMARK    6  A    between atoms: C11_11  and  C12_12 
REMARK    7  A    between atoms: C17_19  and  O1_20 
REMARK    8  A    between atoms: O1_20  and  C18_21 
REMARK    9  A    between atoms: C18_21  and  C19_22 
REMARK   10  A    between atoms: C19_22  and  C20_23 
REMARK   11  A    between atoms: N2_27  and  O2_28 
REMARK   12  A    between atoms: C24_30  and  O3_31 
ROOT
HETATM    1  C1  UNL     1      -8.158   4.884   0.641  1.00  0.00     0.012 C 
HETATM    2  C2  UNL     1      -7.840   3.931  -0.025  1.00  0.00    -0.117 C 
HETATM    3  C3  UNL     1      -7.470   2.784  -0.851  1.00  0.00     0.093 C 
ENDROOT
BRANCH   3   4
HETATM    4  C4  UNL     1      -7.941   1.482  -0.239  1.00  0.00     0.016 C 
BRANCH   4   5
HETATM    5  C5  UNL     1      -7.545   0.300  -1.116  1.00  0.00     0.030 C 
BRANCH   5   6
HETATM    6  C6  UNL     1      -6.097   0.270  -1.241  1.00  0.00     0.003 C 
BRANCH   6   7
HETATM    7  C7  UNL     1      -5.139  -0.374  -0.601  1.00  0.00     0.031 A 
HETATM    8  C8  UNL     1      -3.811  -0.135  -1.031  1.00  0.00     0.045 A 
HETATM    9  C9  UNL     1      -2.970  -0.893  -0.282  1.00  0.00     0.021 A 
HETATM   10  C10 UNL     1      -1.575  -1.053  -0.282  1.00  0.00     0.046 A 
HETATM   11  C31 UNL     1      -3.825  -1.615   0.634  1.00  0.00     0.059 A 
HETATM   12  N3  UNL     1      -1.092  -1.916   0.621  1.00  0.00    -0.355 N 
HETATM   13  C25 UNL     1      -1.875  -2.606   1.483  1.00  0.00     0.045 A 
ATOM     14  H3  UNL     1      -0.083  -2.061   0.661  1.00  0.00     0.166 HD
HETATM   15  C26 UNL     1      -1.231  -3.479   2.340  1.00  0.00     0.030 A 
HETATM   16  C30 UNL     1      -3.251  -2.498   1.536  1.00  0.00     0.018 A 
HETATM   17  C27 UNL     1      -1.976  -4.224   3.229  1.00  0.00     0.002 A 
HETATM   18  C28 UNL     1      -3.342  -4.125   3.287  1.00  0.00     0.001 A 
HETATM   19  C29 UNL     1      -3.983  -3.247   2.424  1.00  0.00     0.016 A 
HETATM   20  N4  UNL     1      -5.110  -1.260   0.397  1.00  0.00    -0.350 N 
HETATM   21  C32 UNL     1      -6.259  -1.694   1.135  1.00  0.00     0.156 C 
BRANCH  10  22
HETATM   22  C11 UNL     1      -0.892  -0.256  -1.054  1.00  0.00     0.047 C 
BRANCH  22  23
HETATM   23  C12 UNL     1       0.484  -0.069  -1.391  1.00  0.00     0.035 C 
HETATM   24  C13 UNL     1       0.748   1.096  -2.048  1.00  0.00     0.104 C 
HETATM   25  N1  UNL     1       2.000   1.611  -2.519  1.00  0.00    -0.363 N 
HETATM   26  C14 UNL     1       3.237   1.335  -1.811  1.00  0.00     0.061 A 
ATOM     27  H1  UNL     1       2.022   2.180  -3.365  1.00  0.00     0.165 HD
HETATM   28  C15 UNL     1       4.109   2.398  -1.808  1.00  0.00     0.035 A 
HETATM   29  C23 UNL     1       3.556   0.141  -1.153  1.00  0.00     0.094 A 
HETATM   30  C16 UNL     1       5.301   2.253  -1.137  1.00  0.00     0.039 A 
HETATM   31  C17 UNL     1       5.607   1.069  -0.487  1.00  0.00     0.071 A 
HETATM   32  C22 UNL     1       4.743  -0.005  -0.484  1.00  0.00     0.071 A 
HETATM   33  N2  UNL     1       2.745  -1.041  -1.172  1.00  0.00    -0.199 N 
HETATM   34  C24 UNL     1       1.468  -1.130  -1.278  1.00  0.00     0.179 C 
BRANCH  31  35
HETATM   35  O1  UNL     1       6.816   0.936   0.188  1.00  0.00    -0.351 OA
BRANCH  35  36
HETATM   36  C18 UNL     1       7.710   2.009   0.201  1.00  0.00     0.175 C 
BRANCH  36  37
HETATM   37  C19 UNL     1       8.922   1.616   0.986  1.00  0.00     0.026 C 
BRANCH  37  38
HETATM   38  C20 UNL     1       9.604   0.409   0.370  1.00  0.00    -0.002 C 
HETATM   39  C21 UNL     1      10.827   0.010   1.161  1.00  0.00     0.005 C 
ENDBRANCH  37  38
ENDBRANCH  36  37
ENDBRANCH  35  36
ENDBRANCH  31  35
BRANCH  33  40
HETATM   40  O2  UNL     1       3.460  -2.225  -1.036  1.00  0.00    -0.280 OA
ATOM     41  H2  UNL     1       2.923  -3.008  -1.049  1.00  0.00     0.245 HD
ENDBRANCH  33  40
BRANCH  34  42
HETATM   42  O3  UNL     1       0.990  -2.467  -1.310  1.00  0.00    -0.344 OA
ATOM     43  H3  UNL     1       1.634  -3.161  -1.236  1.00  0.00     0.219 HD
ENDBRANCH  34  42
ENDBRANCH  22  23
ENDBRANCH  10  22
ENDBRANCH   6   7
ENDBRANCH   5   6
ENDBRANCH   4   5
ENDBRANCH   3   4
TORSDOF 12
