REMARK  6 active torsions:
REMARK  status: ('A' for Active; 'I' for Inactive)
REMARK    1  A    between atoms: N1_2  and  C2_4 
REMARK    2  A    between atoms: C2_4  and  C3_5 
REMARK    3  A    between atoms: C3_5  and  N2_6 
REMARK    4  A    between atoms: N2_6  and  C4_9 
REMARK    5  A    between atoms: C4_9  and  C5_10 
REMARK    6  A    between atoms: C5_10  and  N3_11 
ROOT
HETATM    1  C4  UNL     1       0.510   0.616   0.161  1.00  0.00     0.277 C 
ENDROOT
BRANCH   1   2
HETATM    2  N2  UNL     1       1.935   0.458   0.296  1.00  0.00    -0.069 N 
ATOM      3  H22 UNL     1       2.179   0.129   1.230  1.00  0.00     0.277 HD
ATOM      4  H21 UNL     1       2.403   1.364   0.312  1.00  0.00     0.277 HD
BRANCH   2   5
HETATM    5  C3  UNL     1       2.502  -0.396  -0.715  1.00  0.00     0.252 C 
BRANCH   5   6
HETATM    6  C2  UNL     1       4.000  -0.468  -0.385  1.00  0.00     0.145 C 
BRANCH   6   7
HETATM    7  N1  UNL     1       4.465   0.883  -0.438  1.00  0.00    -0.406 N 
HETATM    8  C1  UNL     1       5.560   1.214   0.130  1.00  0.00     0.112 C 
ATOM      9  H1  UNL     1       3.918   1.588  -0.933  1.00  0.00     0.158 HD
ENDBRANCH   6   7
ENDBRANCH   5   6
ENDBRANCH   2   5
ENDBRANCH   1   2
BRANCH   1  10
HETATM   10  C5  UNL     1      -0.267  -0.641   0.480  1.00  0.00     0.090 C 
BRANCH  10  11
HETATM   11  N3  UNL     1      -1.639  -0.414   0.320  1.00  0.00    -0.369 N 
HETATM   12  C6  UNL     1      -2.169  -0.208  -0.974  1.00  0.00     0.146 C 
HETATM   13  C7  UNL     1      -3.544  -0.868  -1.095  1.00  0.00     0.134 C 
HETATM   14  N4  UNL     1      -4.382  -0.365  -0.049  1.00  0.00    -0.415 N 
HETATM   15  C8  UNL     1      -3.752   0.517   0.880  1.00  0.00     0.158 C 
ATOM     16  H4  UNL     1      -5.366  -0.621   0.028  1.00  0.00     0.153 HD
HETATM   17  C9  UNL     1      -2.437  -0.024   1.408  1.00  0.00     0.082 C 
ENDBRANCH  10  11
ENDBRANCH   1  10
TORSDOF 6
