REMARK  5 active torsions:
REMARK  status: ('A' for Active; 'I' for Inactive)
REMARK    1  A    between atoms: N1_4  and  C4_5 
REMARK    2  A    between atoms: C4_5  and  C5_6 
REMARK    3  A    between atoms: C5_6  and  N2_7 
REMARK    4  A    between atoms: N2_7  and  C6_10 
REMARK    5  A    between atoms: C6_10  and  C7_11 
ROOT
HETATM    1  N2  UNL     1      -1.386   0.843  -0.800  1.00  0.00    -0.071 N 
ATOM      2  H21 UNL     1      -1.602   0.373  -1.679  1.00  0.00     0.277 HD
ATOM      3  H22 UNL     1      -1.584   1.801  -1.089  1.00  0.00     0.277 HD
ENDROOT
BRANCH   1   4
HETATM    4  C5  UNL     1      -0.004   0.670  -0.422  1.00  0.00     0.262 C 
BRANCH   4   5
HETATM    5  C4  UNL     1       0.400  -0.759  -0.306  1.00  0.00     0.299 C 
BRANCH   5   6
HETATM    6  N1  UNL     1       1.769  -0.949   0.043  1.00  0.00     0.090 N 
HETATM    7  C3  UNL     1       2.661  -0.572  -1.007  1.00  0.00     0.272 C 
HETATM    8  C2  UNL     1       3.918  -0.067  -0.366  1.00  0.00     0.032 C 
HETATM    9  C1  UNL     1       3.631   0.096   1.111  1.00  0.00     0.032 C 
HETATM   10  C9  UNL     1       2.203  -0.390   1.277  1.00  0.00     0.272 C 
ENDBRANCH   5   6
ENDBRANCH   4   5
ENDBRANCH   1   4
BRANCH   1  11
HETATM   11  C6  UNL     1      -2.241   0.419   0.252  1.00  0.00     0.267 C 
BRANCH  11  12
HETATM   12  C7  UNL     1      -3.712   0.599  -0.074  1.00  0.00     0.236 A 
HETATM   13  C8  UNL     1      -4.633   0.143   1.042  1.00  0.00     0.267 A 
HETATM   14  N3  UNL     1      -4.567  -0.546  -0.236  1.00  0.00    -0.066 N 
ATOM     15  H32 UNL     1      -5.271  -0.798  -0.930  1.00  0.00     0.277 HD
ATOM     16  H31 UNL     1      -4.391  -1.516  -0.497  1.00  0.00     0.277 HD
ENDBRANCH  11  12
ENDBRANCH   1  11
TORSDOF 5
