REMARK  6 active torsions:
REMARK  status: ('A' for Active; 'I' for Inactive)
REMARK    1  A    between atoms: N2_3  and  C2_5 
REMARK    2  A    between atoms: C2_5  and  C3_6 
REMARK    3  A    between atoms: C4_8  and  N3_9 
REMARK    4  A    between atoms: N3_9  and  C5_11 
REMARK    5  A    between atoms: C5_11  and  C6_12 
REMARK    6  A    between atoms: N4_13  and  C7_15 
ROOT
HETATM    1  C3  UNL     1       1.198  -1.302   0.327  1.00  0.00     0.190 A 
HETATM    2  O1  UNL     1       0.619  -0.255   1.019  1.00  0.00    -0.353 OA
HETATM    3  C4  UNL     1      -0.136  -0.701  -0.061  1.00  0.00     0.248 A 
ENDROOT
BRANCH   3   4
HETATM    4  N3  UNL     1      -1.249  -1.576   0.159  1.00  0.00    -0.390 N 
ATOM      5  H3  UNL     1      -1.167  -2.431   0.709  1.00  0.00     0.156 HD
BRANCH   4   6
HETATM    6  C5  UNL     1      -2.478  -1.173  -0.441  1.00  0.00     0.161 C 
BRANCH   6   7
HETATM    7  C6  UNL     1      -2.964   0.050   0.231  1.00  0.00     0.082 C 
HETATM    8  N4  UNL     1      -2.368   1.154  -0.084  1.00  0.00    -0.346 N 
ATOM      9  H4  UNL     1      -1.606   1.153  -0.762  1.00  0.00     0.167 HD
BRANCH   8  10
HETATM   10  C7  UNL     1      -2.783   2.357   0.520  1.00  0.00     0.352 C 
HETATM   11  O2  UNL     1      -3.952   2.816   0.277  1.00  0.00    -0.283 OA
ENDBRANCH   8  10
ENDBRANCH   6   7
ENDBRANCH   4   6
ENDBRANCH   3   4
BRANCH   1  12
HETATM   12  C2  UNL     1       2.315  -1.059  -0.629  1.00  0.00     0.156 C 
BRANCH  12  13
HETATM   13  N2  UNL     1       3.474  -0.472  -0.040  1.00  0.00    -0.385 N 
HETATM   14  C1  UNL     1       3.623   0.786   0.181  1.00  0.00     0.185 C 
HETATM   15  N1  UNL     1       2.603   1.679  -0.163  1.00  0.00    -0.097 NA
ATOM     16  H2  UNL     1       4.238  -1.094   0.224  1.00  0.00     0.159 HD
ENDBRANCH  12  13
ENDBRANCH   1  12
TORSDOF 6
