REMARK  9 active torsions:
REMARK  status: ('A' for Active; 'I' for Inactive)
REMARK    1  A    between atoms: C3_3  and  C4_4 
REMARK    2  A    between atoms: C6_6  and  O1_7 
REMARK    3  A    between atoms: O1_7  and  C7_8 
REMARK    4  A    between atoms: C7_8  and  C8_9 
REMARK    5  A    between atoms: C11_12  and  N1_13 
REMARK    6  A    between atoms: N1_13  and  C12_15 
REMARK    7  A    between atoms: C20_26  and  O3_27 
REMARK    8  A    between atoms: O3_27  and  C21_28 
REMARK    9  A    between atoms: C21_28  and  C22_31 
ROOT
HETATM    1  O1  UNL     1      -1.433   0.856   0.984  1.00  0.00    -0.351 OA
ENDROOT
BRANCH   1   2
HETATM    2  C6  UNL     1      -2.813   0.679   0.753  1.00  0.00     0.072 A 
HETATM    3  C5  UNL     1      -3.336   0.703  -0.505  1.00  0.00     0.048 A 
HETATM    4  C4  UNL     1      -4.710   0.532  -0.803  1.00  0.00    -0.031 A 
HETATM    5  C23 UNL     1      -5.533   0.331   0.265  1.00  0.00     0.048 A 
HETATM    6  C20 UNL     1      -5.025   0.300   1.575  1.00  0.00     0.079 A 
HETATM    7  C19 UNL     1      -3.685   0.473   1.794  1.00  0.00     0.073 A 
BRANCH   4   8
HETATM    8  C3  UNL     1      -5.119   0.586  -2.193  1.00  0.00     0.007 C 
HETATM    9  C2  UNL     1      -6.278   0.454  -2.716  1.00  0.00    -0.030 C 
HETATM   10  C1  UNL     1      -7.603   0.206  -2.158  1.00  0.00     0.036 C 
ENDBRANCH   4   8
BRANCH   6  11
HETATM   11  O3  UNL     1      -5.927   0.089   2.632  1.00  0.00    -0.279 OA
BRANCH  11  12
HETATM   12  C21 UNL     1      -6.241  -1.176   3.121  1.00  0.00     0.418 C 
HETATM   13  F2  UNL     1      -5.140  -1.856   3.603  1.00  0.00    -0.169 F 
HETATM   14  F3  UNL     1      -7.082  -0.981   4.224  1.00  0.00    -0.169 F 
BRANCH  12  15
HETATM   15  C22 UNL     1      -6.972  -2.078   2.185  1.00  0.00     0.455 C 
HETATM   16  F4  UNL     1      -8.194  -1.585   1.773  1.00  0.00    -0.205 F 
HETATM   17  F5  UNL     1      -7.249  -3.253   2.888  1.00  0.00    -0.205 F 
ENDBRANCH  12  15
ENDBRANCH  11  12
ENDBRANCH   6  11
ENDBRANCH   1   2
BRANCH   1  18
HETATM   18  C7  UNL     1      -0.614   1.060  -0.149  1.00  0.00     0.184 C 
BRANCH  18  19
HETATM   19  C8  UNL     1       0.846   1.232   0.257  1.00  0.00     0.065 C 
HETATM   20  C9  UNL     1       1.300   0.004   0.968  1.00  0.00     0.013 C 
HETATM   21  C10 UNL     1       2.767  -0.314   0.701  1.00  0.00     0.025 C 
HETATM   22  C11 UNL     1       3.553   0.949   0.471  1.00  0.00     0.083 C 
HETATM   23  C17 UNL     1       3.083   1.655  -0.788  1.00  0.00     0.085 C 
HETATM   24  C18 UNL     1       1.601   1.497  -1.024  1.00  0.00     0.186 C 
HETATM   25  F1  UNL     1       1.127   2.684  -1.548  1.00  0.00    -0.225 F 
HETATM   26 CL1  UNL     1       1.252   0.236  -2.228  1.00  0.00    -0.082 Cl
BRANCH  22  27
HETATM   27  N1  UNL     1       4.906   0.798   0.618  1.00  0.00    -0.392 N 
ATOM     28  H1  UNL     1       5.322   1.312   1.394  1.00  0.00     0.156 HD
BRANCH  27  29
HETATM   29  C12 UNL     1       5.784   0.051  -0.133  1.00  0.00     0.216 C 
HETATM   30  C13 UNL     1       5.516  -1.425  -0.066  1.00  0.00     0.053 C 
HETATM   31  C14 UNL     1       6.846  -2.168  -0.280  1.00  0.00     0.006 C 
HETATM   32  C15 UNL     1       7.629  -1.375  -1.330  1.00  0.00     0.026 C 
HETATM   33  C16 UNL     1       8.039  -0.091  -0.597  1.00  0.00     0.170 C 
HETATM   34  O2  UNL     1       7.102   0.202   0.396  1.00  0.00    -0.367 OA
ENDBRANCH  27  29
ENDBRANCH  22  27
ENDBRANCH  18  19
ENDBRANCH   1  18
TORSDOF 9
