REMARK  2 active torsions:
REMARK  status: ('A' for Active; 'I' for Inactive)
REMARK    1  A    between atoms: C4_4  and  N1_5 
REMARK    2  A    between atoms: N1_5  and  N2_6 
ROOT
HETATM    1  C1  UNL     1      -2.921  -0.484  -0.700  1.00  0.00     0.000 C 
HETATM    2  C2  UNL     1      -2.406  -1.316   0.439  1.00  0.00     0.002 C 
HETATM    3  C3  UNL     1      -0.885  -1.131   0.467  1.00  0.00     0.022 C 
HETATM    4  C4  UNL     1      -0.650   0.246   1.012  1.00  0.00     0.093 C 
HETATM    5  C8  UNL     1      -1.305   1.250   0.139  1.00  0.00     0.022 C 
HETATM    6  C9  UNL     1      -2.036   0.676  -1.040  1.00  0.00     0.002 C 
ENDROOT
BRANCH   4   7
HETATM    7  N1  UNL     1       0.752   0.479   1.252  1.00  0.00    -0.159 NA
BRANCH   7   8
HETATM    8  N2  UNL     1       1.529   0.365   0.098  1.00  0.00    -0.224 NA
HETATM    9  C5  UNL     1       2.394  -0.768   0.273  1.00  0.00     0.120 C 
HETATM   10  C6  UNL     1       3.317  -0.821  -0.937  1.00  0.00     0.091 C 
HETATM   11  S1  UNL     1       3.748   0.964  -1.026  1.00  0.00    -0.152 SA
HETATM   12  C7  UNL     1       2.348   1.549   0.012  1.00  0.00     0.183 C 
ENDBRANCH   7   8
ENDBRANCH   4   7
TORSDOF 2
