REMARK  8 active torsions:
REMARK  status: ('A' for Active; 'I' for Inactive)
REMARK    1  A    between atoms: C3_6  and  O2_7 
REMARK    2  A    between atoms: N2_9  and  C4_10 
REMARK    3  A    between atoms: C4_10  and  C5_11 
REMARK    4  A    between atoms: C5_11  and  C6_12 
REMARK    5  A    between atoms: C6_12  and  C7_13 
REMARK    6  A    between atoms: C7_13  and  C8_14 
REMARK    7  A    between atoms: C8_14  and  N3_15 
REMARK    8  A    between atoms: N4_18  and  C11_19 
ROOT
HETATM    1  N3  UNL     1      -0.308  -1.018   0.163  1.00  0.00    -0.390 N 
HETATM    2  C9  UNL     1      -0.113  -0.278   1.337  1.00  0.00     0.141 C 
HETATM    3  C10 UNL     1       1.250  -0.652   1.931  1.00  0.00     0.143 C 
HETATM    4  N4  UNL     1       2.241  -0.939   0.927  1.00  0.00    -0.378 N 
HETATM    5  C20 UNL     1       1.928  -2.036  -0.004  1.00  0.00     0.143 C 
HETATM    6  C21 UNL     1       0.450  -2.187  -0.059  1.00  0.00     0.141 C 
ENDROOT
BRANCH   1   7
HETATM    7  C8  UNL     1      -0.655  -0.364  -1.031  1.00  0.00     0.058 C 
BRANCH   7   8
HETATM    8  C7  UNL     1      -2.050   0.223  -1.067  1.00  0.00     0.044 C 
BRANCH   8   9
HETATM    9  C6  UNL     1      -3.091  -0.865  -0.903  1.00  0.00     0.007 C 
BRANCH   9  10
HETATM   10  C5  UNL     1      -4.499  -0.385  -0.925  1.00  0.00     0.021 C 
BRANCH  10  11
HETATM   11  C4  UNL     1      -4.831   0.591   0.157  1.00  0.00     0.136 C 
BRANCH  11  12
HETATM   12  N2  UNL     1      -6.207   1.008   0.080  1.00  0.00    -0.279 N 
HETATM   13  C1  UNL     1      -6.650   2.063  -0.608  1.00  0.00     0.328 A 
HETATM   14  O1  UNL     1      -5.967   2.888  -1.305  1.00  0.00    -0.246 OA
HETATM   15  N1  UNL     1      -7.986   2.184  -0.487  1.00  0.00    -0.314 N 
HETATM   16  C2  UNL     1      -8.424   1.192   0.293  1.00  0.00     0.148 A 
ATOM     17  H1  UNL     1      -8.563   2.907  -0.916  1.00  0.00     0.170 HD
HETATM   18  C3  UNL     1      -7.296   0.458   0.645  1.00  0.00     0.162 A 
BRANCH  18  19
HETATM   19  O2  UNL     1      -7.289  -0.661   1.446  1.00  0.00    -0.345 OA
ATOM     20  H2  UNL     1      -6.519  -1.162   1.686  1.00  0.00     0.219 HD
ENDBRANCH  18  19
ENDBRANCH  11  12
ENDBRANCH  10  11
ENDBRANCH   9  10
ENDBRANCH   8   9
ENDBRANCH   7   8
ENDBRANCH   1   7
BRANCH   4  21
HETATM   21  C11 UNL     1       3.479  -0.243   0.776  1.00  0.00     0.032 A 
HETATM   22  C12 UNL     1       3.697   0.977   1.356  1.00  0.00     0.049 A 
HETATM   23  C13 UNL     1       4.951   1.548   1.156  1.00  0.00     0.019 A 
HETATM   24 BR1  UNL     1       5.272   3.248   1.960  1.00  0.00    -0.050 Br
HETATM   25  C14 UNL     1       5.952   0.957   0.423  1.00  0.00    -0.034 A 
HETATM   26  C15 UNL     1       5.723  -0.269  -0.156  1.00  0.00    -0.048 A 
HETATM   27  C19 UNL     1       7.333   1.396   0.100  1.00  0.00     0.041 C 
HETATM   28  C16 UNL     1       4.493  -0.855   0.025  1.00  0.00     0.037 A 
HETATM   29  C17 UNL     1       6.965  -0.699  -0.893  1.00  0.00     0.039 C 
HETATM   30  C18 UNL     1       7.578   0.646  -1.218  1.00  0.00     0.009 C 
ENDBRANCH   4  21
TORSDOF 8
