REMARK  6 active torsions:
REMARK  status: ('A' for Active; 'I' for Inactive)
REMARK       I    between atoms: C1_4  and  N3_6 
REMARK    1  A    between atoms: N3_6  and  C2_8 
REMARK    2  A    between atoms: C3_11  and  S1_12 
REMARK    3  A    between atoms: C4_18  and  N6_19 
REMARK    4  A    between atoms: N6_19  and  C5_21 
REMARK    5  A    between atoms: C5_21  and  C6_22 
REMARK    6  A    between atoms: C6_22  and  N7_23 
ROOT
HETATM    1  C2  UNL     1      -2.148   1.089  -0.041  1.00  0.00     0.701 A 
HETATM    2  N4  UNL     1      -2.687  -0.137   0.063  1.00  0.00    -0.162 N 
ATOM      3  H4  UNL     1      -3.701  -0.240   0.102  1.00  0.00     0.186 HD
HETATM    4  C3  UNL     1      -1.898  -1.239   0.117  1.00  0.00     0.254 A 
HETATM    5  N5  UNL     1      -0.572  -1.032   0.061  1.00  0.00    -0.162 N 
ATOM      6  H5  UNL     1       0.038  -1.849   0.100  1.00  0.00     0.186 HD
HETATM    7  C4  UNL     1       0.007   0.175  -0.043  1.00  0.00     0.694 A 
HETATM    8  N9  UNL     1      -0.816   1.263  -0.094  1.00  0.00    -0.022 N 
ATOM      9  H9  UNL     1      -0.423   2.201  -0.172  1.00  0.00     0.203 HD
ENDROOT
BRANCH   7  10
HETATM   10  N6  UNL     1       1.289   0.329  -0.093  1.00  0.00    -0.224 N 
ATOM     11  H6  UNL     1       1.705   1.257  -0.171  1.00  0.00     0.177 HD
BRANCH  10  12
HETATM   12  C5  UNL     1       2.107  -0.845  -0.035  1.00  0.00     0.157 C 
BRANCH  12  13
HETATM   13  C6  UNL     1       3.586  -0.523   0.046  1.00  0.00     0.140 C 
BRANCH  13  14
HETATM   14  N7  UNL     1       4.041   0.234  -1.095  1.00  0.00    -0.386 N 
HETATM   15  C7  UNL     1       5.147   0.865  -1.049  1.00  0.00     0.185 C 
HETATM   16  N8  UNL     1       5.946   0.835   0.114  1.00  0.00    -0.097 NA
ATOM     17  H7  UNL     1       3.474   0.264  -1.943  1.00  0.00     0.159 HD
ENDBRANCH  13  14
ENDBRANCH  12  13
ENDBRANCH  10  12
ENDBRANCH   7  10
BRANCH   4  18
HETATM   18  S1  UNL     1      -2.574  -2.847   0.252  1.00  0.00     0.173 S 
HETATM   19  O1  UNL     1      -1.442  -3.818   0.275  1.00  0.00    -0.589 OA
HETATM   20  O2  UNL     1      -3.475  -3.168  -0.904  1.00  0.00    -0.589 OA
HETATM   21  O3  UNL     1      -3.465  -2.893   1.682  1.00  0.00    -0.589 OA
ENDBRANCH   4  18
BRANCH   1  22
HETATM   22  N3  UNL     1      -2.929   2.112  -0.089  1.00  0.00    -0.163 N 
HETATM   23  C1  UNL     1      -4.337   1.994  -0.037  1.00  0.00     0.200 C 
HETATM   24  N1  UNL     1      -5.048   2.929   0.485  1.00  0.00    -0.373 N 
HETATM   25  N2  UNL     1      -5.000   0.855  -0.553  1.00  0.00    -0.063 NA
ATOM     26  H12 UNL     1      -6.064   2.844   0.523  1.00  0.00     0.158 HD
ATOM     27  H11 UNL     1      -4.570   3.750   0.857  1.00  0.00     0.158 HD
ATOM     28  H3  UNL     1      -2.517   3.042  -0.167  1.00  0.00     0.187 HD
ENDBRANCH   1  22
TORSDOF 6
