REMARK  6 active torsions:
REMARK  status: ('A' for Active; 'I' for Inactive)
REMARK    1  A    between atoms: C2_2  and  C3_3 
REMARK    2  A    between atoms: C3_3  and  N1_4 
REMARK    3  A    between atoms: N1_4  and  C4_7 
REMARK    4  A    between atoms: C8_11  and  N2_12 
REMARK    5  A    between atoms: N2_12  and  C9_14 
REMARK    6  A    between atoms: C9_14  and  C10_15 
ROOT
HETATM    1  C4  UNL     1       2.431  -0.572  -0.345  1.00  0.00     0.216 C 
HETATM    2  C5  UNL     1       1.536  -0.670   0.863  1.00  0.00     0.070 C 
HETATM    3  C6  UNL     1       0.284  -1.291   0.307  1.00  0.00     0.227 C 
HETATM    4  C7  UNL     1      -0.962  -0.512   0.639  1.00  0.00     0.062 C 
HETATM    5  C8  UNL     1      -1.787  -0.511  -0.627  1.00  0.00     0.111 C 
HETATM    6  C12 UNL     1      -0.824  -0.966  -1.720  1.00  0.00     0.297 C 
HETATM    7  N3  UNL     1       0.394  -1.360  -1.116  1.00  0.00     0.097 N 
HETATM    8  C13 UNL     1       1.438  -0.411  -1.469  1.00  0.00     0.305 C 
ENDROOT
BRANCH   1   9
HETATM    9  N1  UNL     1       3.267   0.612  -0.308  1.00  0.00    -0.066 N 
ATOM     10  H12 UNL     1       2.706   1.464  -0.311  1.00  0.00     0.278 HD
ATOM     11  H11 UNL     1       3.763   0.745  -1.190  1.00  0.00     0.278 HD
BRANCH   9  12
HETATM   12  C3  UNL     1       4.185   0.586   0.817  1.00  0.00     0.259 C 
BRANCH  12  13
HETATM   13  C2  UNL     1       4.970   1.844   0.787  1.00  0.00    -0.010 C 
HETATM   14  C1  UNL     1       4.802   2.792  -0.126  1.00  0.00     0.008 C 
ENDBRANCH  12  13
ENDBRANCH   9  12
ENDBRANCH   1   9
BRANCH   5  15
HETATM   15  N2  UNL     1      -2.884  -1.377  -0.485  1.00  0.00    -0.396 N 
ATOM     16  H2  UNL     1      -2.945  -2.185  -1.105  1.00  0.00     0.159 HD
BRANCH  15  17
HETATM   17  C9  UNL     1      -3.888  -1.192   0.453  1.00  0.00     0.055 C 
BRANCH  17  18
HETATM   18  C10 UNL     1      -4.856  -0.052   0.277  1.00  0.00     0.039 C 
HETATM   19  C11 UNL     1      -4.283   1.311   0.288  1.00  0.00     0.010 C 
ENDBRANCH  17  18
ENDBRANCH  15  17
ENDBRANCH   5  15
TORSDOF 6
