REMARK  7 active torsions:
REMARK  status: ('A' for Active; 'I' for Inactive)
REMARK    1  A    between atoms: C3_3  and  C4_4 
REMARK    2  A    between atoms: C4_4  and  C5_5 
REMARK    3  A    between atoms: C5_5  and  N1_6 
REMARK    4  A    between atoms: N1_6  and  C6_9 
REMARK    5  A    between atoms: C6_9  and  C7_10 
REMARK    6  A    between atoms: C7_10  and  N2_11 
REMARK    7  A    between atoms: N3_17  and  C10_18 
ROOT
HETATM    1  C1  UNL     1      -5.940  -0.692   1.702  1.00  0.00     0.096 C 
HETATM    2  C2  UNL     1      -5.738  -0.242   0.586  1.00  0.00    -0.188 C 
HETATM    3  C3  UNL     1      -5.476   0.289  -0.761  1.00  0.00     0.081 C 
ENDROOT
BRANCH   3   4
HETATM    4  C4  UNL     1      -4.030  -0.065  -1.136  1.00  0.00     0.039 C 
BRANCH   4   5
HETATM    5  C5  UNL     1      -3.100   0.570  -0.115  1.00  0.00     0.233 C 
BRANCH   5   6
HETATM    6  N1  UNL     1      -1.755   0.138  -0.413  1.00  0.00    -0.073 N 
ATOM      7  H12 UNL     1      -1.714  -0.863  -0.606  1.00  0.00     0.277 HD
ATOM      8  H11 UNL     1      -1.440   0.482  -1.320  1.00  0.00     0.277 HD
BRANCH   6   9
HETATM    9  C6  UNL     1      -0.835   0.522   0.662  1.00  0.00     0.270 C 
BRANCH   9  10
HETATM   10  C7  UNL     1       0.500  -0.074   0.320  1.00  0.00     0.150 C 
HETATM   11  C8  UNL     1       1.034   0.557  -0.925  1.00  0.00     0.070 C 
HETATM   12  C9  UNL     1       2.478   0.212  -1.156  1.00  0.00     0.275 C 
HETATM   13  N3  UNL     1       2.980  -0.822  -0.320  1.00  0.00     0.088 N 
HETATM   14  C12 UNL     1       2.737  -0.611   1.091  1.00  0.00     0.275 C 
HETATM   15  C13 UNL     1       1.520   0.174   1.415  1.00  0.00     0.070 C 
BRANCH  10  16
HETATM   16  N2  UNL     1       0.347  -1.515   0.230  1.00  0.00    -0.069 N 
ATOM     17  H23 UNL     1      -0.059  -1.920   1.073  1.00  0.00     0.275 HD
ATOM     18  H22 UNL     1      -0.386  -1.792  -0.424  1.00  0.00     0.275 HD
ATOM     19  H21 UNL     1       1.254  -1.920  -0.002  1.00  0.00     0.275 HD
ENDBRANCH  10  16
BRANCH  13  20
HETATM   20  C10 UNL     1       4.422  -0.932  -0.558  1.00  0.00     0.268 C 
HETATM   21  C11 UNL     1       5.188   0.247   0.013  1.00  0.00     0.037 C 
ENDBRANCH  13  20
ENDBRANCH   9  10
ENDBRANCH   6   9
ENDBRANCH   5   6
ENDBRANCH   4   5
ENDBRANCH   3   4
TORSDOF 7
