REMARK  4 active torsions:
REMARK  status: ('A' for Active; 'I' for Inactive)
REMARK    1  A    between atoms: C4_8  and  N2_9 
REMARK    2  A    between atoms: N2_9  and  N3_11 
REMARK    3  A    between atoms: N3_11  and  S1_13 
REMARK    4  A    between atoms: S1_13  and  C5_16 
ROOT
HETATM    1  N2  UNL     1       0.771  -0.005  -0.909  1.00  0.00    -0.300 N 
ATOM      2  H2  UNL     1       0.226  -0.676  -1.450  1.00  0.00     0.186 HD
ENDROOT
BRANCH   1   3
HETATM    3  C4  UNL     1       2.009   0.472  -1.425  1.00  0.00     0.143 C 
HETATM    4  C3  UNL     1       3.153   0.039  -0.917  1.00  0.00     0.122 A 
HETATM    5  C2  UNL     1       4.492   0.433  -1.337  1.00  0.00     0.277 A 
HETATM    6  N4  UNL     1       3.326  -0.908   0.154  1.00  0.00    -0.303 N 
HETATM    7  N1  UNL     1       5.400  -0.282  -0.515  1.00  0.00    -0.274 N 
HETATM    8  O2  UNL     1       4.775   1.260  -2.265  1.00  0.00    -0.266 OA
HETATM    9  C1  UNL     1       4.707  -1.108   0.405  1.00  0.00     0.327 A 
ATOM     10  H1  UNL     1       6.416  -0.211  -0.578  1.00  0.00     0.173 HD
HETATM   11  O1  UNL     1       5.250  -1.863   1.266  1.00  0.00    -0.247 OA
ATOM     12  H4  UNL     1       2.567  -1.367   0.658  1.00  0.00     0.171 HD
ENDBRANCH   1   3
BRANCH   1  13
HETATM   13  N3  UNL     1       0.311   0.416   0.281  1.00  0.00    -0.223 N 
ATOM     14  H3  UNL     1       0.790   0.154   1.143  1.00  0.00     0.200 HD
BRANCH  13  15
HETATM   15  S1  UNL     1      -1.061   1.377   0.329  1.00  0.00     0.276 S 
HETATM   16  O3  UNL     1      -1.128   2.215  -0.931  1.00  0.00    -0.199 OA
HETATM   17  O4  UNL     1      -1.002   2.356   1.486  1.00  0.00    -0.199 OA
BRANCH  15  18
HETATM   18  C5  UNL     1      -2.536   0.493   0.457  1.00  0.00     0.081 A 
HETATM   19  C6  UNL     1      -3.093   0.162   1.675  1.00  0.00     0.025 A 
HETATM   20  C7  UNL     1      -4.288  -0.555   1.715  1.00  0.00     0.002 A 
HETATM   21  C8  UNL     1      -4.934  -0.945   0.556  1.00  0.00     0.000 A 
HETATM   22  C9  UNL     1      -4.379  -0.615  -0.656  1.00  0.00     0.002 A 
HETATM   23  C10 UNL     1      -3.191   0.097  -0.690  1.00  0.00     0.025 A 
ENDBRANCH  15  18
ENDBRANCH  13  15
ENDBRANCH   1  13
TORSDOF 4
