REMARK  4 active torsions:
REMARK  status: ('A' for Active; 'I' for Inactive)
REMARK    1  A    between atoms: O1_1  and  C1_3 
REMARK    2  A    between atoms: C1_3  and  C2_4 
REMARK    3  A    between atoms: N1_5  and  C3_7 
REMARK    4  A    between atoms: C12_20  and  N4_21 
ROOT
HETATM    1  C3  UNL     1       3.167  -0.255   1.075  1.00  0.00     0.112 A 
HETATM    2  N2  UNL     1       2.823  -0.843   2.273  1.00  0.00    -0.352 N 
ATOM      3  H2  UNL     1       3.581  -1.085   2.911  1.00  0.00     0.166 HD
HETATM    4  C4  UNL     1       1.591  -1.119   2.661  1.00  0.00     0.090 A 
HETATM    5  C5  UNL     1       0.559  -0.800   1.811  1.00  0.00     0.031 A 
HETATM    6  C6  UNL     1       0.863  -0.204   0.591  1.00  0.00     0.003 A 
HETATM    7  C7  UNL     1       2.134   0.085   0.182  1.00  0.00    -0.001 A 
HETATM    8  C8  UNL     1       2.413   0.689  -1.101  1.00  0.00     0.048 A 
HETATM    9  C9  UNL     1       1.305   1.111  -1.946  1.00  0.00     0.047 A 
HETATM   10  C10 UNL     1      -0.035   0.747  -1.508  1.00  0.00    -0.014 A 
HETATM   11  C11 UNL     1      -1.114   1.056  -2.364  1.00  0.00     0.115 A 
HETATM   12  N3  UNL     1      -2.325   0.743  -1.953  1.00  0.00    -0.201 N 
ATOM     13  H3  UNL     1      -3.116   0.958  -2.560  1.00  0.00     0.183 HD
HETATM   14  C12 UNL     1      -2.567   0.151  -0.767  1.00  0.00     0.680 A 
HETATM   15  N5  UNL     1      -1.520  -0.147   0.060  1.00  0.00    -0.190 N 
ATOM     16  H5  UNL     1      -1.697  -0.595   0.959  1.00  0.00     0.184 HD
HETATM   17  C17 UNL     1      -0.249   0.148  -0.305  1.00  0.00     0.067 A 
ENDROOT
BRANCH   1  18
HETATM   18  N1  UNL     1       4.341  -0.042   0.802  1.00  0.00    -0.353 N 
HETATM   19  C2  UNL     1       5.314   0.412  -0.014  1.00  0.00     0.088 C 
ATOM     20  H1  UNL     1       4.848  -0.389   1.617  1.00  0.00     0.166 HD
BRANCH  19  21
HETATM   21  C1  UNL     1       6.735  -0.051   0.327  1.00  0.00     0.208 C 
BRANCH  21  22
HETATM   22  O1  UNL     1       6.812  -1.427   0.277  1.00  0.00    -0.396 OA
ATOM     23  H1  UNL     1       7.693  -1.714   0.488  1.00  0.00     0.209 HD
ENDBRANCH  21  22
ENDBRANCH  19  21
ENDBRANCH   1  18
BRANCH  14  24
HETATM   24  N4  UNL     1      -3.896  -0.142  -0.417  1.00  0.00    -0.214 N 
HETATM   25  C13 UNL     1      -4.181  -0.778   0.841  1.00  0.00     0.167 C 
HETATM   26  C14 UNL     1      -5.677  -0.880   1.061  1.00  0.00     0.188 C 
HETATM   27  O2  UNL     1      -6.345   0.263   0.694  1.00  0.00    -0.388 OA
HETATM   28  C15 UNL     1      -6.231   0.617  -0.624  1.00  0.00     0.188 C 
HETATM   29  C16 UNL     1      -4.974   0.187  -1.304  1.00  0.00     0.167 C 
ENDBRANCH  14  24
TORSDOF 4
