REMARK  6 active torsions:
REMARK  status: ('A' for Active; 'I' for Inactive)
REMARK    1  A    between atoms: O1_1  and  C1_3 
REMARK    2  A    between atoms: C1_3  and  N1_4 
REMARK    3  A    between atoms: N1_4  and  C2_6 
REMARK    4  A    between atoms: C3_9  and  N3_10 
REMARK    5  A    between atoms: N3_10  and  C4_12 
REMARK    6  A    between atoms: C12_22  and  N5_23 
ROOT
HETATM    1  C1  UNL     1      -0.343  -2.456   0.341  1.00  0.00     0.196 C 
HETATM    2  C9  UNL     1      -1.652  -2.071   0.183  1.00  0.00     0.157 A 
HETATM    3  C10 UNL     1      -1.220  -0.444  -0.214  1.00  0.00     0.051 A 
HETATM    4  C11 UNL     1      -2.127   0.433  -0.478  1.00  0.00     0.036 A 
HETATM    5  C12 UNL     1      -3.501   0.338  -0.518  1.00  0.00     0.068 A 
HETATM    6  C16 UNL     1      -3.860  -1.035  -0.181  1.00  0.00     0.212 A 
HETATM    7  N7  UNL     1      -2.860  -1.716   0.038  1.00  0.00    -0.411 NA
ENDROOT
BRANCH   1   8
HETATM    8  O1  UNL     1      -0.269  -3.678   1.026  1.00  0.00    -0.343 OA
ATOM      9  H1  UNL     1      -1.167  -3.924   1.216  1.00  0.00     0.219 HD
ENDBRANCH   1   8
BRANCH   1  10
HETATM   10  N1  UNL     1       0.933  -2.107   0.071  1.00  0.00    -0.167 N 
ATOM     11  H1  UNL     1       1.138  -2.267  -0.915  1.00  0.00     0.186 HD
BRANCH  10  12
HETATM   12  C2  UNL     1       1.926  -1.657   0.641  1.00  0.00     0.685 A 
HETATM   13  N2  UNL     1       3.079  -1.451  -0.055  1.00  0.00    -0.176 N 
HETATM   14  C3  UNL     1       4.211  -0.965   0.411  1.00  0.00     0.122 A 
ATOM     15  H2  UNL     1       3.064  -1.700  -1.044  1.00  0.00     0.186 HD
HETATM   16  C7  UNL     1       4.221  -0.623   1.774  1.00  0.00     0.066 A 
HETATM   17  C8  UNL     1       3.082  -0.810   2.525  1.00  0.00     0.110 A 
HETATM   18  N4  UNL     1       1.986  -1.306   1.972  1.00  0.00    -0.202 N 
ATOM     19  H4  UNL     1       1.157  -1.433   2.552  1.00  0.00     0.183 HD
BRANCH  14  20
HETATM   20  N3  UNL     1       5.395  -0.756  -0.336  1.00  0.00    -0.342 N 
ATOM     21  H3  UNL     1       5.894  -1.574  -0.685  1.00  0.00     0.167 HD
BRANCH  20  22
HETATM   22  C4  UNL     1       5.869   0.386  -0.595  1.00  0.00     0.033 A 
HETATM   23  C5  UNL     1       6.910   1.072  -1.235  1.00  0.00     0.032 A 
HETATM   24  C6  UNL     1       5.893   1.777  -0.573  1.00  0.00     0.032 A 
ENDBRANCH  20  22
ENDBRANCH  14  20
ENDBRANCH  10  12
ENDBRANCH   1  10
BRANCH   5  25
HETATM   25  N5  UNL     1      -4.455   1.266  -0.831  1.00  0.00    -0.315 N 
HETATM   26  C13 UNL     1      -5.643   1.015  -1.489  1.00  0.00     0.115 A 
HETATM   27  C14 UNL     1      -6.346   2.161  -1.633  1.00  0.00     0.106 A 
HETATM   28  N6  UNL     1      -5.575   3.118  -1.053  1.00  0.00    -0.360 N 
HETATM   29  C15 UNL     1      -4.459   2.571  -0.585  1.00  0.00     0.188 A 
ATOM     30  H6  UNL     1      -5.817   4.107  -0.987  1.00  0.00     0.166 HD
ENDBRANCH   5  25
TORSDOF 6
