REMARK  9 active torsions:
REMARK  status: ('A' for Active; 'I' for Inactive)
REMARK    1  A    between atoms: N1_1  and  C1_5 
REMARK    2  A    between atoms: C1_5  and  C2_6 
REMARK    3  A    between atoms: C2_6  and  N2_7 
REMARK    4  A    between atoms: N2_7  and  C3_8 
REMARK    5  A    between atoms: N2_7  and  C9_20 
REMARK    6  A    between atoms: C3_8  and  C4_9 
REMARK    7  A    between atoms: C4_9  and  C5_10 
REMARK    8  A    between atoms: C5_10  and  N3_11 
REMARK    9  A    between atoms: N3_11  and  C6_13 
ROOT
HETATM    1  N2  UNL     1      -1.462  -0.016   0.347  1.00  0.00    -0.387 N 
ENDROOT
BRANCH   1   2
HETATM    2  C2  UNL     1      -2.067  -0.008   1.604  1.00  0.00     0.085 C 
BRANCH   2   3
HETATM    3  C1  UNL     1      -1.674  -1.208   2.430  1.00  0.00     0.274 C 
BRANCH   3   4
HETATM    4  N1  UNL     1      -2.075  -2.469   1.837  1.00  0.00    -0.075 N 
ATOM      5  H13 UNL     1      -3.076  -2.476   1.642  1.00  0.00     0.274 HD
ATOM      6  H12 UNL     1      -1.718  -2.552   0.885  1.00  0.00     0.274 HD
ATOM      7  H11 UNL     1      -1.809  -3.280   2.395  1.00  0.00     0.274 HD
ENDBRANCH   3   4
ENDBRANCH   2   3
ENDBRANCH   1   2
BRANCH   1   8
HETATM    8  C3  UNL     1      -0.066   0.193   0.434  1.00  0.00     0.124 C 
BRANCH   8   9
HETATM    9  C4  UNL     1       0.627   0.459  -0.854  1.00  0.00     0.039 C 
BRANCH   9  10
HETATM   10  C5  UNL     1       2.101   0.675  -0.633  1.00  0.00     0.124 C 
BRANCH  10  11
HETATM   11  N3  UNL     1       2.738  -0.493  -0.074  1.00  0.00    -0.362 N 
ATOM     12  H3  UNL     1       2.204  -1.337   0.134  1.00  0.00     0.162 HD
BRANCH  11  13
HETATM   13  C6  UNL     1       4.160  -0.424   0.180  1.00  0.00     0.171 C 
HETATM   14  N4  UNL     1       4.834  -1.144   1.004  1.00  0.00    -0.361 N 
HETATM   15  C7  UNL     1       6.241  -0.811   1.005  1.00  0.00     0.142 C 
ATOM     16  H4  UNL     1       4.422  -1.869   1.591  1.00  0.00     0.162 HD
HETATM   17  C8  UNL     1       6.406   0.180  -0.116  1.00  0.00     0.142 C 
HETATM   18  N5  UNL     1       5.031   0.473  -0.465  1.00  0.00    -0.361 N 
ATOM     19  H5  UNL     1       4.736   1.223  -1.090  1.00  0.00     0.162 HD
ENDBRANCH  11  13
ENDBRANCH  10  11
ENDBRANCH   9  10
ENDBRANCH   8   9
ENDBRANCH   1   8
BRANCH   1  20
HETATM   20  C9  UNL     1      -2.164   0.311  -0.821  1.00  0.00     0.087 C 
HETATM   21  C10 UNL     1      -2.704   1.712  -0.883  1.00  0.00     0.051 C 
HETATM   22  C11 UNL     1      -4.181   1.814  -0.797  1.00  0.00     0.169 C 
HETATM   23  O1  UNL     1      -4.888   0.841  -1.485  1.00  0.00    -0.391 OA
HETATM   24  C12 UNL     1      -4.573  -0.414  -0.958  1.00  0.00     0.169 C 
HETATM   25  C13 UNL     1      -3.162  -0.722  -1.302  1.00  0.00     0.051 C 
ENDBRANCH   1  20
TORSDOF 9
