REMARK  4 active torsions:
REMARK  status: ('A' for Active; 'I' for Inactive)
REMARK    1  A    between atoms: C1_2  and  N1_3 
REMARK    2  A    between atoms: C1_2  and  N2_12 
REMARK    3  A    between atoms: N1_3  and  C2_5 
REMARK    4  A    between atoms: N2_12  and  C8_14 
ROOT
HETATM    1  N2  UNL     1      -0.054  -1.085   0.213  1.00  0.00    -0.362 N 
ATOM      2  H2  UNL     1      -0.073  -2.045  -0.132  1.00  0.00     0.162 HD
ENDROOT
BRANCH   1   3
HETATM    3  C1  UNL     1       1.186  -0.344   0.188  1.00  0.00     0.172 C 
HETATM    4  S1  UNL     1       1.228   1.167   0.818  1.00  0.00    -0.041 SA
BRANCH   3   5
HETATM    5  N1  UNL     1       2.361  -0.913  -0.310  1.00  0.00    -0.333 N 
ATOM      6  H1  UNL     1       2.323  -1.877  -0.640  1.00  0.00     0.168 HD
BRANCH   5   7
HETATM    7  C2  UNL     1       3.595  -0.237  -0.384  1.00  0.00     0.034 A 
HETATM    8  C3  UNL     1       3.715   1.070  -0.759  1.00  0.00     0.031 A 
HETATM    9  C4  UNL     1       4.929   1.756  -0.802  1.00  0.00     0.026 A 
HETATM   10  C5  UNL     1       6.052   1.053  -0.442  1.00  0.00     0.034 A 
HETATM   11 CL1  UNL     1       7.588   1.914  -0.495  1.00  0.00    -0.084 Cl
HETATM   12  C6  UNL     1       5.980  -0.265  -0.059  1.00  0.00     0.026 A 
HETATM   13  C7  UNL     1       4.774  -0.896  -0.031  1.00  0.00     0.031 A 
ENDBRANCH   5   7
ENDBRANCH   3   5
ENDBRANCH   1   3
BRANCH   1  14
HETATM   14  C8  UNL     1      -1.242  -0.498   0.710  1.00  0.00     0.087 C 
HETATM   15  C9  UNL     1      -2.370  -1.548   0.808  1.00  0.00     0.058 C 
HETATM   16  C10 UNL     1      -3.708  -0.872   0.903  1.00  0.00     0.188 C 
HETATM   17  C11 UNL     1      -4.322  -0.570  -0.441  1.00  0.00     0.035 C 
HETATM   18  N3  UNL     1      -3.483   0.433   1.541  1.00  0.00    -0.067 N 
HETATM   19  C12 UNL     1      -4.219   0.956  -0.556  1.00  0.00     0.035 C 
HETATM   20  C13 UNL     1      -3.018   1.199   0.370  1.00  0.00     0.188 C 
HETATM   21  C14 UNL     1      -1.821   0.552  -0.258  1.00  0.00     0.058 C 
ATOM     22  H32 UNL     1      -4.276   0.827   2.048  1.00  0.00     0.278 HD
ATOM     23  H31 UNL     1      -2.864   0.435   2.352  1.00  0.00     0.278 HD
ENDBRANCH   1  14
TORSDOF 4
