REMARK  8 active torsions:
REMARK  status: ('A' for Active; 'I' for Inactive)
REMARK    1  A    between atoms: N3_4  and  N4_6 
REMARK    2  A    between atoms: C2_7  and  N5_8 
REMARK    3  A    between atoms: C5_14  and  N8_15 
REMARK    4  A    between atoms: C6_21  and  C7_22 
REMARK    5  A    between atoms: C7_22  and  O2_24 
REMARK    6  A    between atoms: O2_24  and  C8_25 
REMARK    7  A    between atoms: C8_25  and  C9_26 
REMARK    8  A    between atoms: C9_26  and  O3_27 
ROOT
HETATM    1  N4  UNL     1      -0.106  -0.312   0.677  1.00  0.00    -0.070 N 
HETATM    2  C2  UNL     1      -0.585   0.631  -0.151  1.00  0.00     0.706 A 
HETATM    3  N9  UNL     1       0.499   1.077  -0.836  1.00  0.00    -0.180 N 
ATOM      4  H9  UNL     1       0.472   1.804  -1.551  1.00  0.00     0.184 HD
HETATM    5  C6  UNL     1       1.608   0.435  -0.448  1.00  0.00     0.165 A 
HETATM    6  C10 UNL     1       1.230  -0.459   0.523  1.00  0.00     0.177 A 
HETATM    7 CL1  UNL     1       2.265  -1.587   1.411  1.00  0.00    -0.059 Cl
ENDROOT
BRANCH   2   8
HETATM    8  N5  UNL     1      -1.923   1.066  -0.301  1.00  0.00    -0.169 N 
HETATM    9  C3  UNL     1      -2.450   2.034   0.621  1.00  0.00     0.166 C 
HETATM   10  C4  UNL     1      -3.855   2.452   0.386  1.00  0.00     0.155 C 
HETATM   11  N6  UNL     1      -4.456   1.964  -0.808  1.00  0.00    -0.335 N 
HETATM   12  N7  UNL     1      -3.612   1.645  -1.846  1.00  0.00    -0.090 NA
ATOM     13  H6  UNL     1      -5.467   1.856  -0.890  1.00  0.00     0.175 HD
HETATM   14  C5  UNL     1      -2.747   0.566  -1.372  1.00  0.00     0.413 C 
BRANCH  14  15
HETATM   15  N8  UNL     1      -3.664  -0.475  -0.922  1.00  0.00    -0.042 N 
ATOM     16  H83 UNL     1      -3.163  -1.232  -0.458  1.00  0.00     0.278 HD
ATOM     17  H82 UNL     1      -4.232  -0.153  -0.139  1.00  0.00     0.278 HD
ATOM     18  H81 UNL     1      -4.247  -0.829  -1.680  1.00  0.00     0.278 HD
ENDBRANCH  14  15
ENDBRANCH   2   8
BRANCH   1  19
HETATM   19  N3  UNL     1      -0.830  -1.083   1.612  1.00  0.00    -0.254 N 
HETATM   20  C1  UNL     1      -1.188  -2.302   1.279  1.00  0.00     0.216 C 
HETATM   21  N1  UNL     1      -0.852  -2.825   0.000  1.00  0.00    -0.065 NA
HETATM   22  N2  UNL     1      -1.904  -3.140   2.157  1.00  0.00    -0.065 NA
ATOM     23  H3  UNL     1      -1.070  -0.701   2.527  1.00  0.00     0.190 HD
ENDBRANCH   1  19
BRANCH   5  24
HETATM   24  C7  UNL     1       2.962   0.624  -0.953  1.00  0.00     0.314 C 
HETATM   25  O1  UNL     1       3.155   1.465  -1.857  1.00  0.00    -0.257 OA
BRANCH  24  26
HETATM   26  O2  UNL     1       4.018  -0.109  -0.446  1.00  0.00    -0.314 OA
BRANCH  26  27
HETATM   27  C8  UNL     1       5.329   0.095  -0.961  1.00  0.00     0.205 C 
BRANCH  27  28
HETATM   28  C9  UNL     1       6.327  -0.790  -0.254  1.00  0.00     0.191 C 
BRANCH  28  29
HETATM   29  O3  UNL     1       6.334  -0.492   1.108  1.00  0.00    -0.399 OA
ATOM     30  H3  UNL     1       6.962  -1.049   1.553  1.00  0.00     0.209 HD
ENDBRANCH  28  29
ENDBRANCH  27  28
ENDBRANCH  26  27
ENDBRANCH  24  26
ENDBRANCH   5  24
TORSDOF 8
