REMARK  5 active torsions:
REMARK  status: ('A' for Active; 'I' for Inactive)
REMARK    1  A    between atoms: O1_2  and  C2_3 
REMARK    2  A    between atoms: C2_3  and  C3_5 
REMARK    3  A    between atoms: C5_7  and  C6_8 
REMARK    4  A    between atoms: C6_8  and  O3_9 
REMARK    5  A    between atoms: N1_11  and  O4_13 
ROOT
HETATM    1  C3  UNL     1       0.725   0.667  -0.384  1.00  0.00     0.221 C 
HETATM    2  C4  UNL     1      -0.169  -0.239   0.439  1.00  0.00     0.057 C 
HETATM    3  C5  UNL     1      -1.538   0.352   0.069  1.00  0.00     0.089 C 
HETATM    4  C7  UNL     1      -1.269   0.881  -1.309  1.00  0.00     0.181 C 
HETATM    5  O5  UNL     1       0.063   0.720  -1.587  1.00  0.00    -0.375 OA
ENDROOT
BRANCH   3   6
HETATM    6  C6  UNL     1      -2.592  -0.670   0.114  1.00  0.00     0.141 C 
HETATM    7  N1  UNL     1      -3.585  -0.505   0.921  1.00  0.00    -0.251 N 
ATOM      8  H1  UNL     1      -4.320  -1.211   0.955  1.00  0.00     0.196 HD
BRANCH   6   9
HETATM    9  O3  UNL     1      -2.559  -1.801  -0.678  1.00  0.00    -0.348 OA
ATOM     10  H3  UNL     1      -3.241  -2.462  -0.649  1.00  0.00     0.219 HD
ENDBRANCH   6   9
BRANCH   7  11
HETATM   11  O4  UNL     1      -3.677   0.599   1.736  1.00  0.00    -0.288 OA
ATOM     12  H4  UNL     1      -4.408   0.720   2.330  1.00  0.00     0.244 HD
ENDBRANCH   7  11
ENDBRANCH   3   6
BRANCH   1  13
HETATM   13  C2  UNL     1       2.098   0.139  -0.506  1.00  0.00     0.287 C 
HETATM   14  O2  UNL     1       2.563  -0.210  -1.618  1.00  0.00    -0.262 OA
BRANCH  13  15
HETATM   15  O1  UNL     1       2.930   0.007   0.595  1.00  0.00    -0.324 OA
HETATM   16  C1  UNL     1       4.262  -0.506   0.462  1.00  0.00     0.213 C 
ENDBRANCH  13  15
ENDBRANCH   1  13
TORSDOF 5
