REMARK  3 active torsions:
REMARK  status: ('A' for Active; 'I' for Inactive)
REMARK    1  A    between atoms: C2_3  and  C4_11 
REMARK    2  A    between atoms: N2_4  and  N3_6 
REMARK    3  A    between atoms: N3_6  and  C3_8 
ROOT
HETATM    1  N1  UNL     1       1.448   2.234   1.685  1.00  0.00    -0.190 NA
HETATM    2  C1  UNL     1       0.809   1.589   0.942  1.00  0.00     0.122 C 
HETATM    3  C2  UNL     1       0.012   0.802   0.045  1.00  0.00     0.162 C 
HETATM    4  N2  UNL     1       0.473   0.497  -1.108  1.00  0.00    -0.286 N 
ATOM      5  H2  UNL     1      -0.112  -0.064  -1.727  1.00  0.00     0.188 HD
ENDROOT
BRANCH   3   6
HETATM    6  C4  UNL     1      -1.314   0.340   0.419  1.00  0.00     0.113 A 
HETATM    7  C5  UNL     1      -2.156  -0.416  -0.364  1.00  0.00     0.042 A 
HETATM    8  C6  UNL     1      -3.322  -0.648   0.349  1.00  0.00     0.027 A 
HETATM    9  C7  UNL     1      -3.122  -0.002   1.561  1.00  0.00     0.142 A 
HETATM   10  O1  UNL     1      -1.939   0.564   1.568  1.00  0.00    -0.320 OA
ENDBRANCH   3   6
BRANCH   4  11
HETATM   11  N3  UNL     1       1.727   0.888  -1.565  1.00  0.00    -0.278 N 
ATOM     12  H3  UNL     1       1.791   1.621  -2.271  1.00  0.00     0.189 HD
BRANCH  11  13
HETATM   13  C3  UNL     1       2.918   0.296  -1.076  1.00  0.00     0.199 C 
HETATM   14  N4  UNL     1       2.810  -0.731  -0.086  1.00  0.00    -0.068 NA
HETATM   15  S1  UNL     1       4.382   0.736  -1.595  1.00  0.00    -0.043 SA
ENDBRANCH  11  13
ENDBRANCH   4  11
TORSDOF 3
