REMARK  5 active torsions:
REMARK  status: ('A' for Active; 'I' for Inactive)
REMARK    1  A    between atoms: N2_6  and  O2_7 
REMARK    2  A    between atoms: C4_10  and  C5_11 
REMARK    3  A    between atoms: C6_12  and  C7_13 
REMARK    4  A    between atoms: C7_13  and  O3_14 
REMARK    5  A    between atoms: O3_14  and  C8_15 
ROOT
HETATM    1  O1  UNL     1       3.308  -2.294  -1.322  1.00  0.00    -0.267 OA
HETATM    2  C1  UNL     1       3.877  -1.423  -0.620  1.00  0.00     0.266 A 
HETATM    3  N1  UNL     1       5.182  -1.533  -0.309  1.00  0.00    -0.316 N 
ATOM      4  H1  UNL     1       5.710  -2.336  -0.650  1.00  0.00     0.170 HD
HETATM    5  C2  UNL     1       5.807  -0.605   0.443  1.00  0.00     0.215 A 
HETATM    6  N2  UNL     1       5.106   0.452   0.891  1.00  0.00    -0.230 N 
HETATM    7  C3  UNL     1       3.793   0.588   0.593  1.00  0.00     0.150 A 
HETATM    8  C4  UNL     1       3.125  -0.350  -0.178  1.00  0.00     0.103 A 
ENDROOT
BRANCH   8   9
HETATM    9  C5  UNL     1       1.732  -0.231  -0.510  1.00  0.00    -0.058 C 
HETATM   10  C6  UNL     1       0.556  -0.137  -0.776  1.00  0.00    -0.074 C 
BRANCH  10  11
HETATM   11  C7  UNL     1      -0.882  -0.033  -1.082  1.00  0.00     0.269 C 
BRANCH  11  12
HETATM   12  O3  UNL     1      -1.533   0.204   0.152  1.00  0.00    -0.340 OA
BRANCH  12  13
HETATM   13  C8  UNL     1      -2.917   0.357   0.241  1.00  0.00     0.070 A 
HETATM   14  C9  UNL     1      -3.513   0.584   1.453  1.00  0.00     0.037 A 
HETATM   15  C10 UNL     1      -4.880   0.732   1.518  1.00  0.00     0.003 A 
HETATM   16  C11 UNL     1      -5.604   0.643   0.334  1.00  0.00     0.000 A 
HETATM   17  C12 UNL     1      -5.016   0.414  -0.886  1.00  0.00     0.003 A 
HETATM   18  C13 UNL     1      -3.643   0.267  -0.941  1.00  0.00     0.037 A 
ENDBRANCH  12  13
ENDBRANCH  11  12
ENDBRANCH  10  11
ENDBRANCH   8   9
BRANCH   6  19
HETATM   19  O2  UNL     1       5.764   1.383   1.655  1.00  0.00    -0.282 OA
ATOM     20  H2  UNL     1       5.269   2.130   1.971  1.00  0.00     0.245 HD
ENDBRANCH   6  19
TORSDOF 5
