REMARK  5 active torsions:
REMARK  status: ('A' for Active; 'I' for Inactive)
REMARK    1  A    between atoms: C3_7  and  N4_8 
REMARK    2  A    between atoms: N4_8  and  O1_9 
REMARK       I    between atoms: N4_8  and  C4_11 
REMARK       I    between atoms: C4_11  and  N6_13 
REMARK    3  A    between atoms: N6_13  and  O2_15 
REMARK    4  A    between atoms: C5_17  and  C6_18 
REMARK       I    between atoms: C6_18  and  N7_20 
REMARK    5  A    between atoms: N7_20  and  N8_22 
ROOT
HETATM    1  C1  UNL     1      -0.009  -3.052   0.044  1.00  0.00     0.178 C 
HETATM    2  N1  UNL     1      -0.810  -1.856   0.255  1.00  0.00    -0.288 N 
HETATM    3  N2  UNL     1      -2.140  -1.889   0.206  1.00  0.00    -0.284 N 
ATOM      4  H2  UNL     1      -2.684  -2.727  -0.001  1.00  0.00     0.188 HD
HETATM    5  C2  UNL     1      -2.666  -0.717   0.456  1.00  0.00     0.157 A 
HETATM    6  N3  UNL     1      -4.063  -0.454   0.477  1.00  0.00    -0.079 NA
HETATM    7  C3  UNL     1      -1.590   0.157   0.686  1.00  0.00     0.121 A 
HETATM    8  C5  UNL     1      -0.442  -0.596   0.551  1.00  0.00     0.147 A 
ENDROOT
BRANCH   8   9
HETATM    9  C6  UNL     1       0.970  -0.164   0.648  1.00  0.00     0.290 C 
HETATM   10  O3  UNL     1       1.301   0.663   1.512  1.00  0.00    -0.264 OA
HETATM   11  N7  UNL     1       1.924  -0.683  -0.233  1.00  0.00    -0.249 N 
ATOM     12  H7  UNL     1       1.566  -1.347  -0.919  1.00  0.00     0.191 HD
BRANCH  11  13
HETATM   13  N8  UNL     1       3.285  -0.429  -0.312  1.00  0.00    -0.148 N 
HETATM   14  C7  UNL     1       4.078  -1.038  -1.250  1.00  0.00     0.364 A 
HETATM   15  O4  UNL     1       3.734  -1.865  -2.132  1.00  0.00    -0.243 OA
HETATM   16  N9  UNL     1       5.334  -0.607  -1.089  1.00  0.00    -0.246 N 
HETATM   17  N10 UNL     1       5.397   0.248  -0.097  1.00  0.00    -0.246 N 
ATOM     18  H9  UNL     1       6.129  -0.901  -1.657  1.00  0.00     0.192 HD
HETATM   19  C8  UNL     1       4.111   0.345   0.373  1.00  0.00     0.364 A 
ATOM     20  H10 UNL     1       6.223   0.736   0.250  1.00  0.00     0.192 HD
HETATM   21  O5  UNL     1       3.884   1.106   1.335  1.00  0.00    -0.243 OA
ENDBRANCH  11  13
ENDBRANCH   8   9
BRANCH   7  22
HETATM   22  N4  UNL     1      -1.787   1.499   0.967  1.00  0.00    -0.093 NA
HETATM   23  C4  UNL     1      -2.700   2.142   0.060  1.00  0.00     0.217 C 
HETATM   24  N5  UNL     1      -3.554   3.140   0.583  1.00  0.00    -0.065 NA
HETATM   25  N6  UNL     1      -2.776   1.863  -1.184  1.00  0.00    -0.244 N 
ATOM     26  H6  UNL     1      -2.164   1.147  -1.574  1.00  0.00     0.196 HD
BRANCH  22  27
HETATM   27  O1  UNL     1      -0.755   2.294   1.130  1.00  0.00    -0.301 OA
ATOM     28  H1  UNL     1      -0.890   3.214   1.323  1.00  0.00     0.238 HD
ENDBRANCH  22  27
BRANCH  25  29
HETATM   29  O2  UNL     1      -3.654   2.500  -1.995  1.00  0.00    -0.288 OA
ATOM     30  H2  UNL     1      -3.711   2.292  -2.920  1.00  0.00     0.244 HD
ENDBRANCH  25  29
ENDBRANCH   7  22
TORSDOF 5
