REMARK  2 active torsions:
REMARK  status: ('A' for Active; 'I' for Inactive)
REMARK    1  A    between atoms: C2_2  and  C3_3 
REMARK    2  A    between atoms: C3_3  and  N1_4 
REMARK       I    between atoms: N1_4  and  C4_5 
ROOT
HETATM    1  N1  UNL     1       0.148   0.167  -0.058  1.00  0.00     0.014 N 
HETATM    2  C4  UNL     1      -0.194  -1.008  -0.751  1.00  0.00     0.428 C 
HETATM    3  N2  UNL     1      -1.472  -1.589  -0.653  1.00  0.00    -0.033 NA
HETATM    4  O1  UNL     1       0.631  -1.621  -1.510  1.00  0.00    -0.243 OA
HETATM    5  C5  UNL     1      -0.182   1.339  -0.888  1.00  0.00     0.249 C 
HETATM    6  C6  UNL     1      -1.677   1.492  -0.782  1.00  0.00     0.030 C 
HETATM    7  C7  UNL     1      -1.989   0.934   0.588  1.00  0.00     0.030 C 
HETATM    8  C8  UNL     1      -0.720   0.300   1.086  1.00  0.00     0.249 C 
ENDROOT
BRANCH   1   9
HETATM    9  C3  UNL     1       1.539   0.278   0.257  1.00  0.00     0.275 C 
BRANCH   9  10
HETATM   10  C2  UNL     1       2.101  -0.904   0.928  1.00  0.00    -0.009 C 
HETATM   11  C1  UNL     1       3.099  -1.574   0.369  1.00  0.00     0.008 C 
ENDBRANCH   9  10
ENDBRANCH   1   9
TORSDOF 2
