REMARK  9 active torsions:
REMARK  status: ('A' for Active; 'I' for Inactive)
REMARK    1  A    between atoms: C2_10  and  N4_11 
REMARK    2  A    between atoms: C6_21  and  N8_22 
REMARK       I    between atoms: N8_22  and  C7_23 
REMARK    3  A    between atoms: C7_23  and  C8_25 
REMARK    4  A    between atoms: C8_25  and  C9_26 
REMARK    5  A    between atoms: C12_29  and  N9_30 
REMARK    6  A    between atoms: N9_30  and  C13_32 
REMARK    7  A    between atoms: C13_32  and  C14_33 
REMARK    8  A    between atoms: C14_33  and  N10_34 
REMARK    9  A    between atoms: C15_35  and  N11_36 
ROOT
HETATM    1  N8  UNL     1      -2.903  -0.926   1.225  1.00  0.00    -0.368 NA
HETATM    2  C7  UNL     1      -2.259   0.080   1.792  1.00  0.00     0.296 C 
HETATM    3  O2  UNL     1      -2.175   0.423   3.031  1.00  0.00    -0.257 OA
ENDROOT
BRANCH   1   4
HETATM    4  C6  UNL     1      -3.573  -1.973   0.636  1.00  0.00     0.144 A 
HETATM    5  C5  UNL     1      -3.256  -3.308   0.989  1.00  0.00     0.133 A 
HETATM    6  N7  UNL     1      -3.741  -4.288   0.228  1.00  0.00    -0.370 N 
HETATM    7  C4  UNL     1      -4.509  -4.078  -0.847  1.00  0.00     0.119 A 
ATOM      8  H7  UNL     1      -3.515  -5.250   0.479  1.00  0.00     0.164 HD
HETATM    9  C3  UNL     1      -4.851  -2.784  -1.231  1.00  0.00     0.084 A 
HETATM   10  N6  UNL     1      -5.664  -2.549  -2.265  1.00  0.00    -0.283 N 
HETATM   11  C19 UNL     1      -4.382  -1.742  -0.482  1.00  0.00     0.105 A 
HETATM   12  N5  UNL     1      -6.048  -1.301  -2.602  1.00  0.00    -0.231 N 
ATOM     13  H6  UNL     1      -6.004  -3.337  -2.816  1.00  0.00     0.188 HD
HETATM   14  N4  UNL     1      -5.639  -0.259  -1.920  1.00  0.00    -0.183 N 
ATOM     15  H5  UNL     1      -6.667  -1.166  -3.401  1.00  0.00     0.209 HD
HETATM   16  C20 UNL     1      -4.807  -0.480  -0.860  1.00  0.00     0.285 A 
HETATM   17  O4  UNL     1      -4.443   0.526  -0.235  1.00  0.00    -0.265 OA
BRANCH  14  18
HETATM   18  C2  UNL     1      -6.021   1.085  -2.235  1.00  0.00     0.199 A 
HETATM   19  C1  UNL     1      -6.905   1.577  -3.145  1.00  0.00     0.169 A 
HETATM   20  N1  UNL     1      -7.614   0.911  -3.955  1.00  0.00    -0.381 N 
HETATM   21  N2  UNL     1      -6.912   2.964  -3.035  1.00  0.00    -0.222 N 
ATOM     22  H12 UNL     1      -8.277   1.280  -4.637  1.00  0.00     0.157 HD
ATOM     23  H11 UNL     1      -7.609  -0.106  -4.036  1.00  0.00     0.157 HD
HETATM   24  O1  UNL     1      -6.049   3.241  -2.086  1.00  0.00    -0.153 OA
ATOM     25  H2  UNL     1      -7.469   3.625  -3.577  1.00  0.00     0.198 HD
HETATM   26  N3  UNL     1      -5.514   2.179  -1.601  1.00  0.00    -0.220 N 
ATOM     27  H3  UNL     1      -4.817   2.158  -0.856  1.00  0.00     0.198 HD
ENDBRANCH  14  18
ENDBRANCH   1   4
BRANCH   2  28
HETATM   28  C8  UNL     1      -1.405   1.064   0.945  1.00  0.00     0.157 C 
BRANCH  28  29
HETATM   29  C9  UNL     1       0.004   0.582   1.035  1.00  0.00    -0.048 A 
HETATM   30  C10 UNL     1       0.276  -0.615   0.374  1.00  0.00     0.010 A 
HETATM   31  C11 UNL     1       1.520  -1.164   0.357  1.00  0.00     0.029 A 
HETATM   32  C12 UNL     1       2.565  -0.522   1.016  1.00  0.00     0.028 A 
HETATM   33  C17 UNL     1       2.285   0.654   1.658  1.00  0.00     0.029 A 
HETATM   34  C18 UNL     1       1.015   1.224   1.684  1.00  0.00     0.010 A 
BRANCH  32  35
HETATM   35  N9  UNL     1       3.830  -1.129   1.030  1.00  0.00    -0.388 N 
ATOM     36  H9  UNL     1       3.845  -2.145   0.943  1.00  0.00     0.159 HD
BRANCH  35  37
HETATM   37  C13 UNL     1       5.100  -0.483   1.152  1.00  0.00     0.141 C 
BRANCH  37  38
HETATM   38  C14 UNL     1       5.383   0.252  -0.172  1.00  0.00     0.172 C 
BRANCH  38  39
HETATM   39  N10 UNL     1       6.673   0.908  -0.089  1.00  0.00    -0.129 N 
HETATM   40  C15 UNL     1       6.876   2.166   0.302  1.00  0.00     0.697 A 
HETATM   41  N12 UNL     1       8.203   2.382   0.252  1.00  0.00    -0.128 N 
HETATM   42  N13 UNL     1       8.822   1.283  -0.162  1.00  0.00    -0.236 N 
ATOM     43  H12 UNL     1       8.664   3.259   0.496  1.00  0.00     0.205 HD
HETATM   44  C16 UNL     1       7.878   0.371  -0.374  1.00  0.00     0.355 A 
ATOM     45  H13 UNL     1       9.826   1.162  -0.292  1.00  0.00     0.192 HD
HETATM   46  O3  UNL     1       7.995  -0.815  -0.769  1.00  0.00    -0.244 OA
BRANCH  40  47
HETATM   47  N11 UNL     1       5.990   3.007   0.665  1.00  0.00    -0.233 N 
ATOM     48 2H11 UNL     1       4.984   2.843   0.703  1.00  0.00     0.174 HD
ATOM     49 1H11 UNL     1       6.145   3.970   0.964  1.00  0.00     0.174 HD
ENDBRANCH  40  47
ENDBRANCH  38  39
ENDBRANCH  37  38
ENDBRANCH  35  37
ENDBRANCH  32  35
ENDBRANCH  28  29
ENDBRANCH   2  28
TORSDOF 9
