REMARK  12 active torsions:
REMARK  status: ('A' for Active; 'I' for Inactive)
REMARK    1  A    between atoms: C2_2  and  N1_3 
REMARK    2  A    between atoms: C3_4  and  C4_5 
REMARK    3  A    between atoms: C5_6  and  O1_7 
REMARK    4  A    between atoms: C7_14  and  N3_15 
REMARK       I    between atoms: N3_15  and  C8_17 
REMARK    5  A    between atoms: C8_17  and  C9_19 
REMARK    6  A    between atoms: C9_19  and  N5_22 
REMARK    7  A    between atoms: N5_22  and  C11_25 
REMARK    8  A    between atoms: C11_25  and  O4_26 
REMARK    9  A    between atoms: C11_25  and  N6_28 
REMARK   10  A    between atoms: N6_28  and  C13_30 
REMARK   11  A    between atoms: C13_30  and  C14_31 
REMARK   12  A    between atoms: C15_34  and  N8_35 
ROOT
HETATM    1  C9  UNL     1       1.255   0.432   2.001  1.00  0.00     0.387 C 
HETATM    2  C10 UNL     1       1.821   1.505   1.194  1.00  0.00     0.102 C 
HETATM    3  N4  UNL     1       2.257   2.392   0.543  1.00  0.00    -0.195 NA
ENDROOT
BRANCH   1   4
HETATM    4  C8  UNL     1      -0.208   0.372   1.839  1.00  0.00     0.267 C 
HETATM    5  N3  UNL     1      -0.916   1.355   1.113  1.00  0.00    -0.318 N 
ATOM      6  H3  UNL     1      -0.392   2.109   0.668  1.00  0.00     0.169 HD
HETATM    7  O3  UNL     1      -0.843  -0.573   2.358  1.00  0.00    -0.270 OA
BRANCH   5   8
HETATM    8  C7  UNL     1      -2.322   1.334   0.979  1.00  0.00     0.135 A 
HETATM    9  C3  UNL     1      -3.185   0.584   0.235  1.00  0.00     0.107 A 
HETATM   10  N1  UNL     1      -4.435   0.996   0.612  1.00  0.00    -0.260 N 
HETATM   11  N10 UNL     1      -4.332   1.960   1.558  1.00  0.00    -0.253 N 
HETATM   12  C16 UNL     1      -3.070   2.197   1.808  1.00  0.00     0.291 A 
HETATM   13  C17 UNL     1      -5.452   2.622   2.198  1.00  0.00     0.182 C 
HETATM   14  O5  UNL     1      -2.561   3.016   2.613  1.00  0.00    -0.264 OA
BRANCH   9  15
HETATM   15  C4  UNL     1      -2.863  -0.305  -0.930  1.00  0.00     0.105 A 
HETATM   16  C5  UNL     1      -3.759  -1.230  -1.394  1.00  0.00     0.142 A 
HETATM   17  S1  UNL     1      -3.071  -1.735  -2.900  1.00  0.00     0.015 SA
HETATM   18  N2  UNL     1      -1.714  -0.798  -2.897  1.00  0.00    -0.290 N 
HETATM   19  C6  UNL     1      -1.795  -0.094  -1.731  1.00  0.00     0.267 A 
ATOM     20  H2  UNL     1      -0.981  -0.755  -3.605  1.00  0.00     0.177 HD
HETATM   21  O2  UNL     1      -0.813   0.714  -1.549  1.00  0.00    -0.267 OA
BRANCH  16  22
HETATM   22  O1  UNL     1      -4.965  -1.750  -0.872  1.00  0.00    -0.352 OA
ATOM     23  H1  UNL     1      -5.587  -2.392  -1.194  1.00  0.00     0.218 HD
ENDBRANCH  16  22
ENDBRANCH   9  15
BRANCH  10  24
HETATM   24  C2  UNL     1      -5.729   0.725   0.121  1.00  0.00     0.107 C 
HETATM   25  C1  UNL     1      -6.115   1.339  -0.990  1.00  0.00     0.032 C 
ENDBRANCH  10  24
ENDBRANCH   5   8
ENDBRANCH   1   4
BRANCH   1  26
HETATM   26  N5  UNL     1       1.886  -0.838   1.728  1.00  0.00    -0.006 N 
ATOM     27  H52 UNL     1       2.382  -1.207   2.539  1.00  0.00     0.284 HD
ATOM     28  H51 UNL     1       1.208  -1.592   1.620  1.00  0.00     0.284 HD
BRANCH  26  29
HETATM   29  C11 UNL     1       2.759  -0.699   0.555  1.00  0.00     0.426 C 
BRANCH  29  30
HETATM   30  O4  UNL     1       3.906  -0.008   1.010  1.00  0.00    -0.355 OA
ATOM     31  H4  UNL     1       4.471   0.082   0.251  1.00  0.00     0.213 HD
ENDBRANCH  29  30
BRANCH  29  32
HETATM   32  N6  UNL     1       3.053  -1.923  -0.102  1.00  0.00    -0.363 N 
HETATM   33  C12 UNL     1       3.679  -2.878   0.767  1.00  0.00     0.148 C 
BRANCH  32  34
HETATM   34  C13 UNL     1       3.555  -1.852  -1.426  1.00  0.00     0.197 C 
BRANCH  34  35
HETATM   35  C14 UNL     1       4.912  -1.174  -1.533  1.00  0.00     0.107 A 
HETATM   36  N7  UNL     1       5.075   0.092  -1.715  1.00  0.00    -0.324 N 
HETATM   37  C15 UNL     1       6.293   0.603  -1.802  1.00  0.00     0.160 A 
ATOM     38  H7  UNL     1       4.262   0.703  -1.792  1.00  0.00     0.169 HD
HETATM   39  S2  UNL     1       7.252  -0.802  -1.613  1.00  0.00     0.024 SA
HETATM   40  N9  UNL     1       6.016  -1.938  -1.436  1.00  0.00    -0.312 N 
ATOM     41  H9  UNL     1       6.087  -2.945  -1.292  1.00  0.00     0.175 HD
BRANCH  37  42
HETATM   42  N8  UNL     1       6.659   1.851  -1.981  1.00  0.00    -0.379 N 
ATOM     43  H82 UNL     1       6.087   2.688  -2.094  1.00  0.00     0.158 HD
ATOM     44  H81 UNL     1       7.598   2.245  -2.048  1.00  0.00     0.158 HD
ENDBRANCH  37  42
ENDBRANCH  34  35
ENDBRANCH  32  34
ENDBRANCH  29  32
ENDBRANCH  26  29
ENDBRANCH   1  26
TORSDOF 12
