REMARK  22 active torsions:
REMARK  status: ('A' for Active; 'I' for Inactive)
REMARK    1  A    between atoms: C1_2  and  O1_3 
REMARK    2  A    between atoms: C1_2  and  C2_5 
REMARK    3  A    between atoms: C3_8  and  N3_9 
REMARK    4  A    between atoms: N3_9  and  C4_11 
REMARK    5  A    between atoms: C4_11  and  C5_12 
REMARK    6  A    between atoms: C5_12  and  C6_13 
REMARK    7  A    between atoms: C6_13  and  N4_14 
REMARK       I    between atoms: N4_14  and  C7_16 
REMARK    8  A    between atoms: C7_16  and  C8_18 
REMARK    9  A    between atoms: C8_18  and  N5_19 
REMARK   10  A    between atoms: N5_19  and  O3_20 
REMARK   11  A    between atoms: N5_19  and  C9_22 
REMARK   12  A    between atoms: C9_22  and  C10_23 
REMARK   13  A    between atoms: C10_23  and  O4_24 
REMARK   14  A    between atoms: C10_23  and  C11_26 
REMARK   15  A    between atoms: C11_26  and  O5_27 
REMARK   16  A    between atoms: O5_27  and  C12_28 
REMARK   17  A    between atoms: C12_28  and  C13_29 
REMARK   18  A    between atoms: C13_29  and  N6_30 
REMARK   19  A    between atoms: N6_30  and  C14_32 
REMARK   20  A    between atoms: C14_32  and  C15_33 
REMARK   21  A    between atoms: C22_44  and  C23_45 
REMARK   22  A    between atoms: C23_45  and  C24_46 
ROOT
HETATM    1  C6  UNL     1      -2.002   0.226  -1.854  1.00  0.00     0.128 C 
ENDROOT
BRANCH   1   2
HETATM    2  C5  UNL     1      -2.592  -1.137  -1.808  1.00  0.00     0.065 C 
BRANCH   2   3
HETATM    3  C4  UNL     1      -2.544  -1.799  -0.458  1.00  0.00     0.080 C 
BRANCH   3   4
HETATM    4  N3  UNL     1      -3.164  -1.126   0.602  1.00  0.00    -0.205 N 
ATOM      5  H3  UNL     1      -2.547  -0.687   1.285  1.00  0.00     0.183 HD
BRANCH   4   6
HETATM    6  C3  UNL     1      -4.415  -1.004   0.804  1.00  0.00     0.685 A 
HETATM    7  N2  UNL     1      -5.387  -1.501   0.041  1.00  0.00    -0.187 N 
HETATM    8  C2  UNL     1      -6.725  -1.340   0.268  1.00  0.00     0.109 A 
ATOM      9  H2  UNL     1      -5.111  -2.044  -0.777  1.00  0.00     0.184 HD
HETATM   10  C22 UNL     1      -7.054  -0.610   1.370  1.00  0.00     0.046 A 
HETATM   11  C21 UNL     1      -6.055  -0.063   2.213  1.00  0.00     0.268 A 
HETATM   12  N7  UNL     1      -4.788  -0.284   1.894  1.00  0.00    -0.155 N 
HETATM   13  O6  UNL     1      -6.382   0.602   3.221  1.00  0.00    -0.267 OA
ATOM     14  H7  UNL     1      -4.060   0.104   2.494  1.00  0.00     0.187 HD
BRANCH   8  15
HETATM   15  C1  UNL     1      -7.685  -1.939  -0.640  1.00  0.00     0.178 C 
HETATM   16  N1  UNL     1      -9.062  -2.033  -0.565  1.00  0.00    -0.073 NA
BRANCH  15  17
HETATM   17  O1  UNL     1      -7.141  -2.476  -1.697  1.00  0.00    -0.347 OA
ATOM     18  H1  UNL     1      -6.195  -2.411  -1.749  1.00  0.00     0.219 HD
ENDBRANCH  15  17
ENDBRANCH   8  15
BRANCH  10  19
HETATM   19  C23 UNL     1      -8.456  -0.302   1.721  1.00  0.00     0.085 C 
BRANCH  19  20
HETATM   20  C24 UNL     1      -8.955   0.840   0.920  1.00  0.00    -0.051 A 
HETATM   21  C25 UNL     1      -8.106   1.737   0.274  1.00  0.00     0.007 A 
HETATM   22  C26 UNL     1      -8.572   2.821  -0.435  1.00  0.00     0.004 A 
HETATM   23  C27 UNL     1      -9.919   3.081  -0.543  1.00  0.00     0.042 A 
HETATM   24  C28 UNL     1     -10.774   2.203   0.090  1.00  0.00     0.116 A 
HETATM   25  F2  UNL     1     -12.102   2.438  -0.003  1.00  0.00    -0.206 F 
HETATM   26  C29 UNL     1     -10.319   1.115   0.802  1.00  0.00     0.049 A 
ENDBRANCH  19  20
ENDBRANCH  10  19
ENDBRANCH   4   6
ENDBRANCH   3   4
ENDBRANCH   2   3
ENDBRANCH   1   2
BRANCH   1  27
HETATM   27  N4  UNL     1      -0.599   0.308  -1.473  1.00  0.00    -0.356 N 
HETATM   28  C7  UNL     1      -0.037   1.611  -1.519  1.00  0.00     0.258 C 
HETATM   29  O2  UNL     1      -0.739   2.616  -1.870  1.00  0.00    -0.267 OA
ATOM     30  H4  UNL     1      -0.059  -0.511  -1.193  1.00  0.00     0.162 HD
BRANCH  28  31
HETATM   31  C8  UNL     1       1.345   1.890  -1.173  1.00  0.00     0.190 C 
BRANCH  31  32
HETATM   32  N5  UNL     1       2.200   0.827  -0.826  1.00  0.00    -0.264 N 
BRANCH  32  33
HETATM   33  O3  UNL     1       1.847   0.190   0.321  1.00  0.00    -0.288 OA
ATOM     34  H3  UNL     1       2.424  -0.527   0.555  1.00  0.00     0.244 HD
ENDBRANCH  32  33
BRANCH  32  35
HETATM   35  C9  UNL     1       2.634  -0.057  -1.847  1.00  0.00     0.189 C 
BRANCH  35  36
HETATM   36  C10 UNL     1       3.610  -1.119  -1.284  1.00  0.00     0.162 C 
BRANCH  36  37
HETATM   37  O4  UNL     1       3.948  -1.900  -2.383  1.00  0.00    -0.392 OA
ATOM     38  H4  UNL     1       4.547  -2.552  -2.038  1.00  0.00     0.210 HD
ENDBRANCH  36  37
BRANCH  36  39
HETATM   39  C11 UNL     1       4.721  -0.350  -0.682  1.00  0.00     0.201 C 
BRANCH  39  40
HETATM   40  O5  UNL     1       5.792  -0.956  -0.184  1.00  0.00    -0.387 OA
BRANCH  40  41
HETATM   41  C12 UNL     1       6.624  -1.721  -0.904  1.00  0.00     0.186 C 
BRANCH  41  42
HETATM   42  C13 UNL     1       7.782  -2.269  -0.098  1.00  0.00     0.140 C 
BRANCH  42  43
HETATM   43  N6  UNL     1       8.636  -1.297   0.491  1.00  0.00    -0.415 N 
ATOM     44  H6  UNL     1       9.592  -1.165   0.162  1.00  0.00     0.153 HD
BRANCH  43  45
HETATM   45  C14 UNL     1       8.110  -0.518   1.553  1.00  0.00     0.152 C 
BRANCH  45  46
HETATM   46  C15 UNL     1       9.165   0.411   2.057  1.00  0.00    -0.041 A 
HETATM   47  C16 UNL     1      10.459   0.243   1.650  1.00  0.00     0.012 A 
HETATM   48  C17 UNL     1      11.417   1.125   2.120  1.00  0.00     0.043 A 
HETATM   49  C18 UNL     1      11.129   2.164   2.978  1.00  0.00     0.116 A 
HETATM   50  F1  UNL     1      12.105   3.017   3.426  1.00  0.00    -0.206 F 
HETATM   51  C19 UNL     1       9.809   2.295   3.362  1.00  0.00     0.043 A 
HETATM   52  C20 UNL     1       8.824   1.453   2.928  1.00  0.00     0.012 A 
ENDBRANCH  45  46
ENDBRANCH  43  45
ENDBRANCH  42  43
ENDBRANCH  41  42
ENDBRANCH  40  41
ENDBRANCH  39  40
ENDBRANCH  36  39
ENDBRANCH  35  36
ENDBRANCH  32  35
ENDBRANCH  31  32
ENDBRANCH  28  31
ENDBRANCH   1  27
TORSDOF 22
