REMARK  7 active torsions:
REMARK  status: ('A' for Active; 'I' for Inactive)
REMARK    1  A    between atoms: N2_15  and  C11_17 
REMARK    2  A    between atoms: C11_17  and  C12_18 
REMARK    3  A    between atoms: C12_18  and  C13_19 
REMARK    4  A    between atoms: C13_19  and  C14_20 
REMARK    5  A    between atoms: C14_20  and  C15_21 
REMARK    6  A    between atoms: C15_21  and  N3_22 
REMARK    7  A    between atoms: C24_36  and  C25_37 
ROOT
HETATM    1  O1  UNL     1      -3.556   3.636  -0.264  1.00  0.00    -0.257 OA
HETATM    2  S1  UNL     1      -4.256   2.240  -0.930  1.00  0.00     0.034 S 
HETATM    3  C1  UNL     1      -2.982   1.016  -1.042  1.00  0.00     0.152 A 
HETATM    4  C2  UNL     1      -3.302   0.091   0.069  1.00  0.00     0.005 A 
HETATM    5  C3  UNL     1      -4.428   0.325   0.740  1.00  0.00     0.040 A 
HETATM    6  N1  UNL     1      -4.775  -0.515   1.784  1.00  0.00    -0.357 N 
ATOM      7  H1  UNL     1      -5.639  -0.330   2.294  1.00  0.00     0.166 HD
HETATM    8  C4  UNL     1      -4.031  -1.550   2.149  1.00  0.00     0.045 A 
HETATM    9  C5  UNL     1      -4.416  -2.381   3.212  1.00  0.00     0.030 A 
HETATM   10  C6  UNL     1      -3.643  -3.453   3.587  1.00  0.00     0.002 A 
HETATM   11  C7  UNL     1      -2.468  -3.717   2.905  1.00  0.00     0.001 A 
HETATM   12  C8  UNL     1      -2.075  -2.905   1.854  1.00  0.00     0.016 A 
HETATM   13  C9  UNL     1      -2.878  -1.819   1.490  1.00  0.00     0.018 A 
HETATM   14  C10 UNL     1      -2.478  -0.998   0.421  1.00  0.00     0.049 A 
HETATM   15  N2  UNL     1      -1.413  -1.313  -0.128  1.00  0.00    -0.389 N 
ATOM     16  H2  UNL     1      -1.035  -2.140   0.335  1.00  0.00     0.159 HD
HETATM   17  C24 UNL     1      -5.243   1.497   0.309  1.00  0.00     0.163 A 
ENDROOT
BRANCH  15  18
HETATM   18  C11 UNL     1      -0.558  -0.941  -1.143  1.00  0.00     0.120 C 
BRANCH  18  19
HETATM   19  C12 UNL     1       0.666  -0.133  -0.681  1.00  0.00     0.020 C 
BRANCH  19  20
HETATM   20  C13 UNL     1       1.489  -0.900   0.300  1.00  0.00     0.003 C 
BRANCH  20  21
HETATM   21  C14 UNL     1       2.691  -0.158   0.781  1.00  0.00     0.020 C 
BRANCH  21  22
HETATM   22  C15 UNL     1       3.632   0.185  -0.377  1.00  0.00     0.138 C 
BRANCH  22  23
HETATM   23  N3  UNL     1       4.774   0.901   0.071  1.00  0.00    -0.226 N 
HETATM   24  C16 UNL     1       5.967   0.840  -0.385  1.00  0.00     0.678 A 
HETATM   25  N4  UNL     1       6.918   1.630   0.213  1.00  0.00    -0.191 N 
HETATM   26  N5  UNL     1       6.313   0.051  -1.409  1.00  0.00    -0.201 N 
HETATM   27  C17 UNL     1       8.177   1.637  -0.193  1.00  0.00     0.060 A 
ATOM     28  H4  UNL     1       6.646   2.229   0.993  1.00  0.00     0.184 HD
HETATM   29  C18 UNL     1       9.134   2.443   0.418  1.00  0.00     0.031 A 
HETATM   30  C22 UNL     1       8.531   0.825  -1.246  1.00  0.00     0.007 A 
HETATM   31  C19 UNL     1      10.429   2.434  -0.022  1.00  0.00     0.002 A 
HETATM   32  C20 UNL     1      10.792   1.628  -1.071  1.00  0.00     0.001 A 
HETATM   33  C21 UNL     1       9.862   0.833  -1.678  1.00  0.00     0.015 A 
HETATM   34  C23 UNL     1       7.600   0.025  -1.863  1.00  0.00     0.119 A 
ATOM     35  H5  UNL     1       5.608  -0.537  -1.855  1.00  0.00     0.183 HD
ATOM     36  H3  UNL     1       4.624   1.541   0.851  1.00  0.00     0.177 HD
ENDBRANCH  22  23
ENDBRANCH  21  22
ENDBRANCH  20  21
ENDBRANCH  19  20
ENDBRANCH  18  19
ENDBRANCH  15  18
BRANCH  17  37
HETATM   37  C25 UNL     1      -6.522   1.046  -0.299  1.00  0.00    -0.036 A 
HETATM   38  C26 UNL     1      -6.631   0.732  -1.636  1.00  0.00     0.009 A 
HETATM   39  C27 UNL     1      -7.823   0.319  -2.186  1.00  0.00     0.001 A 
HETATM   40  C28 UNL     1      -8.966   0.197  -1.435  1.00  0.00     0.000 A 
HETATM   41  C29 UNL     1      -8.857   0.511  -0.097  1.00  0.00     0.001 A 
HETATM   42  C30 UNL     1      -7.679   0.925   0.471  1.00  0.00     0.009 A 
ENDBRANCH  17  37
TORSDOF 7
