REMARK  3 active torsions:
REMARK  status: ('A' for Active; 'I' for Inactive)
REMARK    1  A    between atoms: N1_2  and  C2_5 
REMARK    2  A    between atoms: C5_8  and  N2_9 
REMARK    3  A    between atoms: C10_14  and  O1_15 
ROOT
HETATM    1  C2  UNL     1       2.173   0.697   0.226  1.00  0.00     0.186 C 
HETATM    2  C3  UNL     1       0.819   1.187  -0.234  1.00  0.00     0.040 C 
HETATM    3  C4  UNL     1      -0.014   0.060   0.217  1.00  0.00     0.031 C 
HETATM    4  C5  UNL     1      -1.419  -0.020  -0.213  1.00  0.00     0.227 C 
HETATM    5  C8  UNL     1      -2.017  -1.162   0.625  1.00  0.00     0.038 C 
HETATM    6  C9  UNL     1      -1.251  -2.425   0.465  1.00  0.00     0.034 C 
HETATM    7  C10 UNL     1       0.233  -2.318   0.477  1.00  0.00     0.127 C 
HETATM    8  C11 UNL     1       0.714  -1.145  -0.351  1.00  0.00    -0.010 C 
HETATM    9  C12 UNL     1       0.395  -1.410  -1.788  1.00  0.00     0.018 C 
HETATM   10  C13 UNL     1       2.138  -0.779  -0.121  1.00  0.00     0.045 C 
ENDROOT
BRANCH   1  11
HETATM   11  N1  UNL     1       3.292   1.381  -0.295  1.00  0.00    -0.075 N 
HETATM   12  C1  UNL     1       3.258   2.760   0.144  1.00  0.00     0.267 C 
ATOM     13  H12 UNL     1       3.356   1.300  -1.310  1.00  0.00     0.277 HD
ATOM     14  H11 UNL     1       4.171   0.921  -0.057  1.00  0.00     0.277 HD
ENDBRANCH   1  11
BRANCH   4  15
HETATM   15  N2  UNL     1      -2.150   1.185  -0.118  1.00  0.00     0.085 N 
HETATM   16  C6  UNL     1      -3.476   1.120  -0.668  1.00  0.00     0.309 C 
HETATM   17  C7  UNL     1      -2.084   1.848   1.154  1.00  0.00     0.309 C 
ENDBRANCH   4  15
BRANCH   7  18
HETATM   18  O1  UNL     1       0.749  -3.476  -0.145  1.00  0.00    -0.395 OA
ATOM     19  H1  UNL     1       1.697  -3.408  -0.137  1.00  0.00     0.210 HD
ENDBRANCH   7  18
TORSDOF 3
