REMARK  10 active torsions:
REMARK  status: ('A' for Active; 'I' for Inactive)
REMARK    1  A    between atoms: N1_2  and  C3_5 
REMARK    2  A    between atoms: C4_6  and  C5_7 
REMARK       I    between atoms: C5_7  and  N2_9 
REMARK    3  A    between atoms: N2_9  and  C6_11 
REMARK    4  A    between atoms: C6_11  and  C7_12 
REMARK    5  A    between atoms: C7_12  and  C8_13 
REMARK    6  A    between atoms: C7_12  and  N5_23 
REMARK    7  A    between atoms: C8_13  and  C9_14 
REMARK    8  A    between atoms: C9_14  and  O3_15 
REMARK    9  A    between atoms: C9_14  and  C10_17 
REMARK   10  A    between atoms: C10_17  and  N3_18 
ROOT
HETATM    1  C7  UNL     1      -1.472   0.751  -0.167  1.00  0.00     0.210 C 
ENDROOT
BRANCH   1   2
HETATM    2  C6  UNL     1      -0.226   0.992  -0.953  1.00  0.00     0.156 C 
BRANCH   2   3
HETATM    3  N2  UNL     1       1.004   0.496  -0.353  1.00  0.00    -0.356 N 
HETATM    4  C5  UNL     1       2.248   0.665  -1.017  1.00  0.00     0.243 C 
HETATM    5  O2  UNL     1       2.281   1.260  -2.153  1.00  0.00    -0.269 OA
ATOM      6  H2  UNL     1       0.972   0.024   0.551  1.00  0.00     0.162 HD
BRANCH   4   7
HETATM    7  C4  UNL     1       3.497   0.202  -0.485  1.00  0.00     0.108 C 
HETATM    8  C3  UNL     1       3.613  -0.419   0.658  1.00  0.00     0.278 C 
BRANCH   8   9
HETATM    9  N1  UNL     1       4.909  -0.860   1.135  1.00  0.00     0.028 N 
HETATM   10  C1  UNL     1       5.669   0.276   1.626  1.00  0.00     0.362 C 
HETATM   11  C2  UNL     1       5.593  -1.492   0.024  1.00  0.00     0.362 C 
HETATM   12  O1  UNL     1       4.719  -1.791   2.095  1.00  0.00    -0.061 OA
ENDBRANCH   8   9
ENDBRANCH   4   7
ENDBRANCH   2   3
ENDBRANCH   1   2
BRANCH   1  13
HETATM   13  C8  UNL     1      -2.588   1.349  -0.948  1.00  0.00     0.072 C 
BRANCH  13  14
HETATM   14  C9  UNL     1      -2.509   2.824  -1.216  1.00  0.00     0.160 C 
BRANCH  14  15
HETATM   15  O3  UNL     1      -3.675   3.142  -2.034  1.00  0.00    -0.390 OA
ATOM     16  H3  UNL     1      -3.625   4.075  -2.204  1.00  0.00     0.210 HD
ENDBRANCH  14  15
BRANCH  14  17
HETATM   17  C10 UNL     1      -2.748   3.719  -0.022  1.00  0.00     0.111 C 
BRANCH  17  18
HETATM   18  N3  UNL     1      -1.796   3.740   0.995  1.00  0.00    -0.320 N 
HETATM   19  N4  UNL     1      -0.687   4.316   0.908  1.00  0.00    -0.346 N 
ATOM     20  H42 UNL     1      -0.484   4.795   0.031  1.00  0.00     0.176 HD
ATOM     21  H41 UNL     1       0.010   4.331   1.653  1.00  0.00     0.176 HD
ATOM     22  H3  UNL     1      -2.016   3.256   1.865  1.00  0.00     0.185 HD
ENDBRANCH  17  18
ENDBRANCH  14  17
ENDBRANCH  13  14
ENDBRANCH   1  13
BRANCH   1  23
HETATM   23  N5  UNL     1      -1.710  -0.638   0.188  1.00  0.00    -0.065 N 
HETATM   24  C11 UNL     1      -1.226  -0.791   1.552  1.00  0.00     0.273 C 
HETATM   25  C12 UNL     1      -3.146  -0.885   0.164  1.00  0.00     0.237 C 
HETATM   26  C13 UNL     1      -3.545  -2.262   0.577  1.00  0.00     0.028 C 
HETATM   27  C14 UNL     1      -2.932  -3.269  -0.329  1.00  0.00     0.003 C 
HETATM   28  C15 UNL     1      -2.033  -2.598  -1.303  1.00  0.00     0.028 C 
HETATM   29  C16 UNL     1      -1.072  -1.615  -0.610  1.00  0.00     0.237 C 
ENDBRANCH   1  23
TORSDOF 10
