REMARK  9 active torsions:
REMARK  status: ('A' for Active; 'I' for Inactive)
REMARK    1  A    between atoms: C2_2  and  O1_3 
REMARK    2  A    between atoms: O1_3  and  C3_4 
REMARK    3  A    between atoms: C10_13  and  O4_14 
REMARK    4  A    between atoms: O4_14  and  C11_15 
REMARK    5  A    between atoms: C11_15  and  C12_16 
REMARK    6  A    between atoms: C12_16  and  O5_17 
REMARK    7  A    between atoms: C14_20  and  O6_21 
REMARK    8  A    between atoms: C15_24  and  C16_25 
REMARK    9  A    between atoms: C21_32  and  O10_33 
ROOT
HETATM    1  C3  UNL     1      -0.238   1.947  -0.463  1.00  0.00     0.191 C 
HETATM    2  C4  UNL     1       0.202   0.562  -0.679  1.00  0.00     0.041 A 
HETATM    3  C5  UNL     1      -0.682  -0.295  -1.286  1.00  0.00     0.084 A 
HETATM    4  C6  UNL     1      -0.337  -1.588  -1.516  1.00  0.00     0.076 A 
HETATM    5  C7  UNL     1       0.911  -2.057  -1.141  1.00  0.00     0.098 A 
HETATM    6  O2  UNL     1       1.173  -3.306  -1.392  1.00  0.00    -0.274 OA
HETATM    7  C8  UNL     1       2.308  -3.847  -1.084  1.00  0.00     0.290 A 
HETATM    8  O3  UNL     1       2.499  -5.055  -1.353  1.00  0.00    -0.260 OA
HETATM    9  C9  UNL     1       3.256  -3.059  -0.471  1.00  0.00     0.120 A 
HETATM   10  C10 UNL     1       3.049  -1.727  -0.173  1.00  0.00     0.090 A 
HETATM   11  C13 UNL     1       1.831  -1.197  -0.519  1.00  0.00     0.065 A 
HETATM   12  C14 UNL     1       1.478   0.107  -0.289  1.00  0.00     0.093 A 
HETATM   13  O7  UNL     1      -1.915   0.179  -1.653  1.00  0.00    -0.340 OA
HETATM   14  C15 UNL     1      -2.579   1.238  -0.990  1.00  0.00     0.191 C 
HETATM   15  C21 UNL     1      -1.701   2.000  -0.050  1.00  0.00     0.183 C 
ENDROOT
BRANCH  14  16
HETATM   16  C16 UNL     1      -3.780   0.624  -0.282  1.00  0.00     0.181 C 
HETATM   17  C17 UNL     1      -4.623  -0.128  -1.261  1.00  0.00     0.206 C 
HETATM   18  O8  UNL     1      -4.499  -1.447  -0.907  1.00  0.00    -0.353 OA
HETATM   19  C18 UNL     1      -4.239  -1.430   0.445  1.00  0.00     0.157 C 
HETATM   20  C19 UNL     1      -3.615  -2.720   0.935  1.00  0.00     0.078 C 
HETATM   21  C20 UNL     1      -5.549  -1.246   1.202  1.00  0.00     0.078 C 
HETATM   22  O9  UNL     1      -3.399  -0.334   0.632  1.00  0.00    -0.346 OA
ENDBRANCH  14  16
BRANCH  15  23
HETATM   23  O10 UNL     1      -1.890   1.478   1.233  1.00  0.00    -0.390 OA
ATOM     24  H10 UNL     1      -2.804   1.511   1.491  1.00  0.00     0.210 HD
ENDBRANCH  15  23
BRANCH   1  25
HETATM   25  O1  UNL     1       0.510   2.690   0.403  1.00  0.00    -0.379 OA
BRANCH  25  26
HETATM   26  C2  UNL     1       1.048   3.816  -0.218  1.00  0.00     0.164 C 
HETATM   27  C1  UNL     1       1.877   4.641   0.736  1.00  0.00     0.033 C 
ENDBRANCH  25  26
ENDBRANCH   1  25
BRANCH  12  28
HETATM   28  O6  UNL     1       2.267   1.019   0.295  1.00  0.00    -0.359 OA
ATOM     29  H6  UNL     1       3.127   0.712   0.558  1.00  0.00     0.217 HD
ENDBRANCH  12  28
BRANCH  10  30
HETATM   30  O4  UNL     1       3.996  -0.944   0.438  1.00  0.00    -0.348 OA
BRANCH  30  31
HETATM   31  C11 UNL     1       5.243  -1.497   0.789  1.00  0.00     0.201 C 
BRANCH  31  32
HETATM   32  C12 UNL     1       6.121  -0.459   1.445  1.00  0.00     0.190 C 
BRANCH  32  33
HETATM   33  O5  UNL     1       6.301   0.578   0.524  1.00  0.00    -0.399 OA
ATOM     34  H5  UNL     1       6.854   1.231   0.937  1.00  0.00     0.209 HD
ENDBRANCH  32  33
ENDBRANCH  31  32
ENDBRANCH  30  31
ENDBRANCH  10  30
TORSDOF 9
