REMARK  18 active torsions:
REMARK  status: ('A' for Active; 'I' for Inactive)
REMARK    1  A    between atoms: C2_2  and  C4_4 
REMARK    2  A    between atoms: C4_4  and  O2_6 
REMARK    3  A    between atoms: O2_6  and  C5_7 
REMARK    4  A    between atoms: C5_7  and  C6_8 
REMARK    5  A    between atoms: N1_10  and  C8_11 
REMARK    6  A    between atoms: N2_13  and  O4_14 
REMARK    7  A    between atoms: C9_16  and  N3_17 
REMARK    8  A    between atoms: C10_18  and  N4_19 
REMARK    9  A    between atoms: N4_19  and  C11_21 
REMARK   10  A    between atoms: C11_21  and  C13_23 
REMARK   11  A    between atoms: C13_23  and  N5_24 
REMARK   12  A    between atoms: C14_26  and  N6_27 
REMARK   13  A    between atoms: N6_27  and  C15_29 
REMARK   14  A    between atoms: C17_35  and  O7_36 
REMARK   15  A    between atoms: C19_39  and  N8_40 
REMARK       I    between atoms: N8_40  and  C20_42 
REMARK   16  A    between atoms: C20_42  and  C21_44 
REMARK   17  A    between atoms: C21_44  and  N9_46 
REMARK   18  A    between atoms: C24_54  and  O10_55 
ROOT
HETATM    1  N3  UNL     1      -1.094   0.464  -0.326  1.00  0.00    -0.260 N 
HETATM    2  C10 UNL     1      -1.924   0.017   0.598  1.00  0.00     0.116 A 
HETATM    3  C18 UNL     1      -3.075   0.743   0.984  1.00  0.00     0.097 A 
HETATM    4  C19 UNL     1      -3.350   1.953   0.387  1.00  0.00     0.115 A 
HETATM    5  N10 UNL     1      -2.499   2.393  -0.547  1.00  0.00    -0.294 N 
ATOM      6  H10 UNL     1      -2.682   3.287  -1.002  1.00  0.00     0.172 HD
HETATM    7  C23 UNL     1      -1.423   1.698  -0.898  1.00  0.00     0.331 A 
HETATM    8  O9  UNL     1      -0.687   2.206  -1.791  1.00  0.00    -0.246 OA
ENDROOT
BRANCH   1   9
HETATM    9  C9  UNL     1       0.065  -0.047  -0.862  1.00  0.00     0.260 C 
HETATM   10  N2  UNL     1       1.101   1.038  -0.590  1.00  0.00    -0.042 NA
HETATM   11  O3  UNL     1       2.058   0.656  -1.456  1.00  0.00    -0.246 OA
HETATM   12  C8  UNL     1       2.163  -0.727  -1.425  1.00  0.00     0.302 C 
HETATM   13  C24 UNL     1       0.874  -1.189  -0.653  1.00  0.00     0.212 C 
BRANCH  10  14
HETATM   14  O4  UNL     1       1.555   0.676   0.656  1.00  0.00    -0.287 OA
ATOM     15  H4  UNL     1       0.880   0.946   1.267  1.00  0.00     0.239 HD
ENDBRANCH  10  14
BRANCH  12  16
HETATM   16  N1  UNL     1       3.346  -1.240  -0.828  1.00  0.00    -0.253 N 
HETATM   17  C7  UNL     1       4.516  -1.367  -1.433  1.00  0.00     0.143 A 
HETATM   18  C6  UNL     1       5.391  -1.904  -0.510  1.00  0.00     0.068 A 
HETATM   19  N12 UNL     1       4.665  -2.065   0.615  1.00  0.00    -0.287 N 
HETATM   20  N11 UNL     1       3.443  -1.666   0.417  1.00  0.00    -0.238 N 
ATOM     21  H12 UNL     1       5.022  -2.444   1.492  1.00  0.00     0.188 HD
ATOM     22  H11 UNL     1       2.690  -1.680   1.105  1.00  0.00     0.208 HD
BRANCH  18  23
HETATM   23  C5  UNL     1       6.801  -2.216  -0.750  1.00  0.00     0.239 C 
BRANCH  23  24
HETATM   24  O2  UNL     1       7.675  -1.160  -0.397  1.00  0.00    -0.312 OA
BRANCH  24  25
HETATM   25  C4  UNL     1       9.038  -1.318  -0.572  1.00  0.00     0.288 C 
HETATM   26  O1  UNL     1       9.444  -2.417  -1.048  1.00  0.00    -0.260 OA
BRANCH  25  27
HETATM   27  C2  UNL     1       9.995  -0.260  -0.224  1.00  0.00     0.004 C 
HETATM   28  C1  UNL     1       9.573   0.877   0.268  1.00  0.00     0.024 C 
HETATM   29  C3  UNL     1      11.441  -0.504  -0.441  1.00  0.00     0.054 C 
ENDBRANCH  25  27
ENDBRANCH  24  25
ENDBRANCH  23  24
ENDBRANCH  18  23
ENDBRANCH  12  16
BRANCH  13  30
HETATM   30  O10 UNL     1       0.548  -2.369  -1.384  1.00  0.00    -0.387 OA
ATOM     31  H10 UNL     1      -0.231  -2.648  -0.917  1.00  0.00     0.210 HD
ENDBRANCH  13  30
ENDBRANCH   1   9
BRANCH   2  32
HETATM   32  N4  UNL     1      -1.651  -1.219   1.214  1.00  0.00    -0.348 N 
ATOM     33  H4  UNL     1      -0.825  -1.725   0.894  1.00  0.00     0.167 HD
BRANCH  32  34
HETATM   34  C11 UNL     1      -2.436  -1.836   2.260  1.00  0.00     0.003 C 
HETATM   35  C12 UNL     1      -2.685  -1.026   3.474  1.00  0.00     0.065 C 
BRANCH  34  36
HETATM   36  C13 UNL     1      -3.447  -2.822   1.834  1.00  0.00     0.193 C 
BRANCH  36  37
HETATM   37  N5  UNL     1      -4.494  -2.460   0.948  1.00  0.00    -0.276 N 
HETATM   38  S1  UNL     1      -4.245  -2.545  -0.737  1.00  0.00     0.015 SA
HETATM   39  C14 UNL     1      -5.599  -2.081  -1.655  1.00  0.00     0.161 A 
HETATM   40  C16 UNL     1      -6.676  -1.713  -0.878  1.00  0.00     0.283 A 
HETATM   41  O6  UNL     1      -7.719  -1.355  -1.535  1.00  0.00    -0.265 OA
HETATM   42  N7  UNL     1      -6.683  -1.711   0.455  1.00  0.00    -0.286 N 
HETATM   43  C17 UNL     1      -5.709  -2.045   1.299  1.00  0.00     0.233 A 
ATOM     44  H7  UNL     1      -7.556  -1.412   0.889  1.00  0.00     0.172 HD
BRANCH  39  45
HETATM   45  N6  UNL     1      -5.678  -2.052  -2.940  1.00  0.00    -0.323 N 
ATOM     46  H6  UNL     1      -6.532  -1.760  -3.415  1.00  0.00     0.169 HD
BRANCH  45  47
HETATM   47  C15 UNL     1      -4.523  -2.445  -3.667  1.00  0.00     0.353 C 
HETATM   48  O5  UNL     1      -3.619  -3.163  -3.202  1.00  0.00    -0.283 OA
ENDBRANCH  45  47
ENDBRANCH  39  45
BRANCH  43  49
HETATM   49  O7  UNL     1      -5.992  -1.952   2.566  1.00  0.00    -0.332 OA
ATOM     50  H7  UNL     1      -6.859  -1.656   2.817  1.00  0.00     0.221 HD
ENDBRANCH  43  49
ENDBRANCH  36  37
ENDBRANCH  34  36
ENDBRANCH  32  34
ENDBRANCH   2  32
BRANCH   4  51
HETATM   51  N8  UNL     1      -4.392   2.595   0.748  1.00  0.00    -0.311 N 
HETATM   52  C20 UNL     1      -4.717   3.841   0.165  1.00  0.00     0.253 C 
HETATM   53  O8  UNL     1      -5.143   3.842  -1.040  1.00  0.00    -0.271 OA
ATOM     54  H8  UNL     1      -4.999   2.203   1.468  1.00  0.00     0.170 HD
BRANCH  52  55
HETATM   55  C21 UNL     1      -4.601   5.135   0.843  1.00  0.00     0.271 C 
HETATM   56  C22 UNL     1      -3.173   5.428   1.307  1.00  0.00     0.050 C 
BRANCH  55  57
HETATM   57  N9  UNL     1      -5.020   6.239  -0.005  1.00  0.00    -0.067 N 
ATOM     58  H93 UNL     1      -4.511   6.239  -0.889  1.00  0.00     0.275 HD
ATOM     59  H92 UNL     1      -5.964   6.093  -0.361  1.00  0.00     0.275 HD
ATOM     60  H91 UNL     1      -4.939   7.140   0.467  1.00  0.00     0.275 HD
ENDBRANCH  55  57
ENDBRANCH  52  55
ENDBRANCH   4  51
TORSDOF 18
