REMARK  12 active torsions:
REMARK  status: ('A' for Active; 'I' for Inactive)
REMARK    1  A    between atoms: C2_2  and  C3_3 
REMARK    2  A    between atoms: C3_3  and  C4_4 
REMARK    3  A    between atoms: C4_4  and  C5_5 
REMARK    4  A    between atoms: C6_6  and  C7_7 
REMARK    5  A    between atoms: C8_8  and  N1_9 
REMARK    6  A    between atoms: N1_9  and  C9_11 
REMARK    7  A    between atoms: C11_13  and  C12_14 
REMARK    8  A    between atoms: C12_14  and  C13_15 
REMARK    9  A    between atoms: C20_30  and  C21_31 
REMARK   10  A    between atoms: C22_36  and  N7_37 
REMARK   11  A    between atoms: N7_37  and  C23_39 
REMARK   12  A    between atoms: C23_39  and  C25_41 
ROOT
HETATM    1  C7  UNL     1       0.306  -0.614  -2.055  1.00  0.00     0.092 A 
HETATM    2  C8  UNL     1      -0.854  -0.513  -2.849  1.00  0.00     0.129 A 
HETATM    3  N3  UNL     1      -1.329  -1.605  -3.481  1.00  0.00    -0.337 N 
ATOM      4  H3  UNL     1      -2.169  -1.528  -4.054  1.00  0.00     0.168 HD
HETATM    5  C19 UNL     1      -0.711  -2.798  -3.367  1.00  0.00     0.182 A 
HETATM    6  N4  UNL     1       0.372  -2.910  -2.630  1.00  0.00    -0.348 N 
ATOM      7  H4  UNL     1       0.830  -3.818  -2.551  1.00  0.00     0.167 HD
HETATM    8  C20 UNL     1       0.906  -1.819  -1.956  1.00  0.00     0.102 A 
ENDROOT
BRANCH   2   9
HETATM    9  N1  UNL     1      -1.536   0.724  -2.996  1.00  0.00    -0.327 N 
ATOM     10  H1  UNL     1      -1.219   1.421  -3.670  1.00  0.00     0.169 HD
BRANCH   9  11
HETATM   11  C9  UNL     1      -2.573   0.942  -2.249  1.00  0.00     0.107 A 
HETATM   12  C10 UNL     1      -3.031   0.018  -1.325  1.00  0.00     0.058 A 
HETATM   13  C11 UNL     1      -4.158   0.269  -0.525  1.00  0.00    -0.020 A 
HETATM   14  C17 UNL     1      -4.810   1.481  -0.683  1.00  0.00     0.056 A 
HETATM   15 CL1  UNL     1      -6.211   1.820   0.283  1.00  0.00    -0.082 Cl
HETATM   16  C18 UNL     1      -4.324   2.374  -1.611  1.00  0.00     0.114 A 
HETATM   17  N2  UNL     1      -3.246   2.108  -2.363  1.00  0.00    -0.351 N 
ATOM     18  H2  UNL     1      -2.926   2.803  -3.038  1.00  0.00     0.166 HD
BRANCH  13  19
HETATM   19  C12 UNL     1      -4.588  -0.709   0.454  1.00  0.00     0.023 A 
HETATM   20  C14 UNL     1      -4.993  -0.293   1.869  1.00  0.00     0.007 A 
HETATM   21  C15 UNL     1      -5.935  -1.284   2.497  1.00  0.00     0.012 A 
HETATM   22  C16 UNL     1      -5.920  -0.909   0.977  1.00  0.00     0.007 A 
BRANCH  19  23
HETATM   23  C13 UNL     1      -3.774  -2.018   0.468  1.00  0.00     0.237 C 
HETATM   24  F1  UNL     1      -3.863  -2.683  -0.736  1.00  0.00    -0.254 F 
ENDBRANCH  19  23
ENDBRANCH  13  19
ENDBRANCH   9  11
ENDBRANCH   2   9
BRANCH   1  25
HETATM   25  C6  UNL     1       0.742   0.576  -1.426  1.00  0.00    -0.061 C 
HETATM   26  C5  UNL     1       1.081   1.600  -0.912  1.00  0.00    -0.101 C 
BRANCH  26  27
HETATM   27  C4  UNL     1       1.518   2.852  -0.298  1.00  0.00     0.094 C 
BRANCH  27  28
HETATM   28  C3  UNL     1       0.400   3.373   0.576  1.00  0.00     0.012 C 
BRANCH  28  29
HETATM   29  C2  UNL     1       0.892   4.668   1.191  1.00  0.00    -0.004 C 
HETATM   30  C1  UNL     1      -0.119   5.312   2.095  1.00  0.00     0.005 C 
ENDBRANCH  28  29
ENDBRANCH  27  28
ENDBRANCH  26  27
ENDBRANCH   1  25
BRANCH   8  31
HETATM   31  C21 UNL     1       2.107  -2.088  -1.180  1.00  0.00     0.164 A 
HETATM   32  N5  UNL     1       2.670  -3.353  -1.121  1.00  0.00    -0.269 N 
HETATM   33  N6  UNL     1       3.736  -3.356  -0.368  1.00  0.00    -0.131 N 
ATOM     34  H5  UNL     1       2.300  -4.173  -1.602  1.00  0.00     0.189 HD
HETATM   35  C22 UNL     1       3.938  -2.127   0.106  1.00  0.00     0.695 A 
ATOM     36  H6  UNL     1       4.321  -4.169  -0.173  1.00  0.00     0.205 HD
HETATM   37  N8  UNL     1       2.904  -1.367  -0.421  1.00  0.00    -0.172 N 
ATOM     38  H8  UNL     1       2.777  -0.371  -0.242  1.00  0.00     0.186 HD
BRANCH  35  39
HETATM   39  N7  UNL     1       4.845  -1.649   0.878  1.00  0.00    -0.215 N 
ATOM     40  H7  UNL     1       4.826  -0.661   1.131  1.00  0.00     0.178 HD
BRANCH  39  41
HETATM   41  C23 UNL     1       5.878  -2.491   1.383  1.00  0.00     0.160 C 
HETATM   42  C24 UNL     1       5.711  -2.725   2.882  1.00  0.00     0.038 C 
BRANCH  41  43
HETATM   43  C25 UNL     1       7.253  -1.839   1.226  1.00  0.00     0.375 C 
HETATM   44  F2  UNL     1       8.172  -2.753   1.754  1.00  0.00    -0.212 F 
HETATM   45  F3  UNL     1       7.575  -1.706  -0.110  1.00  0.00    -0.212 F 
ENDBRANCH  41  43
ENDBRANCH  39  41
ENDBRANCH  35  39
ENDBRANCH   8  31
TORSDOF 12
