REMARK  10 active torsions:
REMARK  status: ('A' for Active; 'I' for Inactive)
REMARK    1  A    between atoms: S1_2  and  C2_3 
REMARK    2  A    between atoms: C2_3  and  C3_4 
REMARK    3  A    between atoms: C3_4  and  C4_5 
REMARK    4  A    between atoms: N1_6  and  N2_8 
REMARK       I    between atoms: N2_8  and  C5_10 
REMARK    5  A    between atoms: C5_10  and  C6_12 
REMARK    6  A    between atoms: C9_19  and  N6_20 
REMARK    7  A    between atoms: N6_20  and  C10_22 
REMARK    8  A    between atoms: C13_28  and  N8_29 
REMARK    9  A    between atoms: N10_38  and  O3_39 
REMARK   10  A    between atoms: O3_39  and  C15_40 
ROOT
HETATM    1  N6  UNL     1      -1.908   1.293  -0.852  1.00  0.00    -0.182 N 
ATOM      2  H6  UNL     1      -2.162   1.914  -1.620  1.00  0.00     0.184 HD
ENDROOT
BRANCH   1   3
HETATM    3  C9  UNL     1      -0.765   1.644  -0.108  1.00  0.00     0.141 A 
HETATM    4  C8  UNL     1      -0.907   2.353   1.066  1.00  0.00     0.149 A 
HETATM    5  N4  UNL     1       0.212   2.752   1.734  1.00  0.00    -0.330 N 
HETATM    6  N5  UNL     1      -2.188   2.681   1.592  1.00  0.00    -0.080 NA
HETATM    7  C7  UNL     1       1.433   2.485   1.294  1.00  0.00     0.137 A 
ATOM      8  H4  UNL     1       0.106   3.275   2.603  1.00  0.00     0.168 HD
HETATM    9  C6  UNL     1       1.660   1.768   0.105  1.00  0.00     0.127 A 
HETATM   10  N3  UNL     1       2.608   2.895   2.025  1.00  0.00    -0.081 NA
HETATM   11  C17 UNL     1       0.518   1.372  -0.551  1.00  0.00     0.221 A 
HETATM   12  O5  UNL     1       0.600   0.718  -1.629  1.00  0.00    -0.285 OA
BRANCH   9  13
HETATM   13  C5  UNL     1       3.022   1.615  -0.354  1.00  0.00     0.277 C 
HETATM   14  N2  UNL     1       3.435   0.831  -1.447  1.00  0.00    -0.266 N 
ATOM     15  H2  UNL     1       2.731   0.304  -1.964  1.00  0.00     0.190 HD
HETATM   16  O1  UNL     1       3.962   2.223   0.259  1.00  0.00    -0.266 OA
BRANCH  14  17
HETATM   17  N1  UNL     1       4.751   0.744  -1.850  1.00  0.00    -0.313 N 
HETATM   18  C4  UNL     1       5.641  -0.056  -1.565  1.00  0.00     0.081 C 
ATOM     19  H1  UNL     1       5.038   1.474  -2.502  1.00  0.00     0.185 HD
BRANCH  18  20
HETATM   20  C3  UNL     1       5.643  -1.236  -0.686  1.00  0.00     0.056 C 
BRANCH  20  21
HETATM   21  C2  UNL     1       6.081  -0.820   0.707  1.00  0.00     0.078 C 
BRANCH  21  22
HETATM   22  S1  UNL     1       7.737  -0.103   0.574  1.00  0.00    -0.173 SA
HETATM   23  C1  UNL     1       8.993  -1.284   0.075  1.00  0.00     0.089 C 
ENDBRANCH  21  22
ENDBRANCH  20  21
ENDBRANCH  18  20
ENDBRANCH  14  17
ENDBRANCH   9  13
ENDBRANCH   1   3
BRANCH   1  24
HETATM   24  C10 UNL     1      -2.746   0.161  -0.643  1.00  0.00     0.711 A 
HETATM   25  N7  UNL     1      -2.651  -0.568   0.411  1.00  0.00    -0.179 N 
HETATM   26  C11 UNL     1      -3.595  -1.629   0.390  1.00  0.00     0.306 A 
ATOM     27  H7  UNL     1      -1.984  -0.406   1.165  1.00  0.00     0.181 HD
HETATM   28  C12 UNL     1      -2.888  -2.965   0.422  1.00  0.00     0.150 C 
HETATM   29  N9  UNL     1      -4.442  -1.498   1.526  1.00  0.00    -0.000 N 
HETATM   30  C14 UNL     1      -4.311  -1.457  -0.893  1.00  0.00     0.323 A 
HETATM   31  S2  UNL     1      -4.293  -3.987   1.007  1.00  0.00    -0.104 SA
HETATM   32  C13 UNL     1      -5.250  -2.641   1.755  1.00  0.00     0.446 C 
ATOM     33  H92 UNL     1      -3.900  -1.264   2.358  1.00  0.00     0.284 HD
ATOM     34  H91 UNL     1      -5.015  -0.657   1.457  1.00  0.00     0.284 HD
HETATM   35  O2  UNL     1      -5.243  -2.205  -1.333  1.00  0.00    -0.265 OA
HETATM   36  N10 UNL     1      -3.767  -0.323  -1.522  1.00  0.00    -0.002 N 
BRANCH  32  37
HETATM   37  N8  UNL     1      -5.322  -2.847   3.213  1.00  0.00    -0.041 N 
ATOM     38  H83 UNL     1      -5.692  -3.766   3.456  1.00  0.00     0.277 HD
ATOM     39  H82 UNL     1      -4.399  -2.947   3.636  1.00  0.00     0.277 HD
ATOM     40  H81 UNL     1      -5.860  -2.090   3.634  1.00  0.00     0.277 HD
ENDBRANCH  32  37
BRANCH  36  41
HETATM   41  O3  UNL     1      -4.096   0.242  -2.721  1.00  0.00    -0.176 OA
BRANCH  41  42
HETATM   42  C15 UNL     1      -5.317   0.675  -3.132  1.00  0.00     0.278 C 
HETATM   43  C16 UNL     1      -5.521   1.273  -4.457  1.00  0.00     0.128 C 
HETATM   44  O4  UNL     1      -6.291   0.544  -2.317  1.00  0.00    -0.264 OA
ENDBRANCH  41  42
ENDBRANCH  36  41
ENDBRANCH   1  24
TORSDOF 10
