REMARK  2 active torsions:
REMARK  status: ('A' for Active; 'I' for Inactive)
REMARK    1  A    between atoms: C5_12  and  N3_13 
REMARK    2  A    between atoms: N3_13  and  N4_15 
ROOT
HETATM    1  N1  UNL     1       4.862  -0.908   0.809  1.00  0.00    -0.234 N 
ATOM      2  H11 UNL     1       4.947  -0.821   1.822  1.00  0.00     0.174 HD
ATOM      3  H12 UNL     1       5.667  -1.273   0.301  1.00  0.00     0.174 HD
HETATM    4  C1  UNL     1       3.777  -0.568   0.196  1.00  0.00     0.679 A 
HETATM    5  N2  UNL     1       3.659  -0.689  -1.210  1.00  0.00    -0.153 N 
ATOM      6  H2  UNL     1       4.454  -1.053  -1.735  1.00  0.00     0.187 HD
HETATM    7  C2  UNL     1       2.487  -0.328  -1.924  1.00  0.00     0.312 A 
HETATM    8  O1  UNL     1       2.440  -0.457  -3.174  1.00  0.00    -0.263 OA
HETATM    9  C3  UNL     1       1.344   0.191  -1.194  1.00  0.00     0.268 A 
HETATM   10  O2  UNL     1       0.304   0.511  -1.834  1.00  0.00    -0.280 OA
HETATM   11  C4  UNL     1       1.459   0.317   0.242  1.00  0.00     0.121 A 
HETATM   12  C5  UNL     1       0.456   0.780   0.949  1.00  0.00     0.141 C 
HETATM   13  N7  UNL     1       2.650  -0.057   0.907  1.00  0.00    -0.186 N 
ATOM     14  H7  UNL     1       2.705   0.041   1.921  1.00  0.00     0.184 HD
ENDROOT
BRANCH  12  15
HETATM   15  N3  UNL     1      -0.737   1.154   0.281  1.00  0.00    -0.305 N 
ATOM     16  H3  UNL     1      -0.769   2.037  -0.229  1.00  0.00     0.186 HD
BRANCH  15  17
HETATM   17  N4  UNL     1      -1.856   0.346   0.307  1.00  0.00    -0.264 N 
HETATM   18  C6  UNL     1      -1.899  -1.063   0.613  1.00  0.00     0.171 C 
HETATM   19  C7  UNL     1      -3.174  -1.469  -0.077  1.00  0.00     0.144 C 
HETATM   20  N5  UNL     1      -3.908  -0.246  -0.184  1.00  0.00    -0.362 N 
HETATM   21  C8  UNL     1      -3.197   0.789   0.026  1.00  0.00     0.205 C 
ATOM     22  H5  UNL     1      -4.903  -0.207  -0.407  1.00  0.00     0.162 HD
HETATM   23  N6  UNL     1      -3.572   2.164   0.007  1.00  0.00    -0.062 NA
ENDBRANCH  15  17
ENDBRANCH  12  15
TORSDOF 2
