REMARK  9 active torsions:
REMARK  status: ('A' for Active; 'I' for Inactive)
REMARK    1  A    between atoms: C2_2  and  O2_4 
REMARK    2  A    between atoms: O2_4  and  C3_5 
REMARK    3  A    between atoms: C10_13  and  C11_14 
REMARK    4  A    between atoms: C11_14  and  C12_15 
REMARK    5  A    between atoms: C12_15  and  C13_16 
REMARK    6  A    between atoms: C24_32  and  O4_33 
REMARK    7  A    between atoms: C24_32  and  C25_35 
REMARK    8  A    between atoms: C26_36  and  C27_37 
REMARK    9  A    between atoms: C30_41  and  O6_42 
ROOT
HETATM    1  C3  UNL     1      -1.656  -1.311  -0.232  1.00  0.00     0.144 C 
HETATM    2  C4  UNL     1      -0.332  -0.900  -0.910  1.00  0.00     0.039 C 
HETATM    3  C5  UNL     1       0.416  -0.131   0.173  1.00  0.00     0.003 C 
HETATM    4  C6  UNL     1      -0.180   1.281   0.135  1.00  0.00    -0.004 C 
HETATM    5  C7  UNL     1       0.396   2.004   1.299  1.00  0.00     0.008 C 
HETATM    6  C8  UNL     1       1.885   2.121   1.109  1.00  0.00     0.033 C 
HETATM    7  C9  UNL     1       2.462   1.246   0.057  1.00  0.00     0.131 C 
HETATM    8  O3  UNL     1       3.845   1.273   0.171  1.00  0.00    -0.376 OA
HETATM    9  C10 UNL     1       4.370   0.608   1.231  1.00  0.00     0.144 C 
HETATM   10  C17 UNL     1       3.913  -0.821   1.359  1.00  0.00     0.037 C 
HETATM   11  C18 UNL     1       2.490  -1.047   1.057  1.00  0.00     0.015 C 
HETATM   12  C19 UNL     1       1.890  -0.148   0.012  1.00  0.00    -0.014 C 
HETATM   13  C20 UNL     1       2.315  -0.732  -1.343  1.00  0.00     0.018 C 
HETATM   14  C21 UNL     1      -1.610   1.188  -0.008  1.00  0.00     0.004 C 
HETATM   15  C22 UNL     1      -2.467   2.126   0.797  1.00  0.00     0.009 C 
HETATM   16  C23 UNL     1      -3.850   1.602   0.435  1.00  0.00     0.043 C 
HETATM   17  C24 UNL     1      -3.684   0.239  -0.203  1.00  0.00     0.086 C 
HETATM   18  C31 UNL     1      -2.279  -0.114   0.365  1.00  0.00     0.021 C 
HETATM   19  C32 UNL     1      -2.514  -0.260   1.848  1.00  0.00     0.022 C 
ENDROOT
BRANCH   9  20
HETATM   20  C11 UNL     1       5.862   0.537   1.002  1.00  0.00     0.006 C 
BRANCH  20  21
HETATM   21  C12 UNL     1       6.449   1.106   0.003  1.00  0.00     0.014 C 
BRANCH  21  22
HETATM   22  C13 UNL     1       7.873   1.031  -0.205  1.00  0.00     0.018 A 
HETATM   23  C14 UNL     1       8.700   0.358   0.634  1.00  0.00     0.103 A 
HETATM   24  N1  UNL     1      10.057   0.305   0.409  1.00  0.00    -0.361 N 
HETATM   25  C15 UNL     1      10.563   0.932  -0.662  1.00  0.00     0.181 A 
ATOM     26  H1  UNL     1      10.668  -0.204   1.048  1.00  0.00     0.166 HD
HETATM   27  N2  UNL     1       9.775   1.606  -1.512  1.00  0.00    -0.342 N 
HETATM   28  C16 UNL     1       8.442   1.673  -1.313  1.00  0.00     0.116 A 
ATOM     29  H2  UNL     1      10.188   2.074  -2.319  1.00  0.00     0.167 HD
HETATM   30 CL1  UNL     1       7.364   2.533  -2.381  1.00  0.00    -0.064 Cl
ENDBRANCH  21  22
ENDBRANCH  20  21
ENDBRANCH   9  20
BRANCH   1  31
HETATM   31  O2  UNL     1      -2.425  -2.153  -0.994  1.00  0.00    -0.315 OA
BRANCH  31  32
HETATM   32  C2  UNL     1      -2.622  -3.496  -0.741  1.00  0.00     0.255 C 
HETATM   33  C1  UNL     1      -3.450  -4.388  -1.568  1.00  0.00     0.126 C 
HETATM   34  O1  UNL     1      -2.028  -3.928   0.279  1.00  0.00    -0.266 OA
ENDBRANCH  31  32
ENDBRANCH   1  31
BRANCH  17  35
HETATM   35  O4  UNL     1      -3.637   0.384  -1.546  1.00  0.00    -0.385 OA
ATOM     36  H4  UNL     1      -3.533  -0.471  -1.946  1.00  0.00     0.211 HD
ENDBRANCH  17  35
BRANCH  17  37
HETATM   37  C25 UNL     1      -4.648  -0.742   0.321  1.00  0.00     0.012 C 
HETATM   38  C26 UNL     1      -5.884  -0.870   0.105  1.00  0.00     0.015 C 
BRANCH  38  39
HETATM   39  C27 UNL     1      -6.883  -0.200  -0.675  1.00  0.00     0.024 A 
HETATM   40  C28 UNL     1      -6.804   0.908  -1.462  1.00  0.00     0.041 A 
HETATM   41  C29 UNL     1      -8.076   1.126  -2.009  1.00  0.00     0.145 A 
HETATM   42  O5  UNL     1      -8.846   0.205  -1.568  1.00  0.00    -0.300 OA
HETATM   43  C30 UNL     1      -8.236  -0.617  -0.781  1.00  0.00     0.193 A 
BRANCH  43  44
HETATM   44  O6  UNL     1      -8.792  -1.729  -0.136  1.00  0.00    -0.340 OA
ATOM     45  H6  UNL     1      -9.697  -2.008  -0.207  1.00  0.00     0.220 HD
ENDBRANCH  43  44
ENDBRANCH  38  39
ENDBRANCH  17  37
TORSDOF 9
