REMARK  9 active torsions:
REMARK  status: ('A' for Active; 'I' for Inactive)
REMARK    1  A    between atoms: C2_2  and  C3_3 
REMARK    2  A    between atoms: C3_3  and  C4_4 
REMARK    3  A    between atoms: C9_13  and  C10_14 
REMARK    4  A    between atoms: C10_14  and  C11_15 
REMARK    5  A    between atoms: C11_15  and  C13_17 
REMARK    6  A    between atoms: C16_23  and  C17_24 
REMARK    7  A    between atoms: C21_31  and  C22_32 
REMARK    8  A    between atoms: C22_32  and  C23_33 
REMARK    9  A    between atoms: C27_38  and  O5_39 
ROOT
HETATM    1  C4  UNL     1      -1.619   2.347   0.490  1.00  0.00     0.159 C 
HETATM    2  N1  UNL     1      -0.902   2.518  -0.708  1.00  0.00    -0.349 N 
ATOM      3  H1  UNL     1      -1.180   1.913  -1.481  1.00  0.00     0.163 HD
HETATM    4  C5  UNL     1       0.141   3.408  -0.978  1.00  0.00     0.218 C 
HETATM    5  O1  UNL     1       0.064   3.996  -2.127  1.00  0.00    -0.274 OA
HETATM    6  C6  UNL     1       1.298   3.779  -0.174  1.00  0.00     0.110 C 
HETATM    7  C7  UNL     1       1.991   2.626   0.520  1.00  0.00     0.090 C 
HETATM    8  C8  UNL     1       2.561   1.662  -0.453  1.00  0.00     0.149 C 
HETATM    9  O2  UNL     1       2.997   1.980  -1.523  1.00  0.00    -0.296 OA
HETATM   10  C9  UNL     1       2.590   0.215  -0.067  1.00  0.00     0.154 C 
HETATM   11  N2  UNL     1       2.099  -0.543  -1.165  1.00  0.00    -0.348 N 
ATOM     12  H2  UNL     1       2.406  -0.227  -2.085  1.00  0.00     0.163 HD
HETATM   13  C15 UNL     1       1.260  -1.654  -1.166  1.00  0.00     0.241 C 
HETATM   14  O3  UNL     1       1.579  -2.666  -1.860  1.00  0.00    -0.271 OA
HETATM   15  C16 UNL     1      -0.037  -1.787  -0.402  1.00  0.00     0.180 C 
HETATM   16  N3  UNL     1      -1.094  -1.853  -1.388  1.00  0.00    -0.342 N 
ATOM     17  H3  UNL     1      -1.024  -2.629  -2.046  1.00  0.00     0.163 HD
HETATM   18  C20 UNL     1      -2.204  -1.009  -1.576  1.00  0.00     0.265 C 
HETATM   19  O4  UNL     1      -2.289  -0.492  -2.757  1.00  0.00    -0.266 OA
HETATM   20  C21 UNL     1      -3.269  -0.626  -0.660  1.00  0.00     0.081 C 
HETATM   21  N4  UNL     1      -3.548   0.762  -0.414  1.00  0.00    -0.333 N 
HETATM   22  C26 UNL     1      -4.714   1.317  -1.167  1.00  0.00     0.158 C 
HETATM   23  C27 UNL     1      -2.939   1.690   0.444  1.00  0.00     0.141 C 
ENDROOT
BRANCH  10  24
HETATM   24  C10 UNL     1       3.899  -0.192   0.505  1.00  0.00     0.037 C 
BRANCH  24  25
HETATM   25  C11 UNL     1       5.096  -0.023  -0.362  1.00  0.00    -0.017 C 
HETATM   26  C12 UNL     1       5.053  -0.811  -1.647  1.00  0.00     0.010 C 
BRANCH  25  27
HETATM   27  C13 UNL     1       6.379  -0.440   0.372  1.00  0.00    -0.000 C 
HETATM   28  C14 UNL     1       7.534  -0.232  -0.584  1.00  0.00     0.005 C 
ENDBRANCH  25  27
ENDBRANCH  24  25
ENDBRANCH  10  24
BRANCH  15  29
HETATM   29  C17 UNL     1       0.115  -3.036   0.414  1.00  0.00     0.009 C 
HETATM   30  C18 UNL     1       1.295  -2.955   1.376  1.00  0.00     0.012 C 
HETATM   31  C19 UNL     1       0.267  -4.309  -0.328  1.00  0.00     0.012 C 
ENDBRANCH  15  29
BRANCH   1  32
HETATM   32  C3  UNL     1      -1.579   3.601   1.327  1.00  0.00     0.033 C 
BRANCH  32  33
HETATM   33  C2  UNL     1      -2.061   4.859   0.768  1.00  0.00    -0.002 C 
HETATM   34  C1  UNL     1      -3.487   4.937   0.316  1.00  0.00     0.005 C 
ENDBRANCH  32  33
ENDBRANCH   1  32
BRANCH  20  35
HETATM   35  C22 UNL     1      -3.424  -1.522   0.565  1.00  0.00     0.067 C 
BRANCH  35  36
HETATM   36  C23 UNL     1      -3.752  -2.943   0.204  1.00  0.00    -0.017 C 
HETATM   37  C24 UNL     1      -3.878  -3.712   1.514  1.00  0.00     0.010 C 
HETATM   38  C25 UNL     1      -5.047  -3.086  -0.523  1.00  0.00     0.010 C 
ENDBRANCH  35  36
ENDBRANCH  20  35
BRANCH  23  39
HETATM   39  O5  UNL     1      -3.660   2.105   1.461  1.00  0.00    -0.348 OA
ATOM     40  H5  UNL     1      -4.510   1.682   1.431  1.00  0.00     0.219 HD
ENDBRANCH  23  39
TORSDOF 9
