REMARK  1 active torsions:
REMARK  status: ('A' for Active; 'I' for Inactive)
REMARK    1  A    between atoms: O1_2  and  C2_3 
ROOT
HETATM    1  C2  UNL     1       4.215   0.129  -0.053  1.00  0.00     0.121 C 
HETATM    2  C3  UNL     1       3.242   0.721   0.925  1.00  0.00     0.037 C 
HETATM    3  C4  UNL     1       2.007   1.063   0.112  1.00  0.00     0.074 C 
HETATM    4  C5  UNL     1       1.217  -0.246  -0.013  1.00  0.00     0.200 C 
HETATM    5  C6  UNL     1       2.210  -1.364  -0.312  1.00  0.00     0.074 C 
HETATM    6  C7  UNL     1       3.482  -0.840  -0.925  1.00  0.00     0.037 C 
HETATM    7  O2  UNL     1       0.288  -0.089  -1.025  1.00  0.00    -0.200 OA
HETATM    8  O3  UNL     1      -0.783  -0.840  -0.832  1.00  0.00    -0.221 OA
HETATM    9  C8  UNL     1      -1.520  -0.318   0.232  1.00  0.00     0.150 C 
HETATM   10  C9  UNL     1      -2.580  -1.349   0.615  1.00  0.00     0.047 C 
HETATM   11  C10 UNL     1      -3.586  -0.755   1.560  1.00  0.00     0.003 C 
HETATM   12  C11 UNL     1      -4.573   0.150   0.917  1.00  0.00     0.000 C 
HETATM   13  C12 UNL     1      -4.502   0.164  -0.591  1.00  0.00     0.004 C 
HETATM   14  C13 UNL     1      -3.287   0.861  -1.111  1.00  0.00    -0.015 C 
HETATM   15  C14 UNL     1      -2.865   0.244  -2.410  1.00  0.00     0.010 C 
HETATM   16  C15 UNL     1      -2.172   0.975  -0.112  1.00  0.00     0.051 C 
HETATM   17  C16 UNL     1      -0.607  -0.095   1.413  1.00  0.00     0.348 C 
HETATM   18  F1  UNL     1      -0.639   1.245   1.822  1.00  0.00    -0.216 F 
HETATM   19  O4  UNL     1       0.677  -0.525   1.211  1.00  0.00    -0.315 OA
ENDROOT
BRANCH   1  20
HETATM   20  O1  UNL     1       5.367  -0.352   0.496  1.00  0.00    -0.391 OA
HETATM   21  C1  UNL     1       6.528   0.271   0.132  1.00  0.00     0.202 C 
ENDBRANCH   1  20
TORSDOF 1
