REMARK  5 active torsions:
REMARK  status: ('A' for Active; 'I' for Inactive)
REMARK    1  A    between atoms: N2_7  and  C4_8 
REMARK    2  A    between atoms: C10_15  and  C11_16 
REMARK    3  A    between atoms: C11_16  and  N3_17 
REMARK    4  A    between atoms: N3_17  and  C12_20 
REMARK    5  A    between atoms: C12_20  and  C13_21 
ROOT
HETATM    1  C1  UNL     1       2.038  -3.774   0.646  1.00  0.00     0.070 C 
HETATM    2  C2  UNL     1       0.846  -2.931   0.522  1.00  0.00     0.032 A 
HETATM    3  N1  UNL     1      -0.411  -3.365   0.552  1.00  0.00    -0.335 N 
ATOM      4  H1  UNL     1      -0.706  -4.335   0.664  1.00  0.00     0.168 HD
HETATM    5  C3  UNL     1      -1.220  -2.312   0.410  1.00  0.00     0.179 A 
HETATM    6  S1  UNL     1      -2.833  -2.425   0.398  1.00  0.00    -0.040 SA
HETATM    7  N2  UNL     1      -0.505  -1.158   0.283  1.00  0.00    -0.318 N 
HETATM    8  C10 UNL     1       0.775  -1.515   0.350  1.00  0.00     0.062 A 
ENDROOT
BRANCH   8   9
HETATM    9  C11 UNL     1       2.037  -0.752   0.271  1.00  0.00     0.291 C 
BRANCH   9  10
HETATM   10  N3  UNL     1       1.959   0.649   0.131  1.00  0.00    -0.061 N 
ATOM     11  H32 UNL     1       1.357   0.926  -0.645  1.00  0.00     0.277 HD
ATOM     12  H31 UNL     1       1.430   1.083   0.888  1.00  0.00     0.277 HD
BRANCH  10  13
HETATM   13  C12 UNL     1       3.327   1.212   0.008  1.00  0.00     0.349 C 
BRANCH  13  14
HETATM   14  C13 UNL     1       3.224   2.720  -0.144  1.00  0.00     0.411 C 
HETATM   15  F1  UNL     1       2.497   3.066  -1.268  1.00  0.00    -0.169 F 
HETATM   16  F2  UNL     1       4.467   3.293  -0.220  1.00  0.00    -0.169 F 
HETATM   17  F3  UNL     1       2.579   3.288   0.944  1.00  0.00    -0.169 F 
ENDBRANCH  13  14
ENDBRANCH  10  13
ENDBRANCH   9  10
ENDBRANCH   8   9
BRANCH   7  18
HETATM   18  C4  UNL     1      -1.096   0.113   0.105  1.00  0.00     0.111 C 
HETATM   19  C5  UNL     1      -1.967   0.185  -1.161  1.00  0.00     0.027 C 
HETATM   20  C6  UNL     1      -2.136   1.686  -1.444  1.00  0.00     0.002 C 
HETATM   21  C7  UNL     1      -2.996   2.216  -0.320  1.00  0.00     0.002 C 
HETATM   22  C8  UNL     1      -3.260   1.212   0.758  1.00  0.00     0.022 C 
HETATM   23  C9  UNL     1      -2.004   0.528   1.257  1.00  0.00     0.105 C 
HETATM   24 CL1  UNL     1      -1.187   1.770   2.279  1.00  0.00    -0.123 Cl
ENDBRANCH   7  18
TORSDOF 5
