REMARK  10 active torsions:
REMARK  status: ('A' for Active; 'I' for Inactive)
REMARK    1  A    between atoms: O1_2  and  C2_3 
REMARK    2  A    between atoms: C3_4  and  N1_5 
REMARK       I    between atoms: N1_5  and  C4_7 
REMARK    3  A    between atoms: C4_7  and  C5_9 
REMARK    4  A    between atoms: C7_13  and  C8_14 
REMARK    5  A    between atoms: C15_23  and  C16_24 
REMARK    6  A    between atoms: C15_23  and  C17_27 
REMARK    7  A    between atoms: C17_27  and  O6_28 
REMARK    8  A    between atoms: C17_27  and  N4_30 
REMARK    9  A    between atoms: N4_30  and  C19_32 
REMARK   10  A    between atoms: C19_32  and  C20_33 
ROOT
HETATM    1  C2  UNL     1      -0.654  -0.828  -0.004  1.00  0.00     0.106 A 
HETATM    2  C3  UNL     1       0.464  -1.546   0.472  1.00  0.00     0.069 A 
HETATM    3  C11 UNL     1       0.321  -2.852   0.799  1.00  0.00     0.035 A 
HETATM    4  C12 UNL     1      -0.916  -3.422   0.654  1.00  0.00     0.032 A 
HETATM    5  C13 UNL     1      -2.052  -2.745   0.185  1.00  0.00     0.045 A 
HETATM    6  C14 UNL     1      -1.879  -1.408  -0.152  1.00  0.00     0.042 A 
HETATM    7  C15 UNL     1      -2.987  -0.720  -0.874  1.00  0.00     0.199 C 
HETATM    8  S2  UNL     1      -4.509  -1.067   0.053  1.00  0.00    -0.059 SA
HETATM    9  C21 UNL     1      -4.552  -2.893  -0.011  1.00  0.00     0.140 C 
HETATM   10  N5  UNL     1      -5.609  -3.539  -0.257  1.00  0.00    -0.380 N 
ATOM     11  H51 UNL     1      -5.633  -4.558  -0.293  1.00  0.00     0.158 HD
ATOM     12  H52 UNL     1      -6.524  -3.131  -0.448  1.00  0.00     0.158 HD
HETATM   13  N6  UNL     1      -3.286  -3.458   0.253  1.00  0.00    -0.337 N 
ATOM     14  H6  UNL     1      -3.251  -4.444   0.510  1.00  0.00     0.168 HD
ENDROOT
BRANCH   2  15
HETATM   15  N1  UNL     1       1.705  -0.888   0.556  1.00  0.00    -0.320 N 
HETATM   16  C4  UNL     1       2.915  -1.310   1.098  1.00  0.00     0.260 C 
HETATM   17  O2  UNL     1       2.921  -2.460   1.603  1.00  0.00    -0.267 OA
ATOM     18  H1  UNL     1       1.720   0.050   0.155  1.00  0.00     0.169 HD
BRANCH  16  19
HETATM   19  C5  UNL     1       4.186  -0.550   1.141  1.00  0.00     0.089 A 
HETATM   20  C6  UNL     1       5.289  -1.172   1.736  1.00  0.00     0.105 A 
HETATM   21  N2  UNL     1       5.416  -2.457   2.332  1.00  0.00    -0.093 NA
HETATM   22  S1  UNL     1       6.527  -0.025   1.602  1.00  0.00    -0.069 SA
HETATM   23  C7  UNL     1       5.675   1.217   0.811  1.00  0.00     0.077 A 
HETATM   24  C10 UNL     1       4.411   0.683   0.672  1.00  0.00     0.085 A 
HETATM   25  N3  UNL     1       3.431   1.541   0.011  1.00  0.00    -0.100 NA
BRANCH  23  26
HETATM   26  C8  UNL     1       6.193   2.536   0.391  1.00  0.00     0.164 C 
HETATM   27  C9  UNL     1       7.588   2.880   0.652  1.00  0.00     0.097 C 
HETATM   28  O3  UNL     1       5.419   3.320  -0.177  1.00  0.00    -0.292 OA
ENDBRANCH  23  26
ENDBRANCH  16  19
ENDBRANCH   2  15
BRANCH   1  29
HETATM   29  O1  UNL     1      -0.414   0.540  -0.309  1.00  0.00    -0.353 OA
HETATM   30  C1  UNL     1      -0.463   1.423   0.853  1.00  0.00     0.210 C 
ENDBRANCH   1  29
BRANCH   7  31
HETATM   31  C16 UNL     1      -3.120  -1.632  -2.135  1.00  0.00     0.206 C 
HETATM   32  O4  UNL     1      -4.185  -2.164  -2.434  1.00  0.00    -0.646 OA
HETATM   33  O5  UNL     1      -1.941  -1.766  -2.848  1.00  0.00    -0.646 OA
ENDBRANCH   7  31
BRANCH   7  34
HETATM   34  C17 UNL     1      -2.845   0.578  -1.424  1.00  0.00     0.149 C 
BRANCH  34  35
HETATM   35  O6  UNL     1      -2.075   0.614  -2.502  1.00  0.00    -0.348 OA
ATOM     36  H6  UNL     1      -1.980   1.484  -2.871  1.00  0.00     0.219 HD
ENDBRANCH  34  35
BRANCH  34  37
HETATM   37  N4  UNL     1      -3.340   1.825  -1.085  1.00  0.00    -0.367 N 
HETATM   38  C18 UNL     1      -2.928   2.998  -1.891  1.00  0.00     0.151 C 
BRANCH  37  39
HETATM   39  C19 UNL     1      -4.259   2.124  -0.037  1.00  0.00     0.139 C 
BRANCH  39  40
HETATM   40  C20 UNL     1      -5.714   2.164  -0.487  1.00  0.00     0.134 C 
HETATM   41 CL1  UNL     1      -6.710   2.506   0.941  1.00  0.00    -0.129 Cl
ENDBRANCH  39  40
ENDBRANCH  37  39
ENDBRANCH  34  37
ENDBRANCH   7  34
TORSDOF 10
