REMARK  5 active torsions:
REMARK  status: ('A' for Active; 'I' for Inactive)
REMARK    1  A    between atoms: O1_2  and  N1_3 
REMARK    2  A    between atoms: N1_3  and  C2_5 
REMARK    3  A    between atoms: C3_8  and  N3_9 
REMARK    4  A    between atoms: C5_16  and  S1_17 
REMARK    5  A    between atoms: S1_17  and  N6_18 
ROOT
HETATM    1  C2  UNL     1       0.140  -0.089  -0.657  1.00  0.00     0.167 A 
HETATM    2  N2  UNL     1       0.585  -1.369  -0.747  1.00  0.00    -0.173 N 
ATOM      3  H2  UNL     1       1.307  -1.589  -1.434  1.00  0.00     0.186 HD
HETATM    4  C3  UNL     1       0.114  -2.358   0.031  1.00  0.00     0.678 A 
HETATM    5  N4  UNL     1      -0.837  -2.066   0.933  1.00  0.00    -0.177 N 
ATOM      6  H4  UNL     1      -1.208  -2.803   1.533  1.00  0.00     0.185 HD
HETATM    7  C4  UNL     1      -1.309  -0.798   1.053  1.00  0.00     0.159 A 
HETATM    8  N5  UNL     1      -2.314  -0.475   2.003  1.00  0.00    -0.080 NA
HETATM    9  C5  UNL     1      -0.835   0.227   0.263  1.00  0.00     0.166 A 
ENDROOT
BRANCH   9  10
HETATM   10  S1  UNL     1      -1.424   1.841   0.403  1.00  0.00     0.263 S 
HETATM   11  O2  UNL     1      -1.477   2.511  -0.960  1.00  0.00    -0.200 OA
HETATM   12  O3  UNL     1      -2.869   1.765   0.861  1.00  0.00    -0.200 OA
BRANCH  10  13
HETATM   13  N6  UNL     1      -0.585   2.820   1.508  1.00  0.00    -0.324 N 
ATOM     14  H62 UNL     1       0.208   2.464   2.042  1.00  0.00     0.169 HD
ATOM     15  H61 UNL     1      -0.934   3.775   1.591  1.00  0.00     0.169 HD
ENDBRANCH  10  13
ENDBRANCH   9  10
BRANCH   1  16
HETATM   16  N1  UNL     1       0.587   0.855  -1.397  1.00  0.00    -0.249 N 
ATOM     17  H1  UNL     1       0.233   1.808  -1.308  1.00  0.00     0.196 HD
BRANCH  16  18
HETATM   18  O1  UNL     1       1.559   0.541  -2.315  1.00  0.00    -0.284 OA
HETATM   19  C1  UNL     1       2.936   0.548  -2.025  1.00  0.00     0.237 C 
ENDBRANCH  16  18
ENDBRANCH   1  16
BRANCH   4  20
HETATM   20  N3  UNL     1       0.557  -3.584  -0.072  1.00  0.00    -0.234 N 
ATOM     21  H32 UNL     1       1.279  -3.806  -0.757  1.00  0.00     0.174 HD
ATOM     22  H31 UNL     1       0.199  -4.335   0.519  1.00  0.00     0.174 HD
ENDBRANCH   4  20
TORSDOF 5
