REMARK  9 active torsions:
REMARK  status: ('A' for Active; 'I' for Inactive)
REMARK    1  A    between atoms: C2_2  and  S1_4 
REMARK    2  A    between atoms: S1_4  and  C4_5 
REMARK    3  A    between atoms: N1_7  and  O1_9 
REMARK    4  A    between atoms: C10_15  and  C12_17 
REMARK    5  A    between atoms: C12_17  and  C13_18 
REMARK    6  A    between atoms: C13_18  and  N2_21 
REMARK    7  A    between atoms: N2_21  and  C16_23 
REMARK    8  A    between atoms: C16_23  and  C17_24 
REMARK    9  A    between atoms: C18_27  and  O3_28 
ROOT
HETATM    1  C4  UNL     1      -2.794  -0.127  -0.074  1.00  0.00     0.104 C 
HETATM    2  C5  UNL     1      -2.872  -1.096  -1.150  1.00  0.00     0.024 C 
HETATM    3  N1  UNL     1      -3.946  -1.745  -1.444  1.00  0.00    -0.276 N 
ATOM      4  H1  UNL     1      -4.803  -1.593  -0.913  1.00  0.00     0.193 HD
HETATM    5  C6  UNL     1      -1.658  -1.351  -1.951  1.00  0.00     0.056 C 
HETATM    6  C7  UNL     1      -0.607  -1.585  -0.871  1.00  0.00     0.016 C 
HETATM    7  C8  UNL     1      -0.298  -0.274  -0.134  1.00  0.00    -0.025 C 
HETATM    8  C9  UNL     1      -0.011   0.780  -1.139  1.00  0.00     0.017 C 
HETATM    9  C10 UNL     1       1.007  -0.570   0.626  1.00  0.00    -0.008 C 
HETATM   10  C11 UNL     1       1.264   0.420   1.746  1.00  0.00     0.019 C 
HETATM   11  C18 UNL     1       0.779  -1.863   1.391  1.00  0.00     0.127 C 
HETATM   12  C19 UNL     1      -0.445  -1.774   2.267  1.00  0.00     0.033 C 
HETATM   13  C20 UNL     1      -1.618  -1.087   1.770  1.00  0.00     0.014 C 
HETATM   14  C21 UNL     1      -1.490  -0.039   0.707  1.00  0.00    -0.018 C 
HETATM   15  C22 UNL     1      -1.597   1.371   1.309  1.00  0.00     0.018 C 
ENDROOT
BRANCH   9  16
HETATM   16  C12 UNL     1       2.088  -0.518  -0.334  1.00  0.00     0.042 C 
BRANCH  16  17
HETATM   17  C13 UNL     1       3.530  -0.739  -0.131  1.00  0.00     0.023 C 
HETATM   18  C14 UNL     1       4.076  -0.558  -1.580  1.00  0.00     0.038 C 
HETATM   19  C15 UNL     1       3.943  -2.179   0.136  1.00  0.00     0.038 C 
BRANCH  17  20
HETATM   20  N2  UNL     1       4.254   0.092   0.697  1.00  0.00    -0.386 N 
ATOM     21  H2  UNL     1       4.631  -0.368   1.526  1.00  0.00     0.159 HD
BRANCH  20  22
HETATM   22  C16 UNL     1       4.558   1.422   0.607  1.00  0.00     0.155 C 
BRANCH  22  23
HETATM   23  C17 UNL     1       5.551   1.996  -0.272  1.00  0.00     0.269 C 
HETATM   24  N3  UNL     1       5.677   3.436  -0.253  1.00  0.00    -0.057 NA
HETATM   25  O2  UNL     1       6.295   1.389  -1.027  1.00  0.00    -0.270 OA
ENDBRANCH  22  23
ENDBRANCH  20  22
ENDBRANCH  17  20
ENDBRANCH  16  17
ENDBRANCH   9  16
BRANCH  11  26
HETATM   26  O3  UNL     1       1.818  -1.959   2.351  1.00  0.00    -0.395 OA
ATOM     27  H3  UNL     1       1.675  -2.767   2.829  1.00  0.00     0.210 HD
ENDBRANCH  11  26
BRANCH   1  28
HETATM   28  S1  UNL     1      -3.378   1.530  -0.624  1.00  0.00    -0.153 SA
BRANCH  28  29
HETATM   29  C2  UNL     1      -5.145   1.478  -1.003  1.00  0.00     0.040 C 
HETATM   30  C1  UNL     1      -5.558   2.873  -1.422  1.00  0.00     0.021 C 
HETATM   31  C3  UNL     1      -5.967   1.121   0.221  1.00  0.00     0.021 C 
ENDBRANCH  28  29
ENDBRANCH   1  28
BRANCH   3  32
HETATM   32  O1  UNL     1      -3.922  -2.641  -2.478  1.00  0.00    -0.290 OA
ATOM     33  H1  UNL     1      -4.714  -3.119  -2.695  1.00  0.00     0.244 HD
ENDBRANCH   3  32
TORSDOF 9
