REMARK  11 active torsions:
REMARK  status: ('A' for Active; 'I' for Inactive)
REMARK    1  A    between atoms: C2_2  and  C3_3 
REMARK    2  A    between atoms: C3_3  and  C5_5 
REMARK    3  A    between atoms: C8_8  and  C9_9 
REMARK    4  A    between atoms: C9_9  and  C10_10 
REMARK    5  A    between atoms: C10_10  and  C11_11 
REMARK    6  A    between atoms: C11_11  and  C12_12 
REMARK    7  A    between atoms: N1_14  and  O1_16 
REMARK    8  A    between atoms: C15_19  and  C16_20 
REMARK    9  A    between atoms: C19_23  and  O2_24 
REMARK   10  A    between atoms: C22_28  and  O3_29 
REMARK   11  A    between atoms: C25_33  and  O4_34 
ROOT
HETATM    1  C5  UNL     1      -1.953   2.372   0.124  1.00  0.00     0.051 C 
HETATM    2  C6  UNL     1      -1.688   1.045   0.769  1.00  0.00    -0.074 C 
HETATM    3  C7  UNL     1      -2.140   0.824   1.971  1.00  0.00     0.015 C 
HETATM    4  C8  UNL     1      -0.888   0.053   0.024  1.00  0.00     0.043 C 
HETATM    5  C14 UNL     1       0.475   0.672  -0.151  1.00  0.00    -0.069 C 
HETATM    6  C15 UNL     1       1.604   0.031  -0.072  1.00  0.00     0.004 C 
HETATM    7  C24 UNL     1       0.496   2.142  -0.435  1.00  0.00     0.067 C 
HETATM    8  C25 UNL     1      -0.844   2.670  -0.895  1.00  0.00     0.131 C 
ENDROOT
BRANCH   4   9
HETATM    9  C9  UNL     1      -0.840  -1.322   0.507  1.00  0.00     0.014 C 
BRANCH   9  10
HETATM   10  C10 UNL     1      -2.144  -2.077   0.557  1.00  0.00     0.007 C 
BRANCH  10  11
HETATM   11  C11 UNL     1      -2.767  -2.183  -0.832  1.00  0.00     0.054 C 
BRANCH  11  12
HETATM   12  C12 UNL     1      -4.041  -2.946  -0.711  1.00  0.00     0.006 C 
HETATM   13  C13 UNL     1      -4.098  -4.330  -0.205  1.00  0.00     0.065 C 
HETATM   14  N1  UNL     1      -5.129  -2.358  -1.066  1.00  0.00    -0.278 N 
ATOM     15  H1  UNL     1      -5.068  -1.401  -1.413  1.00  0.00     0.193 HD
BRANCH  14  16
HETATM   16  O1  UNL     1      -6.358  -2.942  -1.005  1.00  0.00    -0.290 OA
ATOM     17  H1  UNL     1      -7.161  -2.508  -1.267  1.00  0.00     0.244 HD
ENDBRANCH  14  16
ENDBRANCH  11  12
ENDBRANCH  10  11
ENDBRANCH   9  10
ENDBRANCH   4   9
BRANCH   6  18
HETATM   18  C16 UNL     1       2.882   0.724  -0.257  1.00  0.00     0.003 C 
HETATM   19  C17 UNL     1       4.034   0.067  -0.176  1.00  0.00    -0.074 C 
HETATM   20  C18 UNL     1       3.956  -1.388   0.108  1.00  0.00     0.070 C 
HETATM   21  C23 UNL     1       5.342   0.763  -0.363  1.00  0.00     0.070 C 
HETATM   22  C19 UNL     1       5.331  -1.999   0.135  1.00  0.00     0.152 C 
HETATM   23  C20 UNL     1       6.196  -1.144   0.978  1.00  0.00    -0.032 C 
HETATM   24  C21 UNL     1       6.822  -1.655   2.031  1.00  0.00     0.019 C 
HETATM   25  C22 UNL     1       6.364   0.288   0.647  1.00  0.00     0.152 C 
BRANCH  22  26
HETATM   26  O2  UNL     1       5.849  -2.168  -1.147  1.00  0.00    -0.391 OA
ATOM     27  H2  UNL     1       6.717  -2.554  -1.130  1.00  0.00     0.210 HD
ENDBRANCH  22  26
BRANCH  25  28
HETATM   28  O3  UNL     1       6.267   1.047   1.835  1.00  0.00    -0.391 OA
ATOM     29  H3  UNL     1       6.375   1.967   1.622  1.00  0.00     0.210 HD
ENDBRANCH  25  28
ENDBRANCH   6  18
BRANCH   8  30
HETATM   30  O4  UNL     1      -1.183   2.186  -2.156  1.00  0.00    -0.395 OA
ATOM     31  H4  UNL     1      -0.497   2.370  -2.787  1.00  0.00     0.210 HD
ENDBRANCH   8  30
BRANCH   1  32
HETATM   32  C3  UNL     1      -3.251   2.406  -0.631  1.00  0.00     0.014 C 
HETATM   33  C4  UNL     1      -3.406   3.836  -1.160  1.00  0.00     0.015 C 
BRANCH  32  34
HETATM   34  C2  UNL     1      -4.422   2.127   0.225  1.00  0.00    -0.032 C 
HETATM   35  C1  UNL     1      -5.410   2.994   0.389  1.00  0.00     0.007 C 
ENDBRANCH  32  34
ENDBRANCH   1  32
TORSDOF 11
