REMARK  11 active torsions:
REMARK  status: ('A' for Active; 'I' for Inactive)
REMARK    1  A    between atoms: C2_2  and  C3_3 
REMARK    2  A    between atoms: C3_3  and  C4_4 
REMARK    3  A    between atoms: C4_4  and  C5_5 
REMARK    4  A    between atoms: C5_5  and  C6_6 
REMARK    5  A    between atoms: C6_6  and  C7_7 
REMARK    6  A    between atoms: C7_7  and  C8_8 
REMARK    7  A    between atoms: C8_8  and  O1_9 
REMARK    8  A    between atoms: N1_11  and  C9_13 
REMARK    9  A    between atoms: C17_21  and  O2_22 
REMARK   10  A    between atoms: C18_24  and  O3_26 
REMARK   11  A    between atoms: C25_33  and  O4_34 
ROOT
HETATM    1  C9  UNL     1       0.410  -0.593  -0.937  1.00  0.00     0.134 C 
HETATM    2  C10 UNL     1       0.237  -0.418   0.550  1.00  0.00     0.030 C 
HETATM    3  C11 UNL     1      -1.055   0.262   0.884  1.00  0.00     0.012 C 
HETATM    4  C12 UNL     1      -2.245  -0.449   0.218  1.00  0.00    -0.029 C 
HETATM    5  C13 UNL     1      -2.071  -1.902   0.697  1.00  0.00     0.016 C 
HETATM    6  C14 UNL     1      -3.474   0.064   0.849  1.00  0.00     0.002 C 
HETATM    7  C15 UNL     1      -4.352  -1.031   1.474  1.00  0.00     0.008 C 
HETATM    8  C16 UNL     1      -5.445  -0.365   2.292  1.00  0.00     0.035 C 
HETATM    9  C17 UNL     1      -6.245   0.625   1.536  1.00  0.00     0.152 C 
HETATM   10  C18 UNL     1      -5.418   1.601   0.735  1.00  0.00     0.084 C 
HETATM   11  C19 UNL     1      -4.826   2.688   1.574  1.00  0.00     0.049 C 
HETATM   12  C20 UNL     1      -4.411   0.825  -0.044  1.00  0.00     0.027 C 
HETATM   13  C21 UNL     1      -3.617   1.658  -1.013  1.00  0.00     0.009 C 
HETATM   14  C22 UNL     1      -2.997   0.634  -1.941  1.00  0.00     0.015 C 
HETATM   15  C23 UNL     1      -2.084  -0.324  -1.241  1.00  0.00     0.011 C 
HETATM   16  C24 UNL     1      -2.369  -1.701  -1.867  1.00  0.00     0.020 C 
HETATM   17  C25 UNL     1      -0.684   0.037  -1.704  1.00  0.00     0.162 C 
HETATM   18 CL1  UNL     1      -0.497   1.822  -1.839  1.00  0.00    -0.085 Cl
ENDROOT
BRANCH   1  19
HETATM   19  N1  UNL     1       1.654   0.057  -1.301  1.00  0.00    -0.366 N 
HETATM   20  C8  UNL     1       2.698  -0.584  -1.678  1.00  0.00     0.111 C 
ATOM     21  H1  UNL     1       1.701   1.075  -1.255  1.00  0.00     0.161 HD
BRANCH  20  22
HETATM   22  C7  UNL     1       3.945   0.114  -2.040  1.00  0.00     0.083 C 
BRANCH  22  23
HETATM   23  C6  UNL     1       5.105  -0.316  -1.146  1.00  0.00     0.008 C 
BRANCH  23  24
HETATM   24  C5  UNL     1       4.806  -0.010   0.286  1.00  0.00     0.000 C 
BRANCH  24  25
HETATM   25  C4  UNL     1       5.932  -0.444   1.177  1.00  0.00     0.000 C 
BRANCH  25  26
HETATM   26  C3  UNL     1       7.193   0.277   0.809  1.00  0.00    -0.000 C 
BRANCH  26  27
HETATM   27  C2  UNL     1       8.300  -0.191   1.762  1.00  0.00    -0.005 C 
HETATM   28  C1  UNL     1       9.553   0.545   1.374  1.00  0.00     0.005 C 
ENDBRANCH  26  27
ENDBRANCH  25  26
ENDBRANCH  24  25
ENDBRANCH  23  24
ENDBRANCH  22  23
ENDBRANCH  20  22
BRANCH  20  29
HETATM   29  O1  UNL     1       2.651  -1.961  -1.745  1.00  0.00    -0.350 OA
ATOM     30  H1  UNL     1       1.847  -2.411  -1.512  1.00  0.00     0.219 HD
ENDBRANCH  20  29
ENDBRANCH   1  19
BRANCH  17  31
HETATM   31  O4  UNL     1      -0.586  -0.430  -3.038  1.00  0.00    -0.372 OA
ATOM     32  H4  UNL     1      -1.290  -0.025  -3.531  1.00  0.00     0.212 HD
ENDBRANCH  17  31
BRANCH  10  33
HETATM   33  O3  UNL     1      -6.288   2.206  -0.192  1.00  0.00    -0.387 OA
ATOM     34  H3  UNL     1      -5.767   2.820  -0.696  1.00  0.00     0.210 HD
ENDBRANCH  10  33
BRANCH   9  35
HETATM   35  O2  UNL     1      -7.215  -0.003   0.734  1.00  0.00    -0.393 OA
ATOM     36  H2  UNL     1      -7.728   0.632   0.249  1.00  0.00     0.210 HD
ENDBRANCH   9  35
TORSDOF 11
