REMARK  12 active torsions:
REMARK  status: ('A' for Active; 'I' for Inactive)
REMARK    1  A    between atoms: C7_7  and  C8_8 
REMARK    2  A    between atoms: C8_8  and  S1_9 
REMARK    3  A    between atoms: S1_9  and  N1_12 
REMARK    4  A    between atoms: N1_12  and  C9_14 
REMARK    5  A    between atoms: N4_21  and  C11_22 
REMARK    6  A    between atoms: C11_22  and  C12_23 
REMARK    7  A    between atoms: C12_23  and  C13_24 
REMARK    8  A    between atoms: C13_24  and  C14_25 
REMARK    9  A    between atoms: C14_25  and  C15_26 
REMARK   10  A    between atoms: C15_26  and  C16_27 
REMARK   11  A    between atoms: C16_27  and  N5_28 
REMARK   12  A    between atoms: N6_31  and  C19_32 
ROOT
HETATM    1  C9  UNL     1      -3.222  -0.529   0.279  1.00  0.00     0.199 A 
HETATM    2  N2  UNL     1      -3.678  -1.251  -0.766  1.00  0.00    -0.276 N 
ATOM      3  H2  UNL     1      -4.637  -1.599  -0.750  1.00  0.00     0.189 HD
HETATM    4  N3  UNL     1      -2.915  -1.518  -1.807  1.00  0.00    -0.249 N 
ATOM      5  H3  UNL     1      -3.285  -2.067  -2.583  1.00  0.00     0.192 HD
HETATM    6  C10 UNL     1      -1.633  -1.062  -1.847  1.00  0.00     0.344 A 
HETATM    7  O3  UNL     1      -0.930  -1.328  -2.844  1.00  0.00    -0.245 OA
HETATM    8  N4  UNL     1      -1.116  -0.337  -0.841  1.00  0.00    -0.262 N 
HETATM    9  C25 UNL     1      -1.919  -0.083   0.206  1.00  0.00     0.297 A 
HETATM   10  O4  UNL     1      -1.455   0.593   1.157  1.00  0.00    -0.264 OA
ENDROOT
BRANCH   1  11
HETATM   11  N1  UNL     1      -4.033  -0.232   1.406  1.00  0.00    -0.264 N 
ATOM     12  H1  UNL     1      -3.638   0.317   2.169  1.00  0.00     0.180 HD
BRANCH  11  13
HETATM   13  S1  UNL     1      -5.691  -0.781   1.523  1.00  0.00     0.233 S 
HETATM   14  O1  UNL     1      -6.145  -0.492   2.901  1.00  0.00    -0.206 OA
HETATM   15  O2  UNL     1      -5.578  -2.299   1.446  1.00  0.00    -0.206 OA
BRANCH  13  16
HETATM   16  C8  UNL     1      -6.630  -0.114   0.250  1.00  0.00     0.178 C 
BRANCH  16  17
HETATM   17  C7  UNL     1      -8.038  -0.377   0.073  1.00  0.00     0.004 C 
HETATM   18  C2  UNL     1      -9.054   0.047   1.042  1.00  0.00    -0.079 C 
HETATM   19  C1  UNL     1      -9.096   0.665   2.188  1.00  0.00     0.015 C 
HETATM   20  C3  UNL     1     -10.359  -0.397   0.341  1.00  0.00     0.039 C 
HETATM   21  C4  UNL     1      -9.993  -0.540  -1.090  1.00  0.00    -0.002 C 
HETATM   22  C5  UNL     1      -9.384  -1.939  -1.227  1.00  0.00     0.007 C 
HETATM   23  C26 UNL     1      -8.662   0.226  -1.183  1.00  0.00    -0.031 C 
HETATM   24  C6  UNL     1      -8.313  -1.874  -0.168  1.00  0.00     0.016 C 
HETATM   25  C27 UNL     1      -7.875  -0.137  -2.397  1.00  0.00     0.016 C 
HETATM   26  C28 UNL     1      -8.885   1.705  -1.036  1.00  0.00     0.016 C 
ENDBRANCH  16  17
ENDBRANCH  13  16
ENDBRANCH  11  13
ENDBRANCH   1  11
BRANCH   8  27
HETATM   27  C11 UNL     1       0.253   0.159  -0.876  1.00  0.00     0.137 C 
BRANCH  27  28
HETATM   28  C12 UNL     1       1.222  -0.804  -0.278  1.00  0.00     0.020 C 
BRANCH  28  29
HETATM   29  C13 UNL     1       2.646  -0.327  -0.313  1.00  0.00     0.002 C 
BRANCH  29  30
HETATM   30  C14 UNL     1       2.841   0.951   0.435  1.00  0.00     0.002 C 
BRANCH  30  31
HETATM   31  C15 UNL     1       4.260   1.467   0.410  1.00  0.00     0.030 C 
BRANCH  31  32
HETATM   32  C16 UNL     1       5.187   0.477   1.025  1.00  0.00     0.273 C 
BRANCH  32  33
HETATM   33  N5  UNL     1       6.570   0.928   1.021  1.00  0.00     0.097 N 
HETATM   34  C17 UNL     1       7.335  -0.144   1.678  1.00  0.00     0.317 C 
HETATM   35  C18 UNL     1       8.746   0.376   1.796  1.00  0.00     0.093 C 
HETATM   36  N6  UNL     1       9.330   0.783   0.585  1.00  0.00    -0.366 N 
HETATM   37  C23 UNL     1       8.509   1.123  -0.492  1.00  0.00     0.093 C 
HETATM   38  C24 UNL     1       7.053   0.950  -0.346  1.00  0.00     0.317 C 
BRANCH  36  39
HETATM   39  C19 UNL     1      10.622   0.258   0.322  1.00  0.00     0.088 C 
HETATM   40  C20 UNL     1      11.720   0.663   1.314  1.00  0.00     0.026 C 
HETATM   41  C21 UNL     1      12.673   0.615   0.111  1.00  0.00     0.004 C 
HETATM   42  C22 UNL     1      11.436   0.894  -0.755  1.00  0.00     0.026 C 
ENDBRANCH  36  39
ENDBRANCH  32  33
ENDBRANCH  31  32
ENDBRANCH  30  31
ENDBRANCH  29  30
ENDBRANCH  28  29
ENDBRANCH  27  28
ENDBRANCH   8  27
TORSDOF 12
