REMARK  15 active torsions:
REMARK  status: ('A' for Active; 'I' for Inactive)
REMARK    1  A    between atoms: O1_2  and  C2_3 
REMARK    2  A    between atoms: C2_3  and  C3_5 
REMARK    3  A    between atoms: C3_5  and  C4_6 
REMARK    4  A    between atoms: C4_6  and  C5_7 
REMARK    5  A    between atoms: C5_7  and  O3_8 
REMARK    6  A    between atoms: O3_8  and  C6_9 
REMARK    7  A    between atoms: C6_9  and  C7_11 
REMARK    8  A    between atoms: C7_11  and  C8_12 
REMARK       I    between atoms: N1_18  and  C14_19 
REMARK    9  A    between atoms: C14_19  and  C15_21 
REMARK   10  A    between atoms: C15_21  and  C16_22 
REMARK   11  A    between atoms: C15_21  and  C20_31 
REMARK   12  A    between atoms: C16_22  and  C17_23 
REMARK       I    between atoms: C17_23  and  N2_25 
REMARK   13  A    between atoms: N2_25  and  C18_27 
REMARK   14  A    between atoms: C18_27  and  C19_28 
REMARK   15  A    between atoms: C20_31  and  C21_32 
ROOT
HETATM    1  C3  UNL     1       1.385   0.559  -0.493  1.00  0.00     0.060 C 
HETATM    2  C12 UNL     1       0.444  -0.198  -1.395  1.00  0.00     0.040 C 
HETATM    3  C13 UNL     1      -0.322  -1.299  -0.781  1.00  0.00     0.128 C 
HETATM    4  N1  UNL     1      -1.267  -0.896   0.267  1.00  0.00    -0.343 N 
HETATM    5  C14 UNL     1      -2.589  -0.636  -0.206  1.00  0.00     0.225 C 
HETATM    6  O5  UNL     1      -2.766  -0.822  -1.462  1.00  0.00    -0.273 OA
HETATM    7  C27 UNL     1      -0.926  -0.804   1.651  1.00  0.00     0.199 C 
HETATM    8  S1  UNL     1       0.037   0.698   1.919  1.00  0.00    -0.148 SA
HETATM    9  C28 UNL     1       0.469   1.472   0.351  1.00  0.00     0.095 C 
ENDROOT
BRANCH   5  10
HETATM   10  C15 UNL     1      -3.722  -0.190   0.583  1.00  0.00     0.087 C 
BRANCH  10  11
HETATM   11  C16 UNL     1      -3.799   1.294   0.677  1.00  0.00     0.117 C 
BRANCH  11  12
HETATM   12  C17 UNL     1      -3.993   2.056  -0.547  1.00  0.00     0.218 C 
HETATM   13  O6  UNL     1      -4.179   1.519  -1.647  1.00  0.00    -0.274 OA
HETATM   14  N2  UNL     1      -3.970   3.480  -0.472  1.00  0.00    -0.353 N 
ATOM     15  H2  UNL     1      -3.817   3.915   0.438  1.00  0.00     0.162 HD
BRANCH  14  16
HETATM   16  C18 UNL     1      -4.151   4.331  -1.614  1.00  0.00     0.222 C 
BRANCH  16  17
HETATM   17  C19 UNL     1      -3.068   4.133  -2.586  1.00  0.00     0.248 C 
HETATM   18  N3  UNL     1      -1.980   3.257  -2.397  1.00  0.00    -0.061 NA
HETATM   19  O7  UNL     1      -3.103   4.785  -3.660  1.00  0.00    -0.275 OA
ENDBRANCH  16  17
ENDBRANCH  14  16
ENDBRANCH  11  12
ENDBRANCH  10  11
BRANCH  10  20
HETATM   20  C20 UNL     1      -5.045  -0.839   0.307  1.00  0.00     0.019 C 
BRANCH  20  21
HETATM   21  C21 UNL     1      -5.153  -2.290   0.522  1.00  0.00    -0.014 C 
HETATM   22  C22 UNL     1      -4.299  -3.209  -0.258  1.00  0.00     0.005 C 
HETATM   23  C23 UNL     1      -4.800  -4.637   0.043  1.00  0.00     0.000 C 
HETATM   24  C24 UNL     1      -5.551  -4.718   1.331  1.00  0.00     0.000 C 
HETATM   25  C25 UNL     1      -6.851  -3.962   1.251  1.00  0.00     0.000 C 
HETATM   26  C26 UNL     1      -6.602  -2.758   0.341  1.00  0.00     0.005 C 
ENDBRANCH  20  21
ENDBRANCH  10  20
ENDBRANCH   5  10
BRANCH   1  27
HETATM   27  C2  UNL     1       2.147  -0.298   0.433  1.00  0.00     0.268 C 
HETATM   28  O2  UNL     1       2.498  -1.452   0.097  1.00  0.00    -0.264 OA
BRANCH  27  29
HETATM   29  O1  UNL     1       2.523   0.108   1.727  1.00  0.00    -0.326 OA
HETATM   30  C1  UNL     1       3.256  -0.746   2.603  1.00  0.00     0.213 C 
ENDBRANCH  27  29
ENDBRANCH   1  27
BRANCH   1  31
HETATM   31  C4  UNL     1       2.243   1.411  -1.391  1.00  0.00     0.047 C 
BRANCH  31  32
HETATM   32  C5  UNL     1       3.165   2.360  -0.735  1.00  0.00     0.180 C 
BRANCH  32  33
HETATM   33  O3  UNL     1       4.177   1.832   0.058  1.00  0.00    -0.321 OA
BRANCH  33  34
HETATM   34  C6  UNL     1       5.221   1.045  -0.425  1.00  0.00     0.259 C 
HETATM   35  O4  UNL     1       5.241   0.809  -1.659  1.00  0.00    -0.265 OA
BRANCH  34  36
HETATM   36  C7  UNL     1       6.250   0.524   0.497  1.00  0.00     0.119 C 
BRANCH  36  37
HETATM   37  C8  UNL     1       7.665   0.849   0.087  1.00  0.00    -0.043 C 
HETATM   38  C9  UNL     1       8.045   0.315  -1.254  1.00  0.00     0.015 C 
HETATM   39  C10 UNL     1       7.957   2.315   0.223  1.00  0.00     0.015 C 
HETATM   40  C11 UNL     1       8.552   0.134   1.123  1.00  0.00     0.015 C 
ENDBRANCH  36  37
ENDBRANCH  34  36
ENDBRANCH  33  34
ENDBRANCH  32  33
ENDBRANCH  31  32
ENDBRANCH   1  31
TORSDOF 15
