REMARK  2 active torsions:
REMARK  status: ('A' for Active; 'I' for Inactive)
REMARK    1  A    between atoms: N1_1  and  C1_5 
REMARK    2  A    between atoms: C1_5  and  N2_6 
ROOT
HETATM    1  C1  UNL     1       1.264  -0.477  -0.260  1.00  0.00     0.349 C 
ENDROOT
BRANCH   1   2
HETATM    2  N1  UNL     1       1.868   0.833   0.018  1.00  0.00    -0.066 N 
ATOM      3  H13 UNL     1       1.298   1.618  -0.297  1.00  0.00     0.275 HD
ATOM      4  H12 UNL     1       1.876   1.074   1.009  1.00  0.00     0.275 HD
ATOM      5  H11 UNL     1       2.798   0.813  -0.402  1.00  0.00     0.275 HD
ENDBRANCH   1   2
BRANCH   1   6
HETATM    6  N2  UNL     1      -0.052  -0.449   0.334  1.00  0.00    -0.170 NA
HETATM    7  C2  UNL     1      -0.920   0.572  -0.176  1.00  0.00     0.150 C 
HETATM    8  C3  UNL     1      -1.944  -0.483   0.260  1.00  0.00     0.210 C 
HETATM    9  O1  UNL     1      -0.921  -1.372  -0.145  1.00  0.00    -0.301 OA
ENDBRANCH   1   6
TORSDOF 2
