REMARK  5 active torsions:
REMARK  status: ('A' for Active; 'I' for Inactive)
REMARK    1  A    between atoms: O1_2  and  C2_3 
REMARK    2  A    between atoms: C2_3  and  C3_4 
REMARK    3  A    between atoms: C3_4  and  O2_5 
REMARK    4  A    between atoms: O2_5  and  C4_6 
REMARK    5  A    between atoms: C17_21  and  O4_22 
ROOT
HETATM    1  C4  UNL     1       1.045  -0.915  -0.350  1.00  0.00     0.056 C 
HETATM    2  C5  UNL     1       0.297   0.070   0.067  1.00  0.00     0.019 C 
HETATM    3  C6  UNL     1      -0.745   0.080   1.068  1.00  0.00     0.007 C 
HETATM    4  C7  UNL     1      -0.075   0.275   2.441  1.00  0.00     0.023 C 
HETATM    5  C8  UNL     1      -1.502  -1.235   1.213  1.00  0.00     0.137 C 
HETATM    6  C9  UNL     1      -2.463  -1.443   0.071  1.00  0.00     0.034 C 
HETATM    7  C10 UNL     1      -3.518  -0.347   0.191  1.00  0.00     0.015 C 
HETATM    8  C11 UNL     1      -2.814   0.935  -0.092  1.00  0.00    -0.008 C 
HETATM    9  C12 UNL     1      -2.343   1.089  -1.492  1.00  0.00     0.018 C 
HETATM   10  C13 UNL     1      -3.683   2.165   0.215  1.00  0.00     0.178 C 
HETATM   11  F1  UNL     1      -4.344   2.010   1.409  1.00  0.00    -0.249 F 
HETATM   12  C14 UNL     1      -2.617   3.244   0.342  1.00  0.00     0.038 C 
HETATM   13  C15 UNL     1      -1.311   2.523   0.677  1.00  0.00     0.009 C 
HETATM   14  C16 UNL     1      -1.763   1.147   0.959  1.00  0.00     0.011 C 
HETATM   15  O3  UNL     1      -0.733  -2.289   1.549  1.00  0.00    -0.354 OA
HETATM   16  C17 UNL     1      -0.064  -2.960   0.591  1.00  0.00     0.271 C 
HETATM   17  C18 UNL     1       1.127  -2.316   0.003  1.00  0.00     0.051 C 
HETATM   18  C19 UNL     1       2.355  -2.488   0.909  1.00  0.00     0.027 C 
HETATM   19  C20 UNL     1       1.472  -3.094  -1.276  1.00  0.00     0.027 C 
ENDROOT
BRANCH   1  20
HETATM   20  O2  UNL     1       1.981  -0.571  -1.357  1.00  0.00    -0.353 OA
BRANCH  20  21
HETATM   21  C3  UNL     1       3.032   0.296  -0.888  1.00  0.00     0.201 C 
BRANCH  21  22
HETATM   22  C2  UNL     1       3.990   0.631  -1.976  1.00  0.00     0.193 C 
BRANCH  22  23
HETATM   23  O1  UNL     1       4.987   1.453  -1.513  1.00  0.00    -0.394 OA
HETATM   24  C1  UNL     1       4.596   2.664  -1.011  1.00  0.00     0.201 C 
ENDBRANCH  22  23
ENDBRANCH  21  22
ENDBRANCH  20  21
ENDBRANCH   1  20
BRANCH  16  25
HETATM   25  O4  UNL     1      -0.890  -3.466  -0.441  1.00  0.00    -0.370 OA
ATOM     26  H4  UNL     1      -0.418  -3.939  -1.116  1.00  0.00     0.212 HD
ENDBRANCH  16  25
TORSDOF 5
