REMARK  1 active torsions:
REMARK  status: ('A' for Active; 'I' for Inactive)
REMARK    1  A    between atoms: C4_4  and  N1_5 
ROOT
HETATM    1  C1  UNL     1      -3.434   0.113   0.082  1.00  0.00     0.000 C 
HETATM    2  C2  UNL     1      -2.586   0.710   1.159  1.00  0.00     0.002 C 
HETATM    3  C3  UNL     1      -1.220   1.036   0.653  1.00  0.00     0.021 C 
HETATM    4  C4  UNL     1      -0.516  -0.202   0.184  1.00  0.00     0.076 C 
HETATM    5  C9  UNL     1      -1.343  -1.134  -0.611  1.00  0.00     0.021 C 
HETATM    6  C10 UNL     1      -2.752  -0.813  -0.839  1.00  0.00     0.002 C 
ENDROOT
BRANCH   4   7
HETATM    7  N1  UNL     1       0.685   0.260  -0.538  1.00  0.00    -0.230 NA
HETATM    8  C5  UNL     1       1.507  -0.851  -0.912  1.00  0.00     0.110 C 
HETATM    9  C6  UNL     1       2.957  -0.447  -1.123  1.00  0.00     0.017 C 
HETATM   10  C7  UNL     1       3.515   0.360   0.003  1.00  0.00     0.019 C 
HETATM   11  C8  UNL     1       2.387   0.590   1.003  1.00  0.00     0.129 C 
HETATM   12  N2  UNL     1       1.306   1.207   0.248  1.00  0.00    -0.165 NA
ENDBRANCH   4   7
TORSDOF 1
