REMARK  3 active torsions:
REMARK  status: ('A' for Active; 'I' for Inactive)
REMARK    1  A    between atoms: C3_5  and  N2_6 
REMARK    2  A    between atoms: N2_6  and  N3_8 
REMARK    3  A    between atoms: C5_10  and  O1_11 
ROOT
HETATM    1  C1  UNL     1       4.364  -0.348  -0.336  1.00  0.00     0.070 C 
HETATM    2  C2  UNL     1       2.888  -0.009  -0.228  1.00  0.00     0.031 A 
HETATM    3  N1  UNL     1       1.908  -0.890  -0.060  1.00  0.00    -0.341 N 
ATOM      4  H1  UNL     1       2.047  -1.898   0.004  1.00  0.00     0.167 HD
HETATM    5  C3  UNL     1       0.677  -0.269   0.017  1.00  0.00     0.162 A 
HETATM    6  C7  UNL     1       0.944   1.065  -0.112  1.00  0.00     0.184 A 
HETATM    7  F1  UNL     1       0.101   2.111  -0.062  1.00  0.00    -0.200 F 
HETATM    8  C8  UNL     1       2.326   1.237  -0.267  1.00  0.00     0.109 A 
HETATM    9  C9  UNL     1       3.005   2.495  -0.448  1.00  0.00     0.104 C 
HETATM   10  N5  UNL     1       3.545   3.525  -0.613  1.00  0.00    -0.191 NA
ENDROOT
BRANCH   5  11
HETATM   11  N2  UNL     1      -0.513  -0.999   0.245  1.00  0.00    -0.274 N 
ATOM     12  H2  UNL     1      -0.357  -1.961   0.546  1.00  0.00     0.189 HD
BRANCH  11  13
HETATM   13  N3  UNL     1      -1.823  -0.660   0.138  1.00  0.00    -0.236 N 
HETATM   14  C4  UNL     1      -2.483   0.350  -0.373  1.00  0.00     0.175 A 
HETATM   15  C5  UNL     1      -3.855   0.299  -0.117  1.00  0.00     0.160 A 
HETATM   16  N4  UNL     1      -3.996  -0.828   0.593  1.00  0.00    -0.311 N 
HETATM   17  C6  UNL     1      -2.811  -1.419   0.761  1.00  0.00     0.199 A 
ATOM     18  H4  UNL     1      -4.882  -1.183   0.953  1.00  0.00     0.170 HD
HETATM   19  S1  UNL     1      -2.585  -2.796   1.573  1.00  0.00    -0.039 SA
BRANCH  15  20
HETATM   20  O1  UNL     1      -4.848   1.186  -0.494  1.00  0.00    -0.345 OA
ATOM     21  H1  UNL     1      -5.781   1.151  -0.320  1.00  0.00     0.219 HD
ENDBRANCH  15  20
ENDBRANCH  11  13
ENDBRANCH   5  11
TORSDOF 3
