REMARK  2 active torsions:
REMARK  status: ('A' for Active; 'I' for Inactive)
REMARK    1  A    between atoms: C1_4  and  N2_5 
REMARK    2  A    between atoms: N2_5  and  C2_7 
ROOT
HETATM    1  C2  UNL     1      -0.274   0.180   0.501  1.00  0.00     0.286 C 
HETATM    2  C3  UNL     1      -1.227   0.949  -0.381  1.00  0.00     0.082 C 
HETATM    3  C4  UNL     1      -2.217  -0.203  -0.200  1.00  0.00     0.238 C 
HETATM    4  N3  UNL     1      -1.066  -1.021   0.197  1.00  0.00    -0.054 N 
ATOM      5  H31 UNL     1      -1.184  -1.738   0.913  1.00  0.00     0.279 HD
ATOM      6  H32 UNL     1      -0.696  -1.714  -0.453  1.00  0.00     0.279 HD
ENDROOT
BRANCH   1   7
HETATM    7  N2  UNL     1       1.064   0.164   0.002  1.00  0.00    -0.359 N 
ATOM      8  H2  UNL     1       1.244   0.656  -0.873  1.00  0.00     0.162 HD
BRANCH   7   9
HETATM    9  C1  UNL     1       2.157  -0.477   0.621  1.00  0.00     0.170 C 
HETATM   10  N1  UNL     1       3.169   0.207   1.001  1.00  0.00    -0.395 N 
ATOM     11  H12 UNL     1       3.170   1.216   0.849  1.00  0.00     0.156 HD
ATOM     12  H11 UNL     1       3.960  -0.257   1.449  1.00  0.00     0.156 HD
ENDBRANCH   7   9
ENDBRANCH   1   7
TORSDOF 2
