REMARK  6 active torsions:
REMARK  status: ('A' for Active; 'I' for Inactive)
REMARK    1  A    between atoms: C2_2  and  C4_4 
REMARK    2  A    between atoms: C11_15  and  N3_16 
REMARK    3  A    between atoms: N3_16  and  C13_18 
REMARK    4  A    between atoms: C13_18  and  C14_19 
REMARK    5  A    between atoms: C14_19  and  C15_20 
REMARK    6  A    between atoms: C15_20  and  N4_21 
ROOT
HETATM    1  C4  UNL     1      -3.249  -0.459   0.280  1.00  0.00    -0.035 C 
HETATM    2  C5  UNL     1      -3.647  -0.094   1.705  1.00  0.00     0.016 C 
HETATM    3  C6  UNL     1      -4.449  -0.238  -0.592  1.00  0.00     0.012 C 
HETATM    4  C7  UNL     1      -4.353   0.980  -1.455  1.00  0.00     0.036 C 
HETATM    5  C8  UNL     1      -3.838   2.192  -0.690  1.00  0.00     0.211 C 
HETATM    6  N1  UNL     1      -3.394   3.229  -1.572  1.00  0.00    -0.053 N 
ATOM      7  H11 UNL     1      -4.142   3.866  -1.848  1.00  0.00     0.279 HD
ATOM      8  H12 UNL     1      -3.161   2.888  -2.504  1.00  0.00     0.279 HD
HETATM    9  C9  UNL     1      -2.282   3.905  -0.917  1.00  0.00     0.357 C 
HETATM   10  N2  UNL     1      -1.590   2.812  -0.290  1.00  0.00    -0.358 N 
HETATM   11  C10 UNL     1      -0.253   2.444   0.020  1.00  0.00     0.112 C 
HETATM   12  C11 UNL     1       0.136   1.228   0.356  1.00  0.00     0.022 C 
HETATM   13  C20 UNL     1      -0.825   0.138   0.441  1.00  0.00     0.066 C 
HETATM   14  C21 UNL     1      -2.140   0.453  -0.185  1.00  0.00     0.024 C 
HETATM   15  C22 UNL     1      -2.621   1.871   0.104  1.00  0.00     0.121 C 
ENDROOT
BRANCH  12  16
HETATM   16  N3  UNL     1       1.540   1.040   0.639  1.00  0.00    -0.387 N 
HETATM   17  C12 UNL     1       2.189   1.923   1.609  1.00  0.00     0.149 C 
BRANCH  16  18
HETATM   18  C13 UNL     1       2.350   0.032   0.037  1.00  0.00     0.127 C 
BRANCH  18  19
HETATM   19  C14 UNL     1       2.735  -1.041   1.063  1.00  0.00     0.064 C 
BRANCH  19  20
HETATM   20  C15 UNL     1       3.613  -2.100   0.436  1.00  0.00     0.064 C 
BRANCH  20  21
HETATM   21  N4  UNL     1       4.818  -1.644  -0.080  1.00  0.00    -0.374 N 
HETATM   22  C16 UNL     1       5.826  -1.163   0.761  1.00  0.00     0.063 C 
HETATM   23  C17 UNL     1       6.885  -0.653  -0.197  1.00  0.00     0.046 C 
HETATM   24  C18 UNL     1       6.115  -0.419  -1.496  1.00  0.00     0.025 C 
HETATM   25  C19 UNL     1       5.108  -1.569  -1.428  1.00  0.00     0.127 C 
ENDBRANCH  20  21
ENDBRANCH  19  20
ENDBRANCH  18  19
ENDBRANCH  16  18
ENDBRANCH  12  16
BRANCH   1  26
HETATM   26  C2  UNL     1      -2.860  -1.905   0.279  1.00  0.00    -0.014 C 
HETATM   27  C1  UNL     1      -4.072  -2.711   0.747  1.00  0.00     0.010 C 
HETATM   28  C3  UNL     1      -2.481  -2.438  -1.068  1.00  0.00     0.010 C 
ENDBRANCH   1  26
TORSDOF 6
