REMARK  15 active torsions:
REMARK  status: ('A' for Active; 'I' for Inactive)
REMARK    1  A    between atoms: C2_2  and  N1_3 
REMARK    2  A    between atoms: C2_2  and  N4_26 
REMARK    3  A    between atoms: C3_5  and  C4_6 
REMARK    4  A    between atoms: C4_6  and  C5_7 
REMARK    5  A    between atoms: C5_7  and  C6_8 
REMARK    6  A    between atoms: C6_8  and  C7_9 
REMARK    7  A    between atoms: C7_9  and  C8_10 
REMARK    8  A    between atoms: C8_10  and  C9_11 
REMARK    9  A    between atoms: C9_11  and  N2_12 
REMARK   10  A    between atoms: N2_12  and  C10_15 
REMARK   11  A    between atoms: C10_15  and  C11_16 
REMARK   12  A    between atoms: C11_16  and  C12_17 
REMARK   13  A    between atoms: C12_17  and  C13_18 
REMARK   14  A    between atoms: C13_18  and  N3_19 
REMARK       I    between atoms: N3_19  and  C14_20 
REMARK   15  A    between atoms: C14_20  and  C15_22 
ROOT
HETATM    1  C6  UNL     1      -0.345  -0.531  -0.249  1.00  0.00     0.000 C 
ENDROOT
BRANCH   1   2
HETATM    2  C5  UNL     1       0.438   0.527  -0.956  1.00  0.00     0.005 C 
BRANCH   2   3
HETATM    3  C4  UNL     1       1.901   0.221  -1.001  1.00  0.00     0.044 C 
BRANCH   3   4
HETATM    4  C3  UNL     1       2.552   0.150   0.350  1.00  0.00     0.062 C 
HETATM    5  N1  UNL     1       3.877  -0.061   0.290  1.00  0.00    -0.360 N 
ATOM      6  H1  UNL     1       4.255   0.498   1.055  1.00  0.00     0.166 HD
BRANCH   5   7
HETATM    7  C2  UNL     1       4.851  -0.578  -0.211  1.00  0.00     0.075 C 
HETATM    8  C1  UNL     1       4.710  -1.515  -1.404  1.00  0.00     0.089 C 
BRANCH   7   9
HETATM    9  N4  UNL     1       6.202  -0.369   0.262  1.00  0.00    -0.356 N 
HETATM   10  C16 UNL     1       6.573  -0.079   1.613  1.00  0.00     0.091 C 
HETATM   11  C17 UNL     1       7.573  -1.236   1.831  1.00  0.00     0.028 C 
HETATM   12  C22 UNL     1       7.377   1.173   1.761  1.00  0.00     0.073 C 
HETATM   13  C18 UNL     1       8.391  -1.102   0.535  1.00  0.00     0.033 C 
HETATM   14  C19 UNL     1       7.432  -0.405  -0.461  1.00  0.00     0.127 C 
HETATM   15  C20 UNL     1       7.871   1.027  -0.600  1.00  0.00     0.025 C 
HETATM   16 BR1  UNL     1       8.474   1.723  -2.271  1.00  0.00    -0.052 Br
HETATM   17  C21 UNL     1       7.832   1.780   0.488  1.00  0.00     0.006 C 
HETATM   18 BR2  UNL     1       8.377   3.632   0.426  1.00  0.00    -0.054 Br
ENDBRANCH   7   9
ENDBRANCH   5   7
ENDBRANCH   3   4
ENDBRANCH   2   3
ENDBRANCH   1   2
BRANCH   1  19
HETATM   19  C7  UNL     1      -1.816  -0.120  -0.303  1.00  0.00     0.002 C 
BRANCH  19  20
HETATM   20  C8  UNL     1      -2.054   1.131   0.444  1.00  0.00     0.027 C 
BRANCH  20  21
HETATM   21  C9  UNL     1      -3.449   1.653   0.313  1.00  0.00     0.232 C 
BRANCH  21  22
HETATM   22  N2  UNL     1      -4.439   0.733   0.762  1.00  0.00    -0.075 N 
ATOM     23  H22 UNL     1      -4.338  -0.191   0.341  1.00  0.00     0.277 HD
ATOM     24  H21 UNL     1      -4.307   0.456   1.735  1.00  0.00     0.277 HD
BRANCH  22  25
HETATM   25  C10 UNL     1      -5.784   1.336   0.512  1.00  0.00     0.232 C 
BRANCH  25  26
HETATM   26  C11 UNL     1      -6.026   1.431  -0.950  1.00  0.00     0.033 C 
BRANCH  26  27
HETATM   27  C12 UNL     1      -6.110   0.152  -1.713  1.00  0.00     0.061 C 
BRANCH  27  28
HETATM   28  C13 UNL     1      -7.326  -0.665  -1.584  1.00  0.00     0.159 C 
BRANCH  28  29
HETATM   29  N3  UNL     1      -7.837  -1.122  -0.421  1.00  0.00    -0.380 NA
HETATM   30  C14 UNL     1      -8.351  -1.587   0.758  1.00  0.00     0.399 C 
HETATM   31  O1  UNL     1      -7.840  -2.310   1.635  1.00  0.00    -0.247 OA
BRANCH  30  32
HETATM   32  C15 UNL     1      -9.793  -1.191   1.110  1.00  0.00     0.486 C 
HETATM   33  F1  UNL     1      -9.958   0.149   1.167  1.00  0.00    -0.161 F 
HETATM   34  F2  UNL     1     -10.588  -1.755   0.092  1.00  0.00    -0.161 F 
HETATM   35  F3  UNL     1     -10.210  -1.772   2.277  1.00  0.00    -0.161 F 
ENDBRANCH  30  32
ENDBRANCH  28  29
ENDBRANCH  27  28
ENDBRANCH  26  27
ENDBRANCH  25  26
ENDBRANCH  22  25
ENDBRANCH  21  22
ENDBRANCH  20  21
ENDBRANCH  19  20
ENDBRANCH   1  19
TORSDOF 15
