REMARK  5 active torsions:
REMARK  status: ('A' for Active; 'I' for Inactive)
REMARK    1  A    between atoms: S1_2  and  C2_3 
REMARK    2  A    between atoms: C2_3  and  C3_5 
REMARK    3  A    between atoms: C3_5  and  C4_6 
REMARK    4  A    between atoms: C8_10  and  N1_11 
REMARK    5  A    between atoms: N1_11  and  O2_12 
ROOT
HETATM    1  C3  UNL     1       0.404  -0.654   0.162  1.00  0.00     0.108 A 
HETATM    2  C8  UNL     1       0.371  -1.582  -0.977  1.00  0.00     0.170 A 
HETATM    3  C9  UNL     1       0.991  -2.070   0.343  1.00  0.00     0.154 A 
HETATM    4 CL1  UNL     1       2.759  -2.172   0.403  1.00  0.00    -0.098 Cl
HETATM    5 CL2  UNL     1       0.027  -3.256   1.236  1.00  0.00    -0.098 Cl
ENDROOT
BRANCH   1   6
HETATM    6  C2  UNL     1       1.388   0.470   0.203  1.00  0.00     0.203 C 
HETATM    7  O1  UNL     1       2.389   0.351  -0.447  1.00  0.00    -0.284 OA
BRANCH   6   8
HETATM    8  S1  UNL     1       1.087   1.941   1.185  1.00  0.00    -0.096 SA
HETATM    9  C1  UNL     1       2.500   3.052   0.969  1.00  0.00     0.098 C 
ENDBRANCH   6   8
ENDBRANCH   1   6
BRANCH   1  10
HETATM   10  C4  UNL     1      -0.803  -0.429   1.008  1.00  0.00    -0.002 C 
HETATM   11  C5  UNL     1      -1.912   0.127   0.553  1.00  0.00    -0.090 C 
HETATM   12  C6  UNL     1      -3.055   0.305   1.479  1.00  0.00     0.042 C 
HETATM   13  C7  UNL     1      -2.076   0.584  -0.843  1.00  0.00     0.042 C 
ENDBRANCH   1  10
BRANCH   2  14
HETATM   14  N1  UNL     1       1.307  -1.336  -2.043  1.00  0.00    -0.094 NA
BRANCH  14  15
HETATM   15  O2  UNL     1       1.213  -2.267  -3.027  1.00  0.00    -0.296 OA
ATOM     16  H2  UNL     1       1.831  -2.105  -3.730  1.00  0.00     0.238 HD
ENDBRANCH  14  15
ENDBRANCH   2  14
TORSDOF 5
