REMARK  9 active torsions:
REMARK  status: ('A' for Active; 'I' for Inactive)
REMARK    1  A    between atoms: C2_2  and  C3_3 
REMARK    2  A    between atoms: C4_4  and  C5_5 
REMARK    3  A    between atoms: C5_5  and  C6_6 
REMARK    4  A    between atoms: C6_6  and  C7_7 
REMARK    5  A    between atoms: C10_11  and  O2_12 
REMARK    6  A    between atoms: C19_22  and  C20_23 
REMARK    7  A    between atoms: C20_23  and  C21_24 
REMARK    8  A    between atoms: C21_24  and  C22_25 
REMARK    9  A    between atoms: C22_25  and  O3_26 
ROOT
HETATM    1  C7  UNL     1       0.981  -0.929  -0.352  1.00  0.00     0.066 C 
HETATM    2  C8  UNL     1       1.818  -1.471  -1.401  1.00  0.00     0.047 C 
HETATM    3  C9  UNL     1       2.270  -0.230  -2.196  1.00  0.00     0.172 C 
HETATM    4  O1  UNL     1       1.458   0.854  -2.043  1.00  0.00    -0.354 OA
HETATM    5  C10 UNL     1       0.080   0.592  -1.909  1.00  0.00     0.176 C 
HETATM    6  C11 UNL     1      -0.126   0.112  -3.331  1.00  0.00     0.045 C 
HETATM    7  C12 UNL     1       0.116   1.345  -4.238  1.00  0.00     0.015 C 
HETATM    8  C13 UNL     1      -1.431  -0.440  -3.667  1.00  0.00     0.010 C 
HETATM    9  C14 UNL     1      -2.209  -0.543  -2.413  1.00  0.00     0.007 C 
HETATM   10  C15 UNL     1      -1.458  -1.141  -1.224  1.00  0.00     0.011 C 
HETATM   11  C16 UNL     1      -2.554  -1.185  -0.188  1.00  0.00    -0.037 C 
HETATM   12  C17 UNL     1      -2.797  -2.502   0.437  1.00  0.00     0.015 C 
HETATM   13  C18 UNL     1      -3.968  -0.840  -0.710  1.00  0.00     0.015 C 
HETATM   14  C19 UNL     1      -2.254  -0.015   0.654  1.00  0.00     0.024 C 
HETATM   15  C23 UNL     1      -0.736   0.171   0.506  1.00  0.00     0.152 C 
HETATM   16  O4  UNL     1      -0.305  -0.880   1.398  1.00  0.00    -0.314 OA
HETATM   17  C24 UNL     1       0.482  -1.811   0.724  1.00  0.00     0.269 C 
HETATM   18  O5  UNL     1       0.668  -2.997   0.993  1.00  0.00    -0.264 OA
HETATM   19  C25 UNL     1      -0.319  -0.307  -0.825  1.00  0.00     0.065 C 
ENDROOT
BRANCH   1  20
HETATM   20  C6  UNL     1       1.818  -0.030   0.527  1.00  0.00     0.025 C 
BRANCH  20  21
HETATM   21  C5  UNL     1       2.980  -0.832   1.174  1.00  0.00     0.028 C 
BRANCH  21  22
HETATM   22  C4  UNL     1       3.735   0.133   2.053  1.00  0.00    -0.027 C 
HETATM   23  C3  UNL     1       5.017   0.391   1.845  1.00  0.00    -0.005 C 
BRANCH  23  24
HETATM   24  C2  UNL     1       5.776   1.306   2.662  1.00  0.00    -0.011 C 
HETATM   25  C1  UNL     1       7.043   1.527   2.415  1.00  0.00     0.011 C 
ENDBRANCH  23  24
ENDBRANCH  21  22
ENDBRANCH  20  21
ENDBRANCH   1  20
BRANCH   5  26
HETATM   26  O2  UNL     1      -0.479   1.882  -1.810  1.00  0.00    -0.364 OA
ATOM     27  H2  UNL     1      -1.408   1.705  -1.720  1.00  0.00     0.213 HD
ENDBRANCH   5  26
BRANCH  14  28
HETATM   28  C20 UNL     1      -2.690  -0.077   2.079  1.00  0.00     0.010 C 
BRANCH  28  29
HETATM   29  C21 UNL     1      -2.299   1.218   2.789  1.00  0.00     0.027 C 
BRANCH  29  30
HETATM   30  C22 UNL     1      -2.733   1.184   4.240  1.00  0.00     0.164 C 
BRANCH  30  31
HETATM   31  O3  UNL     1      -4.113   1.033   4.296  1.00  0.00    -0.401 OA
ATOM     32  H3  UNL     1      -4.385   1.012   5.206  1.00  0.00     0.209 HD
ENDBRANCH  30  31
ENDBRANCH  29  30
ENDBRANCH  28  29
ENDBRANCH  14  28
TORSDOF 9
