REMARK  5 active torsions:
REMARK  status: ('A' for Active; 'I' for Inactive)
REMARK    1  A    between atoms: O1_1  and  C1_3 
REMARK    2  A    between atoms: C1_3  and  C2_4 
REMARK    3  A    between atoms: C2_4  and  C3_5 
REMARK    4  A    between atoms: C3_5  and  N1_6 
REMARK    5  A    between atoms: N2_11  and  O2_13 
ROOT
HETATM    1  C2  UNL     1       1.708  -0.224  -0.006  1.00  0.00     0.065 C 
HETATM    2  N2  UNL     1       1.727  -1.488   0.191  1.00  0.00    -0.270 N 
ATOM      3  H2  UNL     1       0.855  -2.018   0.184  1.00  0.00     0.194 HD
ENDROOT
BRANCH   1   4
HETATM    4  C1  UNL     1       3.010   0.543   0.008  1.00  0.00     0.224 C 
BRANCH   4   5
HETATM    5  O1  UNL     1       3.038   1.479   1.006  1.00  0.00    -0.395 OA
ATOM      6  H1  UNL     1       3.856   1.961   1.015  1.00  0.00     0.209 HD
ENDBRANCH   4   5
ENDBRANCH   1   4
BRANCH   1   7
HETATM    7  C3  UNL     1       0.448   0.525  -0.215  1.00  0.00     0.088 C 
BRANCH   7   8
HETATM    8  N1  UNL     1      -0.647  -0.191  -0.740  1.00  0.00    -0.291 NA
HETATM    9  C4  UNL     1      -1.292  -1.161   0.094  1.00  0.00     0.095 C 
HETATM   10  C5  UNL     1      -2.567  -0.480   0.618  1.00  0.00     0.016 C 
HETATM   11  C6  UNL     1      -2.563   0.881  -0.068  1.00  0.00     0.016 C 
HETATM   12  C7  UNL     1      -1.718   0.582  -1.281  1.00  0.00     0.095 C 
ENDBRANCH   7   8
ENDBRANCH   1   7
BRANCH   2  13
HETATM   13  O2  UNL     1       2.939  -2.143   0.415  1.00  0.00    -0.290 OA
ATOM     14  H2  UNL     1       2.953  -3.082   0.561  1.00  0.00     0.244 HD
ENDBRANCH   2  13
TORSDOF 5
