REMARK  12 active torsions:
REMARK  status: ('A' for Active; 'I' for Inactive)
REMARK    1  A    between atoms: C2_2  and  C3_3 
REMARK    2  A    between atoms: C3_3  and  C4_4 
REMARK    3  A    between atoms: C4_4  and  C5_5 
REMARK    4  A    between atoms: C5_5  and  C6_6 
REMARK    5  A    between atoms: C6_6  and  C7_7 
REMARK    6  A    between atoms: C7_7  and  C8_8 
REMARK    7  A    between atoms: C8_8  and  S1_9 
REMARK    8  A    between atoms: S1_9  and  C9_10 
REMARK    9  A    between atoms: C9_10  and  C10_11 
REMARK   10  A    between atoms: C15_21  and  N3_22 
REMARK   11  A    between atoms: N3_22  and  C16_24 
REMARK   12  A    between atoms: C19_34  and  O3_35 
ROOT
HETATM    1  C10 UNL     1       1.285  -0.324   0.878  1.00  0.00     0.164 C 
HETATM    2  O1  UNL     1       1.115  -0.398  -0.494  1.00  0.00    -0.356 OA
HETATM    3  C11 UNL     1       2.413  -0.224  -1.040  1.00  0.00     0.249 C 
HETATM    4  N1  UNL     1       3.016  -1.490  -1.262  1.00  0.00    -0.328 N 
ATOM      5  H1  UNL     1       2.428  -2.300  -1.063  1.00  0.00     0.165 HD
HETATM    6  C12 UNL     1       4.325  -1.781  -1.723  1.00  0.00     0.268 C 
HETATM    7  O2  UNL     1       4.495  -2.803  -2.437  1.00  0.00    -0.267 OA
HETATM    8  C13 UNL     1       5.507  -0.961  -1.420  1.00  0.00     0.155 C 
HETATM    9  C14 UNL     1       6.750  -1.421  -2.003  1.00  0.00     0.109 C 
HETATM   10  N2  UNL     1       7.752  -1.772  -2.470  1.00  0.00    -0.191 NA
HETATM   11  C15 UNL     1       5.602   0.155  -0.679  1.00  0.00     0.130 C 
HETATM   12  N6  UNL     1       4.483   0.743  -0.036  1.00  0.00    -0.363 N 
ATOM     13  H6  UNL     1       4.770   1.310   0.762  1.00  0.00     0.161 HD
HETATM   14  C18 UNL     1       3.071   0.759  -0.198  1.00  0.00     0.163 C 
HETATM   15  C19 UNL     1       2.341   0.695   1.138  1.00  0.00     0.174 C 
ENDROOT
BRANCH  11  16
HETATM   16  N3  UNL     1       6.883   0.751  -0.548  1.00  0.00    -0.320 N 
ATOM     17  H3  UNL     1       7.193   1.489  -1.180  1.00  0.00     0.169 HD
BRANCH  16  18
HETATM   18  C16 UNL     1       7.655   0.310   0.426  1.00  0.00     0.167 A 
HETATM   19  N4  UNL     1       8.888   0.720   0.735  1.00  0.00    -0.331 N 
HETATM   20  C17 UNL     1       9.481   0.147   1.743  1.00  0.00     0.189 A 
ATOM     21  H4  UNL     1       9.349   1.456   0.200  1.00  0.00     0.168 HD
HETATM   22  N5  UNL     1       8.832  -0.808   2.403  1.00  0.00    -0.320 N 
HETATM   23  S2  UNL     1       7.361  -0.898   1.590  1.00  0.00     0.024 SA
ATOM     24  H5  UNL     1       9.148  -1.353   3.205  1.00  0.00     0.175 HD
ENDBRANCH  16  18
ENDBRANCH  11  16
BRANCH  15  25
HETATM   25  O3  UNL     1       3.201   0.264   2.149  1.00  0.00    -0.391 OA
ATOM     26  H3  UNL     1       3.874   0.914   2.315  1.00  0.00     0.210 HD
ENDBRANCH  15  25
BRANCH   1  27
HETATM   27  C9  UNL     1      -0.039  -0.039   1.534  1.00  0.00     0.108 C 
BRANCH  27  28
HETATM   28  S1  UNL     1      -0.704   1.536   0.913  1.00  0.00    -0.166 SA
BRANCH  28  29
HETATM   29  C8  UNL     1      -2.521   1.428   0.782  1.00  0.00     0.074 C 
BRANCH  29  30
HETATM   30  C7  UNL     1      -2.899   0.399  -0.274  1.00  0.00     0.010 C 
BRANCH  30  31
HETATM   31  C6  UNL     1      -4.447   0.334  -0.318  1.00  0.00     0.001 C 
BRANCH  31  32
HETATM   32  C5  UNL     1      -4.879  -0.663  -1.319  1.00  0.00     0.000 C 
BRANCH  32  33
HETATM   33  C4  UNL     1      -6.295  -0.911  -1.599  1.00  0.00     0.000 C 
BRANCH  33  34
HETATM   34  C3  UNL     1      -7.219  -1.433  -0.574  1.00  0.00    -0.000 C 
BRANCH  34  35
HETATM   35  C2  UNL     1      -7.510  -0.613   0.622  1.00  0.00    -0.005 C 
HETATM   36  C1  UNL     1      -8.110   0.722   0.256  1.00  0.00     0.005 C 
ENDBRANCH  34  35
ENDBRANCH  33  34
ENDBRANCH  32  33
ENDBRANCH  31  32
ENDBRANCH  30  31
ENDBRANCH  29  30
ENDBRANCH  28  29
ENDBRANCH  27  28
ENDBRANCH   1  27
TORSDOF 12
