REMARK  3 active torsions:
REMARK  status: ('A' for Active; 'I' for Inactive)
REMARK    1  A    between atoms: C2_2  and  N1_4 
REMARK    2  A    between atoms: C2_2  and  C6_10 
REMARK       I    between atoms: N1_4  and  C4_6 
REMARK       I    between atoms: C6_10  and  N3_12 
REMARK    3  A    between atoms: N3_12  and  C7_14 
ROOT
HETATM    1  N1  UNL     1      -3.274   1.546  -0.218  1.00  0.00    -0.331 N 
ATOM      2  H1  UNL     1      -2.722   2.404  -0.231  1.00  0.00     0.164 HD
HETATM    3  C4  UNL     1      -4.692   1.631  -0.308  1.00  0.00     0.323 C 
HETATM    4  O1  UNL     1      -5.352   0.558  -0.290  1.00  0.00    -0.256 OA
HETATM    5  C5  UNL     1      -5.381   2.865  -0.416  1.00  0.00     0.162 C 
HETATM    6  N2  UNL     1      -5.950   3.877  -0.519  1.00  0.00    -0.186 NA
ENDROOT
BRANCH   1   7
HETATM    7  C2  UNL     1      -2.595   0.270  -0.109  1.00  0.00     0.107 C 
HETATM    8  C1  UNL     1      -2.934  -0.542  -1.331  1.00  0.00     0.048 C 
HETATM    9  C3  UNL     1      -3.099  -0.421   1.153  1.00  0.00     0.048 C 
BRANCH   7  10
HETATM   10  C6  UNL     1      -1.145   0.516  -0.053  1.00  0.00     0.245 C 
HETATM   11  O2  UNL     1      -0.696   1.667  -0.101  1.00  0.00    -0.271 OA
HETATM   12  N3  UNL     1      -0.209  -0.560   0.057  1.00  0.00    -0.354 N 
ATOM     13  H3  UNL     1      -0.552  -1.520   0.099  1.00  0.00     0.162 HD
BRANCH  12  14
HETATM   14  C7  UNL     1       1.230  -0.310   0.111  1.00  0.00     0.084 C 
HETATM   15  C8  UNL     1       1.872  -1.078  -0.991  1.00  0.00     0.025 C 
HETATM   16  C9  UNL     1       3.096  -0.430  -1.562  1.00  0.00     0.002 C 
HETATM   17  C10 UNL     1       3.869   0.380  -0.547  1.00  0.00     0.000 C 
HETATM   18  C11 UNL     1       4.144  -0.393   0.706  1.00  0.00     0.000 C 
HETATM   19  C12 UNL     1       3.113  -0.218   1.765  1.00  0.00     0.002 C 
HETATM   20  C13 UNL     1       1.777  -0.802   1.425  1.00  0.00     0.025 C 
ENDBRANCH  12  14
ENDBRANCH   7  10
ENDBRANCH   1   7
TORSDOF 3
