REMARK  7 active torsions:
REMARK  status: ('A' for Active; 'I' for Inactive)
REMARK    1  A    between atoms: C1_2  and  C2_4 
REMARK    2  A    between atoms: C5_7  and  C6_8 
REMARK    3  A    between atoms: C7_9  and  C8_10 
REMARK    4  A    between atoms: N2_16  and  C12_17 
REMARK    5  A    between atoms: C15_20  and  C16_21 
REMARK       I    between atoms: C16_21  and  N3_23 
REMARK    6  A    between atoms: N3_23  and  N4_25 
REMARK    7  A    between atoms: C17_27  and  C18_28 
ROOT
HETATM    1  C8  UNL     1       4.375   0.285  -0.039  1.00  0.00     0.089 A 
HETATM    2  C9  UNL     1       3.866   1.454  -0.569  1.00  0.00     0.071 A 
HETATM    3  C10 UNL     1       2.515   1.608  -0.840  1.00  0.00     0.064 A 
HETATM    4  N1  UNL     1       1.795   2.622  -1.344  1.00  0.00    -0.350 N 
ATOM      5  H1  UNL     1       2.151   3.531  -1.639  1.00  0.00     0.166 HD
HETATM    6  C11 UNL     1       0.510   2.211  -1.387  1.00  0.00     0.189 A 
HETATM    7  N2  UNL     1       0.415   0.959  -0.919  1.00  0.00    -0.304 N 
HETATM    8  C27 UNL     1       1.649   0.556  -0.571  1.00  0.00     0.082 A 
HETATM    9  C28 UNL     1       2.186  -0.595  -0.043  1.00  0.00     0.121 A 
HETATM   10  N5  UNL     1       3.514  -0.714   0.211  1.00  0.00    -0.357 N 
ATOM     11  H5  UNL     1       3.868  -1.587   0.603  1.00  0.00     0.166 HD
ENDROOT
BRANCH   7  12
HETATM   12  C12 UNL     1      -0.792   0.223  -0.825  1.00  0.00     0.040 A 
HETATM   13  C13 UNL     1      -1.653   0.349   0.254  1.00  0.00     0.031 A 
HETATM   14  C14 UNL     1      -2.822  -0.379   0.321  1.00  0.00     0.019 A 
HETATM   15  C15 UNL     1      -3.207  -1.263  -0.659  1.00  0.00     0.033 A 
HETATM   16  C25 UNL     1      -2.333  -1.386  -1.746  1.00  0.00     0.019 A 
HETATM   17  C26 UNL     1      -1.166  -0.662  -1.817  1.00  0.00     0.031 A 
BRANCH  15  18
HETATM   18  C16 UNL     1      -4.427  -2.053  -0.633  1.00  0.00     0.270 C 
HETATM   19  O3  UNL     1      -4.720  -2.779  -1.616  1.00  0.00    -0.266 OA
HETATM   20  N3  UNL     1      -5.352  -2.071   0.457  1.00  0.00    -0.266 N 
ATOM     21  H3  UNL     1      -5.134  -1.490   1.266  1.00  0.00     0.190 HD
BRANCH  20  22
HETATM   22  N4  UNL     1      -6.488  -2.794   0.501  1.00  0.00    -0.308 N 
HETATM   23  C17 UNL     1      -7.688  -2.456   0.445  1.00  0.00     0.118 C 
ATOM     24  H4  UNL     1      -6.341  -3.799   0.597  1.00  0.00     0.186 HD
BRANCH  23  25
HETATM   25  C18 UNL     1      -8.317  -1.169   0.311  1.00  0.00    -0.017 A 
HETATM   26  C19 UNL     1      -9.715  -1.081   0.279  1.00  0.00     0.016 A 
HETATM   27  C20 UNL     1     -10.364   0.121   0.154  1.00  0.00     0.040 A 
HETATM   28  C21 UNL     1      -9.688   1.311   0.051  1.00  0.00     0.105 A 
HETATM   29  C22 UNL     1      -8.312   1.263   0.079  1.00  0.00     0.105 A 
HETATM   30  O5  UNL     1     -10.066   2.639  -0.082  1.00  0.00    -0.323 OA
HETATM   31  C23 UNL     1      -7.661   0.037   0.207  1.00  0.00     0.052 A 
HETATM   32  O4  UNL     1      -7.862   2.575  -0.038  1.00  0.00    -0.323 OA
HETATM   33  C24 UNL     1      -8.932   3.451   0.241  1.00  0.00     0.352 C 
ENDBRANCH  23  25
ENDBRANCH  20  22
ENDBRANCH  15  18
ENDBRANCH   7  12
BRANCH   1  34
HETATM   34  C7  UNL     1       5.776   0.138   0.237  1.00  0.00    -0.043 C 
HETATM   35  C6  UNL     1       6.960   0.024   0.451  1.00  0.00    -0.060 C 
BRANCH  35  36
HETATM   36  C5  UNL     1       8.376  -0.122   0.682  1.00  0.00     0.018 A 
HETATM   37  C4  UNL     1       9.170  -0.793  -0.228  1.00  0.00     0.022 A 
HETATM   38  C3  UNL     1      10.523  -0.925   0.005  1.00  0.00     0.020 A 
HETATM   39  C2  UNL     1      11.145  -0.406   1.135  1.00  0.00     0.040 A 
HETATM   40  C30 UNL     1      10.348   0.262   2.038  1.00  0.00     0.020 A 
HETATM   41  C29 UNL     1       8.999   0.394   1.806  1.00  0.00     0.022 A 
BRANCH  39  42
HETATM   42  C1  UNL     1      12.577  -0.572   1.335  1.00  0.00     0.209 C 
HETATM   43  O1  UNL     1      13.136  -0.104   2.355  1.00  0.00    -0.644 OA
HETATM   44  O2  UNL     1      13.308  -1.257   0.378  1.00  0.00    -0.644 OA
ENDBRANCH  39  42
ENDBRANCH  35  36
ENDBRANCH   1  34
TORSDOF 7
