REMARK  16 active torsions:
REMARK  status: ('A' for Active; 'I' for Inactive)
REMARK       I    between atoms: C2_2  and  N1_4 
REMARK    1  A    between atoms: N1_4  and  C3_6 
REMARK    2  A    between atoms: C5_9  and  O3_10 
REMARK    3  A    between atoms: C6_12  and  N2_13 
REMARK    4  A    between atoms: C10_22  and  N6_23 
REMARK    5  A    between atoms: C12_29  and  O4_30 
REMARK    6  A    between atoms: C13_32  and  N8_33 
REMARK    7  A    between atoms: C15_35  and  C16_36 
REMARK    8  A    between atoms: C16_36  and  N9_37 
REMARK    9  A    between atoms: N9_37  and  C17_39 
REMARK   10  A    between atoms: C17_39  and  O5_40 
REMARK   11  A    between atoms: C17_39  and  C18_42 
REMARK   12  A    between atoms: C18_42  and  O6_43 
REMARK   13  A    between atoms: C18_42  and  C19_45 
REMARK   14  A    between atoms: C19_45  and  C20_47 
REMARK   15  A    between atoms: C20_47  and  O8_48 
REMARK   16  A    between atoms: C20_47  and  O9_50 
ROOT
HETATM    1  C3  UNL     1      -0.750   0.355   0.979  1.00  0.00     0.250 C 
HETATM    2  O2  UNL     1      -1.205  -0.860   1.355  1.00  0.00    -0.362 OA
HETATM    3  C4  UNL     1      -0.986  -1.909   0.523  1.00  0.00     0.204 C 
HETATM    4  C5  UNL     1      -2.176  -2.124  -0.388  1.00  0.00     0.168 C 
HETATM    5  C6  UNL     1      -2.919  -0.781  -0.422  1.00  0.00     0.154 C 
HETATM    6  C12 UNL     1      -2.068   0.176  -1.173  1.00  0.00     0.173 C 
HETATM    7  C13 UNL     1      -0.893   0.725  -0.461  1.00  0.00     0.188 C 
ENDROOT
BRANCH   7   8
HETATM    8  N8  UNL     1       0.323   0.505  -1.218  1.00  0.00    -0.276 N 
HETATM    9  C14 UNL     1       1.592   0.683  -0.844  1.00  0.00     0.140 A 
HETATM   10  C15 UNL     1       2.454   0.358  -1.866  1.00  0.00     0.061 A 
HETATM   11  N10 UNL     1       1.621  -0.026  -2.879  1.00  0.00    -0.287 N 
HETATM   12  N11 UNL     1       0.350   0.073  -2.461  1.00  0.00    -0.240 N 
ATOM     13  H10 UNL     1       1.918  -0.338  -3.804  1.00  0.00     0.188 HD
ATOM     14  H11 UNL     1      -0.472  -0.153  -3.022  1.00  0.00     0.208 HD
BRANCH  10  15
HETATM   15  C16 UNL     1       3.943   0.401  -1.898  1.00  0.00     0.176 C 
BRANCH  15  16
HETATM   16  N9  UNL     1       4.395   0.845  -0.614  1.00  0.00    -0.389 N 
ATOM     17  H9  UNL     1       3.750   1.074   0.142  1.00  0.00     0.156 HD
BRANCH  16  18
HETATM   18  C17 UNL     1       5.811   0.944  -0.467  1.00  0.00     0.250 C 
BRANCH  18  19
HETATM   19  O5  UNL     1       6.343   1.922  -1.277  1.00  0.00    -0.374 OA
ATOM     20  H5  UNL     1       7.286   1.988  -1.179  1.00  0.00     0.212 HD
ENDBRANCH  18  19
BRANCH  18  21
HETATM   21  C18 UNL     1       6.533  -0.380  -0.617  1.00  0.00     0.240 C 
BRANCH  21  22
HETATM   22  O6  UNL     1       6.108  -1.304   0.332  1.00  0.00    -0.383 OA
ATOM     23  H6  UNL     1       6.561  -2.134   0.238  1.00  0.00     0.210 HD
ENDBRANCH  21  22
BRANCH  21  24
HETATM   24  C19 UNL     1       7.988  -0.160  -0.445  1.00  0.00     0.213 C 
HETATM   25  O7  UNL     1       8.555   0.615  -1.181  1.00  0.00    -0.290 OA
BRANCH  24  26
HETATM   26  C20 UNL     1       8.743  -0.869   0.605  1.00  0.00     0.328 C 
BRANCH  26  27
HETATM   27  O8  UNL     1      10.074  -0.481   0.539  1.00  0.00    -0.365 OA
ATOM     28  H8  UNL     1      10.560  -0.938   1.215  1.00  0.00     0.213 HD
ENDBRANCH  26  27
BRANCH  26  29
HETATM   29  O9  UNL     1       8.211  -0.593   1.884  1.00  0.00    -0.365 OA
ATOM     30  H9  UNL     1       8.697  -1.050   2.560  1.00  0.00     0.213 HD
ENDBRANCH  26  29
ENDBRANCH  24  26
ENDBRANCH  21  24
ENDBRANCH  18  21
ENDBRANCH  16  18
ENDBRANCH  15  16
ENDBRANCH  10  15
ENDBRANCH   7   8
BRANCH   1  31
HETATM   31  N1  UNL     1      -1.387   1.369   1.815  1.00  0.00    -0.333 N 
HETATM   32  C2  UNL     1      -0.691   2.167   2.730  1.00  0.00     0.215 C 
HETATM   33  C1  UNL     1      -1.422   3.173   3.538  1.00  0.00     0.117 C 
HETATM   34  O1  UNL     1       0.564   2.049   2.888  1.00  0.00    -0.274 OA
ATOM     35  H1  UNL     1      -2.394   1.503   1.727  1.00  0.00     0.165 HD
ENDBRANCH   1  31
BRANCH   6  36
HETATM   36  O4  UNL     1      -2.926   1.179  -1.684  1.00  0.00    -0.391 OA
ATOM     37  H4  UNL     1      -2.381   1.791  -2.165  1.00  0.00     0.210 HD
ENDBRANCH   6  36
BRANCH   5  38
HETATM   38  N2  UNL     1      -4.232  -0.957  -1.041  1.00  0.00    -0.317 N 
HETATM   39  C7  UNL     1      -4.504  -1.445  -2.263  1.00  0.00     0.185 A 
HETATM   40  N3  UNL     1      -5.832  -1.444  -2.458  1.00  0.00    -0.346 N 
HETATM   41  C8  UNL     1      -6.443  -0.957  -1.370  1.00  0.00     0.120 A 
ATOM     42  H3  UNL     1      -6.303  -1.765  -3.304  1.00  0.00     0.167 HD
HETATM   43  C9  UNL     1      -7.759  -0.735  -1.027  1.00  0.00     0.162 A 
HETATM   44  C11 UNL     1      -5.425  -0.657  -0.493  1.00  0.00     0.155 A 
HETATM   45  N4  UNL     1      -8.840  -1.026  -1.890  1.00  0.00    -0.080 NA
HETATM   46  N5  UNL     1      -8.041  -0.219   0.182  1.00  0.00    -0.177 N 
HETATM   47  C10 UNL     1      -7.056   0.087   1.068  1.00  0.00     0.678 A 
ATOM     48  H5  UNL     1      -9.014  -0.054   0.440  1.00  0.00     0.185 HD
HETATM   49  N7  UNL     1      -5.803  -0.138   0.708  1.00  0.00    -0.174 N 
ATOM     50  H7  UNL     1      -5.069   0.093   1.377  1.00  0.00     0.186 HD
BRANCH  47  51
HETATM   51  N6  UNL     1      -7.320   0.582   2.226  1.00  0.00    -0.234 N 
ATOM     52  H62 UNL     1      -8.286   0.755   2.504  1.00  0.00     0.174 HD
ATOM     53  H61 UNL     1      -6.581   0.812   2.891  1.00  0.00     0.174 HD
ENDBRANCH  47  51
ENDBRANCH   5  38
BRANCH   4  54
HETATM   54  O3  UNL     1      -3.078  -3.028   0.220  1.00  0.00    -0.391 OA
ATOM     55  H3  UNL     1      -3.825  -3.163  -0.352  1.00  0.00     0.210 HD
ENDBRANCH   4  54
TORSDOF 16
