REMARK  5 active torsions:
REMARK  status: ('A' for Active; 'I' for Inactive)
REMARK       I    between atoms: C2_2  and  N1_4 
REMARK    1  A    between atoms: N1_4  and  C3_6 
REMARK    2  A    between atoms: C3_6  and  C4_7 
REMARK    3  A    between atoms: C4_7  and  C5_8 
REMARK    4  A    between atoms: N4_16  and  C8_18 
REMARK    5  A    between atoms: C8_18  and  C9_20 
ROOT
HETATM    1  C5  UNL     1       0.473  -1.012   0.660  1.00  0.00     0.155 C 
HETATM    2  N2  UNL     1       0.606  -1.896  -0.482  1.00  0.00    -0.331 N 
ATOM      3  H2  UNL     1       1.066  -2.806  -0.467  1.00  0.00     0.165 HD
HETATM    4  C6  UNL     1       0.000  -1.306  -1.625  1.00  0.00     0.322 C 
HETATM    5  O2  UNL     1       0.172  -1.595  -2.839  1.00  0.00    -0.247 OA
HETATM    6  N3  UNL     1      -0.861  -0.296  -1.098  1.00  0.00    -0.296 N 
ATOM      7  H3  UNL     1      -1.449   0.321  -1.658  1.00  0.00     0.172 HD
HETATM    8  C7  UNL     1      -0.778  -0.277   0.322  1.00  0.00     0.109 C 
HETATM    9  N4  UNL     1      -1.624   0.272   1.159  1.00  0.00    -0.337 N 
ATOM     10  H4  UNL     1      -1.469   0.228   2.166  1.00  0.00     0.168 HD
ENDROOT
BRANCH   1  11
HETATM   11  C4  UNL     1       1.642  -0.043   0.594  1.00  0.00     0.053 C 
BRANCH  11  12
HETATM   12  C3  UNL     1       2.905  -0.828   0.657  1.00  0.00     0.125 C 
BRANCH  12  13
HETATM   13  N1  UNL     1       4.112  -0.075   0.612  1.00  0.00    -0.361 N 
HETATM   14  C2  UNL     1       4.453   0.732  -0.470  1.00  0.00     0.213 C 
HETATM   15  C1  UNL     1       5.724   1.533  -0.524  1.00  0.00     0.117 C 
HETATM   16  O1  UNL     1       3.706   0.836  -1.477  1.00  0.00    -0.274 OA
ATOM     17  H1  UNL     1       4.753  -0.129   1.404  1.00  0.00     0.162 HD
ENDBRANCH  12  13
ENDBRANCH  11  12
ENDBRANCH   1  11
BRANCH   9  18
HETATM   18  C8  UNL     1      -2.757   0.926   0.627  1.00  0.00     0.102 C 
HETATM   19  S1  UNL     1      -2.530   2.372  -0.095  1.00  0.00    -0.063 SA
BRANCH  18  20
HETATM   20  C9  UNL     1      -4.114   0.356   0.703  1.00  0.00     0.083 C 
HETATM   21  C10 UNL     1      -5.112   1.268   0.058  1.00  0.00     0.040 C 
HETATM   22  C11 UNL     1      -4.200  -0.986  -0.018  1.00  0.00     0.040 C 
HETATM   23 CL1  UNL     1      -4.634   0.085   2.386  1.00  0.00    -0.112 Cl
ENDBRANCH  18  20
ENDBRANCH   9  18
TORSDOF 5
