REMARK  5 active torsions:
REMARK  status: ('A' for Active; 'I' for Inactive)
REMARK    1  A    between atoms: C3_3  and  C4_4 
REMARK    2  A    between atoms: N1_8  and  C9_10 
REMARK    3  A    between atoms: C12_13  and  O1_14 
REMARK    4  A    between atoms: C12_13  and  C13_16 
REMARK    5  A    between atoms: C13_16  and  O2_17 
ROOT
HETATM    1  C1  UNL     1       4.660   2.280  -0.562  1.00  0.00     0.013 C 
HETATM    2  C2  UNL     1       3.971   1.297  -0.454  1.00  0.00    -0.107 C 
HETATM    3  C3  UNL     1       3.114   0.115  -0.322  1.00  0.00     0.025 C 
HETATM    4  C6  UNL     1       2.036   0.235  -1.374  1.00  0.00     0.050 C 
HETATM    5  C7  UNL     1       1.014   1.225  -0.825  1.00  0.00     0.239 C 
HETATM    6  N1  UNL     1       0.206   0.600   0.233  1.00  0.00    -0.064 N 
HETATM    7  C8  UNL     1      -0.131   1.623   1.164  1.00  0.00     0.273 C 
HETATM    8  C16 UNL     1       1.003  -0.397   0.940  1.00  0.00     0.239 C 
HETATM    9  C17 UNL     1       2.461  -0.004   1.008  1.00  0.00     0.050 C 
ENDROOT
BRANCH   3  10
HETATM   10  C4  UNL     1       3.936  -1.113  -0.673  1.00  0.00     0.018 C 
HETATM   11  C5  UNL     1       5.118  -1.268   0.230  1.00  0.00     0.007 C 
ENDBRANCH   3  10
BRANCH   6  12
HETATM   12  C9  UNL     1      -0.886  -0.051  -0.419  1.00  0.00     0.224 C 
HETATM   13  C10 UNL     1      -1.491  -1.179   0.376  1.00  0.00     0.039 C 
HETATM   14  C11 UNL     1      -2.902  -0.854   0.859  1.00  0.00     0.042 C 
HETATM   15  C12 UNL     1      -3.770  -0.759  -0.354  1.00  0.00     0.082 C 
HETATM   16  C14 UNL     1      -3.108   0.006  -1.443  1.00  0.00     0.079 C 
HETATM   17  C15 UNL     1      -1.937   0.856  -0.958  1.00  0.00     0.204 C 
HETATM   18  F1  UNL     1      -2.434   1.776  -0.103  1.00  0.00    -0.247 F 
BRANCH  15  19
HETATM   19  O1  UNL     1      -3.947  -2.082  -0.828  1.00  0.00    -0.388 OA
ATOM     20  H1  UNL     1      -4.499  -2.022  -1.599  1.00  0.00     0.210 HD
ENDBRANCH  15  19
BRANCH  15  21
HETATM   21  C13 UNL     1      -5.151  -0.263  -0.003  1.00  0.00     0.201 C 
BRANCH  21  22
HETATM   22  O2  UNL     1      -5.186   1.015   0.480  1.00  0.00    -0.398 OA
ATOM     23  H2  UNL     1      -6.056   1.327   0.701  1.00  0.00     0.209 HD
ENDBRANCH  21  22
ENDBRANCH  15  21
ENDBRANCH   6  12
TORSDOF 5
