REMARK  7 active torsions:
REMARK  status: ('A' for Active; 'I' for Inactive)
REMARK    1  A    between atoms: N2_6  and  C4_8 
REMARK    2  A    between atoms: C4_8  and  C5_9 
REMARK    3  A    between atoms: C5_9  and  C6_10 
REMARK    4  A    between atoms: C6_10  and  N3_11 
REMARK       I    between atoms: N3_11  and  C7_13 
REMARK       I    between atoms: C7_13  and  N5_17 
REMARK    5  A    between atoms: N5_17  and  C8_19 
REMARK    6  A    between atoms: C8_19  and  C9_20 
REMARK    7  A    between atoms: C9_20  and  O1_21 
ROOT
HETATM    1  C1  UNL     1       3.230  -4.010  -1.451  1.00  0.00     0.063 C 
HETATM    2  C2  UNL     1       3.343  -2.714  -1.239  1.00  0.00     0.097 A 
HETATM    3  N1  UNL     1       2.318  -1.846  -1.260  1.00  0.00    -0.327 N 
ATOM      4  H1  UNL     1       1.343  -2.081  -1.447  1.00  0.00     0.169 HD
HETATM    5  C3  UNL     1       2.788  -0.625  -0.996  1.00  0.00     0.134 A 
HETATM    6  N2  UNL     1       2.200   0.483  -1.012  1.00  0.00    -0.354 N 
ATOM      7  H2  UNL     1       2.817   1.254  -0.756  1.00  0.00     0.166 HD
HETATM    8  C11 UNL     1       4.194  -0.732  -0.797  1.00  0.00     0.085 A 
HETATM    9  C12 UNL     1       4.977   0.328  -0.513  1.00  0.00    -0.014 A 
HETATM   10  C13 UNL     1       4.926   1.720  -0.291  1.00  0.00     0.035 A 
HETATM   11  C14 UNL     1       6.132   1.847   0.046  1.00  0.00     0.015 A 
HETATM   12  N6  UNL     1       7.548   2.026   0.447  1.00  0.00    -0.391 N 
ATOM     13  H6  UNL     1       8.165   2.785   0.738  1.00  0.00     0.159 HD
HETATM   14  C15 UNL     1       7.626   0.634   0.230  1.00  0.00     0.135 A 
HETATM   15  C16 UNL     1       6.419   0.378  -0.128  1.00  0.00     0.088 A 
HETATM   16  N7  UNL     1       4.473  -2.016  -0.956  1.00  0.00    -0.340 N 
ATOM     17  H7  UNL     1       5.405  -2.424  -0.877  1.00  0.00     0.167 HD
ENDROOT
BRANCH   6  18
HETATM   18  C4  UNL     1       0.906   0.911  -1.296  1.00  0.00     0.064 C 
BRANCH  18  19
HETATM   19  C5  UNL     1      -0.198   0.856  -0.320  1.00  0.00     0.065 C 
BRANCH  19  20
HETATM   20  C6  UNL     1      -0.573  -0.474   0.225  1.00  0.00     0.143 C 
BRANCH  20  21
HETATM   21  N3  UNL     1      -1.756  -0.426   1.086  1.00  0.00    -0.227 N 
HETATM   22  C7  UNL     1      -3.012  -0.195   0.485  1.00  0.00     0.667 C 
HETATM   23  N4  UNL     1      -3.360  -0.936  -0.528  1.00  0.00    -0.235 N 
HETATM   24  N5  UNL     1      -3.897   0.783   0.913  1.00  0.00    -0.225 N 
ATOM     25  H42 UNL     1      -2.709  -1.655  -0.843  1.00  0.00     0.174 HD
ATOM     26  H41 UNL     1      -4.268  -0.769  -0.962  1.00  0.00     0.174 HD
ATOM     27  H5  UNL     1      -3.603   1.755   1.010  1.00  0.00     0.177 HD
ATOM     28  H3  UNL     1      -1.675  -0.556   2.094  1.00  0.00     0.177 HD
BRANCH  24  29
HETATM   29  C8  UNL     1      -5.284   0.367   1.224  1.00  0.00     0.164 C 
BRANCH  29  30
HETATM   30  C9  UNL     1      -6.057   1.609   1.532  1.00  0.00     0.187 C 
BRANCH  30  31
HETATM   31  O1  UNL     1      -7.388   1.366   1.846  1.00  0.00    -0.394 OA
HETATM   32  C10 UNL     1      -8.070   0.744   0.830  1.00  0.00     0.201 C 
ENDBRANCH  30  31
ENDBRANCH  29  30
ENDBRANCH  24  29
ENDBRANCH  20  21
ENDBRANCH  19  20
ENDBRANCH  18  19
ENDBRANCH   6  18
TORSDOF 7
