REMARK  5 active torsions:
REMARK  status: ('A' for Active; 'I' for Inactive)
REMARK    1  A    between atoms: C2_2  and  N1_3 
REMARK    2  A    between atoms: N1_3  and  C3_5 
REMARK    3  A    between atoms: C4_8  and  N3_9 
REMARK    4  A    between atoms: C6_14  and  N5_15 
REMARK    5  A    between atoms: N5_15  and  N6_17 
ROOT
HETATM    1  C3  UNL     1       0.647   0.623   0.256  1.00  0.00     0.707 A 
HETATM    2  N2  UNL     1      -0.057  -0.520   0.174  1.00  0.00    -0.022 N 
ATOM      3  H2  UNL     1       0.444  -1.406   0.107  1.00  0.00     0.203 HD
HETATM    4  C4  UNL     1      -1.412  -0.530   0.178  1.00  0.00     0.706 A 
HETATM    5  N4  UNL     1      -2.005   0.675   0.269  1.00  0.00    -0.020 N 
ATOM      6  H4  UNL     1      -3.024   0.711   0.275  1.00  0.00     0.203 HD
HETATM    7  C6  UNL     1      -1.327   1.834   0.352  1.00  0.00     0.725 A 
HETATM    8  N7  UNL     1       0.012   1.804   0.346  1.00  0.00    -0.020 N 
ATOM      9  H7  UNL     1       0.546   2.671   0.409  1.00  0.00     0.203 HD
ENDROOT
BRANCH   7  10
HETATM   10  N5  UNL     1      -1.941   2.980   0.439  1.00  0.00    -0.138 N 
ATOM     11  H5  UNL     1      -1.376   3.827   0.500  1.00  0.00     0.205 HD
BRANCH  10  12
HETATM   12  N6  UNL     1      -3.311   3.110   0.453  1.00  0.00    -0.331 N 
ATOM     13  H62 UNL     1      -3.861   2.253   0.391  1.00  0.00     0.177 HD
ATOM     14  H61 UNL     1      -3.792   4.007   0.521  1.00  0.00     0.177 HD
ENDBRANCH  10  12
ENDBRANCH   7  10
BRANCH   4  15
HETATM   15  N3  UNL     1      -2.098  -1.609   0.100  1.00  0.00    -0.229 N 
HETATM   16  C5  UNL     1      -1.486  -2.911   0.002  1.00  0.00     0.165 C 
ATOM     17  H3  UNL     1      -3.116  -1.545   0.107  1.00  0.00     0.177 HD
ENDBRANCH   4  15
BRANCH   1  18
HETATM   18  N1  UNL     1       1.931   0.609   0.251  1.00  0.00    -0.225 N 
ATOM     19  H1  UNL     1       2.461   1.478   0.314  1.00  0.00     0.177 HD
BRANCH  18  20
HETATM   20  C2  UNL     1       2.608  -0.661   0.155  1.00  0.00     0.133 C 
HETATM   21  C1  UNL     1       4.089  -0.398   0.362  1.00  0.00     0.027 C 
ENDBRANCH  18  20
ENDBRANCH   1  18
TORSDOF 5
