REMARK  9 active torsions:
REMARK  status: ('A' for Active; 'I' for Inactive)
REMARK    1  A    between atoms: N1_1  and  N2_4 
REMARK    2  A    between atoms: N2_4  and  C1_6 
REMARK    3  A    between atoms: C2_7  and  N3_8 
REMARK    4  A    between atoms: N3_8  and  C3_10 
REMARK    5  A    between atoms: C3_10  and  C4_11 
REMARK    6  A    between atoms: C4_11  and  C5_12 
REMARK    7  A    between atoms: C5_12  and  C6_13 
REMARK    8  A    between atoms: C6_13  and  O1_14 
REMARK    9  A    between atoms: N7_22  and  N8_23 
ROOT
HETATM    1  C1  UNL     1      -2.334   0.442  -0.870  1.00  0.00     0.188 A 
HETATM    2  C2  UNL     1      -1.173   0.340  -0.101  1.00  0.00     0.109 A 
HETATM    3  C7  UNL     1      -1.286  -0.360   1.081  1.00  0.00     0.119 A 
HETATM    4  N4  UNL     1      -0.175  -0.532   1.948  1.00  0.00    -0.096 NA
HETATM    5  C8  UNL     1      -2.492  -0.916   1.455  1.00  0.00     0.159 A 
HETATM    6  N5  UNL     1      -2.620  -1.636   2.666  1.00  0.00    -0.079 NA
HETATM    7  N6  UNL     1      -3.600  -0.797   0.683  1.00  0.00    -0.263 N 
ATOM      8  H6  UNL     1      -4.489  -1.210   0.964  1.00  0.00     0.190 HD
HETATM    9  N7  UNL     1      -3.481  -0.126  -0.445  1.00  0.00    -0.181 N 
ENDROOT
BRANCH   2  10
HETATM   10  N3  UNL     1      -0.141   0.878  -0.532  1.00  0.00    -0.365 N 
ATOM     11  H3  UNL     1      -0.310   1.335  -1.428  1.00  0.00     0.165 HD
BRANCH  10  12
HETATM   12  C3  UNL     1       1.184   1.030  -0.130  1.00  0.00     0.061 C 
BRANCH  12  13
HETATM   13  C4  UNL     1       2.141  -0.044  -0.598  1.00  0.00     0.046 C 
BRANCH  13  14
HETATM   14  C5  UNL     1       3.507   0.314  -0.055  1.00  0.00     0.031 C 
BRANCH  14  15
HETATM   15  C6  UNL     1       4.562  -0.681  -0.449  1.00  0.00     0.164 C 
BRANCH  15  16
HETATM   16  O1  UNL     1       5.798  -0.319   0.067  1.00  0.00    -0.401 OA
ATOM     17  H1  UNL     1       6.465  -0.948  -0.182  1.00  0.00     0.209 HD
ENDBRANCH  15  16
ENDBRANCH  14  15
ENDBRANCH  13  14
ENDBRANCH  12  13
ENDBRANCH  10  12
ENDBRANCH   2  10
BRANCH   1  18
HETATM   18  N2  UNL     1      -2.352   1.077  -2.003  1.00  0.00    -0.287 N 
ATOM     19  H2  UNL     1      -3.213   1.138  -2.547  1.00  0.00     0.188 HD
BRANCH  18  20
HETATM   20  N1  UNL     1      -1.181   1.674  -2.467  1.00  0.00    -0.343 N 
ATOM     21  H12 UNL     1      -0.329   1.604  -1.911  1.00  0.00     0.176 HD
ATOM     22  H11 UNL     1      -1.195   2.173  -3.357  1.00  0.00     0.176 HD
ENDBRANCH  18  20
ENDBRANCH   1  18
BRANCH   9  23
HETATM   23  N8  UNL     1      -4.628   0.010  -1.266  1.00  0.00    -0.322 N 
ATOM     24  H82 UNL     1      -4.536   0.529  -2.139  1.00  0.00     0.179 HD
ATOM     25  H81 UNL     1      -5.495  -0.420  -0.945  1.00  0.00     0.179 HD
ENDBRANCH   9  23
TORSDOF 9
