REMARK  5 active torsions:
REMARK  status: ('A' for Active; 'I' for Inactive)
REMARK    1  A    between atoms: N1_2  and  C2_5 
REMARK    2  A    between atoms: C5_8  and  N2_9 
REMARK    3  A    between atoms: C5_8  and  C7_12 
REMARK    4  A    between atoms: C7_12  and  N3_13 
REMARK    5  A    between atoms: C7_12  and  C9_18 
ROOT
HETATM    1  C2  UNL     1      -1.844  -0.619  -0.572  1.00  0.00     0.188 C 
HETATM    2  C3  UNL     1      -1.620  -0.922   0.891  1.00  0.00     0.035 C 
HETATM    3  C4  UNL     1      -0.140  -0.636   1.077  1.00  0.00     0.035 C 
HETATM    4  C5  UNL     1       0.146   0.538   0.177  1.00  0.00     0.056 C 
HETATM    5  C10 UNL     1      -0.749   0.274  -1.042  1.00  0.00     0.066 C 
ENDROOT
BRANCH   4   6
HETATM    6  N2  UNL     1      -0.367   1.716   0.792  1.00  0.00    -0.414 N 
HETATM    7  C6  UNL     1      -0.547   2.851  -0.065  1.00  0.00     0.141 C 
ATOM      8  H2  UNL     1      -0.593   1.750   1.786  1.00  0.00     0.153 HD
ENDBRANCH   4   6
BRANCH   4   9
HETATM    9  C7  UNL     1       1.598   0.631  -0.258  1.00  0.00     0.200 C 
BRANCH   9  10
HETATM   10  N3  UNL     1       1.995  -0.495  -0.969  1.00  0.00    -0.352 N 
HETATM   11  C8  UNL     1       2.612  -1.541  -0.886  1.00  0.00     0.197 C 
HETATM   12  N4  UNL     1       2.687  -2.377  -2.073  1.00  0.00    -0.067 NA
HETATM   13  N5  UNL     1       3.292  -2.089   0.226  1.00  0.00    -0.067 NA
ATOM     14  H3  UNL     1       1.633  -0.415  -1.919  1.00  0.00     0.162 HD
ENDBRANCH   9  10
BRANCH   9  15
HETATM   15  C9  UNL     1       2.492   1.157   0.777  1.00  0.00     0.256 C 
HETATM   16  N6  UNL     1       2.122   2.279   1.611  1.00  0.00    -0.060 NA
HETATM   17  O1  UNL     1       3.631   0.705   1.038  1.00  0.00    -0.274 OA
ENDBRANCH   9  15
ENDBRANCH   4   9
BRANCH   1  18
HETATM   18  N1  UNL     1      -3.168  -0.085  -0.728  1.00  0.00    -0.075 N 
HETATM   19  C1  UNL     1      -4.129  -1.106  -0.322  1.00  0.00     0.267 C 
ATOM     20  H12 UNL     1      -3.341   0.263  -1.671  1.00  0.00     0.277 HD
ATOM     21  H11 UNL     1      -3.297   0.795  -0.229  1.00  0.00     0.277 HD
ENDBRANCH   1  18
TORSDOF 5
