REMARK  1 active torsions:
REMARK  status: ('A' for Active; 'I' for Inactive)
REMARK    1  A    between atoms: N1_3  and  C3_4 
ROOT
HETATM    1  C1  UNL     1      -0.379  -2.865  -0.584  1.00  0.00     0.158 C 
HETATM    2  C2  UNL     1       0.190  -1.976   0.499  1.00  0.00     0.079 C 
HETATM    3  N1  UNL     1       0.016  -0.625   0.208  1.00  0.00    -0.376 N 
HETATM    4  C8  UNL     1      -1.150  -0.163  -0.395  1.00  0.00     0.051 C 
HETATM    5  C9  UNL     1      -1.894   0.678   0.657  1.00  0.00     0.059 C 
HETATM    6  C10 UNL     1      -3.061   1.411   0.087  1.00  0.00     0.170 C 
HETATM    7  O1  UNL     1      -2.744   2.247  -0.974  1.00  0.00    -0.391 OA
HETATM    8  C11 UNL     1      -1.392   2.203  -1.213  1.00  0.00     0.170 C 
HETATM    9  C12 UNL     1      -0.911   0.810  -1.554  1.00  0.00     0.059 C 
HETATM   10  C13 UNL     1      -2.121  -1.193  -0.869  1.00  0.00     0.145 C 
HETATM   11  N2  UNL     1      -1.749  -2.550  -0.717  1.00  0.00    -0.414 N 
ATOM     12  H2  UNL     1      -2.456  -3.285  -0.704  1.00  0.00     0.153 HD
ENDROOT
BRANCH   3  13
HETATM   13  C3  UNL     1       1.148   0.178   0.313  1.00  0.00     0.086 C 
HETATM   14  C4  UNL     1       2.288  -0.191  -0.649  1.00  0.00     0.035 C 
HETATM   15  C5  UNL     1       3.131   1.035  -0.970  1.00  0.00     0.076 C 
HETATM   16  S1  UNL     1       3.183   2.077   0.503  1.00  0.00    -0.169 SA
HETATM   17  C6  UNL     1       2.851   1.041   1.936  1.00  0.00     0.076 C 
HETATM   18  C7  UNL     1       1.748   0.036   1.698  1.00  0.00     0.035 C 
ENDBRANCH   3  13
TORSDOF 1
