REMARK  12 active torsions:
REMARK  status: ('A' for Active; 'I' for Inactive)
REMARK    1  A    between atoms: C2_2  and  C3_3 
REMARK    2  A    between atoms: C3_3  and  C5_5 
REMARK    3  A    between atoms: C9_14  and  C10_15 
REMARK    4  A    between atoms: C10_15  and  C13_18 
REMARK    5  A    between atoms: C14_21  and  C15_22 
REMARK    6  A    between atoms: C15_22  and  C16_23 
REMARK    7  A    between atoms: C15_22  and  C18_25 
REMARK    8  A    between atoms: C21_30  and  O4_31 
REMARK    9  A    between atoms: C22_33  and  C23_34 
REMARK   10  A    between atoms: C23_34  and  C25_36 
REMARK   11  A    between atoms: C28_40  and  O5_41 
REMARK   12  A    between atoms: C29_43  and  C30_44 
ROOT
HETATM    1  C5  UNL     1       3.082  -2.381   0.215  1.00  0.00     0.188 C 
HETATM    2  N1  UNL     1       1.940  -3.240   0.465  1.00  0.00    -0.345 N 
ATOM      3  H1  UNL     1       2.173  -4.137   0.892  1.00  0.00     0.163 HD
HETATM    4  C6  UNL     1       0.590  -3.056   0.226  1.00  0.00     0.240 C 
HETATM    5  O1  UNL     1      -0.185  -3.142   1.252  1.00  0.00    -0.271 OA
HETATM    6  C7  UNL     1      -0.150  -2.773  -1.031  1.00  0.00     0.165 C 
HETATM    7  C8  UNL     1       0.623  -1.885  -1.936  1.00  0.00     0.042 C 
HETATM    8  N2  UNL     1      -1.503  -2.450  -0.750  1.00  0.00    -0.402 N 
ATOM      9  H2  UNL     1      -2.021  -3.069  -0.127  1.00  0.00     0.154 HD
HETATM   10  C9  UNL     1      -2.160  -1.358  -1.263  1.00  0.00     0.118 C 
HETATM   11  C14 UNL     1      -2.776  -0.301  -0.391  1.00  0.00     0.111 C 
HETATM   12  N3  UNL     1      -2.224   1.011  -0.739  1.00  0.00    -0.366 N 
ATOM     13  H3  UNL     1      -2.861   1.519  -1.353  1.00  0.00     0.161 HD
HETATM   14  C21 UNL     1      -1.093   1.761  -0.479  1.00  0.00     0.135 C 
HETATM   15  C22 UNL     1      -0.607   2.654   0.569  1.00  0.00     0.163 C 
HETATM   16  N4  UNL     1       0.676   2.559   1.160  1.00  0.00    -0.355 N 
HETATM   17  C27 UNL     1       0.625   2.884   2.647  1.00  0.00     0.152 C 
HETATM   18  C28 UNL     1       1.967   2.300   0.696  1.00  0.00     0.144 C 
HETATM   19  C29 UNL     1       2.671   1.117   0.139  1.00  0.00     0.209 C 
HETATM   20  O6  UNL     1       2.534  -0.015   0.900  1.00  0.00    -0.306 OA
HETATM   21  C33 UNL     1       3.055  -1.190   1.148  1.00  0.00     0.283 C 
HETATM   22  O7  UNL     1       3.613  -1.431   2.275  1.00  0.00    -0.263 OA
ENDROOT
BRANCH  10  23
HETATM   23  C10 UNL     1      -3.171  -1.833  -2.326  1.00  0.00     0.063 C 
HETATM   24  C11 UNL     1      -3.905  -0.651  -2.971  1.00  0.00     0.028 C 
HETATM   25  C12 UNL     1      -4.314  -2.614  -1.686  1.00  0.00     0.028 C 
BRANCH  23  26
HETATM   26  C13 UNL     1      -2.642  -2.747  -3.338  1.00  0.00     0.183 C 
HETATM   27  O2  UNL     1      -2.354  -2.275  -4.487  1.00  0.00    -0.647 OA
HETATM   28  O3  UNL     1      -2.413  -4.101  -3.189  1.00  0.00    -0.647 OA
ENDBRANCH  23  26
ENDBRANCH  10  23
BRANCH  11  29
HETATM   29  C15 UNL     1      -2.860  -0.436   1.093  1.00  0.00     0.013 C 
BRANCH  29  30
HETATM   30  C16 UNL     1      -3.542  -1.670   1.590  1.00  0.00     0.002 C 
HETATM   31  C17 UNL     1      -3.628  -1.901   3.056  1.00  0.00     0.005 C 
ENDBRANCH  29  30
BRANCH  29  32
HETATM   32  C18 UNL     1      -3.817   0.750   1.452  1.00  0.00    -0.017 C 
HETATM   33  C19 UNL     1      -4.049   0.925   2.901  1.00  0.00     0.010 C 
HETATM   34  C20 UNL     1      -5.090   0.743   0.642  1.00  0.00     0.010 C 
ENDBRANCH  29  32
ENDBRANCH  11  29
BRANCH  14  35
HETATM   35  O4  UNL     1      -0.169   1.698  -1.396  1.00  0.00    -0.348 OA
ATOM     36  H4  UNL     1       0.609   2.214  -1.217  1.00  0.00     0.219 HD
ENDBRANCH  14  35
BRANCH  15  37
HETATM   37  C23 UNL     1      -0.948   4.085   0.123  1.00  0.00     0.012 C 
HETATM   38  C24 UNL     1      -0.533   5.155   1.057  1.00  0.00     0.012 C 
BRANCH  37  39
HETATM   39  C25 UNL     1      -0.588   4.386  -1.302  1.00  0.00     0.002 C 
HETATM   40  C26 UNL     1      -0.942   5.817  -1.665  1.00  0.00     0.005 C 
ENDBRANCH  37  39
ENDBRANCH  15  37
BRANCH   1  41
HETATM   41  C3  UNL     1       4.388  -3.089   0.510  1.00  0.00     0.014 C 
HETATM   42  C4  UNL     1       4.519  -4.389  -0.253  1.00  0.00     0.012 C 
BRANCH  41  43
HETATM   43  C2  UNL     1       5.603  -2.284   0.266  1.00  0.00     0.002 C 
HETATM   44  C1  UNL     1       6.800  -3.097   0.768  1.00  0.00     0.005 C 
ENDBRANCH  41  43
ENDBRANCH   1  41
BRANCH  18  45
HETATM   45  O5  UNL     1       2.751   3.350   0.769  1.00  0.00    -0.347 OA
ATOM     46  H5  UNL     1       3.629   3.174   0.453  1.00  0.00     0.219 HD
ENDBRANCH  18  45
BRANCH  19  47
HETATM   47  C30 UNL     1       4.174   1.451  -0.095  1.00  0.00     0.015 C 
HETATM   48  C31 UNL     1       4.290   2.596  -1.077  1.00  0.00     0.012 C 
HETATM   49  C32 UNL     1       4.870   1.720   1.197  1.00  0.00     0.012 C 
ENDBRANCH  19  47
TORSDOF 12
