REMARK  0 active torsions:
REMARK  status: ('A' for Active; 'I' for Inactive)
ROOT
HETATM    1  C1  UNL     1       5.421  -1.649  -1.657  1.00  0.00     0.018 C 
HETATM    2  C2  UNL     1       4.424  -1.031  -1.363  1.00  0.00    -0.078 C 
HETATM    3  C3  UNL     1       3.231  -0.302  -1.021  1.00  0.00     0.017 A 
HETATM    4  C4  UNL     1       3.239   1.060  -1.101  1.00  0.00     0.021 A 
HETATM    5  C5  UNL     1       2.102   1.814  -0.779  1.00  0.00     0.014 A 
HETATM    6  C6  UNL     1       0.949   1.194  -0.373  1.00  0.00    -0.012 A 
HETATM    7  C7  UNL     1      -0.154   1.985  -0.063  1.00  0.00    -0.014 A 
HETATM    8  C8  UNL     1      -0.137   3.357  -0.147  1.00  0.00     0.013 A 
HETATM    9  C9  UNL     1      -1.241   4.115   0.164  1.00  0.00     0.001 A 
HETATM   10  C10 UNL     1      -2.364   3.445   0.564  1.00  0.00     0.001 A 
HETATM   11  C11 UNL     1      -2.420   2.063   0.661  1.00  0.00     0.013 A 
HETATM   12  C12 UNL     1      -1.306   1.308   0.346  1.00  0.00    -0.010 A 
HETATM   13  C13 UNL     1      -1.354  -0.066   0.440  1.00  0.00     0.033 A 
HETATM   14  C14 UNL     1      -2.396  -0.908   0.822  1.00  0.00     0.089 A 
HETATM   15  N1  UNL     1      -3.669  -1.035   1.239  1.00  0.00    -0.298 N 
ATOM     16  H1  UNL     1      -4.322  -0.270   1.406  1.00  0.00     0.187 HD
HETATM   17  N2  UNL     1      -3.929  -2.326   1.396  1.00  0.00    -0.309 N 
ATOM     18  H2  UNL     1      -4.820  -2.714   1.705  1.00  0.00     0.186 HD
HETATM   19  C15 UNL     1      -2.845  -3.037   1.088  1.00  0.00     0.139 A 
HETATM   20  C16 UNL     1      -1.852  -2.165   0.719  1.00  0.00     0.081 A 
HETATM   21  N3  UNL     1      -0.553  -2.106   0.298  1.00  0.00    -0.347 N 
HETATM   22  C17 UNL     1       0.255  -3.272   0.106  1.00  0.00     0.156 C 
HETATM   23  C18 UNL     1      -0.217  -0.821   0.117  1.00  0.00     0.059 A 
HETATM   24  C19 UNL     1       0.948  -0.189  -0.293  1.00  0.00     0.004 A 
HETATM   25  C20 UNL     1       2.063  -0.932  -0.609  1.00  0.00     0.035 A 
ENDROOT
TORSDOF 0
