REMARK  2 active torsions:
REMARK  status: ('A' for Active; 'I' for Inactive)
REMARK    1  A    between atoms: C1_2  and  C2_4 
REMARK    2  A    between atoms: C7_12  and  C8_13 
ROOT
HETATM    1  C2  UNL     1       2.033  -0.501   0.108  1.00  0.00     0.247 C 
HETATM    2  N1  UNL     1       1.693   0.773   0.653  1.00  0.00    -0.367 N 
ATOM      3  H1  UNL     1       2.336   1.184   1.330  1.00  0.00     0.161 HD
HETATM    4  C3  UNL     1       0.495   1.531   0.315  1.00  0.00     0.044 A 
HETATM    5  C4  UNL     1       0.498   2.891   0.076  1.00  0.00     0.079 A 
HETATM    6  S1  UNL     1      -1.138   3.261  -0.274  1.00  0.00    -0.111 SA
HETATM    7  C5  UNL     1      -1.781   1.696  -0.109  1.00  0.00     0.060 A 
HETATM    8  C6  UNL     1      -0.704   0.925   0.215  1.00  0.00    -0.005 A 
HETATM    9  C7  UNL     1      -0.755  -0.576   0.483  1.00  0.00     0.136 C 
HETATM   10  S3  UNL     1       0.551  -1.258  -0.599  1.00  0.00    -0.117 SA
ENDROOT
BRANCH   9  11
HETATM   11  C8  UNL     1      -2.059  -1.147   0.181  1.00  0.00     0.042 A 
HETATM   12  C9  UNL     1      -3.203  -1.329   0.968  1.00  0.00     0.095 A 
HETATM   13  S2  UNL     1      -4.080  -2.036  -0.292  1.00  0.00    -0.025 SA
HETATM   14  N2  UNL     1      -2.582  -1.686  -0.954  1.00  0.00    -0.328 N 
ATOM     15  H2  UNL     1      -2.195  -1.828  -1.887  1.00  0.00     0.174 HD
ENDBRANCH   9  11
BRANCH   1  16
HETATM   16  C1  UNL     1       3.108  -0.412  -0.897  1.00  0.00     0.207 C 
HETATM   17  O1  UNL     1       3.640   0.671  -1.215  1.00  0.00    -0.646 OA
HETATM   18  O2  UNL     1       3.523  -1.603  -1.499  1.00  0.00    -0.646 OA
ENDBRANCH   1  16
TORSDOF 2
