REMARK  1 active torsions:
REMARK  status: ('A' for Active; 'I' for Inactive)
REMARK    1  A    between atoms: C6_8  and  C7_9 
ROOT
HETATM    1  C7  UNL     1       0.558  -0.056  -0.030  1.00  0.00    -0.019 C 
HETATM    2  C8  UNL     1       1.485   0.675  -0.899  1.00  0.00     0.181 C 
HETATM    3  C9  UNL     1       0.961   1.248  -2.098  1.00  0.00     0.075 C 
HETATM    4  N2  UNL     1       0.575   1.708  -3.062  1.00  0.00    -0.196 NA
HETATM    5  C10 UNL     1       2.748  -0.064  -1.146  1.00  0.00     0.068 C 
HETATM    6  N3  UNL     1       3.788   0.469  -1.562  1.00  0.00    -0.395 N 
ATOM      7  H31 UNL     1       4.656  -0.039  -1.732  1.00  0.00     0.156 HD
ATOM      8  H32 UNL     1       3.832   1.461  -1.793  1.00  0.00     0.156 HD
HETATM    9  S1  UNL     1       2.671  -1.796  -0.742  1.00  0.00    -0.061 SA
HETATM   10  C11 UNL     1       2.153  -1.702   1.011  1.00  0.00     0.068 C 
HETATM   11  N4  UNL     1       2.686  -2.365   1.897  1.00  0.00    -0.395 N 
ATOM     12  H41 UNL     1       2.397  -2.313   2.874  1.00  0.00     0.156 HD
ATOM     13  H42 UNL     1       3.448  -3.029   1.758  1.00  0.00     0.156 HD
HETATM   14  C12 UNL     1       1.015  -0.711   1.218  1.00  0.00     0.181 C 
HETATM   15  C13 UNL     1      -0.100  -1.628   1.692  1.00  0.00     0.075 C 
HETATM   16  N5  UNL     1      -0.964  -2.307   2.056  1.00  0.00    -0.196 NA
ENDROOT
BRANCH   1  17
HETATM   17  C6  UNL     1      -0.869   0.350  -0.043  1.00  0.00    -0.001 A 
HETATM   18  C2  UNL     1      -1.522   1.087   0.944  1.00  0.00    -0.034 A 
HETATM   19  C1  UNL     1      -0.923   1.782   2.089  1.00  0.00     0.050 C 
HETATM   20  C3  UNL     1      -2.854   1.069   0.610  1.00  0.00     0.095 A 
HETATM   21  N1  UNL     1      -3.074   0.387  -0.492  1.00  0.00    -0.368 N 
HETATM   22  C4  UNL     1      -1.868  -0.076  -0.927  1.00  0.00     0.016 A 
ATOM     23  H1  UNL     1      -3.978   0.233  -0.938  1.00  0.00     0.165 HD
HETATM   24  C5  UNL     1      -1.743  -0.996  -2.087  1.00  0.00     0.069 C 
ENDBRANCH   1  17
TORSDOF 1
