REMARK  4 active torsions:
REMARK  status: ('A' for Active; 'I' for Inactive)
REMARK    1  A    between atoms: C2_2  and  C3_3 
REMARK    2  A    between atoms: C3_3  and  C4_4 
REMARK    3  A    between atoms: C4_4  and  N1_5 
REMARK    4  A    between atoms: N1_5  and  N2_7 
ROOT
HETATM    1  N1  UNL     1      -0.061  -0.084   1.116  1.00  0.00    -0.354 N 
ATOM      2  H1  UNL     1       0.374   0.299   1.955  1.00  0.00     0.174 HD
ENDROOT
BRANCH   1   3
HETATM    3  C4  UNL     1       0.528   0.044  -0.185  1.00  0.00     0.137 C 
BRANCH   3   4
HETATM    4  C3  UNL     1       1.838   0.816  -0.040  1.00  0.00     0.047 C 
BRANCH   4   5
HETATM    5  C2  UNL     1       2.459   0.955  -1.380  1.00  0.00    -0.035 C 
HETATM    6  C1  UNL     1       3.656   0.472  -1.659  1.00  0.00     0.007 C 
ENDBRANCH   4   5
ENDBRANCH   3   4
ENDBRANCH   1   3
BRANCH   1   7
HETATM    7  N2  UNL     1      -1.250  -0.759   1.147  1.00  0.00    -0.236 NA
HETATM    8  C5  UNL     1      -2.376   0.147   1.044  1.00  0.00     0.114 C 
HETATM    9  C6  UNL     1      -2.986  -0.667  -0.043  1.00  0.00     0.032 C 
HETATM   10  C7  UNL     1      -1.678  -1.461  -0.011  1.00  0.00     0.114 C 
ENDBRANCH   1   7
TORSDOF 4
