REMARK  3 active torsions:
REMARK  status: ('A' for Active; 'I' for Inactive)
REMARK    1  A    between atoms: C2_2  and  N1_4 
REMARK       I    between atoms: N1_4  and  C4_6 
REMARK       I    between atoms: C4_6  and  N4_12 
REMARK    2  A    between atoms: N2_7  and  C5_9 
REMARK    3  A    between atoms: N4_12  and  S2_14 
ROOT
HETATM    1  N1  UNL     1       0.786  -0.329  -0.683  1.00  0.00    -0.222 N 
ATOM      2  H1  UNL     1       0.713  -0.877  -1.540  1.00  0.00     0.178 HD
HETATM    3  C4  UNL     1      -0.387  -0.149   0.092  1.00  0.00     0.689 C 
HETATM    4  N2  UNL     1      -1.109   0.884  -0.073  1.00  0.00    -0.168 N 
ATOM      5  H2  UNL     1      -1.942   0.961   0.511  1.00  0.00     0.186 HD
HETATM    6  N4  UNL     1      -0.765  -1.122   1.058  1.00  0.00    -0.117 N 
ATOM      7  H4  UNL     1      -0.060  -1.749   1.446  1.00  0.00     0.197 HD
ENDROOT
BRANCH   1   8
HETATM    8  C2  UNL     1       2.064   0.208  -0.340  1.00  0.00     0.091 C 
HETATM    9  C1  UNL     1       3.104  -0.162  -1.369  1.00  0.00     0.032 C 
HETATM   10  C3  UNL     1       2.553  -0.220   1.024  1.00  0.00     0.032 C 
ENDBRANCH   1   8
BRANCH   4  11
HETATM   11  C5  UNL     1      -0.874   1.925  -0.977  1.00  0.00     0.199 C 
HETATM   12  N3  UNL     1      -1.145   3.267  -0.555  1.00  0.00    -0.069 NA
HETATM   13  S1  UNL     1      -0.308   1.720  -2.496  1.00  0.00    -0.044 SA
ENDBRANCH   4  11
BRANCH   6  14
HETATM   14  S2  UNL     1      -2.399  -1.252   1.578  1.00  0.00     0.240 S 
HETATM   15  C6  UNL     1      -3.465  -1.666   0.210  1.00  0.00     0.186 C 
HETATM   16  O1  UNL     1      -2.878   0.082   2.100  1.00  0.00    -0.206 OA
HETATM   17  O2  UNL     1      -2.515  -2.325   2.585  1.00  0.00    -0.206 OA
ENDBRANCH   6  14
TORSDOF 3
