REMARK  6 active torsions:
REMARK  status: ('A' for Active; 'I' for Inactive)
REMARK    1  A    between atoms: N2_9  and  C6_11 
REMARK    2  A    between atoms: C6_11  and  C7_12 
REMARK    3  A    between atoms: C6_11  and  C12_18 
REMARK    4  A    between atoms: C7_12  and  C8_13 
REMARK       I    between atoms: C12_18  and  N3_20 
REMARK    5  A    between atoms: N3_20  and  C13_22 
REMARK    6  A    between atoms: C13_22  and  C14_23 
ROOT
HETATM    1  C6  UNL     1      -0.645   0.080   0.123  1.00  0.00     0.177 C 
ENDROOT
BRANCH   1   2
HETATM    2  N2  UNL     1      -1.820  -0.698   0.311  1.00  0.00    -0.362 N 
HETATM    3  C5  UNL     1      -2.584  -1.206  -0.576  1.00  0.00     0.108 A 
HETATM    4  N1  UNL     1      -2.421  -1.099  -1.899  1.00  0.00    -0.350 N 
HETATM    5  C19 UNL     1      -3.681  -1.931  -0.133  1.00  0.00    -0.011 A 
HETATM    6  C4  UNL     1      -3.270  -1.663  -2.765  1.00  0.00     0.114 A 
ATOM      7  H1  UNL     1      -1.625  -0.571  -2.258  1.00  0.00     0.166 HD
HETATM    8  C3  UNL     1      -4.381  -2.397  -2.333  1.00  0.00     0.056 A 
HETATM    9  C2  UNL     1      -4.589  -2.533  -0.975  1.00  0.00    -0.029 A 
HETATM   10 CL1  UNL     1      -5.501  -3.139  -3.432  1.00  0.00    -0.082 Cl
HETATM   11  C1  UNL     1      -5.752  -3.302  -0.432  1.00  0.00     0.050 C 
HETATM   12  C20 UNL     1      -3.900  -2.074   1.325  1.00  0.00     0.052 C 
ATOM     13  H2  UNL     1      -2.087  -0.873   1.280  1.00  0.00     0.162 HD
ENDBRANCH   1   2
BRANCH   1  14
HETATM   14  C7  UNL     1      -0.562   1.257   1.073  1.00  0.00     0.066 C 
BRANCH  14  15
HETATM   15  C8  UNL     1      -1.728   2.200   0.908  1.00  0.00     0.123 C 
HETATM   16  C9  UNL     1      -1.580   3.347   1.883  1.00  0.00     0.034 C 
HETATM   17  C10 UNL     1      -1.032   4.503   1.080  1.00  0.00     0.029 C 
HETATM   18  C11 UNL     1      -0.816   3.863  -0.276  1.00  0.00     0.168 C 
HETATM   19  O1  UNL     1      -1.745   2.835  -0.315  1.00  0.00    -0.386 OA
ENDBRANCH  14  15
ENDBRANCH   1  14
BRANCH   1  20
HETATM   20  C12 UNL     1       0.542  -0.754   0.393  1.00  0.00     0.240 C 
HETATM   21  O2  UNL     1       0.380  -1.946   0.728  1.00  0.00    -0.271 OA
HETATM   22  N3  UNL     1       1.832  -0.211   0.275  1.00  0.00    -0.359 N 
ATOM     23  H3  UNL     1       1.956   0.764   0.001  1.00  0.00     0.162 HD
BRANCH  22  24
HETATM   24  C13 UNL     1       2.997  -1.053   0.548  1.00  0.00     0.127 C 
BRANCH  24  25
HETATM   25  C14 UNL     1       4.225  -0.203   0.340  1.00  0.00     0.003 C 
HETATM   26  C15 UNL     1       5.430  -1.103   0.631  1.00  0.00     0.006 C 
HETATM   27  C16 UNL     1       6.558  -0.401  -0.088  1.00  0.00     0.000 C 
HETATM   28  C17 UNL     1       5.916   0.531  -1.101  1.00  0.00     0.000 C 
HETATM   29  C18 UNL     1       4.440   0.134  -1.109  1.00  0.00     0.006 C 
ENDBRANCH  24  25
ENDBRANCH  22  24
ENDBRANCH   1  20
TORSDOF 6
