REMARK  14 active torsions:
REMARK  status: ('A' for Active; 'I' for Inactive)
REMARK    1  A    between atoms: C2_2  and  C3_3 
REMARK    2  A    between atoms: C3_3  and  C4_4 
REMARK    3  A    between atoms: C5_5  and  C6_6 
REMARK    4  A    between atoms: C6_6  and  C7_7 
REMARK    5  A    between atoms: C7_7  and  C8_8 
REMARK    6  A    between atoms: C8_8  and  C9_9 
REMARK    7  A    between atoms: C11_13  and  N2_14 
REMARK    8  A    between atoms: N2_14  and  C12_16 
REMARK    9  A    between atoms: C12_16  and  C13_17 
REMARK   10  A    between atoms: C13_17  and  N3_18 
REMARK   11  A    between atoms: C14_24  and  N5_25 
REMARK   12  A    between atoms: N5_25  and  C15_27 
REMARK   13  A    between atoms: C15_27  and  C16_28 
REMARK   14  A    between atoms: C16_28  and  O1_29 
ROOT
HETATM    1  C4  UNL     1      -0.473  -1.356  -0.340  1.00  0.00     0.031 A 
HETATM    2  C5  UNL     1       0.309  -0.257  -0.174  1.00  0.00     0.059 A 
HETATM    3  N1  UNL     1      -0.251   0.949   0.091  1.00  0.00    -0.191 N 
ATOM      4  H1  UNL     1       0.366   1.752   0.212  1.00  0.00     0.184 HD
HETATM    5  C11 UNL     1      -1.569   1.142   0.202  1.00  0.00     0.680 A 
HETATM    6  N4  UNL     1      -2.376   0.101   0.047  1.00  0.00    -0.176 N 
ATOM      7  H4  UNL     1      -3.385   0.226   0.128  1.00  0.00     0.186 HD
HETATM    8  C14 UNL     1      -1.879  -1.105  -0.213  1.00  0.00     0.129 A 
ENDROOT
BRANCH   5   9
HETATM    9  N2  UNL     1      -2.046   2.329   0.459  1.00  0.00    -0.224 N 
ATOM     10  H2  UNL     1      -3.053   2.467   0.543  1.00  0.00     0.177 HD
BRANCH   9  11
HETATM   11  C12 UNL     1      -1.157   3.435   0.623  1.00  0.00     0.165 C 
BRANCH  11  12
HETATM   12  C13 UNL     1      -1.884   4.748   0.805  1.00  0.00     0.249 C 
BRANCH  12  13
HETATM   13  N3  UNL     1      -2.705   4.644   1.980  1.00  0.00    -0.078 N 
ATOM     14  H33 UNL     1      -3.337   3.844   1.949  1.00  0.00     0.274 HD
ATOM     15  H32 UNL     1      -2.176   4.369   2.807  1.00  0.00     0.274 HD
ATOM     16  H31 UNL     1      -3.195   5.530   2.103  1.00  0.00     0.274 HD
ENDBRANCH  12  13
ENDBRANCH  11  12
ENDBRANCH   9  11
ENDBRANCH   5   9
BRANCH   2  17
HETATM   17  C6  UNL     1       1.611  -0.282  -0.297  1.00  0.00     0.004 C 
BRANCH  17  18
HETATM   18  C7  UNL     1       2.356   1.033  -0.077  1.00  0.00     0.029 C 
BRANCH  18  19
HETATM   19  C8  UNL     1       3.846   0.740  -0.210  1.00  0.00     0.003 C 
BRANCH  19  20
HETATM   20  C9  UNL     1       4.568   2.040   0.008  1.00  0.00    -0.004 C 
HETATM   21  C10 UNL     1       6.061   1.764  -0.122  1.00  0.00     0.005 C 
ENDBRANCH  19  20
ENDBRANCH  18  19
ENDBRANCH  17  18
ENDBRANCH   2  17
BRANCH   8  22
HETATM   22  N5  UNL     1      -2.640  -2.138  -0.370  1.00  0.00    -0.373 N 
ATOM     23  H5  UNL     1      -2.216  -3.044  -0.568  1.00  0.00     0.161 HD
BRANCH  22  24
HETATM   24  C15 UNL     1      -4.061  -2.039  -0.272  1.00  0.00     0.147 C 
BRANCH  24  25
HETATM   25  C16 UNL     1      -4.706  -3.388  -0.374  1.00  0.00     0.183 C 
BRANCH  25  26
HETATM   26  O1  UNL     1      -4.266  -4.228   0.644  1.00  0.00    -0.399 OA
ATOM     27  H1  UNL     1      -4.675  -5.083   0.579  1.00  0.00     0.209 HD
ENDBRANCH  25  26
ENDBRANCH  24  25
ENDBRANCH  22  24
ENDBRANCH   8  22
BRANCH   1  28
HETATM   28  C3  UNL     1      -0.095  -2.550  -0.549  1.00  0.00    -0.010 C 
BRANCH  28  29
HETATM   29  C2  UNL     1       1.169  -3.225  -0.688  1.00  0.00     0.023 C 
HETATM   30  C1  UNL     1       0.976  -4.770  -0.727  1.00  0.00     0.009 C 
ENDBRANCH  28  29
ENDBRANCH   1  28
TORSDOF 14
