REMARK  5 active torsions:
REMARK  status: ('A' for Active; 'I' for Inactive)
REMARK    1  A    between atoms: C2_3  and  O1_4 
REMARK    2  A    between atoms: C4_7  and  C13_20 
REMARK    3  A    between atoms: C7_10  and  C8_11 
REMARK    4  A    between atoms: C9_12  and  S1_13 
REMARK    5  A    between atoms: S1_13  and  C10_14 
ROOT
HETATM    1  N1  UNL     1      -1.171   2.741  -2.486  1.00  0.00    -0.194 NA
HETATM    2  C1  UNL     1      -1.487   2.175  -1.516  1.00  0.00     0.098 C 
HETATM    3  C2  UNL     1      -1.978   1.306  -0.432  1.00  0.00     0.150 C 
HETATM    4  C3  UNL     1      -2.293  -0.058  -0.984  1.00  0.00     0.059 C 
HETATM    5  C4  UNL     1      -1.607  -1.184  -0.217  1.00  0.00    -0.002 C 
HETATM    6  C5  UNL     1      -2.035  -0.943   1.235  1.00  0.00     0.006 C 
HETATM    7  C6  UNL     1      -1.461   0.373   1.678  1.00  0.00     0.009 C 
HETATM    8  C7  UNL     1      -0.803   1.145   0.542  1.00  0.00     0.040 C 
ENDROOT
BRANCH   3   9
HETATM    9  O1  UNL     1      -3.065   1.906   0.191  1.00  0.00    -0.375 OA
ATOM     10  H1  UNL     1      -3.382   1.346   0.890  1.00  0.00     0.211 HD
ENDBRANCH   3   9
BRANCH   8  11
HETATM   11  C8  UNL     1       0.189   0.427  -0.241  1.00  0.00     0.017 C 
HETATM   12  C9  UNL     1       1.596   0.304   0.184  1.00  0.00     0.065 C 
HETATM   13  C11 UNL     1       1.781  -1.172  -0.106  1.00  0.00     0.001 C 
HETATM   14  C12 UNL     1       0.788  -1.531  -1.210  1.00  0.00     0.016 C 
HETATM   15  C14 UNL     1       0.685  -1.713   0.807  1.00  0.00     0.016 C 
HETATM   16  C13 UNL     1      -0.187  -1.052  -0.219  1.00  0.00    -0.031 C 
BRANCH  12  17
HETATM   17  S1  UNL     1       2.765   1.284  -0.768  1.00  0.00    -0.050 SA
BRANCH  17  18
HETATM   18  C10 UNL     1       4.461   0.817  -0.325  1.00  0.00     0.443 C 
HETATM   19  F1  UNL     1       4.590   0.689   1.051  1.00  0.00    -0.160 F 
HETATM   20  F2  UNL     1       5.362   1.803  -0.715  1.00  0.00    -0.160 F 
HETATM   21  F3  UNL     1       4.866  -0.336  -0.978  1.00  0.00    -0.160 F 
ENDBRANCH  17  18
ENDBRANCH  12  17
ENDBRANCH   8  11
TORSDOF 5
