REMARK  3 active torsions:
REMARK  status: ('A' for Active; 'I' for Inactive)
REMARK       I    between atoms: C1_2  and  N1_3 
REMARK    1  A    between atoms: C1_2  and  C7_13 
REMARK    2  A    between atoms: N1_3  and  C2_5 
REMARK    3  A    between atoms: C12_20  and  C13_21 
ROOT
HETATM    1  O1  UNL     1       0.150  -1.646   0.346  1.00  0.00    -0.273 OA
HETATM    2  C1  UNL     1      -0.025  -0.686  -0.441  1.00  0.00     0.226 C 
HETATM    3  N1  UNL     1       1.080   0.195  -0.659  1.00  0.00    -0.333 N 
ATOM      4  H1  UNL     1       0.959   0.983  -1.296  1.00  0.00     0.164 HD
ENDROOT
BRANCH   2   5
HETATM    5  C7  UNL     1      -1.329  -0.505  -1.097  1.00  0.00     0.114 C 
HETATM    6  C8  UNL     1      -1.855   0.860  -0.693  1.00  0.00     0.053 C 
HETATM    7  C9  UNL     1      -2.331   0.649   0.730  1.00  0.00     0.147 C 
HETATM    8  S1  UNL     1      -3.987   1.404   0.998  1.00  0.00    -0.139 SA
HETATM    9  N3  UNL     1      -2.643  -0.714   0.781  1.00  0.00    -0.364 N 
HETATM   10  C10 UNL     1      -4.758  -0.078   1.755  1.00  0.00     0.120 C 
HETATM   11  C11 UNL     1      -3.674  -1.076   1.621  1.00  0.00     0.070 C 
HETATM   12  C12 UNL     1      -2.339  -1.415  -0.388  1.00  0.00     0.199 C 
BRANCH  12  13
HETATM   13  C13 UNL     1      -3.418  -1.705  -1.325  1.00  0.00     0.197 C 
HETATM   14  O2  UNL     1      -4.604  -1.359  -1.145  1.00  0.00    -0.646 OA
HETATM   15  O3  UNL     1      -3.127  -2.403  -2.483  1.00  0.00    -0.646 OA
ENDBRANCH  12  13
ENDBRANCH   2   5
BRANCH   3  16
HETATM   16  C2  UNL     1       2.347   0.017  -0.021  1.00  0.00     0.286 C 
HETATM   17  C3  UNL     1       2.730   1.151   0.891  1.00  0.00     0.054 C 
HETATM   18  C4  UNL     1       3.736   2.072   0.197  1.00  0.00     0.005 C 
HETATM   19  C5  UNL     1       5.007   1.341  -0.148  1.00  0.00     0.028 C 
HETATM   20  C6  UNL     1       4.688  -0.108  -0.442  1.00  0.00     0.235 C 
HETATM   21  N2  UNL     1       3.377  -0.287  -0.994  1.00  0.00    -0.054 N 
ATOM     22  H22 UNL     1       3.260  -1.223  -1.382  1.00  0.00     0.279 HD
ATOM     23  H21 UNL     1       3.255   0.255  -1.849  1.00  0.00     0.279 HD
ENDBRANCH   3  16
TORSDOF 3
