REMARK  4 active torsions:
REMARK  status: ('A' for Active; 'I' for Inactive)
REMARK    1  A    between atoms: O1_2  and  C2_3 
REMARK    2  A    between atoms: C2_3  and  N1_4 
REMARK    3  A    between atoms: C4_11  and  N5_12 
REMARK    4  A    between atoms: N5_12  and  N6_14 
ROOT
HETATM    1  C2  UNL     1       0.422   0.270   0.309  1.00  0.00     0.317 C 
HETATM    2  N4  UNL     1      -0.804   0.254   1.083  1.00  0.00    -0.164 N 
ATOM      3  H4  UNL     1      -0.872   0.418   2.088  1.00  0.00     0.183 HD
HETATM    4  C4  UNL     1      -1.895  -0.026   0.218  1.00  0.00     0.699 C 
HETATM    5  N7  UNL     1      -1.480   0.124  -0.987  1.00  0.00    -0.152 N 
ATOM      6  H7  UNL     1      -2.067  -0.016  -1.809  1.00  0.00     0.187 HD
HETATM    7  C5  UNL     1      -0.114   0.507  -1.050  1.00  0.00     0.315 C 
HETATM    8  O2  UNL     1       0.436   0.943  -2.086  1.00  0.00    -0.265 OA
ENDROOT
BRANCH   1   9
HETATM    9  O1  UNL     1       1.290   1.262   0.733  1.00  0.00    -0.341 OA
HETATM   10  C1  UNL     1       0.740   2.537   0.611  1.00  0.00     0.207 C 
ENDBRANCH   1   9
BRANCH   1  11
HETATM   11  N1  UNL     1       1.060  -0.998   0.466  1.00  0.00    -0.309 N 
HETATM   12  C3  UNL     1       2.084  -1.418  -0.157  1.00  0.00     0.201 C 
HETATM   13  N2  UNL     1       2.568  -2.722   0.148  1.00  0.00    -0.067 NA
HETATM   14  N3  UNL     1       2.797  -0.685  -1.145  1.00  0.00    -0.067 NA
ATOM     15  H1  UNL     1       0.650  -1.633   1.151  1.00  0.00     0.167 HD
ENDBRANCH   1  11
BRANCH   4  16
HETATM   16  N5  UNL     1      -3.220  -0.408   0.644  1.00  0.00    -0.139 N 
ATOM     17  H5  UNL     1      -3.344  -0.895   1.531  1.00  0.00     0.205 HD
BRANCH  16  18
HETATM   18  N6  UNL     1      -4.332  -0.118  -0.144  1.00  0.00    -0.331 N 
ATOM     19  H62 UNL     1      -4.191   0.370  -1.028  1.00  0.00     0.177 HD
ATOM     20  H61 UNL     1      -5.268  -0.388   0.157  1.00  0.00     0.177 HD
ENDBRANCH  16  18
ENDBRANCH   4  16
TORSDOF 4
