REMARK  2 active torsions:
REMARK  status: ('A' for Active; 'I' for Inactive)
REMARK    1  A    between atoms: N1_7  and  O1_9 
REMARK    2  A    between atoms: C7_11  and  O2_12 
ROOT
HETATM    1  C1  UNL     1      -3.842  -1.120  -0.894  1.00  0.00     0.010 C 
HETATM    2  C2  UNL     1      -2.508  -0.744  -0.301  1.00  0.00    -0.017 C 
HETATM    3  C3  UNL     1      -2.694   0.435   0.617  1.00  0.00     0.005 C 
HETATM    4  C4  UNL     1      -2.023   1.671   0.046  1.00  0.00     0.006 C 
HETATM    5  C5  UNL     1      -0.771   2.023   0.851  1.00  0.00     0.059 C 
HETATM    6  C6  UNL     1       0.330   2.456  -0.040  1.00  0.00     0.057 C 
HETATM    7  N1  UNL     1       0.196   3.582  -0.643  1.00  0.00    -0.273 N 
ATOM      8  H1  UNL     1      -0.643   4.144  -0.503  1.00  0.00     0.193 HD
HETATM    9  C7  UNL     1       1.566   1.615  -0.241  1.00  0.00     0.263 C 
HETATM   10  N2  UNL     1       1.482   0.519   0.657  1.00  0.00    -0.382 N 
ATOM     11  H2  UNL     1       0.834   0.523   1.444  1.00  0.00     0.157 HD
HETATM   12  C8  UNL     1       2.336  -0.577   0.411  1.00  0.00     0.042 C 
HETATM   13  C9  UNL     1       3.357  -0.398  -0.653  1.00  0.00     0.040 C 
HETATM   14  C10 UNL     1       3.079  -0.897   1.714  1.00  0.00     0.040 C 
HETATM   15  C11 UNL     1       1.463  -1.793   0.084  1.00  0.00     0.197 C 
HETATM   16  O3  UNL     1       0.227  -1.367  -0.447  1.00  0.00    -0.389 OA
HETATM   17  C12 UNL     1      -0.680  -2.432  -0.332  1.00  0.00     0.168 C 
HETATM   18  C13 UNL     1      -1.933  -1.944   0.390  1.00  0.00     0.030 C 
ENDROOT
BRANCH   7  19
HETATM   19  O1  UNL     1       1.181   4.016  -1.468  1.00  0.00    -0.290 OA
ATOM     20  H1  UNL     1       1.082   4.849  -1.914  1.00  0.00     0.244 HD
ENDBRANCH   7  19
BRANCH   9  21
HETATM   21  O2  UNL     1       1.612   1.289  -1.572  1.00  0.00    -0.372 OA
ATOM     22  H2  UNL     1       2.390   0.759  -1.699  1.00  0.00     0.212 HD
ENDBRANCH   9  21
TORSDOF 2
