REMARK  3 active torsions:
REMARK  status: ('A' for Active; 'I' for Inactive)
REMARK    1  A    between atoms: N1_4  and  C4_6 
REMARK    2  A    between atoms: C7_10  and  O1_11 
REMARK    3  A    between atoms: C8_13  and  C9_14 
ROOT
HETATM    1  C4  UNL     1       2.261  -0.080   0.826  1.00  0.00     0.085 A 
HETATM    2  C5  UNL     1       2.020   1.201   0.397  1.00  0.00     0.148 A 
HETATM    3  N2  UNL     1       0.707   1.378   0.163  1.00  0.00    -0.269 N 
HETATM    4  C6  UNL     1       0.051   0.210   0.436  1.00  0.00     0.100 A 
HETATM    5  C7  UNL     1       1.015  -0.676   0.841  1.00  0.00     0.120 A 
HETATM    6  C8  UNL     1      -1.381   0.084   0.291  1.00  0.00     0.248 C 
HETATM    7  N3  UNL     1      -1.750   0.654  -0.992  1.00  0.00    -0.059 N 
ATOM      8  H31 UNL     1      -2.533   0.157  -1.417  1.00  0.00     0.278 HD
ATOM      9  H32 UNL     1      -1.046   0.468  -1.706  1.00  0.00     0.278 HD
HETATM   10  C13 UNL     1      -2.017   2.053  -0.859  1.00  0.00     0.202 C 
HETATM   11  C14 UNL     1      -3.269   2.485  -1.597  1.00  0.00     0.041 C 
HETATM   12  C15 UNL     1      -0.828   2.895  -1.239  1.00  0.00     0.172 C 
HETATM   13  N4  UNL     1       0.243   2.623  -0.300  1.00  0.00    -0.328 N 
ATOM     14  H4  UNL     1       0.723   3.442   0.074  1.00  0.00     0.180 HD
ENDROOT
BRANCH   1  15
HETATM   15  N1  UNL     1       3.526  -0.618   1.165  1.00  0.00    -0.361 N 
HETATM   16  C2  UNL     1       4.458  -0.878   0.339  1.00  0.00    -0.021 C 
HETATM   17  C1  UNL     1       4.344  -0.651  -1.113  1.00  0.00     0.062 C 
HETATM   18  C3  UNL     1       5.726  -1.441   0.869  1.00  0.00     0.062 C 
ATOM     19  H1  UNL     1       3.704  -0.813   2.150  1.00  0.00     0.165 HD
ENDBRANCH   1  15
BRANCH   5  20
HETATM   20  O1  UNL     1       0.782  -1.964   1.207  1.00  0.00    -0.356 OA
ATOM     21  H1  UNL     1      -0.075  -2.374   1.217  1.00  0.00     0.218 HD
ENDBRANCH   5  20
BRANCH   6  22
HETATM   22  C9  UNL     1      -2.093  -1.155   0.531  1.00  0.00    -0.017 C 
HETATM   23  C10 UNL     1      -3.584  -0.808   0.242  1.00  0.00     0.017 C 
HETATM   24  C11 UNL     1      -1.814  -2.309  -0.397  1.00  0.00     0.017 C 
HETATM   25  C12 UNL     1      -2.134  -1.577   2.001  1.00  0.00     0.017 C 
ENDBRANCH   6  22
TORSDOF 3
