REMARK  6 active torsions:
REMARK  status: ('A' for Active; 'I' for Inactive)
REMARK    1  A    between atoms: C3_7  and  S1_8 
REMARK    2  A    between atoms: S1_8  and  C4_9 
REMARK    3  A    between atoms: C6_11  and  S2_12 
REMARK    4  A    between atoms: S2_12  and  C7_13 
REMARK    5  A    between atoms: C7_13  and  N3_14 
REMARK    6  A    between atoms: N7_26  and  C11_27 
ROOT
HETATM    1  C4  UNL     1       1.659  -1.003  -0.265  1.00  0.00     0.035 A 
HETATM    2  C5  UNL     1       2.592  -0.192   0.324  1.00  0.00     0.057 A 
HETATM    3  C6  UNL     1       3.895  -0.627   0.411  1.00  0.00     0.077 A 
HETATM    4  N4  UNL     1       4.311  -1.817  -0.054  1.00  0.00    -0.336 N 
ATOM      5  H4  UNL     1       5.288  -2.098   0.032  1.00  0.00     0.168 HD
HETATM    6  C8  UNL     1       3.401  -2.638  -0.642  1.00  0.00     0.122 A 
HETATM    7  N5  UNL     1       3.822  -3.791  -1.088  1.00  0.00    -0.384 N 
ATOM      8  H51 UNL     1       3.139  -4.407  -1.529  1.00  0.00     0.157 HD
ATOM      9  H52 UNL     1       4.794  -4.091  -1.012  1.00  0.00     0.157 HD
HETATM   10  C9  UNL     1       2.110  -2.239  -0.743  1.00  0.00     0.105 A 
HETATM   11  C10 UNL     1       1.172  -3.141  -1.375  1.00  0.00     0.104 C 
HETATM   12  N6  UNL     1       0.419  -3.863  -1.876  1.00  0.00    -0.191 NA
ENDROOT
BRANCH   1  13
HETATM   13  S1  UNL     1      -0.050  -0.628  -0.470  1.00  0.00    -0.051 SA
BRANCH  13  14
HETATM   14  C3  UNL     1      -0.555   0.959   0.161  1.00  0.00     0.173 A 
HETATM   15  N2  UNL     1       0.168   1.908   0.767  1.00  0.00    -0.278 N 
HETATM   16  N1  UNL     1      -0.600   2.930   1.074  1.00  0.00    -0.287 N 
ATOM     17  H2  UNL     1       1.167   1.847   0.962  1.00  0.00     0.189 HD
HETATM   18  C2  UNL     1      -1.851   2.655   0.666  1.00  0.00     0.102 A 
ATOM     19  H1  UNL     1      -0.298   3.785   1.542  1.00  0.00     0.188 HD
HETATM   20  C1  UNL     1      -2.996   3.608   0.857  1.00  0.00     0.091 C 
HETATM   21  N7  UNL     1      -1.824   1.451   0.108  1.00  0.00    -0.262 N 
BRANCH  21  22
HETATM   22  C11 UNL     1      -2.941   0.795  -0.449  1.00  0.00     0.145 A 
HETATM   23  N8  UNL     1      -3.078   0.691  -1.782  1.00  0.00    -0.292 N 
HETATM   24  C12 UNL     1      -4.150   0.062  -2.289  1.00  0.00     0.328 A 
ATOM     25  H8  UNL     1      -2.373   1.087  -2.404  1.00  0.00     0.172 HD
HETATM   26  O1  UNL     1      -4.356  -0.081  -3.522  1.00  0.00    -0.247 OA
HETATM   27  N9  UNL     1      -5.089  -0.464  -1.456  1.00  0.00    -0.274 N 
HETATM   28  C13 UNL     1      -4.969  -0.369  -0.118  1.00  0.00     0.274 A 
ATOM     29  H9  UNL     1      -5.899  -0.939  -1.853  1.00  0.00     0.173 HD
HETATM   30  O2  UNL     1      -5.814  -0.841   0.680  1.00  0.00    -0.266 OA
HETATM   31  C14 UNL     1      -3.876   0.273   0.430  1.00  0.00     0.157 A 
HETATM   32  C15 UNL     1      -3.731   0.385   1.866  1.00  0.00     0.109 C 
HETATM   33  N10 UNL     1      -3.623   0.484   3.012  1.00  0.00    -0.191 NA
ENDBRANCH  21  22
ENDBRANCH  13  14
ENDBRANCH   1  13
BRANCH   3  34
HETATM   34  S2  UNL     1       5.066   0.489   1.196  1.00  0.00    -0.068 SA
BRANCH  34  35
HETATM   35  C7  UNL     1       6.685  -0.271   1.201  1.00  0.00     0.133 C 
BRANCH  35  36
HETATM   36  N3  UNL     1       7.446  -0.243   2.247  1.00  0.00    -0.403 N 
ATOM     37  H32 UNL     1       7.099   0.229   3.082  1.00  0.00     0.155 HD
ATOM     38  H31 UNL     1       8.369  -0.676   2.250  1.00  0.00     0.155 HD
ENDBRANCH  35  36
ENDBRANCH  34  35
ENDBRANCH   3  34
TORSDOF 6
