REMARK  7 active torsions:
REMARK  status: ('A' for Active; 'I' for Inactive)
REMARK    1  A    between atoms: C2_2  and  N1_3 
REMARK    2  A    between atoms: N1_3  and  C3_4 
REMARK    3  A    between atoms: N1_3  and  C5_6 
REMARK    4  A    between atoms: C5_6  and  C6_8 
REMARK    5  A    between atoms: C14_17  and  C15_18 
REMARK       I    between atoms: C15_18  and  N2_20 
REMARK    6  A    between atoms: N2_20  and  C16_22 
REMARK    7  A    between atoms: C23_30  and  O3_31 
ROOT
HETATM    1  C16 UNL     1      -5.437  -1.961   0.646  1.00  0.00     0.188 C 
HETATM    2  C17 UNL     1      -4.773  -3.205   1.186  1.00  0.00     0.048 C 
HETATM    3  C18 UNL     1      -6.392  -2.396  -0.402  1.00  0.00     0.084 C 
HETATM    4  N3  UNL     1      -7.150  -2.727  -1.216  1.00  0.00    -0.195 NA
ENDROOT
BRANCH   1   5
HETATM    5  N2  UNL     1      -4.494  -1.052   0.025  1.00  0.00    -0.344 N 
HETATM    6  C15 UNL     1      -4.391   0.314   0.370  1.00  0.00     0.223 C 
HETATM    7  O2  UNL     1      -5.166   0.745   1.262  1.00  0.00    -0.273 OA
ATOM      8  H2  UNL     1      -3.873  -1.417  -0.698  1.00  0.00     0.163 HD
BRANCH   6   9
HETATM    9  C14 UNL     1      -3.423   1.180  -0.283  1.00  0.00     0.086 C 
HETATM   10  C13 UNL     1      -3.412   1.102  -1.770  1.00  0.00     0.015 C 
HETATM   11  C12 UNL     1      -2.033   1.546  -2.179  1.00  0.00     0.007 C 
HETATM   12  C11 UNL     1      -1.271   1.810  -0.900  1.00  0.00     0.001 C 
HETATM   13  C10 UNL     1       0.195   1.648  -1.031  1.00  0.00     0.026 C 
HETATM   14  C19 UNL     1      -1.979   0.959   0.090  1.00  0.00    -0.028 C 
HETATM   15  C9  UNL     1       0.968   2.751  -0.325  1.00  0.00     0.015 C 
HETATM   16  C23 UNL     1       0.758   0.293  -0.724  1.00  0.00     0.078 C 
HETATM   17  C8  UNL     1       2.304   2.904  -1.039  1.00  0.00     0.080 C 
HETATM   18  C7  UNL     1       2.802   1.508  -1.214  1.00  0.00     0.140 C 
HETATM   19  C6  UNL     1       2.196   0.492  -0.319  1.00  0.00     0.151 C 
HETATM   20  O1  UNL     1       3.639   1.279  -2.039  1.00  0.00    -0.297 OA
HETATM   21  C22 UNL     1      -0.026  -0.462   0.294  1.00  0.00     0.040 C 
HETATM   22  C21 UNL     1      -1.491  -0.443  -0.075  1.00  0.00     0.013 C 
HETATM   23  C20 UNL     1      -1.833   1.456   1.515  1.00  0.00     0.016 C 
BRANCH  19  24
HETATM   24  C5  UNL     1       3.024  -0.744  -0.299  1.00  0.00     0.090 C 
HETATM   25  S1  UNL     1       2.481  -2.042  -1.108  1.00  0.00    -0.065 SA
BRANCH  24  26
HETATM   26  N1  UNL     1       4.229  -0.789   0.385  1.00  0.00    -0.375 N 
BRANCH  26  27
HETATM   27  C2  UNL     1       4.716   0.406   1.127  1.00  0.00     0.119 C 
HETATM   28  C1  UNL     1       4.684   0.138   2.617  1.00  0.00     0.026 C 
ENDBRANCH  26  27
BRANCH  26  29
HETATM   29  C3  UNL     1       5.121  -1.885   0.485  1.00  0.00     0.119 C 
HETATM   30  C4  UNL     1       4.833  -3.173  -0.172  1.00  0.00     0.026 C 
ENDBRANCH  26  29
ENDBRANCH  24  26
ENDBRANCH  19  24
BRANCH  16  31
HETATM   31  O3  UNL     1       0.752  -0.423  -1.929  1.00  0.00    -0.388 OA
ATOM     32  H3  UNL     1      -0.154  -0.548  -2.184  1.00  0.00     0.210 HD
ENDBRANCH  16  31
ENDBRANCH   6   9
ENDBRANCH   1   5
TORSDOF 7
