REMARK  6 active torsions:
REMARK  status: ('A' for Active; 'I' for Inactive)
REMARK    1  A    between atoms: O1_1  and  C1_3 
REMARK    2  A    between atoms: C1_3  and  C2_4 
REMARK    3  A    between atoms: C2_4  and  C3_5 
REMARK    4  A    between atoms: C3_5  and  C4_6 
REMARK    5  A    between atoms: C4_6  and  C5_7 
REMARK    6  A    between atoms: C5_7  and  N1_8 
ROOT
HETATM    1  N1  UNL     1       0.328   0.040   0.274  1.00  0.00     0.112 N 
HETATM    2  C6  UNL     1      -0.708   0.869  -0.331  1.00  0.00     0.294 C 
HETATM    3  C7  UNL     1      -1.204   1.894   0.694  1.00  0.00     0.144 C 
HETATM    4  N2  UNL     1      -2.613   1.760   0.880  1.00  0.00    -0.419 N 
ATOM      5  H2  UNL     1      -3.027   1.513   1.779  1.00  0.00     0.153 HD
HETATM    6  C8  UNL     1      -3.394   1.997  -0.283  1.00  0.00     0.115 C 
HETATM    7  C9  UNL     1      -4.262   0.797  -0.603  1.00  0.00     0.038 C 
HETATM    8  C10 UNL     1      -4.626  -0.035   0.580  1.00  0.00     0.115 C 
HETATM    9  N3  UNL     1      -3.691  -1.072   0.859  1.00  0.00    -0.419 N 
ATOM     10  H3  UNL     1      -3.179  -1.105   1.741  1.00  0.00     0.153 HD
HETATM   11  C11 UNL     1      -3.503  -2.060  -0.148  1.00  0.00     0.140 C 
HETATM   12  C12 UNL     1      -2.027  -2.328  -0.427  1.00  0.00     0.189 C 
HETATM   13  O2  UNL     1      -1.217  -1.714   0.515  1.00  0.00    -0.361 OA
HETATM   14  C13 UNL     1       0.030  -1.376  -0.003  1.00  0.00     0.440 C 
ENDROOT
BRANCH   1  15
HETATM   15  C5  UNL     1       1.596   0.335  -0.367  1.00  0.00     0.275 C 
BRANCH  15  16
HETATM   16  C4  UNL     1       2.757  -0.266   0.387  1.00  0.00     0.030 C 
BRANCH  16  17
HETATM   17  C3  UNL     1       4.019   0.127  -0.395  1.00  0.00     0.004 C 
BRANCH  17  18
HETATM   18  C2  UNL     1       5.205  -0.401   0.361  1.00  0.00     0.026 C 
BRANCH  18  19
HETATM   19  C1  UNL     1       6.499  -0.040  -0.376  1.00  0.00     0.164 C 
BRANCH  19  20
HETATM   20  O1  UNL     1       6.529   1.352  -0.463  1.00  0.00    -0.401 OA
ATOM     21  H1  UNL     1       7.331   1.576  -0.920  1.00  0.00     0.209 HD
ENDBRANCH  19  20
ENDBRANCH  18  19
ENDBRANCH  17  18
ENDBRANCH  16  17
ENDBRANCH  15  16
ENDBRANCH   1  15
TORSDOF 6
