REMARK  1 active torsions:
REMARK  status: ('A' for Active; 'I' for Inactive)
REMARK    1  A    between atoms: C4_5  and  C5_6 
ROOT
HETATM    1  C5  UNL     1      -1.059  -0.152  -0.275  1.00  0.00     0.072 A 
HETATM    2  C6  UNL     1      -1.540  -0.282   1.019  1.00  0.00     0.173 A 
HETATM    3  F1  UNL     1      -0.713  -0.387   2.092  1.00  0.00    -0.202 F 
HETATM    4  C7  UNL     1      -2.895  -0.312   1.290  1.00  0.00     0.197 A 
HETATM    5  F2  UNL     1      -3.360  -0.441   2.574  1.00  0.00    -0.199 F 
HETATM    6  C8  UNL     1      -3.757  -0.207   0.220  1.00  0.00     0.199 A 
HETATM    7  F3  UNL     1      -5.088  -0.233   0.448  1.00  0.00    -0.199 F 
HETATM    8  C9  UNL     1      -3.324  -0.077  -1.078  1.00  0.00     0.197 A 
HETATM    9  F4  UNL     1      -4.166   0.027  -2.138  1.00  0.00    -0.199 F 
HETATM   10  C10 UNL     1      -1.968  -0.052  -1.304  1.00  0.00     0.173 A 
HETATM   11  F5  UNL     1      -1.508   0.076  -2.569  1.00  0.00    -0.202 F 
ENDROOT
BRANCH   1  12
HETATM   12  C4  UNL     1       0.391  -0.125  -0.521  1.00  0.00     0.052 A 
HETATM   13  C3  UNL     1       1.486  -0.222   0.464  1.00  0.00     0.112 A 
HETATM   14  C2  UNL     1       2.712  -0.171  -0.380  1.00  0.00     0.147 A 
HETATM   15  C1  UNL     1       3.597   1.023  -0.056  1.00  0.00     0.062 C 
HETATM   16 BR1  UNL     1       3.734  -1.811  -0.282  1.00  0.00    -0.052 Br
HETATM   17  O1  UNL     1       2.262  -0.004  -1.695  1.00  0.00    -0.257 OA
HETATM   18  N1  UNL     1       0.908  -0.008  -1.686  1.00  0.00    -0.268 N 
ATOM     19  H1  UNL     1       0.348   0.075  -2.535  1.00  0.00     0.194 HD
ENDBRANCH   1  12
TORSDOF 1
