REMARK  7 active torsions:
REMARK  status: ('A' for Active; 'I' for Inactive)
REMARK    1  A    between atoms: C2_2  and  C3_3 
REMARK    2  A    between atoms: C2_2  and  C22_26 
REMARK       I    between atoms: C3_3  and  N1_5 
REMARK    3  A    between atoms: N1_5  and  C4_7 
REMARK    4  A    between atoms: C4_7  and  C6_9 
REMARK    5  A    between atoms: C4_7  and  C12_16 
REMARK    6  A    between atoms: C22_26  and  N3_27 
REMARK    7  A    between atoms: C22_26  and  C23_31 
ROOT
HETATM    1  C4  UNL     1      -0.234   0.306   0.426  1.00  0.00     0.040 C 
HETATM    2  C5  UNL     1      -0.055   0.377   1.974  1.00  0.00     0.039 C 
ENDROOT
BRANCH   1   3
HETATM    3  N1  UNL     1       1.061  -0.048  -0.111  1.00  0.00    -0.351 N 
HETATM    4  C3  UNL     1       2.285   0.630   0.130  1.00  0.00     0.224 C 
HETATM    5  O1  UNL     1       2.429   1.634   0.855  1.00  0.00    -0.273 OA
ATOM      6  H1  UNL     1       1.099  -0.864  -0.722  1.00  0.00     0.163 HD
BRANCH   4   7
HETATM    7  C2  UNL     1       3.519   0.118  -0.527  1.00  0.00     0.105 C 
HETATM    8  C1  UNL     1       3.389   0.137  -2.034  1.00  0.00     0.022 C 
BRANCH   7   9
HETATM    9  C22 UNL     1       3.852  -1.285  -0.066  1.00  0.00     0.206 C 
BRANCH   9  10
HETATM   10  N3  UNL     1       5.117  -1.640  -0.704  1.00  0.00    -0.073 N 
ATOM     11  H33 UNL     1       5.100  -1.541  -1.719  1.00  0.00     0.274 HD
ATOM     12  H32 UNL     1       5.863  -0.968  -0.525  1.00  0.00     0.274 HD
ATOM     13  H31 UNL     1       5.341  -2.585  -0.393  1.00  0.00     0.274 HD
ENDBRANCH   9  10
BRANCH   9  14
HETATM   14  C23 UNL     1       4.131  -1.257   1.430  1.00  0.00     0.119 C 
HETATM   15  S1  UNL     1       4.527  -2.962   1.946  1.00  0.00    -0.096 SA
ENDBRANCH   9  14
ENDBRANCH   7   9
ENDBRANCH   4   7
ENDBRANCH   1   3
BRANCH   1  16
HETATM   16  C6  UNL     1      -0.607   1.650   0.017  1.00  0.00     0.017 C 
HETATM   17  C7  UNL     1      -0.750   1.975  -1.440  1.00  0.00     0.037 C 
HETATM   18  C8  UNL     1      -0.668   3.491  -1.557  1.00  0.00     0.272 C 
HETATM   19  N2  UNL     1      -0.393   4.147  -0.297  1.00  0.00     0.084 N 
HETATM   20  C9  UNL     1      -0.436   5.575  -0.556  1.00  0.00     0.309 C 
HETATM   21  C10 UNL     1      -1.418   3.865   0.683  1.00  0.00     0.272 C 
HETATM   22  C11 UNL     1      -1.717   2.356   0.735  1.00  0.00     0.037 C 
ENDBRANCH   1  16
BRANCH   1  23
HETATM   23  C12 UNL     1      -1.174  -0.825   0.205  1.00  0.00    -0.014 C 
HETATM   24  C13 UNL     1      -0.607  -2.024   0.948  1.00  0.00     0.016 C 
HETATM   25  C14 UNL     1      -1.476  -3.251   0.803  1.00  0.00    -0.013 C 
HETATM   26  C15 UNL     1      -2.804  -2.904   1.483  1.00  0.00     0.009 C 
HETATM   27  C19 UNL     1      -1.694  -3.677  -0.611  1.00  0.00     0.009 C 
HETATM   28  C16 UNL     1      -3.417  -1.819   0.678  1.00  0.00    -0.013 C 
HETATM   29  C17 UNL     1      -3.606  -2.200  -0.783  1.00  0.00     0.009 C 
HETATM   30  C21 UNL     1      -2.591  -0.540   0.641  1.00  0.00     0.016 C 
HETATM   31  C18 UNL     1      -2.267  -2.463  -1.355  1.00  0.00    -0.013 C 
HETATM   32  C20 UNL     1      -1.260  -1.337  -1.217  1.00  0.00     0.016 C 
ENDBRANCH   1  23
TORSDOF 7
