REMARK  6 active torsions:
REMARK  status: ('A' for Active; 'I' for Inactive)
REMARK    1  A    between atoms: C6_7  and  N1_8 
REMARK       I    between atoms: N1_8  and  C7_10 
REMARK    2  A    between atoms: C7_10  and  C8_12 
REMARK    3  A    between atoms: C8_12  and  C9_13 
REMARK    4  A    between atoms: C9_13  and  C10_14 
REMARK       I    between atoms: C10_14  and  N2_16 
REMARK    5  A    between atoms: N2_16  and  C11_18 
REMARK    6  A    between atoms: C18_25  and  C19_26 
ROOT
HETATM    1  N1  UNL     1      -1.814   0.851   1.217  1.00  0.00    -0.320 N 
ATOM      2  H1  UNL     1      -1.636   1.620   1.863  1.00  0.00     0.169 HD
HETATM    3  C7  UNL     1      -0.740   0.237   0.471  1.00  0.00     0.223 C 
HETATM    4  O1  UNL     1      -1.035  -0.699  -0.300  1.00  0.00    -0.273 OA
ENDROOT
BRANCH   1   5
HETATM    5  C6  UNL     1      -3.141   0.339   1.017  1.00  0.00     0.093 A 
HETATM    6  S1  UNL     1      -3.563  -0.958  -0.049  1.00  0.00    -0.075 SA
HETATM    7  C5  UNL     1      -5.220  -1.000   0.226  1.00  0.00    -0.008 A 
HETATM    8  C4  UNL     1      -6.393  -1.829  -0.276  1.00  0.00     0.047 C 
HETATM    9  C20 UNL     1      -5.438   0.000   1.150  1.00  0.00    -0.026 A 
HETATM   10  C3  UNL     1      -7.500  -0.913  -0.732  1.00  0.00     0.009 C 
HETATM   11  C2  UNL     1      -7.731   0.225   0.223  1.00  0.00    -0.014 C 
HETATM   12  C1  UNL     1      -7.453   1.581  -0.378  1.00  0.00     0.010 C 
HETATM   13  C21 UNL     1      -6.913   0.081   1.491  1.00  0.00     0.045 C 
HETATM   14  C18 UNL     1      -4.349   0.697   1.561  1.00  0.00     0.070 A 
BRANCH  14  15
HETATM   15  C19 UNL     1      -4.385   1.813   2.563  1.00  0.00     0.268 C 
HETATM   16  N3  UNL     1      -5.598   2.229   3.173  1.00  0.00    -0.057 NA
HETATM   17  O3  UNL     1      -3.348   2.420   2.902  1.00  0.00    -0.271 OA
ENDBRANCH  14  15
ENDBRANCH   1   5
BRANCH   3  18
HETATM   18  C8  UNL     1       0.646   0.714   0.629  1.00  0.00     0.112 C 
BRANCH  18  19
HETATM   19  C9  UNL     1       1.536  -0.108  -0.264  1.00  0.00     0.112 C 
BRANCH  19  20
HETATM   20  C10 UNL     1       2.951   0.292  -0.179  1.00  0.00     0.218 C 
HETATM   21  O2  UNL     1       3.246   1.238   0.599  1.00  0.00    -0.274 OA
HETATM   22  N2  UNL     1       3.910  -0.390  -0.962  1.00  0.00    -0.356 N 
ATOM     23  H2  UNL     1       3.613  -1.149  -1.575  1.00  0.00     0.162 HD
BRANCH  22  24
HETATM   24  C11 UNL     1       5.290  -0.027  -0.904  1.00  0.00     0.084 C 
HETATM   25  C12 UNL     1       5.878   0.395  -2.216  1.00  0.00     0.025 C 
HETATM   26  C13 UNL     1       7.030  -0.446  -2.664  1.00  0.00     0.002 C 
HETATM   27  C14 UNL     1       8.091  -0.645  -1.628  1.00  0.00     0.004 C 
HETATM   28  C15 UNL     1       7.545  -0.615  -0.213  1.00  0.00    -0.017 C 
HETATM   29  C16 UNL     1       8.349  -1.497   0.683  1.00  0.00     0.010 C 
HETATM   30  C17 UNL     1       6.119  -1.168  -0.305  1.00  0.00     0.029 C 
ENDBRANCH  22  24
ENDBRANCH  19  20
ENDBRANCH  18  19
ENDBRANCH   3  18
TORSDOF 6
