REMARK  5 active torsions:
REMARK  status: ('A' for Active; 'I' for Inactive)
REMARK    1  A    between atoms: C1_4  and  C2_6 
REMARK    2  A    between atoms: C4_8  and  N3_9 
REMARK    3  A    between atoms: N3_9  and  N4_11 
REMARK    4  A    between atoms: N4_11  and  C5_12 
REMARK    5  A    between atoms: C8_15  and  N5_16 
ROOT
HETATM    1  C2  UNL     1       3.166   0.581  -0.478  1.00  0.00     0.143 A 
HETATM    2  C3  UNL     1       1.890   0.378   0.016  1.00  0.00     0.094 A 
HETATM    3  C4  UNL     1       1.123   1.481  -0.288  1.00  0.00     0.140 A 
HETATM    4  N6  UNL     1       1.965   2.307  -0.952  1.00  0.00    -0.243 N 
ATOM      5  H6  UNL     1       1.715   3.224  -1.323  1.00  0.00     0.196 HD
HETATM    6  O1  UNL     1       3.135   1.761  -1.047  1.00  0.00    -0.233 OA
ENDROOT
BRANCH   3   7
HETATM    7  N3  UNL     1      -0.241   1.658   0.047  1.00  0.00    -0.288 N 
ATOM      8  H3  UNL     1      -0.728   2.513  -0.221  1.00  0.00     0.184 HD
BRANCH   7   9
HETATM    9  N4  UNL     1      -0.906   0.670   0.737  1.00  0.00    -0.133 NA
BRANCH   9  10
HETATM   10  C5  UNL     1      -1.751  -0.150  -0.109  1.00  0.00     0.129 C 
HETATM   11  C6  UNL     1      -2.838   0.667  -0.823  1.00  0.00     0.027 C 
HETATM   12  C7  UNL     1      -3.615   0.580   0.497  1.00  0.00     0.036 C 
HETATM   13  C8  UNL     1      -2.878  -0.749   0.715  1.00  0.00     0.204 C 
BRANCH  13  14
HETATM   14  N5  UNL     1      -3.598  -1.810   0.028  1.00  0.00    -0.073 N 
ATOM     15  H53 UNL     1      -3.944  -1.486  -0.875  1.00  0.00     0.274 HD
ATOM     16  H52 UNL     1      -2.956  -2.537  -0.288  1.00  0.00     0.274 HD
ATOM     17  H51 UNL     1      -4.355  -2.212   0.581  1.00  0.00     0.274 HD
ENDBRANCH  13  14
ENDBRANCH   9  10
ENDBRANCH   7   9
ENDBRANCH   3   7
BRANCH   1  18
HETATM   18  C1  UNL     1       4.317  -0.312  -0.397  1.00  0.00     0.146 C 
HETATM   19  N1  UNL     1       5.436   0.055  -0.922  1.00  0.00    -0.385 N 
ATOM     20  H12 UNL     1       6.241  -0.569  -0.865  1.00  0.00     0.157 HD
ATOM     21  H11 UNL     1       5.530   0.956  -1.392  1.00  0.00     0.157 HD
HETATM   22  N2  UNL     1       4.186  -1.568   0.258  1.00  0.00    -0.080 NA
ENDBRANCH   1  18
TORSDOF 5
