REMARK  3 active torsions:
REMARK  status: ('A' for Active; 'I' for Inactive)
REMARK    1  A    between atoms: C3_4  and  N1_5 
REMARK    2  A    between atoms: N2_8  and  C6_9 
REMARK    3  A    between atoms: C8_11  and  N3_12 
ROOT
HETATM    1  N1  UNL     1       3.203   0.159  -0.443  1.00  0.00    -0.364 N 
HETATM    2  C4  UNL     1       2.811  -1.223  -0.584  1.00  0.00     0.144 C 
HETATM    3  C5  UNL     1       1.661  -1.322  -1.600  1.00  0.00     0.144 C 
HETATM    4  N2  UNL     1       0.599  -0.498  -1.016  1.00  0.00    -0.364 N 
HETATM    5  C14 UNL     1       0.862   0.890  -0.791  1.00  0.00     0.144 C 
HETATM    6  C15 UNL     1       2.310   1.241  -0.774  1.00  0.00     0.144 C 
ENDROOT
BRANCH   4   7
HETATM    7  C6  UNL     1      -0.641  -1.120  -0.701  1.00  0.00     0.107 A 
HETATM    8  C7  UNL     1      -1.692  -0.407  -0.170  1.00  0.00     0.096 A 
HETATM    9  C8  UNL     1      -2.877  -1.034   0.125  1.00  0.00     0.107 A 
HETATM   10  N4  UNL     1      -2.987  -2.332  -0.112  1.00  0.00    -0.339 N 
HETATM   11  C13 UNL     1      -1.966  -3.058  -0.636  1.00  0.00     0.183 A 
ATOM     12  H4  UNL     1      -3.866  -2.801   0.106  1.00  0.00     0.168 HD
HETATM   13  N5  UNL     1      -0.799  -2.429  -0.923  1.00  0.00    -0.339 N 
ATOM     14  H5  UNL     1      -0.026  -2.966  -1.316  1.00  0.00     0.168 HD
BRANCH   9  15
HETATM   15  N3  UNL     1      -3.966  -0.318   0.671  1.00  0.00    -0.363 N 
HETATM   16  C9  UNL     1      -3.889   1.117   0.947  1.00  0.00     0.150 C 
HETATM   17  C10 UNL     1      -5.295   1.607   1.120  1.00  0.00     0.187 C 
HETATM   18  O2  UNL     1      -6.182   1.095   0.191  1.00  0.00    -0.388 OA
HETATM   19  C11 UNL     1      -6.390  -0.270   0.334  1.00  0.00     0.187 C 
HETATM   20  C12 UNL     1      -5.217  -0.965   0.985  1.00  0.00     0.150 C 
ENDBRANCH   9  15
ENDBRANCH   4   7
BRANCH   1  21
HETATM   21  C3  UNL     1       4.505   0.450   0.036  1.00  0.00     0.109 A 
HETATM   22  C2  UNL     1       4.993   1.732   0.141  1.00  0.00     0.122 A 
HETATM   23  C1  UNL     1       6.270   1.954   0.617  1.00  0.00     0.249 A 
HETATM   24  O1  UNL     1       6.668   3.153   0.694  1.00  0.00    -0.268 OA
HETATM   25  N7  UNL     1       7.035   0.908   0.978  1.00  0.00    -0.320 N 
HETATM   26  C16 UNL     1       6.576  -0.343   0.881  1.00  0.00     0.184 A 
ATOM     27  H7  UNL     1       7.978   1.072   1.330  1.00  0.00     0.169 HD
HETATM   28  N6  UNL     1       5.346  -0.551   0.422  1.00  0.00    -0.339 N 
ATOM     29  H6  UNL     1       5.013  -1.513   0.355  1.00  0.00     0.168 HD
ENDBRANCH   1  21
TORSDOF 3
