REMARK  4 active torsions:
REMARK  status: ('A' for Active; 'I' for Inactive)
REMARK    1  A    between atoms: C2_2  and  C3_3 
REMARK    2  A    between atoms: C3_3  and  C4_4 
REMARK    3  A    between atoms: C8_9  and  C9_10 
REMARK    4  A    between atoms: C17_21  and  O5_22 
ROOT
HETATM    1  C4  UNL     1      -1.353   0.662  -0.782  1.00  0.00     0.090 C 
HETATM    2  C5  UNL     1      -0.125   1.388  -0.557  1.00  0.00     0.171 C 
HETATM    3  O1  UNL     1      -0.066   2.578  -0.467  1.00  0.00    -0.294 OA
HETATM    4  C6  UNL     1       1.108   0.575  -0.437  1.00  0.00     0.155 C 
HETATM    5  C7  UNL     1       0.757  -0.841  -0.806  1.00  0.00     0.090 C 
HETATM    6  C8  UNL     1      -0.255  -1.317   0.223  1.00  0.00     0.093 C 
HETATM    7  O2  UNL     1       0.384  -1.390   1.423  1.00  0.00    -0.374 OA
HETATM    8  C12 UNL     1       1.029  -0.313   1.911  1.00  0.00     0.204 C 
HETATM    9  C13 UNL     1       1.697   0.585   0.937  1.00  0.00     0.191 C 
HETATM   10  O3  UNL     1       2.997   0.163   0.663  1.00  0.00    -0.345 OA
HETATM   11  C14 UNL     1       3.321   0.889  -0.486  1.00  0.00     0.159 C 
HETATM   12  C15 UNL     1       4.351   0.150  -1.327  1.00  0.00     0.078 C 
HETATM   13  C16 UNL     1       3.834   2.235  -0.029  1.00  0.00     0.078 C 
HETATM   14  O4  UNL     1       2.159   0.975  -1.223  1.00  0.00    -0.334 OA
HETATM   15  C17 UNL     1      -1.457  -0.440   0.288  1.00  0.00     0.164 C 
ENDROOT
BRANCH   1  16
HETATM   16  C3  UNL     1      -2.612   1.438  -0.860  1.00  0.00     0.014 C 
BRANCH  16  17
HETATM   17  C2  UNL     1      -2.983   2.234   0.334  1.00  0.00    -0.004 C 
HETATM   18  C1  UNL     1      -4.311   2.936   0.002  1.00  0.00     0.005 C 
ENDBRANCH  16  17
ENDBRANCH   1  16
BRANCH  15  19
HETATM   19  O5  UNL     1      -2.679  -1.064   0.207  1.00  0.00    -0.392 OA
ATOM     20  H5  UNL     1      -2.743  -1.744   0.867  1.00  0.00     0.210 HD
ENDBRANCH  15  19
BRANCH   6  21
HETATM   21  C9  UNL     1      -0.687  -2.720  -0.161  1.00  0.00     0.015 C 
HETATM   22  C10 UNL     1      -1.647  -3.273   0.833  1.00  0.00     0.012 C 
HETATM   23  C11 UNL     1       0.560  -3.592  -0.200  1.00  0.00     0.012 C 
ENDBRANCH   6  21
TORSDOF 4
