REMARK  8 active torsions:
REMARK  status: ('A' for Active; 'I' for Inactive)
REMARK       I    between atoms: C2_2  and  N1_4 
REMARK    1  A    between atoms: N1_4  and  C3_6 
REMARK    2  A    between atoms: C4_9  and  N3_10 
REMARK       I    between atoms: N3_10  and  C5_12 
REMARK    3  A    between atoms: N5_14  and  C6_16 
REMARK    4  A    between atoms: C6_16  and  C8_18 
REMARK       I    between atoms: C8_18  and  N6_20 
REMARK    5  A    between atoms: N6_20  and  O3_22 
REMARK    6  A    between atoms: O3_22  and  C9_23 
REMARK    7  A    between atoms: C10_27  and  N9_28 
REMARK    8  A    between atoms: C12_32  and  N11_33 
ROOT
HETATM    1  C8  UNL     1      -0.188  -0.070  -0.029  1.00  0.00     0.263 C 
HETATM    2  O2  UNL     1       0.345  -1.076  -0.546  1.00  0.00    -0.269 OA
HETATM    3  N6  UNL     1      -1.491  -0.080   0.536  1.00  0.00    -0.229 N 
ATOM      4  H6  UNL     1      -1.830   0.797   0.932  1.00  0.00     0.197 HD
ENDROOT
BRANCH   3   5
HETATM    5  O3  UNL     1      -2.319  -1.137   0.598  1.00  0.00    -0.225 OA
BRANCH   5   6
HETATM    6  C9  UNL     1      -3.416  -1.026  -0.209  1.00  0.00     0.414 C 
HETATM    7  N7  UNL     1      -3.808  -2.206  -0.922  1.00  0.00    -0.075 NA
HETATM    8  N8  UNL     1      -5.185  -1.976  -1.193  1.00  0.00    -0.263 N 
HETATM    9  C10 UNL     1      -5.648  -1.153  -0.314  1.00  0.00     0.261 C 
ATOM     10  H8  UNL     1      -5.718  -2.393  -1.956  1.00  0.00     0.186 HD
HETATM   11  O4  UNL     1      -4.620  -0.811   0.561  1.00  0.00    -0.270 OA
BRANCH   9  12
HETATM   12  N9  UNL     1      -7.010  -0.667  -0.250  1.00  0.00    -0.104 N 
HETATM   13  C11 UNL     1      -7.270   0.557   0.283  1.00  0.00     0.228 A 
HETATM   14  N10 UNL     1      -8.512   1.046   0.356  1.00  0.00    -0.186 N 
HETATM   15  C12 UNL     1      -9.551   0.334  -0.100  1.00  0.00     0.691 A 
ATOM     16  H10 UNL     1      -8.670   1.968   0.762  1.00  0.00     0.185 HD
HETATM   17  N12 UNL     1      -9.303  -0.882  -0.630  1.00  0.00    -0.022 N 
HETATM   18  C13 UNL     1      -8.041  -1.390  -0.709  1.00  0.00     0.701 A 
ATOM     19  H12 UNL     1     -10.083  -1.437  -0.982  1.00  0.00     0.203 HD
HETATM   20  N13 UNL     1      -7.819  -2.571  -1.224  1.00  0.00    -0.233 N 
ATOM     21 2H13 UNL     1      -6.874  -2.951  -1.283  1.00  0.00     0.174 HD
ATOM     22 1H13 UNL     1      -8.604  -3.121  -1.573  1.00  0.00     0.174 HD
BRANCH  15  23
HETATM   23  N11 UNL     1     -10.771   0.777  -0.046  1.00  0.00    -0.234 N 
ATOM     24 2H11 UNL     1     -10.958   1.696   0.355  1.00  0.00     0.174 HD
ATOM     25 1H11 UNL     1     -11.562   0.235  -0.393  1.00  0.00     0.174 HD
ENDBRANCH  15  23
ENDBRANCH   9  12
ENDBRANCH   5   6
ENDBRANCH   3   5
BRANCH   1  26
HETATM   26  C6  UNL     1       0.603   1.202  -0.015  1.00  0.00     0.174 C 
HETATM   27  C7  UNL     1       0.681   1.753   1.380  1.00  0.00     0.042 C 
BRANCH  26  28
HETATM   28  N5  UNL     1       1.875   1.032  -0.626  1.00  0.00    -0.351 N 
HETATM   29  C5  UNL     1       2.883   0.508  -0.066  1.00  0.00     0.192 C 
HETATM   30  N3  UNL     1       4.130   0.391  -0.794  1.00  0.00    -0.294 N 
HETATM   31  N4  UNL     1       2.783   0.038   1.269  1.00  0.00    -0.063 NA
ATOM     32  H3  UNL     1       4.141   0.303  -1.810  1.00  0.00     0.172 HD
ATOM     33  H5  UNL     1       1.984   1.356  -1.587  1.00  0.00     0.163 HD
BRANCH  30  34
HETATM   34  C4  UNL     1       5.225   0.402  -0.113  1.00  0.00     0.264 A 
HETATM   35  N2  UNL     1       6.461   0.302  -0.673  1.00  0.00    -0.151 N 
HETATM   36  C3  UNL     1       7.367   0.347   0.320  1.00  0.00     0.708 A 
ATOM     37  H2  UNL     1       6.664   0.209  -1.668  1.00  0.00     0.188 HD
HETATM   38  N14 UNL     1       6.671   0.473   1.462  1.00  0.00    -0.087 N 
HETATM   39  O5  UNL     1       5.414   0.502   1.166  1.00  0.00    -0.185 OA
ATOM     40  H14 UNL     1       7.067   0.535   2.400  1.00  0.00     0.214 HD
BRANCH  36  41
HETATM   41  N1  UNL     1       8.798   0.283   0.192  1.00  0.00    -0.158 N 
HETATM   42  C2  UNL     1       9.355   0.163  -1.097  1.00  0.00     0.232 C 
HETATM   43  C1  UNL     1      10.828   0.087  -1.310  1.00  0.00     0.118 C 
HETATM   44  O1  UNL     1       8.605   0.118  -2.107  1.00  0.00    -0.273 OA
ATOM     45  H1  UNL     1       9.397   0.324   1.017  1.00  0.00     0.187 HD
ENDBRANCH  36  41
ENDBRANCH  30  34
ENDBRANCH  26  28
ENDBRANCH   1  26
TORSDOF 8
