REMARK  0 active torsions:
REMARK  status: ('A' for Active; 'I' for Inactive)
ROOT
HETATM    1  C1  UNL     1       2.299  -0.373   0.597  1.00  0.00     0.098 C 
HETATM    2  C2  UNL     1       0.841  -0.263   0.262  1.00  0.00     0.125 A 
HETATM    3  N1  UNL     1       0.006  -1.305   0.379  1.00  0.00    -0.317 N 
ATOM      4  H1  UNL     1       0.380  -2.196   0.706  1.00  0.00     0.170 HD
HETATM    5  C3  UNL     1      -1.309  -1.225   0.082  1.00  0.00     0.180 A 
HETATM    6  S1  UNL     1      -2.322  -2.504   0.229  1.00  0.00    -0.040 SA
HETATM    7  N2  UNL     1      -1.810  -0.053  -0.351  1.00  0.00    -0.299 N 
ATOM      8  H2  UNL     1      -2.797   0.050  -0.586  1.00  0.00     0.171 HD
HETATM    9  C4  UNL     1      -0.948   0.980  -0.460  1.00  0.00     0.225 A 
HETATM   10  N3  UNL     1      -1.403   2.108  -0.870  1.00  0.00    -0.365 N 
ATOM     11  H31 UNL     1      -0.752   2.889  -0.952  1.00  0.00     0.159 HD
ATOM     12  H32 UNL     1      -2.392   2.200  -1.102  1.00  0.00     0.159 HD
HETATM   13  O1  UNL     1       0.316   0.863  -0.163  1.00  0.00    -0.267 OA
ENDROOT
TORSDOF 0
