REMARK  9 active torsions:
REMARK  status: ('A' for Active; 'I' for Inactive)
REMARK    1  A    between atoms: C5_5  and  C6_6 
REMARK    2  A    between atoms: C7_7  and  C8_8 
REMARK    3  A    between atoms: C10_11  and  C11_12 
REMARK    4  A    between atoms: C11_12  and  O1_13 
REMARK    5  A    between atoms: N1_15  and  C12_17 
REMARK    6  A    between atoms: N3_21  and  C14_23 
REMARK    7  A    between atoms: C17_29  and  C18_30 
REMARK    8  A    between atoms: C19_34  and  C20_35 
REMARK    9  A    between atoms: C20_35  and  N5_36 
ROOT
HETATM    1  C12 UNL     1       0.092  -1.109  -0.713  1.00  0.00     0.152 A 
HETATM    2  N2  UNL     1      -0.530  -2.339  -0.608  1.00  0.00    -0.322 N 
ATOM      3  H2  UNL     1       0.069  -3.154  -0.478  1.00  0.00     0.169 HD
HETATM    4  C13 UNL     1      -1.819  -2.549  -0.661  1.00  0.00     0.119 A 
HETATM    5  N3  UNL     1      -2.280  -3.723  -0.154  1.00  0.00    -0.368 N 
ATOM      6  H3  UNL     1      -3.277  -3.932  -0.204  1.00  0.00     0.161 HD
HETATM    7  C17 UNL     1      -2.888  -1.679  -0.821  1.00  0.00     0.106 A 
HETATM    8  C19 UNL     1      -2.646  -0.284  -0.936  1.00  0.00     0.023 A 
HETATM    9  S1  UNL     1      -1.032   0.151  -0.895  1.00  0.00    -0.056 SA
ENDROOT
BRANCH   1  10
HETATM   10  N1  UNL     1       1.335  -1.080  -0.796  1.00  0.00    -0.320 N 
HETATM   11  C11 UNL     1       2.449  -0.346  -0.919  1.00  0.00     0.122 C 
ATOM     12  H1  UNL     1       1.642  -2.051  -0.749  1.00  0.00     0.169 HD
BRANCH  11  13
HETATM   13  C10 UNL     1       3.288   0.462   0.024  1.00  0.00     0.069 C 
HETATM   14  C2  UNL     1       4.166  -0.412   0.862  1.00  0.00    -0.036 C 
HETATM   15  C1  UNL     1       4.027  -1.895   0.589  1.00  0.00     0.015 C 
HETATM   16  C3  UNL     1       4.084  -0.160   2.338  1.00  0.00     0.015 C 
HETATM   17  C4  UNL     1       5.608  -0.089   0.452  1.00  0.00     0.018 C 
HETATM   18  C5  UNL     1       5.536   1.269  -0.208  1.00  0.00     0.009 C 
HETATM   19  C9  UNL     1       4.188   1.400  -0.782  1.00  0.00     0.022 C 
BRANCH  18  20
HETATM   20  C6  UNL     1       6.080   2.334   0.643  1.00  0.00    -0.024 C 
HETATM   21  C7  UNL     1       7.229   2.990   0.513  1.00  0.00     0.000 C 
BRANCH  21  22
HETATM   22  C8  UNL     1       8.199   2.738  -0.570  1.00  0.00     0.249 C 
HETATM   23  F1  UNL     1       8.375   3.928  -1.300  1.00  0.00    -0.251 F 
ENDBRANCH  21  22
ENDBRANCH  18  20
ENDBRANCH  11  13
BRANCH  11  24
HETATM   24  O1  UNL     1       2.944  -0.329  -2.138  1.00  0.00    -0.349 OA
ATOM     25  H1  UNL     1       2.412  -0.841  -2.736  1.00  0.00     0.219 HD
ENDBRANCH  11  24
ENDBRANCH   1  10
BRANCH   8  26
HETATM   26  C20 UNL     1      -3.826   0.595  -1.007  1.00  0.00     0.169 C 
BRANCH  26  27
HETATM   27  N5  UNL     1      -3.817   1.634  -0.051  1.00  0.00    -0.389 N 
HETATM   28  C21 UNL     1      -5.206   1.692   0.503  1.00  0.00     0.122 C 
HETATM   29  C22 UNL     1      -6.102   2.249  -0.532  1.00  0.00     0.020 C 
HETATM   30  C23 UNL     1      -6.318   3.741  -0.350  1.00  0.00     0.002 C 
HETATM   31  C24 UNL     1      -5.114   4.375   0.329  1.00  0.00     0.005 C 
HETATM   32  C25 UNL     1      -3.860   4.037  -0.398  1.00  0.00     0.044 C 
HETATM   33  C26 UNL     1      -3.165   2.781   0.128  1.00  0.00     0.058 C 
ENDBRANCH  26  27
ENDBRANCH   8  26
BRANCH   5  34
HETATM   34  C14 UNL     1      -1.425  -4.640   0.428  1.00  0.00     0.134 C 
HETATM   35  C15 UNL     1      -0.953  -5.820  -0.350  1.00  0.00     0.259 C 
HETATM   36  N4  UNL     1      -2.228  -6.485  -0.112  1.00  0.00    -0.071 N 
HETATM   37  C16 UNL     1      -2.316  -5.716   1.142  1.00  0.00     0.259 C 
ATOM     38  H42 UNL     1      -2.977  -6.454  -0.804  1.00  0.00     0.277 HD
ATOM     39  H41 UNL     1      -2.301  -7.502  -0.114  1.00  0.00     0.277 HD
ENDBRANCH   5  34
BRANCH   7  40
HETATM   40  C18 UNL     1      -4.295  -2.198  -0.887  1.00  0.00     0.422 C 
HETATM   41  F2  UNL     1      -4.840  -2.647   0.259  1.00  0.00    -0.166 F 
HETATM   42  F3  UNL     1      -5.084  -1.672  -1.846  1.00  0.00    -0.166 F 
HETATM   43  F4  UNL     1      -4.062  -3.546  -1.532  1.00  0.00    -0.166 F 
ENDBRANCH   7  40
TORSDOF 9
