REMARK  6 active torsions:
REMARK  status: ('A' for Active; 'I' for Inactive)
REMARK       I    between atoms: C1_2  and  N1_3 
REMARK    1  A    between atoms: C1_2  and  C21_31 
REMARK    2  A    between atoms: N1_3  and  C2_5 
REMARK    3  A    between atoms: C4_7  and  C5_8 
REMARK    4  A    between atoms: C5_8  and  C6_9 
REMARK    5  A    between atoms: C6_9  and  N2_10 
REMARK       I    between atoms: N3_19  and  C13_20 
REMARK    6  A    between atoms: C13_20  and  C14_22 
ROOT
HETATM    1  C2  UNL     1      -0.859   0.800  -1.601  1.00  0.00     0.103 C 
HETATM    2  C3  UNL     1       0.621   0.946  -1.564  1.00  0.00     0.033 C 
HETATM    3  C4  UNL     1       1.349  -0.104  -0.797  1.00  0.00     0.007 C 
HETATM    4  C12 UNL     1       0.663  -0.622   0.415  1.00  0.00     0.130 C 
HETATM    5  N3  UNL     1      -0.682  -1.004   0.064  1.00  0.00    -0.349 N 
HETATM    6  C13 UNL     1      -1.348  -1.933   0.901  1.00  0.00     0.224 C 
HETATM    7  O2  UNL     1      -0.744  -2.389   1.931  1.00  0.00    -0.273 OA
HETATM    8  C20 UNL     1      -1.389  -0.495  -1.075  1.00  0.00     0.150 C 
ENDROOT
BRANCH   1   9
HETATM    9  N1  UNL     1      -1.441   1.867  -0.809  1.00  0.00    -0.349 N 
HETATM   10  C1  UNL     1      -2.305   2.832  -1.363  1.00  0.00     0.275 C 
HETATM   11  O1  UNL     1      -2.625   2.825  -2.576  1.00  0.00    -0.265 OA
ATOM     12  H1  UNL     1      -1.217   1.920   0.185  1.00  0.00     0.163 HD
BRANCH  10  13
HETATM   13  C21 UNL     1      -2.865   3.894  -0.506  1.00  0.00     0.146 A 
HETATM   14  C22 UNL     1      -3.721   4.902  -0.895  1.00  0.00     0.060 A 
HETATM   15  C23 UNL     1      -4.010   5.690   0.205  1.00  0.00     0.036 A 
HETATM   16  C24 UNL     1      -4.683   6.778   0.712  1.00  0.00     0.123 A 
HETATM   17  C25 UNL     1      -3.301   5.115   1.241  1.00  0.00     0.174 A 
HETATM   18  N4  UNL     1      -4.392   6.862   2.017  1.00  0.00    -0.309 N 
HETATM   19  N5  UNL     1      -3.574   5.873   2.317  1.00  0.00    -0.279 N 
ATOM     20  H4  UNL     1      -4.742   7.568   2.665  1.00  0.00     0.186 HD
ATOM     21  H5  UNL     1      -3.196   5.704   3.249  1.00  0.00     0.189 HD
HETATM   22  O3  UNL     1      -2.648   4.067   0.771  1.00  0.00    -0.286 OA
ENDBRANCH  10  13
ENDBRANCH   1   9
BRANCH   3  23
HETATM   23  C5  UNL     1       2.713   0.511  -0.419  1.00  0.00     0.036 C 
BRANCH  23  24
HETATM   24  C6  UNL     1       3.545  -0.445   0.359  1.00  0.00     0.273 C 
BRANCH  24  25
HETATM   25  N2  UNL     1       4.788   0.151   0.721  1.00  0.00     0.088 N 
HETATM   26  C7  UNL     1       5.642  -0.753   1.478  1.00  0.00     0.278 C 
HETATM   27  C8  UNL     1       6.968  -0.913   0.784  1.00  0.00     0.109 C 
HETATM   28  C9  UNL     1       6.825  -1.233  -0.666  1.00  0.00     0.246 C 
HETATM   29  F1  UNL     1       8.104  -1.217  -1.224  1.00  0.00    -0.206 F 
HETATM   30  F2  UNL     1       6.312  -2.477  -0.924  1.00  0.00    -0.206 F 
HETATM   31  C10 UNL     1       6.058  -0.115  -1.352  1.00  0.00     0.109 C 
HETATM   32  C11 UNL     1       5.494   0.827  -0.312  1.00  0.00     0.278 C 
ENDBRANCH  24  25
ENDBRANCH  23  24
ENDBRANCH   3  23
BRANCH   6  33
HETATM   33  C14 UNL     1      -2.734  -2.407   0.628  1.00  0.00     0.078 C 
HETATM   34  C15 UNL     1      -3.207  -3.293   1.772  1.00  0.00     0.020 C 
HETATM   35  C16 UNL     1      -4.683  -3.490   1.560  1.00  0.00     0.080 C 
HETATM   36  C17 UNL     1      -4.911  -4.232   0.291  1.00  0.00     0.243 C 
HETATM   37  F3  UNL     1      -5.944  -3.632  -0.415  1.00  0.00    -0.206 F 
HETATM   38  F4  UNL     1      -5.375  -5.508   0.634  1.00  0.00    -0.206 F 
HETATM   39  C18 UNL     1      -3.682  -4.407  -0.532  1.00  0.00     0.080 C 
HETATM   40  C19 UNL     1      -2.853  -3.147  -0.688  1.00  0.00     0.020 C 
ENDBRANCH   6  33
TORSDOF 6
