REMARK  9 active torsions:
REMARK  status: ('A' for Active; 'I' for Inactive)
REMARK    1  A    between atoms: C2_2  and  O1_5 
REMARK    2  A    between atoms: O1_5  and  C4_6 
REMARK       I    between atoms: C4_6  and  N1_8 
REMARK    3  A    between atoms: N1_8  and  C5_10 
REMARK    4  A    between atoms: C5_10  and  C6_11 
REMARK    5  A    between atoms: C5_10  and  C13_18 
REMARK    6  A    between atoms: C6_11  and  C7_12 
REMARK    7  A    between atoms: C13_18  and  O3_19 
REMARK    8  A    between atoms: C13_18  and  N2_21 
REMARK    9  A    between atoms: C17_26  and  N3_27 
REMARK       I    between atoms: N3_27  and  C18_29 
REMARK       I    between atoms: C18_29  and  N4_31 
ROOT
HETATM    1  C13 UNL     1      -0.827  -0.787  -0.577  1.00  0.00     0.410 C 
ENDROOT
BRANCH   1   2
HETATM    2  C5  UNL     1      -1.733  -0.294   0.497  1.00  0.00     0.069 C 
BRANCH   2   3
HETATM    3  N1  UNL     1      -2.398   0.920   0.109  1.00  0.00    -0.302 N 
HETATM    4  C4  UNL     1      -2.137   2.221   0.573  1.00  0.00     0.366 C 
HETATM    5  O2  UNL     1      -1.244   2.448   1.409  1.00  0.00    -0.238 OA
ATOM      6  H1  UNL     1      -3.143   0.827  -0.581  1.00  0.00     0.171 HD
BRANCH   4   7
HETATM    7  O1  UNL     1      -2.893   3.272   0.091  1.00  0.00    -0.277 OA
BRANCH   7   8
HETATM    8  C2  UNL     1      -2.761   4.612   0.449  1.00  0.00     0.141 C 
HETATM    9  C1  UNL     1      -1.421   5.198   0.119  1.00  0.00     0.064 C 
HETATM   10  C3  UNL     1      -3.855   5.414  -0.230  1.00  0.00     0.064 C 
HETATM   11 CL1  UNL     1      -3.037   4.818   2.215  1.00  0.00    -0.088 Cl
ENDBRANCH   7   8
ENDBRANCH   4   7
ENDBRANCH   2   3
BRANCH   2  12
HETATM   12  C6  UNL     1      -2.505  -1.274   1.276  1.00  0.00     0.007 C 
BRANCH  12  13
HETATM   13  C7  UNL     1      -3.732  -1.894   0.756  1.00  0.00     0.010 C 
HETATM   14  C8  UNL     1      -4.298  -2.837   1.872  1.00  0.00     0.008 C 
HETATM   15  C9  UNL     1      -5.744  -3.099   1.560  1.00  0.00     0.001 C 
HETATM   16  C10 UNL     1      -5.880  -3.553   0.116  1.00  0.00     0.000 C 
HETATM   17  C11 UNL     1      -4.539  -4.014  -0.367  1.00  0.00     0.001 C 
HETATM   18  C12 UNL     1      -3.589  -2.816  -0.424  1.00  0.00     0.008 C 
ENDBRANCH  12  13
ENDBRANCH   2  12
ENDBRANCH   1   2
BRANCH   1  19
HETATM   19  O3  UNL     1      -1.474  -0.894  -1.782  1.00  0.00    -0.363 OA
ATOM     20  H3  UNL     1      -0.896  -1.209  -2.467  1.00  0.00     0.212 HD
ENDBRANCH   1  19
BRANCH   1  21
HETATM   21  N2  UNL     1       0.430  -0.104  -0.730  1.00  0.00     0.148 N 
HETATM   22  C14 UNL     1       0.715   0.036  -2.148  1.00  0.00     0.316 C 
HETATM   23  C15 UNL     1       1.346  -1.279  -2.567  1.00  0.00     0.202 C 
HETATM   24  F1  UNL     1       2.488  -0.965  -3.279  1.00  0.00    -0.247 F 
HETATM   25  C16 UNL     1       1.646  -2.024  -1.304  1.00  0.00     0.096 C 
HETATM   26  C17 UNL     1       1.533  -0.901  -0.253  1.00  0.00     0.332 C 
BRANCH  26  27
HETATM   27  N3  UNL     1       2.762  -0.172  -0.356  1.00  0.00    -0.312 N 
HETATM   28  C18 UNL     1       3.873  -0.404   0.520  1.00  0.00     0.320 C 
HETATM   29  O4  UNL     1       3.723  -1.283   1.407  1.00  0.00    -0.247 OA
HETATM   30  N4  UNL     1       5.089   0.320   0.389  1.00  0.00    -0.334 N 
HETATM   31  C19 UNL     1       5.130   1.346  -0.632  1.00  0.00     0.133 C 
HETATM   32  C23 UNL     1       6.191  -0.009   1.238  1.00  0.00     0.133 C 
HETATM   33  C20 UNL     1       6.478   2.057  -0.580  1.00  0.00     0.099 C 
HETATM   34  C21 UNL     1       7.514   0.957  -0.682  1.00  0.00     0.246 C 
HETATM   35  F2  UNL     1       8.772   1.443  -0.897  1.00  0.00    -0.206 F 
HETATM   36  F3  UNL     1       7.231   0.114  -1.754  1.00  0.00    -0.206 F 
HETATM   37  C22 UNL     1       7.538   0.211   0.623  1.00  0.00     0.099 C 
ATOM     38  H3  UNL     1       2.850   0.540  -1.081  1.00  0.00     0.166 HD
ENDBRANCH  26  27
ENDBRANCH   1  21
TORSDOF 9
