REMARK  10 active torsions:
REMARK  status: ('A' for Active; 'I' for Inactive)
REMARK    1  A    between atoms: N4_14  and  C7_15 
REMARK    2  A    between atoms: C7_15  and  C8_16 
REMARK    3  A    between atoms: C8_16  and  C9_17 
REMARK    4  A    between atoms: C9_17  and  O3_18 
REMARK    5  A    between atoms: C9_17  and  C10_20 
REMARK    6  A    between atoms: N5_22  and  C12_23 
REMARK    7  A    between atoms: C14_27  and  C15_28 
REMARK       I    between atoms: C15_28  and  N7_30 
REMARK    8  A    between atoms: N7_30  and  N8_32 
REMARK       I    between atoms: N8_32  and  C16_33 
REMARK    9  A    between atoms: C16_33  and  C17_35 
REMARK   10  A    between atoms: C17_35  and  C18_36 
ROOT
HETATM    1  C10 UNL     1      -1.087   0.199   0.905  1.00  0.00     0.074 A 
HETATM    2  C11 UNL     1      -0.074  -0.452   0.234  1.00  0.00     0.165 A 
HETATM    3  N5  UNL     1       1.079  -0.399   0.918  1.00  0.00    -0.081 N 
HETATM    4  N11 UNL     1       0.812   0.236   2.019  1.00  0.00    -0.222 N 
ATOM      5  H11 UNL     1       1.480   0.422   2.767  1.00  0.00     0.209 HD
HETATM    6  N12 UNL     1      -0.534   0.626   2.023  1.00  0.00    -0.286 N 
ATOM      7  H12 UNL     1      -1.004   1.149   2.762  1.00  0.00     0.188 HD
ENDROOT
BRANCH   1   8
HETATM    8  C9  UNL     1      -2.372   0.406   0.183  1.00  0.00     0.172 C 
BRANCH   8   9
HETATM    9  C8  UNL     1      -3.302   1.392   0.746  1.00  0.00     0.058 C 
BRANCH   9  10
HETATM   10  C7  UNL     1      -4.247   1.699  -0.399  1.00  0.00     0.133 C 
BRANCH  10  11
HETATM   11  N4  UNL     1      -5.228   0.621  -0.612  1.00  0.00    -0.335 N 
HETATM   12  C4  UNL     1      -6.514   0.673  -0.146  1.00  0.00     0.149 A 
HETATM   13  C3  UNL     1      -7.164   1.674   0.443  1.00  0.00     0.280 A 
HETATM   14  C5  UNL     1      -7.102  -0.535  -0.420  1.00  0.00     0.145 A 
HETATM   15  N2  UNL     1      -8.490   1.564   0.811  1.00  0.00    -0.273 N 
HETATM   16  O2  UNL     1      -6.627   2.761   0.718  1.00  0.00    -0.265 OA
HETATM   17  C2  UNL     1      -9.034   0.401   0.537  1.00  0.00     0.330 A 
ATOM     18  H2  UNL     1      -9.004   2.323   1.258  1.00  0.00     0.173 HD
HETATM   19  N1  UNL     1      -8.401  -0.633  -0.057  1.00  0.00    -0.288 N 
HETATM   20  O1  UNL     1     -10.270   0.223   0.837  1.00  0.00    -0.246 OA
HETATM   21  C1  UNL     1      -9.097  -1.886  -0.337  1.00  0.00     0.163 C 
HETATM   22  N3  UNL     1      -6.234  -1.301  -1.008  1.00  0.00    -0.336 N 
HETATM   23  C6  UNL     1      -5.068  -0.591  -1.141  1.00  0.00     0.185 A 
ATOM     24  H3  UNL     1      -6.391  -2.260  -1.316  1.00  0.00     0.168 HD
ENDBRANCH  10  11
ENDBRANCH   9  10
ENDBRANCH   8   9
BRANCH   8  25
HETATM   25  O3  UNL     1      -1.832   1.108  -1.030  1.00  0.00    -0.389 OA
ATOM     26  H3  UNL     1      -1.230   0.470  -1.394  1.00  0.00     0.210 HD
ENDBRANCH   8  25
ENDBRANCH   1   8
BRANCH   3  27
HETATM   27  C12 UNL     1       2.257  -0.806   0.254  1.00  0.00     0.705 A 
HETATM   28  N6  UNL     1       2.583  -1.855  -0.453  1.00  0.00    -0.198 N 
HETATM   29  C13 UNL     1       3.828  -1.662  -1.035  1.00  0.00     0.142 A 
ATOM     30  H6  UNL     1       2.008  -2.691  -0.561  1.00  0.00     0.183 HD
HETATM   31  C14 UNL     1       4.220  -0.469  -0.644  1.00  0.00     0.135 A 
HETATM   32  N10 UNL     1       3.314   0.114   0.151  1.00  0.00    -0.183 N 
ATOM     33  H10 UNL     1       3.378   1.033   0.590  1.00  0.00     0.184 HD
BRANCH  31  34
HETATM   34  C15 UNL     1       5.622   0.170  -0.619  1.00  0.00     0.298 C 
HETATM   35  O4  UNL     1       5.677   1.432  -0.684  1.00  0.00    -0.263 OA
HETATM   36  N7  UNL     1       6.549  -0.813  -0.466  1.00  0.00    -0.194 N 
ATOM     37  H7  UNL     1       6.016  -1.665  -0.644  1.00  0.00     0.205 HD
BRANCH  36  38
HETATM   38  N8  UNL     1       7.728  -1.252  -0.220  1.00  0.00    -0.283 NA
HETATM   39  C16 UNL     1       8.941  -1.712   0.035  1.00  0.00     0.321 C 
HETATM   40  O5  UNL     1       9.272  -2.920   0.177  1.00  0.00    -0.255 OA
BRANCH  39  41
HETATM   41  C17 UNL     1      10.122  -0.742   0.199  1.00  0.00     0.220 C 
BRANCH  41  42
HETATM   42  C18 UNL     1       9.614   0.576   0.489  1.00  0.00     0.241 C 
HETATM   43  N9  UNL     1      10.177   1.721  -0.178  1.00  0.00    -0.062 NA
HETATM   44  O6  UNL     1       8.690   0.739   1.315  1.00  0.00    -0.276 OA
ENDBRANCH  41  42
ENDBRANCH  39  41
ENDBRANCH  36  38
ENDBRANCH  31  34
ENDBRANCH   3  27
TORSDOF 10
