REMARK  11 active torsions:
REMARK  status: ('A' for Active; 'I' for Inactive)
REMARK    1  A    between atoms: C4_4  and  C5_5 
REMARK    2  A    between atoms: C9_13  and  C10_14 
REMARK    3  A    between atoms: C10_14  and  O1_15 
REMARK    4  A    between atoms: C10_14  and  C11_17 
REMARK    5  A    between atoms: C11_17  and  N3_18 
REMARK    6  A    between atoms: N3_18  and  C12_20 
REMARK    7  A    between atoms: C12_20  and  C13_21 
REMARK    8  A    between atoms: C13_21  and  N4_22 
REMARK    9  A    between atoms: N4_22  and  C15_24 
REMARK   10  A    between atoms: C15_24  and  C16_25 
REMARK   11  A    between atoms: C16_25  and  S1_26 
ROOT
HETATM    1  C1  UNL     1      -6.668  -2.606   0.121  1.00  0.00     0.048 C 
HETATM    2  C2  UNL     1      -5.320  -1.948   0.258  1.00  0.00    -0.059 A 
HETATM    3  C3  UNL     1      -4.982  -0.835  -0.447  1.00  0.00     0.020 A 
HETATM    4  C4  UNL     1      -3.728  -0.210  -0.326  1.00  0.00    -0.009 A 
HETATM    5  C8  UNL     1      -2.786  -0.711   0.521  1.00  0.00     0.012 A 
HETATM    6  C9  UNL     1      -1.474  -0.356   0.852  1.00  0.00     0.004 A 
HETATM    7  C17 UNL     1      -1.063  -1.316   1.790  1.00  0.00     0.099 A 
HETATM    8  N5  UNL     1      -2.052  -2.175   1.998  1.00  0.00    -0.365 N 
ATOM      9  H5  UNL     1      -2.005  -2.969   2.637  1.00  0.00     0.165 HD
HETATM   10  C18 UNL     1      -3.125  -1.858   1.253  1.00  0.00     0.044 A 
HETATM   11  C19 UNL     1      -4.365  -2.440   1.107  1.00  0.00     0.037 A 
ENDROOT
BRANCH   6  12
HETATM   12  C10 UNL     1      -0.668   0.753   0.325  1.00  0.00     0.192 C 
BRANCH  12  13
HETATM   13  O1  UNL     1      -0.311   0.612  -1.005  1.00  0.00    -0.386 OA
ATOM     14  H1  UNL     1       0.210   1.329  -1.346  1.00  0.00     0.210 HD
ENDBRANCH  12  13
BRANCH  12  15
HETATM   15  C11 UNL     1       0.675   0.706   1.091  1.00  0.00     0.097 C 
BRANCH  15  16
HETATM   16  N3  UNL     1       1.578   1.715   0.809  1.00  0.00    -0.375 N 
ATOM     17  H3  UNL     1       1.752   2.418   1.528  1.00  0.00     0.164 HD
BRANCH  16  18
HETATM   18  C12 UNL     1       2.266   1.829  -0.400  1.00  0.00     0.104 C 
BRANCH  18  19
HETATM   19  C13 UNL     1       3.312   0.741  -0.639  1.00  0.00     0.106 C 
BRANCH  19  20
HETATM   20  N4  UNL     1       4.327   0.721   0.331  1.00  0.00    -0.372 N 
HETATM   21  C14 UNL     1       5.237   1.784   0.410  1.00  0.00     0.154 C 
BRANCH  20  22
HETATM   22  C15 UNL     1       4.624  -0.458   1.028  1.00  0.00     0.079 C 
BRANCH  22  23
HETATM   23  C16 UNL     1       5.230  -1.524   0.180  1.00  0.00     0.201 C 
BRANCH  23  24
HETATM   24  S1  UNL     1       6.642  -1.016  -0.441  1.00  0.00     0.255 S 
HETATM   25  O2  UNL     1       7.550  -0.422   0.397  1.00  0.00    -0.211 OA
HETATM   26  O3  UNL     1       7.315  -2.076  -1.341  1.00  0.00    -0.211 OA
ENDBRANCH  23  24
ENDBRANCH  22  23
ENDBRANCH  20  22
ENDBRANCH  19  20
ENDBRANCH  18  19
ENDBRANCH  16  18
ENDBRANCH  15  16
ENDBRANCH  12  15
ENDBRANCH   6  12
BRANCH   4  27
HETATM   27  C5  UNL     1      -3.521   0.997  -1.091  1.00  0.00     0.009 A 
HETATM   28  C6  UNL     1      -3.451   1.042  -2.468  1.00  0.00     0.120 A 
HETATM   29  N1  UNL     1      -3.375   2.347  -2.826  1.00  0.00    -0.311 N 
HETATM   30  N2  UNL     1      -3.394   3.100  -1.743  1.00  0.00    -0.311 N 
ATOM     31  H1  UNL     1      -3.313   2.693  -3.784  1.00  0.00     0.186 HD
HETATM   32  C7  UNL     1      -3.485   2.279  -0.652  1.00  0.00     0.120 A 
ATOM     33  H2  UNL     1      -3.349   4.119  -1.722  1.00  0.00     0.186 HD
ENDBRANCH   4  27
TORSDOF 11
