REMARK  12 active torsions:
REMARK  status: ('A' for Active; 'I' for Inactive)
REMARK    1  A    between atoms: O1_2  and  C2_3 
REMARK    2  A    between atoms: C2_3  and  C3_5 
REMARK    3  A    between atoms: C4_6  and  C5_7 
REMARK       I    between atoms: C5_7  and  N1_9 
REMARK    4  A    between atoms: N1_9  and  N2_11 
REMARK    5  A    between atoms: N4_16  and  C6_17 
REMARK    6  A    between atoms: C8_27  and  N8_28 
REMARK       I    between atoms: N8_28  and  C9_30 
REMARK    7  A    between atoms: C9_30  and  C10_32 
REMARK    8  A    between atoms: C18_42  and  C19_43 
REMARK    9  A    between atoms: C19_43  and  O6_44 
REMARK   10  A    between atoms: C19_43  and  C20_46 
REMARK   11  A    between atoms: C20_46  and  N10_47 
REMARK   12  A    between atoms: C20_46  and  C21_51 
ROOT
HETATM    1  C3  UNL     1       3.031  -0.133  -0.082  1.00  0.00     0.119 A 
HETATM    2  C4  UNL     1       4.260   0.178   0.460  1.00  0.00     0.138 A 
HETATM    3  N3  UNL     1       4.015   0.503   1.768  1.00  0.00    -0.284 N 
ATOM      4  H3  UNL     1       4.727   0.776   2.445  1.00  0.00     0.188 HD
HETATM    5  N4  UNL     1       2.749   0.413   2.020  1.00  0.00    -0.216 N 
HETATM    6  C8  UNL     1       2.062   0.016   0.876  1.00  0.00     0.151 A 
ENDROOT
BRANCH   6   7
HETATM    7  N8  UNL     1       0.692   0.053   0.869  1.00  0.00    -0.305 N 
HETATM    8  C9  UNL     1      -0.298   0.354  -0.086  1.00  0.00     0.274 C 
HETATM    9  O5  UNL     1      -0.023   0.828  -1.202  1.00  0.00    -0.266 OA
ATOM     10  H8  UNL     1       0.293  -0.198   1.774  1.00  0.00     0.170 HD
BRANCH   8  11
HETATM   11  C10 UNL     1      -1.729   0.111   0.210  1.00  0.00     0.110 A 
HETATM   12  N9  UNL     1      -1.965  -0.298   1.503  1.00  0.00    -0.351 N 
HETATM   13  C11 UNL     1      -3.173  -0.565   1.973  1.00  0.00     0.043 A 
ATOM     14  H9  UNL     1      -1.168  -0.401   2.131  1.00  0.00     0.166 HD
HETATM   15  C12 UNL     1      -3.409  -0.979   3.280  1.00  0.00     0.030 A 
HETATM   16  C16 UNL     1      -4.231  -0.418   1.103  1.00  0.00    -0.009 A 
HETATM   17  C13 UNL     1      -4.684  -1.247   3.731  1.00  0.00     0.002 A 
HETATM   18  C14 UNL     1      -5.750  -1.104   2.870  1.00  0.00     0.001 A 
HETATM   19  C15 UNL     1      -5.500  -0.694   1.582  1.00  0.00     0.014 A 
HETATM   20  C17 UNL     1      -4.015  -0.010  -0.195  1.00  0.00     0.026 A 
HETATM   21  C18 UNL     1      -2.725   0.271  -0.687  1.00  0.00     0.006 A 
BRANCH  21  22
HETATM   22  C19 UNL     1      -2.502   0.723  -2.052  1.00  0.00     0.194 C 
BRANCH  22  23
HETATM   23  O6  UNL     1      -2.333   2.123  -1.966  1.00  0.00    -0.388 OA
ATOM     24  H6  UNL     1      -2.187   2.418  -2.857  1.00  0.00     0.210 HD
ENDBRANCH  22  23
BRANCH  22  25
HETATM   25  C20 UNL     1      -3.687   0.473  -2.989  1.00  0.00     0.316 C 
BRANCH  25  26
HETATM   26  N10 UNL     1      -3.297   1.187  -4.235  1.00  0.00    -0.062 N 
ATOM     27 3H10 UNL     1      -3.062   2.171  -4.103  1.00  0.00     0.275 HD
ATOM     28 2H10 UNL     1      -2.391   0.912  -4.615  1.00  0.00     0.275 HD
ATOM     29 1H10 UNL     1      -4.086   1.020  -4.859  1.00  0.00     0.275 HD
ENDBRANCH  25  26
BRANCH  25  30
HETATM   30  C21 UNL     1      -3.784  -0.960  -3.368  1.00  0.00     0.207 C 
HETATM   31  O7  UNL     1      -4.044  -1.897  -2.589  1.00  0.00    -0.646 OA
HETATM   32  O8  UNL     1      -3.575  -1.344  -4.707  1.00  0.00    -0.646 OA
ENDBRANCH  25  30
ENDBRANCH  22  25
ENDBRANCH  21  22
ENDBRANCH   8  11
ENDBRANCH   6   7
BRANCH   1  33
HETATM   33  C2  UNL     1       2.915  -0.770  -1.382  1.00  0.00     0.299 C 
HETATM   34  O2  UNL     1       1.859  -1.314  -1.777  1.00  0.00    -0.259 OA
BRANCH  33  35
HETATM   35  O1  UNL     1       3.978  -0.812  -2.254  1.00  0.00    -0.322 OA
HETATM   36  C1  UNL     1       3.884  -1.437  -3.532  1.00  0.00     0.213 C 
ENDBRANCH  33  35
ENDBRANCH   1  33
BRANCH   5  37
HETATM   37  C6  UNL     1       2.150   0.685   3.292  1.00  0.00     0.196 A 
HETATM   38  N5  UNL     1       1.040   1.424   3.550  1.00  0.00    -0.220 N 
HETATM   39  O4  UNL     1       0.833   1.426   4.824  1.00  0.00    -0.153 OA
ATOM     40  H5  UNL     1       0.466   1.898   2.853  1.00  0.00     0.198 HD
HETATM   41  N6  UNL     1       1.746   0.726   5.447  1.00  0.00    -0.222 N 
HETATM   42  C7  UNL     1       2.578   0.254   4.524  1.00  0.00     0.169 A 
ATOM     43  H6  UNL     1       1.808   0.571   6.453  1.00  0.00     0.198 HD
HETATM   44  N7  UNL     1       3.613  -0.485   4.749  1.00  0.00    -0.381 N 
ATOM     45  H72 UNL     1       4.251  -0.847   4.041  1.00  0.00     0.157 HD
ATOM     46  H71 UNL     1       3.931  -0.805   5.664  1.00  0.00     0.157 HD
ENDBRANCH   5  37
BRANCH   2  47
HETATM   47  C5  UNL     1       5.598   0.332  -0.043  1.00  0.00     0.288 C 
HETATM   48  O3  UNL     1       6.535  -0.216   0.633  1.00  0.00    -0.264 OA
HETATM   49  N1  UNL     1       5.940   1.038  -1.195  1.00  0.00    -0.271 N 
ATOM     50  H1  UNL     1       5.208   1.494  -1.740  1.00  0.00     0.189 HD
BRANCH  49  51
HETATM   51  N2  UNL     1       7.247   1.130  -1.608  1.00  0.00    -0.342 N 
ATOM     52  H22 UNL     1       7.966   0.669  -1.051  1.00  0.00     0.176 HD
ATOM     53  H21 UNL     1       7.497   1.647  -2.451  1.00  0.00     0.176 HD
ENDBRANCH  49  51
ENDBRANCH   2  47
TORSDOF 12
