REMARK  2 active torsions:
REMARK  status: ('A' for Active; 'I' for Inactive)
REMARK    1  A    between atoms: N2_4  and  C1_6 
REMARK    2  A    between atoms: C1_6  and  N3_7 
ROOT
HETATM    1  N3  UNL     1      -0.634   0.527  -0.374  1.00  0.00     0.106 N 
HETATM    2  C2  UNL     1       0.333   1.262   0.414  1.00  0.00     0.274 C 
HETATM    3  C3  UNL     1       1.698   1.002  -0.216  1.00  0.00     0.030 C 
HETATM    4  C4  UNL     1       2.128  -0.369   0.255  1.00  0.00     0.003 C 
HETATM    5  C5  UNL     1       0.935  -1.282   0.177  1.00  0.00     0.030 C 
HETATM    6  C6  UNL     1      -0.145  -0.762  -0.743  1.00  0.00     0.274 C 
ENDROOT
BRANCH   1   7
HETATM    7  C1  UNL     1      -1.882   0.473   0.368  1.00  0.00     0.411 C 
BRANCH   7   8
HETATM    8  N2  UNL     1      -2.879  -0.248  -0.372  1.00  0.00    -0.316 N 
HETATM    9  N1  UNL     1      -3.389  -1.293   0.080  1.00  0.00    -0.348 N 
ATOM     10  H12 UNL     1      -3.081  -1.628   0.993  1.00  0.00     0.176 HD
ATOM     11  H11 UNL     1      -4.097  -1.805  -0.446  1.00  0.00     0.176 HD
ATOM     12  H2  UNL     1      -3.176   0.100  -1.284  1.00  0.00     0.181 HD
ENDBRANCH   7   8
ENDBRANCH   1   7
TORSDOF 2
