REMARK  5 active torsions:
REMARK  status: ('A' for Active; 'I' for Inactive)
REMARK    1  A    between atoms: C2_2  and  C3_3 
REMARK    2  A    between atoms: C3_3  and  C6_7 
REMARK    3  A    between atoms: C6_7  and  O2_9 
REMARK    4  A    between atoms: O2_9  and  C7_10 
REMARK    5  A    between atoms: C13_17  and  O4_18 
ROOT
HETATM    1  C3  UNL     1       2.920   0.068   0.786  1.00  0.00     0.132 C 
HETATM    2  C4  UNL     1       3.143   1.290  -0.112  1.00  0.00     0.042 C 
HETATM    3  C5  UNL     1       3.906   0.181   1.864  1.00  0.00     0.079 C 
HETATM    4  N1  UNL     1       4.706   0.282   2.716  1.00  0.00    -0.196 NA
ENDROOT
BRANCH   1   5
HETATM    5  C2  UNL     1       3.259  -1.181   0.013  1.00  0.00     0.030 C 
HETATM    6  C1  UNL     1       2.443  -1.386  -1.215  1.00  0.00     0.007 C 
ENDBRANCH   1   5
BRANCH   1   7
HETATM    7  C6  UNL     1       1.577   0.054   1.361  1.00  0.00     0.281 C 
HETATM    8  O1  UNL     1       1.408   0.146   2.581  1.00  0.00    -0.263 OA
BRANCH   7   9
HETATM    9  O2  UNL     1       0.462  -0.061   0.553  1.00  0.00    -0.312 OA
BRANCH   9  10
HETATM   10  C7  UNL     1      -0.874  -0.083   1.024  1.00  0.00     0.165 C 
HETATM   11  C8  UNL     1      -1.672   1.073   0.548  1.00  0.00     0.072 C 
HETATM   12  C9  UNL     1      -2.671   0.792  -0.513  1.00  0.00     0.056 C 
HETATM   13  C10 UNL     1      -2.043   1.104  -1.869  1.00  0.00     0.045 C 
HETATM   14  C11 UNL     1      -3.874   1.740  -0.402  1.00  0.00     0.045 C 
HETATM   15  O3  UNL     1      -3.166  -0.478  -0.553  1.00  0.00    -0.378 OA
HETATM   16  C12 UNL     1      -2.244  -1.489  -0.537  1.00  0.00     0.203 C 
HETATM   17  C13 UNL     1      -1.514  -1.429   0.783  1.00  0.00     0.171 C 
BRANCH  17  18
HETATM   18  O4  UNL     1      -0.560  -2.448   0.793  1.00  0.00    -0.391 OA
ATOM     19  H4  UNL     1      -0.963  -3.295   0.641  1.00  0.00     0.210 HD
ENDBRANCH  17  18
ENDBRANCH   9  10
ENDBRANCH   7   9
ENDBRANCH   1   7
TORSDOF 5
