REMARK  12 active torsions:
REMARK  status: ('A' for Active; 'I' for Inactive)
REMARK    1  A    between atoms: C2_2  and  C3_3 
REMARK    2  A    between atoms: C3_3  and  S1_4 
REMARK    3  A    between atoms: S1_4  and  C4_5 
REMARK    4  A    between atoms: C4_5  and  C5_6 
REMARK    5  A    between atoms: C4_5  and  C6_9 
REMARK    6  A    between atoms: C5_6  and  O1_7 
REMARK    7  A    between atoms: C7_10  and  O2_11 
REMARK    8  A    between atoms: O2_11  and  C8_12 
REMARK    9  A    between atoms: C12_17  and  O4_18 
REMARK   10  A    between atoms: O4_18  and  C13_19 
REMARK   11  A    between atoms: C15_21  and  O5_22 
REMARK   12  A    between atoms: C17_25  and  O6_26 
ROOT
HETATM    1  C13 UNL     1       4.003   0.062  -0.008  1.00  0.00     0.095 A 
HETATM    2  C14 UNL     1       4.493  -0.524   1.180  1.00  0.00     0.075 A 
HETATM    3  C15 UNL     1       5.806  -0.495   1.536  1.00  0.00     0.071 A 
HETATM    4  C16 UNL     1       6.736   0.123   0.733  1.00  0.00     0.074 A 
HETATM    5  C17 UNL     1       6.319   0.706  -0.426  1.00  0.00     0.091 A 
HETATM    6  C18 UNL     1       4.963   0.668  -0.780  1.00  0.00     0.111 A 
HETATM    7  C19 UNL     1       4.640   1.327  -2.030  1.00  0.00     0.105 C 
HETATM    8  N1  UNL     1       4.411   1.861  -3.025  1.00  0.00    -0.191 NA
ENDROOT
BRANCH   1   9
HETATM    9  O4  UNL     1       2.716  -0.024  -0.255  1.00  0.00    -0.344 OA
BRANCH   9  10
HETATM   10  C12 UNL     1       1.764   0.268  -1.107  1.00  0.00     0.134 C 
HETATM   11  C11 UNL     1       0.701  -0.833  -1.383  1.00  0.00     0.026 C 
HETATM   12  C10 UNL     1       0.141  -1.493  -0.176  1.00  0.00     0.045 C 
HETATM   13  C21 UNL     1      -0.247   0.375  -1.582  1.00  0.00     0.027 C 
HETATM   14  C7  UNL     1      -1.373  -1.087  -0.101  1.00  0.00     0.163 C 
HETATM   15  C6  UNL     1      -1.553  -0.286  -1.297  1.00  0.00    -0.031 C 
HETATM   16  C20 UNL     1       0.530   1.047  -0.535  1.00  0.00     0.042 C 
BRANCH  14  17
HETATM   17  O2  UNL     1      -1.476  -0.445   1.133  1.00  0.00    -0.312 OA
BRANCH  17  18
HETATM   18  C8  UNL     1      -2.040  -1.081   2.210  1.00  0.00     0.255 C 
HETATM   19  C9  UNL     1      -2.173  -0.411   3.553  1.00  0.00     0.126 C 
HETATM   20  O3  UNL     1      -2.489  -2.257   2.181  1.00  0.00    -0.266 OA
ENDBRANCH  17  18
ENDBRANCH  14  17
BRANCH  15  21
HETATM   21  C4  UNL     1      -2.780   0.532  -1.529  1.00  0.00     0.007 C 
BRANCH  21  22
HETATM   22  S1  UNL     1      -4.296  -0.342  -1.650  1.00  0.00    -0.128 SA
BRANCH  22  23
HETATM   23  C3  UNL     1      -4.961  -1.271  -0.349  1.00  0.00     0.105 C 
BRANCH  23  24
HETATM   24  C2  UNL     1      -5.626  -0.623   0.779  1.00  0.00    -0.026 C 
HETATM   25  C1  UNL     1      -5.892   0.632   0.905  1.00  0.00     0.007 C 
ENDBRANCH  23  24
ENDBRANCH  22  23
ENDBRANCH  21  22
BRANCH  21  26
HETATM   26  C5  UNL     1      -2.755   1.773  -0.662  1.00  0.00     0.210 C 
BRANCH  26  27
HETATM   27  O1  UNL     1      -3.685   2.677  -1.230  1.00  0.00    -0.396 OA
ATOM     28  H1  UNL     1      -3.669   3.456  -0.686  1.00  0.00     0.209 HD
ENDBRANCH  26  27
ENDBRANCH  21  26
ENDBRANCH  15  21
ENDBRANCH   9  10
ENDBRANCH   1   9
BRANCH   5  29
HETATM   29  O6  UNL     1       7.246   1.320  -1.221  1.00  0.00    -0.359 OA
ATOM     30  H6  UNL     1       6.955   1.726  -2.029  1.00  0.00     0.217 HD
ENDBRANCH   5  29
BRANCH   3  31
HETATM   31  O5  UNL     1       6.231  -1.102   2.740  1.00  0.00    -0.361 OA
ATOM     32  H5  UNL     1       7.148  -1.082   2.989  1.00  0.00     0.217 HD
ENDBRANCH   3  31
TORSDOF 12
