REMARK  5 active torsions:
REMARK  status: ('A' for Active; 'I' for Inactive)
REMARK    1  A    between atoms: C2_2  and  C3_3 
REMARK    2  A    between atoms: C2_2  and  C19_25 
REMARK    3  A    between atoms: N1_20  and  C17_22 
REMARK    4  A    between atoms: C17_22  and  C18_23 
REMARK    5  A    between atoms: C19_25  and  O5_28 
ROOT
HETATM    1  C3  UNL     1       2.154   0.185   0.251  1.00  0.00     0.129 C 
HETATM    2  C4  UNL     1       0.999  -0.603  -0.396  1.00  0.00     0.048 C 
HETATM    3  C5  UNL     1      -0.145   0.196  -0.036  1.00  0.00     0.032 C 
HETATM    4  C6  UNL     1       0.317   1.003   1.161  1.00  0.00     0.182 C 
HETATM    5  O1  UNL     1       1.594   0.515   1.466  1.00  0.00    -0.384 OA
HETATM    6  C7  UNL     1      -0.832   1.049  -1.095  1.00  0.00     0.048 C 
HETATM    7  C8  UNL     1      -0.741   0.467  -2.448  1.00  0.00     0.011 C 
HETATM    8  C9  UNL     1      -1.127  -0.880  -2.778  1.00  0.00     0.003 C 
HETATM    9  C10 UNL     1      -2.046  -1.646  -1.903  1.00  0.00     0.035 C 
HETATM   10  C11 UNL     1      -1.727  -1.630  -0.461  1.00  0.00     0.166 C 
HETATM   11  O2  UNL     1      -2.833  -2.179   0.235  1.00  0.00    -0.347 OA
HETATM   12  C12 UNL     1      -2.803  -1.622   1.494  1.00  0.00     0.159 C 
HETATM   13  C13 UNL     1      -4.110  -0.950   1.890  1.00  0.00     0.078 C 
HETATM   14  C14 UNL     1      -2.548  -2.776   2.463  1.00  0.00     0.078 C 
HETATM   15  O3  UNL     1      -1.779  -0.688   1.555  1.00  0.00    -0.335 OA
HETATM   16  C15 UNL     1      -1.507  -0.385   0.217  1.00  0.00     0.139 C 
HETATM   17  C16 UNL     1      -2.013   0.933  -0.235  1.00  0.00     0.030 C 
HETATM   18  N1  UNL     1      -3.305   1.291  -0.430  1.00  0.00    -0.367 N 
ATOM     19  H1  UNL     1      -3.989   0.548  -0.571  1.00  0.00     0.165 HD
ENDROOT
BRANCH   1  20
HETATM   20  C2  UNL     1       3.407  -0.599   0.277  1.00  0.00     0.044 C 
HETATM   21  C1  UNL     1       3.767  -0.904  -1.181  1.00  0.00     0.015 C 
BRANCH  20  22
HETATM   22  C19 UNL     1       4.568   0.098   0.897  1.00  0.00     0.056 C 
HETATM   23  C20 UNL     1       4.939   1.392   0.248  1.00  0.00     0.045 C 
HETATM   24  C21 UNL     1       4.289   0.238   2.393  1.00  0.00     0.045 C 
BRANCH  22  25
HETATM   25  O5  UNL     1       5.719  -0.725   0.801  1.00  0.00    -0.390 OA
ATOM     26  H5  UNL     1       6.460  -0.280   1.196  1.00  0.00     0.210 HD
ENDBRANCH  22  25
ENDBRANCH  20  22
ENDBRANCH   1  20
BRANCH  18  27
HETATM   27  C17 UNL     1      -3.763   2.613  -0.451  1.00  0.00     0.129 C 
BRANCH  27  28
HETATM   28  C18 UNL     1      -3.432   3.534  -1.537  1.00  0.00     0.275 C 
HETATM   29  O4  UNL     1      -2.797   3.328  -2.528  1.00  0.00    -0.301 OA
ENDBRANCH  27  28
ENDBRANCH  18  27
TORSDOF 5
