REMARK  9 active torsions:
REMARK  status: ('A' for Active; 'I' for Inactive)
REMARK    1  A    between atoms: S1_2  and  C2_3 
REMARK    2  A    between atoms: N2_6  and  C3_7 
REMARK    3  A    between atoms: N3_9  and  C5_10 
REMARK    4  A    between atoms: C5_10  and  O1_11 
REMARK    5  A    between atoms: C5_10  and  C6_13 
REMARK    6  A    between atoms: C6_13  and  C7_14 
REMARK    7  A    between atoms: N4_16  and  O2_18 
REMARK    8  A    between atoms: C9_21  and  C10_22 
REMARK    9  A    between atoms: C10_22  and  O3_23 
ROOT
HETATM    1  C2  UNL     1      -3.803   0.982  -0.033  1.00  0.00     0.106 A 
HETATM    2  N1  UNL     1      -2.512   1.052   0.328  1.00  0.00    -0.288 N 
ATOM      3  H1  UNL     1      -1.984   1.921   0.405  1.00  0.00     0.188 HD
HETATM    4  N2  UNL     1      -2.014  -0.140   0.570  1.00  0.00    -0.270 N 
HETATM    5  C11 UNL     1      -3.006  -1.019   0.363  1.00  0.00     0.139 A 
HETATM    6  C12 UNL     1      -4.142  -0.364  -0.016  1.00  0.00     0.096 A 
HETATM    7  C13 UNL     1      -5.397  -0.984  -0.319  1.00  0.00     0.103 C 
HETATM    8  N5  UNL     1      -6.410  -1.485  -0.543  1.00  0.00    -0.191 NA
ENDROOT
BRANCH   1   9
HETATM    9  S1  UNL     1      -4.955   2.275  -0.469  1.00  0.00    -0.114 SA
HETATM   10  C1  UNL     1      -4.204   3.902  -0.391  1.00  0.00     0.097 C 
ENDBRANCH   1   9
BRANCH   4  11
HETATM   11  C3  UNL     1      -0.679  -0.514   0.983  1.00  0.00     0.272 C 
HETATM   12  C4  UNL     1       0.377   0.187   0.171  1.00  0.00     0.331 C 
HETATM   13  N3  UNL     1       1.594  -0.518   0.325  1.00  0.00     0.129 N 
HETATM   14  C8  UNL     1       1.413  -1.806  -0.312  1.00  0.00     0.310 C 
HETATM   15  C9  UNL     1       0.389  -2.547   0.499  1.00  0.00     0.176 C 
HETATM   16  O4  UNL     1      -0.575  -1.842   1.095  1.00  0.00    -0.354 OA
BRANCH  13  17
HETATM   17  C5  UNL     1       2.791   0.072  -0.139  1.00  0.00     0.406 C 
BRANCH  17  18
HETATM   18  O1  UNL     1       2.803   0.188  -1.545  1.00  0.00    -0.363 OA
ATOM     19  H1  UNL     1       3.608   0.585  -1.857  1.00  0.00     0.212 HD
ENDBRANCH  17  18
BRANCH  17  20
HETATM   20  C6  UNL     1       3.210   1.314   0.514  1.00  0.00     0.082 C 
HETATM   21  N4  UNL     1       2.585   1.858   1.501  1.00  0.00    -0.272 N 
ATOM     22  H4  UNL     1       1.746   1.395   1.849  1.00  0.00     0.193 HD
BRANCH  20  23
HETATM   23  C7  UNL     1       4.436   2.029   0.052  1.00  0.00     0.173 C 
HETATM   24 CL1  UNL     1       5.831   0.938   0.227  1.00  0.00    -0.124 Cl
ENDBRANCH  20  23
BRANCH  21  25
HETATM   25  O2  UNL     1       2.977   3.019   2.111  1.00  0.00    -0.290 OA
ATOM     26  H2  UNL     1       2.516   3.420   2.839  1.00  0.00     0.244 HD
ENDBRANCH  21  25
ENDBRANCH  17  20
ENDBRANCH  13  17
BRANCH  15  27
HETATM   27  C10 UNL     1      -0.167  -3.660  -0.401  1.00  0.00     0.197 C 
BRANCH  27  28
HETATM   28  O3  UNL     1       0.946  -4.309  -0.954  1.00  0.00    -0.398 OA
ATOM     29  H3  UNL     1       0.602  -4.998  -1.511  1.00  0.00     0.209 HD
ENDBRANCH  27  28
ENDBRANCH  15  27
ENDBRANCH   4  11
TORSDOF 9
