REMARK  3 active torsions:
REMARK  status: ('A' for Active; 'I' for Inactive)
REMARK       I    between atoms: C1_4  and  N3_6 
REMARK    1  A    between atoms: N3_6  and  N4_8 
REMARK    2  A    between atoms: N4_8  and  C2_9 
REMARK    3  A    between atoms: C2_9  and  C3_10 
ROOT
HETATM    1  C3  UNL     1       0.359  -0.996  -0.681  1.00  0.00     0.136 C 
HETATM    2  N5  UNL     1       1.065  -1.782  -1.514  1.00  0.00    -0.302 N 
ATOM      3  H5  UNL     1       2.065  -1.583  -1.547  1.00  0.00     0.171 HD
HETATM    4  C4  UNL     1       0.659  -2.794  -2.315  1.00  0.00     0.328 C 
HETATM    5  O1  UNL     1       1.589  -3.460  -2.801  1.00  0.00    -0.247 OA
HETATM    6  N6  UNL     1      -0.603  -3.099  -2.596  1.00  0.00    -0.260 N 
ATOM      7  H6  UNL     1      -0.743  -3.655  -3.440  1.00  0.00     0.175 HD
HETATM    8  C5  UNL     1      -1.724  -2.776  -1.921  1.00  0.00     0.331 C 
HETATM    9  O2  UNL     1      -2.753  -3.381  -2.315  1.00  0.00    -0.246 OA
HETATM   10  N7  UNL     1      -1.882  -1.912  -0.904  1.00  0.00    -0.273 N 
ATOM     11  H7  UNL     1      -2.840  -1.726  -0.608  1.00  0.00     0.173 HD
HETATM   12  C6  UNL     1      -0.909  -1.267  -0.236  1.00  0.00     0.278 C 
HETATM   13  O3  UNL     1      -1.136  -0.848   0.924  1.00  0.00    -0.265 OA
ENDROOT
BRANCH   1  14
HETATM   14  C2  UNL     1       1.015   0.231  -0.238  1.00  0.00     0.244 C 
BRANCH  14  15
HETATM   15  N4  UNL     1       0.564   1.045   0.464  1.00  0.00    -0.334 NA
BRANCH  15  16
HETATM   16  N3  UNL     1       0.017   1.904   1.237  1.00  0.00    -0.207 N 
HETATM   17  C1  UNL     1       0.823   2.879   1.940  1.00  0.00     0.211 C 
HETATM   18  N1  UNL     1       1.719   2.454   2.709  1.00  0.00    -0.372 N 
HETATM   19  N2  UNL     1       0.565   4.227   1.731  1.00  0.00    -0.062 NA
ATOM     20  H12 UNL     1       2.287   3.141   3.204  1.00  0.00     0.158 HD
ATOM     21  H11 UNL     1       1.909   1.464   2.863  1.00  0.00     0.158 HD
ATOM     22  H3  UNL     1      -0.996   1.902   1.359  1.00  0.00     0.204 HD
ENDBRANCH  15  16
ENDBRANCH  14  15
ENDBRANCH   1  14
TORSDOF 3
