REMARK  5 active torsions:
REMARK  status: ('A' for Active; 'I' for Inactive)
REMARK    1  A    between atoms: C5_5  and  O1_6 
REMARK    2  A    between atoms: C6_8  and  N1_9 
REMARK       I    between atoms: N1_9  and  C7_11 
REMARK    3  A    between atoms: C7_11  and  C8_13 
REMARK    4  A    between atoms: C11_16  and  C12_17 
REMARK    5  A    between atoms: C12_17  and  N3_21 
ROOT
HETATM    1  N1  UNL     1      -0.399   0.982   0.154  1.00  0.00    -0.354 N 
ATOM      2  H1  UNL     1      -0.169   1.070   1.144  1.00  0.00     0.163 HD
HETATM    3  C7  UNL     1       0.564   1.406  -0.803  1.00  0.00     0.223 C 
HETATM    4  O2  UNL     1       0.229   1.275  -2.018  1.00  0.00    -0.273 OA
ENDROOT
BRANCH   3   5
HETATM    5  C8  UNL     1       1.834   1.948  -0.345  1.00  0.00     0.089 C 
HETATM    6  C9  UNL     1       2.850   2.296  -1.409  1.00  0.00     0.015 C 
HETATM    7  C10 UNL     1       3.901   2.000  -0.360  1.00  0.00     0.014 C 
HETATM    8  C11 UNL     1       2.858   1.049   0.252  1.00  0.00     0.066 C 
BRANCH   8   9
HETATM    9  C12 UNL     1       3.056  -0.286  -0.330  1.00  0.00     0.077 C 
HETATM   10  N2  UNL     1       2.347  -0.692  -1.303  1.00  0.00    -0.389 N 
ATOM     11  H22 UNL     1       1.628  -0.084  -1.695  1.00  0.00     0.157 HD
ATOM     12  H21 UNL     1       2.484  -1.618  -1.707  1.00  0.00     0.157 HD
BRANCH   9  13
HETATM   13  N3  UNL     1       4.051  -1.128   0.212  1.00  0.00    -0.379 N 
HETATM   14  C13 UNL     1       5.187  -1.616  -0.541  1.00  0.00     0.150 C 
HETATM   15  C14 UNL     1       3.897  -1.510   1.617  1.00  0.00     0.150 C 
ENDBRANCH   9  13
ENDBRANCH   8   9
ENDBRANCH   3   5
BRANCH   1  16
HETATM   16  C6  UNL     1      -1.692   0.431  -0.205  1.00  0.00     0.113 C 
HETATM   17  C5  UNL     1      -2.748   1.221   0.495  1.00  0.00     0.140 C 
HETATM   18  C4  UNL     1      -4.137   1.012  -0.005  1.00  0.00     0.034 C 
HETATM   19  C3  UNL     1      -4.271  -0.046  -1.060  1.00  0.00     0.007 C 
HETATM   20  C2  UNL     1      -4.044  -1.441  -0.550  1.00  0.00    -0.019 C 
HETATM   21  C1  UNL     1      -4.668  -1.674   0.799  1.00  0.00     0.010 C 
HETATM   22  C16 UNL     1      -2.590  -1.843  -0.574  1.00  0.00     0.006 C 
HETATM   23  C15 UNL     1      -1.739  -1.001   0.330  1.00  0.00     0.028 C 
BRANCH  17  24
HETATM   24  O1  UNL     1      -2.471   2.584   0.535  1.00  0.00    -0.394 OA
ATOM     25  H1  UNL     1      -1.586   2.717   0.854  1.00  0.00     0.210 HD
ENDBRANCH  17  24
ENDBRANCH   1  16
TORSDOF 5
