REMARK  7 active torsions:
REMARK  status: ('A' for Active; 'I' for Inactive)
REMARK    1  A    between atoms: C3_5  and  C4_6 
REMARK    2  A    between atoms: C4_6  and  C5_7 
REMARK    3  A    between atoms: C5_7  and  O1_8 
REMARK    4  A    between atoms: C6_12  and  C7_13 
REMARK    5  A    between atoms: C7_13  and  C8_14 
REMARK    6  A    between atoms: C8_14  and  N3_15 
REMARK    7  A    between atoms: N3_15  and  C9_17 
ROOT
HETATM    1  C9  UNL     1       2.797   0.306  -0.226  1.00  0.00     0.117 A 
HETATM    2  N4  UNL     1       2.484   0.500  -1.517  1.00  0.00    -0.338 N 
ATOM      3  H4  UNL     1       1.507   0.449  -1.806  1.00  0.00     0.168 HD
HETATM    4  C10 UNL     1       3.437   0.763  -2.447  1.00  0.00     0.183 A 
HETATM    5  N5  UNL     1       4.732   0.830  -2.062  1.00  0.00    -0.338 N 
ATOM      6  H5  UNL     1       5.441   1.028  -2.768  1.00  0.00     0.168 HD
HETATM    7  C11 UNL     1       5.121   0.649  -0.804  1.00  0.00     0.121 A 
HETATM    8  N6  UNL     1       6.311   0.658  -0.147  1.00  0.00    -0.350 N 
ATOM      9  H6  UNL     1       7.222   0.828  -0.573  1.00  0.00     0.166 HD
HETATM   10  C12 UNL     1       6.093   0.406   1.157  1.00  0.00     0.113 A 
HETATM   11  C13 UNL     1       4.738   0.226   1.377  1.00  0.00     0.077 A 
HETATM   12  C14 UNL     1       4.074  -0.062   2.621  1.00  0.00     0.102 C 
HETATM   13  N7  UNL     1       3.530  -0.284   3.635  1.00  0.00    -0.191 NA
HETATM   14  C15 UNL     1       4.130   0.379   0.147  1.00  0.00     0.074 A 
ENDROOT
BRANCH   1  15
HETATM   15  N3  UNL     1       1.939   0.053   0.701  1.00  0.00    -0.375 N 
ATOM     16  H3  UNL     1       2.229  -0.087   1.669  1.00  0.00     0.161 HD
BRANCH  15  17
HETATM   17  C8  UNL     1       0.544  -0.024   0.311  1.00  0.00     0.127 C 
BRANCH  17  18
HETATM   18  C7  UNL     1      -0.332  -0.443   1.478  1.00  0.00     0.078 C 
BRANCH  18  19
HETATM   19  C6  UNL     1      -1.743  -0.504   1.019  1.00  0.00     0.034 A 
HETATM   20  C2  UNL     1      -2.296  -1.501   0.249  1.00  0.00     0.029 A 
HETATM   21  C1  UNL     1      -1.580  -2.680  -0.252  1.00  0.00     0.070 C 
HETATM   22  N1  UNL     1      -3.604  -1.218   0.028  1.00  0.00    -0.348 N 
HETATM   23  C3  UNL     1      -3.862  -0.060   0.654  1.00  0.00     0.083 A 
ATOM     24  H1  UNL     1      -4.265  -1.778  -0.511  1.00  0.00     0.167 HD
HETATM   25  N2  UNL     1      -2.730   0.380   1.259  1.00  0.00    -0.347 N 
ATOM     26  H2  UNL     1      -2.641   1.237   1.805  1.00  0.00     0.167 HD
BRANCH  23  27
HETATM   27  C4  UNL     1      -5.181   0.618   0.670  1.00  0.00     0.102 C 
BRANCH  27  28
HETATM   28  C5  UNL     1      -5.238   1.558  -0.525  1.00  0.00     0.171 C 
BRANCH  28  29
HETATM   29  O1  UNL     1      -6.475   2.225  -0.553  1.00  0.00    -0.400 OA
ATOM     30  H1  UNL     1      -6.511   2.812  -1.299  1.00  0.00     0.209 HD
ENDBRANCH  28  29
ENDBRANCH  27  28
ENDBRANCH  23  27
ENDBRANCH  18  19
ENDBRANCH  17  18
ENDBRANCH  15  17
ENDBRANCH   1  15
TORSDOF 7
