REMARK  5 active torsions:
REMARK  status: ('A' for Active; 'I' for Inactive)
REMARK    1  A    between atoms: C3_5  and  N2_6 
REMARK    2  A    between atoms: C4_11  and  N4_12 
REMARK    3  A    between atoms: N4_12  and  C5_14 
REMARK    4  A    between atoms: C5_14  and  C6_15 
REMARK    5  A    between atoms: C7_16  and  N5_17 
ROOT
HETATM    1  C1  UNL     1      -3.223  -1.384   1.759  1.00  0.00     0.090 C 
HETATM    2  C2  UNL     1      -2.290  -0.615   0.884  1.00  0.00     0.109 A 
HETATM    3  N1  UNL     1      -2.560   0.678   0.636  1.00  0.00    -0.180 N 
ATOM      4  H1  UNL     1      -3.382   1.132   1.033  1.00  0.00     0.185 HD
HETATM    5  C3  UNL     1      -1.697   1.359  -0.164  1.00  0.00     0.691 A 
HETATM    6  N3  UNL     1      -0.618   0.745  -0.677  1.00  0.00    -0.023 N 
ATOM      7  H3  UNL     1       0.016   1.276  -1.274  1.00  0.00     0.203 HD
HETATM    8  C4  UNL     1      -0.348  -0.544  -0.429  1.00  0.00     0.694 A 
HETATM    9  N6  UNL     1      -1.210  -1.208   0.363  1.00  0.00    -0.180 N 
ATOM     10  H6  UNL     1      -1.035  -2.191   0.572  1.00  0.00     0.185 HD
ENDROOT
BRANCH   8  11
HETATM   11  N4  UNL     1       0.675  -1.172  -0.901  1.00  0.00    -0.215 N 
ATOM     12  H4  UNL     1       0.786  -2.154  -0.650  1.00  0.00     0.178 HD
BRANCH  11  13
HETATM   13  C5  UNL     1       1.664  -0.588  -1.751  1.00  0.00     0.234 C 
BRANCH  13  14
HETATM   14  C6  UNL     1       2.713   0.008  -0.929  1.00  0.00    -0.064 C 
HETATM   15  C7  UNL     1       3.572   0.483  -0.241  1.00  0.00     0.005 C 
BRANCH  15  16
HETATM   16  N5  UNL     1       4.570   1.028   0.585  1.00  0.00    -0.359 N 
ATOM     17  H52 UNL     1       3.771   0.399   0.672  1.00  0.00     0.166 HD
ATOM     18  H51 UNL     1       5.301   1.432   1.170  1.00  0.00     0.166 HD
ENDBRANCH  15  16
ENDBRANCH  13  14
ENDBRANCH  11  13
ENDBRANCH   8  11
BRANCH   5  19
HETATM   19  N2  UNL     1      -1.943   2.613  -0.416  1.00  0.00    -0.234 N 
ATOM     20  H22 UNL     1      -2.762   3.079  -0.026  1.00  0.00     0.174 HD
ATOM     21  H21 UNL     1      -1.296   3.124  -1.016  1.00  0.00     0.174 HD
ENDBRANCH   5  19
TORSDOF 5
