REMARK  1 active torsions:
REMARK  status: ('A' for Active; 'I' for Inactive)
REMARK    1  A    between atoms: C2_3  and  C3_4 
REMARK       I    between atoms: N2_8  and  C7_9 
ROOT
HETATM    1  N1  UNL     1       3.071   0.745   1.252  1.00  0.00    -0.197 NA
HETATM    2  C1  UNL     1       2.496   0.581   0.273  1.00  0.00     0.061 C 
HETATM    3  C2  UNL     1       1.760   0.356  -0.964  1.00  0.00     0.149 C 
ENDROOT
BRANCH   3   4
HETATM    4  C3  UNL     1       0.481  -0.412  -0.741  1.00  0.00     0.100 C 
HETATM    5  C4  UNL     1       0.751  -1.780  -0.131  1.00  0.00     0.028 C 
HETATM    6  C5  UNL     1      -0.527  -2.025   0.643  1.00  0.00     0.022 C 
HETATM    7  C6  UNL     1      -0.763  -0.633   1.246  1.00  0.00     0.126 C 
HETATM    8  N2  UNL     1      -0.430   0.245   0.149  1.00  0.00    -0.350 N 
HETATM    9  C7  UNL     1      -0.927   1.558  -0.024  1.00  0.00     0.184 C 
HETATM   10  N3  UNL     1      -0.269   2.619   0.177  1.00  0.00    -0.374 N 
HETATM   11  N4  UNL     1      -2.281   1.659  -0.460  1.00  0.00    -0.064 NA
ATOM     12  H32 UNL     1       0.699   2.547   0.489  1.00  0.00     0.158 HD
ATOM     13  H31 UNL     1      -0.627   3.566   0.052  1.00  0.00     0.158 HD
ENDBRANCH   3   4
TORSDOF 1
