REMARK  10 active torsions:
REMARK  status: ('A' for Active; 'I' for Inactive)
REMARK    1  A    between atoms: N1_1  and  C1_4 
REMARK    2  A    between atoms: C2_9  and  C3_10 
REMARK    3  A    between atoms: C3_10  and  N4_11 
REMARK    4  A    between atoms: N4_11  and  C4_13 
REMARK    5  A    between atoms: N5_15  and  C6_16 
REMARK    6  A    between atoms: C6_16  and  C7_17 
REMARK    7  A    between atoms: C7_17  and  N6_18 
REMARK    8  A    between atoms: N6_18  and  C8_20 
REMARK    9  A    between atoms: C11_31  and  N11_32 
REMARK   10  A    between atoms: N11_32  and  C12_34 
ROOT
HETATM    1  C4  UNL     1      -0.222   0.173  -0.058  1.00  0.00     0.138 A 
HETATM    2  C5  UNL     1       0.993   0.316   0.582  1.00  0.00     0.161 A 
HETATM    3  N5  UNL     1       1.475   1.521   0.480  1.00  0.00    -0.281 N 
HETATM    4  N9  UNL     1       0.562   2.198  -0.244  1.00  0.00    -0.239 N 
ATOM      5  H9  UNL     1       0.647   3.182  -0.497  1.00  0.00     0.208 HD
HETATM    6  N10 UNL     1      -0.441   1.441  -0.580  1.00  0.00    -0.270 N 
ATOM      7  H10 UNL     1      -1.249   1.729  -1.132  1.00  0.00     0.190 HD
ENDROOT
BRANCH   1   8
HETATM    8  N4  UNL     1      -1.208  -0.839  -0.072  1.00  0.00    -0.348 N 
ATOM      9  H4  UNL     1      -1.110  -1.639   0.553  1.00  0.00     0.167 HD
BRANCH   8  10
HETATM   10  C3  UNL     1      -2.322  -0.769  -0.929  1.00  0.00     0.123 C 
BRANCH  10  11
HETATM   11  C2  UNL     1      -3.548  -1.487  -0.509  1.00  0.00     0.094 A 
HETATM   12  N3  UNL     1      -3.718  -2.828  -0.576  1.00  0.00    -0.295 N 
HETATM   13  N2  UNL     1      -5.012  -3.116  -0.357  1.00  0.00    -0.283 N 
ATOM     14  H3  UNL     1      -2.983  -3.510  -0.763  1.00  0.00     0.187 HD
HETATM   15  C1  UNL     1      -5.703  -1.969  -0.152  1.00  0.00     0.143 A 
ATOM     16  H2  UNL     1      -5.412  -4.054  -0.347  1.00  0.00     0.188 HD
HETATM   17  C11 UNL     1      -4.793  -0.960  -0.239  1.00  0.00     0.108 A 
BRANCH  15  18
HETATM   18  N1  UNL     1      -6.970  -1.843   0.084  1.00  0.00    -0.383 N 
ATOM     19  H12 UNL     1      -7.652  -2.599   0.149  1.00  0.00     0.157 HD
ATOM     20  H11 UNL     1      -7.490  -0.979   0.238  1.00  0.00     0.157 HD
ENDBRANCH  15  18
BRANCH  17  21
HETATM   21  N11 UNL     1      -4.911   0.413   0.057  1.00  0.00    -0.349 N 
ATOM     22  H11 UNL     1      -4.726   0.635   1.035  1.00  0.00     0.166 HD
BRANCH  21  23
HETATM   23  C12 UNL     1      -5.228   1.526  -0.711  1.00  0.00     0.190 C 
HETATM   24  N12 UNL     1      -6.628   1.658  -1.143  1.00  0.00    -0.097 NA
ENDBRANCH  21  23
ENDBRANCH  17  21
ENDBRANCH  10  11
ENDBRANCH   8  10
ENDBRANCH   1   8
BRANCH   3  25
HETATM   25  C6  UNL     1       2.769   2.055   0.930  1.00  0.00     0.194 C 
BRANCH  25  26
HETATM   26  C7  UNL     1       3.771   2.273  -0.121  1.00  0.00     0.085 C 
BRANCH  26  27
HETATM   27  N6  UNL     1       4.327   1.239  -0.891  1.00  0.00    -0.341 N 
ATOM     28  H6  UNL     1       3.944   1.101  -1.826  1.00  0.00     0.168 HD
BRANCH  27  29
HETATM   29  C8  UNL     1       5.373   0.367  -0.488  1.00  0.00     0.174 C 
HETATM   30  N7  UNL     1       5.853   0.296   0.738  1.00  0.00    -0.361 N 
HETATM   31  C9  UNL     1       6.912  -0.680   0.831  1.00  0.00     0.142 C 
ATOM     32  H7  UNL     1       5.519   0.859   1.520  1.00  0.00     0.162 HD
HETATM   33  C10 UNL     1       7.263  -1.009  -0.599  1.00  0.00     0.142 C 
HETATM   34  N8  UNL     1       6.101  -0.544  -1.294  1.00  0.00    -0.361 N 
ATOM     35  H8  UNL     1       5.834  -0.828  -2.237  1.00  0.00     0.162 HD
ENDBRANCH  27  29
ENDBRANCH  26  27
ENDBRANCH  25  26
ENDBRANCH   3  25
TORSDOF 10
