REMARK  16 active torsions:
REMARK  status: ('A' for Active; 'I' for Inactive)
REMARK    1  A    between atoms: C1_2  and  C2_3 
REMARK    2  A    between atoms: C2_3  and  C3_4 
REMARK    3  A    between atoms: C3_4  and  C4_5 
REMARK    4  A    between atoms: C4_5  and  C5_6 
REMARK    5  A    between atoms: C5_6  and  C6_7 
REMARK    6  A    between atoms: C6_7  and  C7_8 
REMARK    7  A    between atoms: C7_8  and  C8_9 
REMARK    8  A    between atoms: C8_9  and  C9_10 
REMARK    9  A    between atoms: C9_10  and  C10_11 
REMARK   10  A    between atoms: C10_11  and  C11_12 
REMARK   11  A    between atoms: C11_12  and  C12_13 
REMARK   12  A    between atoms: C12_13  and  N1_14 
REMARK   13  A    between atoms: N1_14  and  C13_17 
REMARK   14  A    between atoms: C13_17  and  C14_18 
REMARK   15  A    between atoms: C14_18  and  C15_19 
REMARK   16  A    between atoms: C15_19  and  C16_20 
ROOT
HETATM    1  C12 UNL     1      -1.847   1.107  -0.719  1.00  0.00     0.232 C 
ENDROOT
BRANCH   1   2
HETATM    2  C11 UNL     1      -1.304   0.606   0.577  1.00  0.00     0.027 C 
BRANCH   2   3
HETATM    3  C10 UNL     1       0.174   0.250   0.478  1.00  0.00     0.002 C 
BRANCH   3   4
HETATM    4  C9  UNL     1       1.010   1.417   0.087  1.00  0.00     0.000 C 
BRANCH   4   5
HETATM    5  C8  UNL     1       2.470   0.953   0.002  1.00  0.00     0.000 C 
BRANCH   5   6
HETATM    6  C7  UNL     1       2.938   0.431   1.314  1.00  0.00     0.000 C 
BRANCH   6   7
HETATM    7  C6  UNL     1       4.403  -0.044   1.181  1.00  0.00     0.000 C 
BRANCH   7   8
HETATM    8  C5  UNL     1       5.331   1.043   0.786  1.00  0.00     0.000 C 
BRANCH   8   9
HETATM    9  C4  UNL     1       6.766   0.765   0.717  1.00  0.00     0.000 C 
BRANCH   9  10
HETATM   10  C3  UNL     1       7.375  -0.216  -0.173  1.00  0.00     0.001 C 
BRANCH  10  11
HETATM   11  C2  UNL     1       7.068  -1.652  -0.053  1.00  0.00     0.011 C 
BRANCH  11  12
HETATM   12  C1  UNL     1       7.932  -2.379  -1.111  1.00  0.00     0.086 C 
HETATM   13  S1  UNL     1       7.541  -1.795  -2.771  1.00  0.00    -0.098 SA
ENDBRANCH  11  12
ENDBRANCH  10  11
ENDBRANCH   9  10
ENDBRANCH   8   9
ENDBRANCH   7   8
ENDBRANCH   6   7
ENDBRANCH   5   6
ENDBRANCH   4   5
ENDBRANCH   3   4
ENDBRANCH   2   3
ENDBRANCH   1   2
BRANCH   1  14
HETATM   14  N1  UNL     1      -3.241   1.447  -0.596  1.00  0.00    -0.075 N 
ATOM     15  H12 UNL     1      -3.404   2.137   0.138  1.00  0.00     0.277 HD
ATOM     16  H11 UNL     1      -3.573   1.994  -1.390  1.00  0.00     0.277 HD
BRANCH  14  17
HETATM   17  C13 UNL     1      -4.012   0.265  -0.400  1.00  0.00     0.232 C 
BRANCH  17  18
HETATM   18  C14 UNL     1      -5.510   0.575  -0.287  1.00  0.00     0.032 C 
BRANCH  18  19
HETATM   19  C15 UNL     1      -6.186  -0.761  -0.085  1.00  0.00     0.041 C 
BRANCH  19  20
HETATM   20  C16 UNL     1      -7.639  -0.682   0.048  1.00  0.00    -0.043 A 
HETATM   21  C17 UNL     1      -8.482  -0.761  -1.036  1.00  0.00     0.010 A 
HETATM   22  C18 UNL     1      -9.867  -0.684  -0.889  1.00  0.00     0.018 A 
HETATM   23  C19 UNL     1     -10.392  -0.524   0.388  1.00  0.00     0.087 A 
HETATM   24  N2  UNL     1      -9.563  -0.448   1.444  1.00  0.00    -0.375 N 
HETATM   25  C20 UNL     1      -8.212  -0.525   1.287  1.00  0.00     0.094 A 
ATOM     26  H2  UNL     1      -9.953  -0.331   2.379  1.00  0.00     0.164 HD
ENDBRANCH  19  20
ENDBRANCH  18  19
ENDBRANCH  17  18
ENDBRANCH  14  17
ENDBRANCH   1  14
TORSDOF 16
