REMARK  9 active torsions:
REMARK  status: ('A' for Active; 'I' for Inactive)
REMARK       I    between atoms: N1_2  and  C2_4 
REMARK    1  A    between atoms: C2_4  and  C3_6 
REMARK    2  A    between atoms: C8_11  and  C9_12 
REMARK    3  A    between atoms: C9_12  and  C11_14 
REMARK    4  A    between atoms: C11_14  and  C12_15 
REMARK    5  A    between atoms: C12_15  and  C13_16 
REMARK       I    between atoms: C13_16  and  N2_18 
REMARK    6  A    between atoms: N2_18  and  C14_20 
REMARK    7  A    between atoms: C14_20  and  C15_21 
REMARK    8  A    between atoms: C15_21  and  O4_23 
REMARK    9  A    between atoms: C28_36  and  O5_37 
ROOT
HETATM    1  C3  UNL     1      -2.143   0.859  -0.441  1.00  0.00     0.053 C 
HETATM    2  C4  UNL     1      -1.078  -0.046  -1.076  1.00  0.00     0.021 C 
HETATM    3  C5  UNL     1      -0.631  -1.177  -0.257  1.00  0.00     0.011 C 
HETATM    4  C6  UNL     1       0.015  -0.687   1.049  1.00  0.00    -0.032 C 
HETATM    5  C7  UNL     1      -0.108  -1.882   1.964  1.00  0.00     0.016 C 
HETATM    6  C8  UNL     1       1.464  -0.363   0.718  1.00  0.00    -0.002 C 
HETATM    7  C17 UNL     1       1.757   0.886   1.537  1.00  0.00     0.006 C 
HETATM    8  C18 UNL     1       0.442   1.622   1.395  1.00  0.00     0.011 C 
HETATM    9  C19 UNL     1      -0.607   0.537   1.563  1.00  0.00    -0.032 C 
HETATM   10  C20 UNL     1      -0.766   0.476   3.092  1.00  0.00     0.016 C 
HETATM   11  C21 UNL     1      -1.946   0.964   1.024  1.00  0.00     0.013 C 
HETATM   12  C22 UNL     1      -3.020   0.495   1.931  1.00  0.00     0.007 C 
HETATM   13  C23 UNL     1      -4.417   0.488   1.287  1.00  0.00     0.007 C 
HETATM   14  C24 UNL     1      -4.271  -0.369   0.120  1.00  0.00     0.005 C 
HETATM   15  C25 UNL     1      -5.447  -0.928  -0.556  1.00  0.00    -0.017 C 
HETATM   16  C26 UNL     1      -6.745  -0.220  -0.346  1.00  0.00     0.018 C 
HETATM   17  C27 UNL     1      -5.686  -2.363  -0.045  1.00  0.00     0.018 C 
HETATM   18  C28 UNL     1      -4.990  -1.046  -1.974  1.00  0.00     0.127 C 
HETATM   19  C29 UNL     1      -3.530  -0.593  -2.023  1.00  0.00     0.043 C 
HETATM   20  C30 UNL     1      -3.496   0.445  -0.922  1.00  0.00    -0.021 C 
HETATM   21  C31 UNL     1      -4.316   1.603  -1.437  1.00  0.00     0.017 C 
ENDROOT
BRANCH   6  22
HETATM   22  C9  UNL     1       2.455  -1.421   0.898  1.00  0.00    -0.013 C 
HETATM   23  C10 UNL     1       2.756  -1.965   2.246  1.00  0.00     0.010 C 
BRANCH  22  24
HETATM   24  C11 UNL     1       3.682  -1.288   0.084  1.00  0.00     0.014 C 
BRANCH  24  25
HETATM   25  C12 UNL     1       4.522  -0.073   0.245  1.00  0.00     0.103 C 
BRANCH  25  26
HETATM   26  C13 UNL     1       5.770  -0.165  -0.609  1.00  0.00     0.217 C 
HETATM   27  O2  UNL     1       5.943  -1.180  -1.307  1.00  0.00    -0.274 OA
HETATM   28  N2  UNL     1       6.730   0.862  -0.632  1.00  0.00    -0.352 N 
ATOM     29  H2  UNL     1       6.575   1.691  -0.058  1.00  0.00     0.162 HD
BRANCH  28  30
HETATM   30  C14 UNL     1       7.906   0.790  -1.422  1.00  0.00     0.233 C 
BRANCH  30  31
HETATM   31  C15 UNL     1       8.818  -0.333  -1.099  1.00  0.00     0.276 C 
HETATM   32  O3  UNL     1       8.547  -1.128  -0.167  1.00  0.00    -0.263 OA
BRANCH  31  33
HETATM   33  O4  UNL     1       9.984  -0.553  -1.795  1.00  0.00    -0.325 OA
HETATM   34  C16 UNL     1      10.876  -1.615  -1.511  1.00  0.00     0.213 C 
ENDBRANCH  31  33
ENDBRANCH  30  31
ENDBRANCH  28  30
ENDBRANCH  25  26
ENDBRANCH  24  25
ENDBRANCH  22  24
ENDBRANCH   6  22
BRANCH   1  35
HETATM   35  C2  UNL     1      -1.871   2.183  -1.131  1.00  0.00     0.227 C 
HETATM   36  N1  UNL     1      -2.336   3.419  -0.636  1.00  0.00    -0.365 N 
HETATM   37  C1  UNL     1      -2.060   4.666  -1.327  1.00  0.00     0.149 C 
ATOM     38  H1  UNL     1      -2.879   3.437   0.227  1.00  0.00     0.161 HD
HETATM   39  O1  UNL     1      -1.198   2.240  -2.212  1.00  0.00    -0.273 OA
ENDBRANCH   1  35
BRANCH  18  40
HETATM   40  O5  UNL     1      -5.007  -2.395  -2.422  1.00  0.00    -0.395 OA
ATOM     41  H5  UNL     1      -4.716  -2.470  -3.323  1.00  0.00     0.210 HD
ENDBRANCH  18  40
TORSDOF 9
