REMARK  8 active torsions:
REMARK  status: ('A' for Active; 'I' for Inactive)
REMARK    1  A    between atoms: C2_2  and  C3_3 
REMARK    2  A    between atoms: C3_3  and  C4_4 
REMARK    3  A    between atoms: C4_4  and  C5_5 
REMARK    4  A    between atoms: C5_5  and  N1_6 
REMARK    5  A    between atoms: N1_6  and  C6_9 
REMARK    6  A    between atoms: C6_9  and  C7_10 
REMARK    7  A    between atoms: C7_10  and  C8_11 
REMARK    8  A    between atoms: C8_11  and  C9_12 
ROOT
HETATM    1  N1  UNL     1       0.910  -0.045  -0.339  1.00  0.00    -0.075 N 
ATOM      2  H11 UNL     1       0.801  -0.971  -0.753  1.00  0.00     0.277 HD
ATOM      3  H12 UNL     1       1.450   0.404  -1.078  1.00  0.00     0.277 HD
ENDROOT
BRANCH   1   4
HETATM    4  C5  UNL     1       1.664  -0.113   0.880  1.00  0.00     0.232 C 
BRANCH   4   5
HETATM    5  C4  UNL     1       3.041  -0.729   0.591  1.00  0.00     0.031 C 
BRANCH   5   6
HETATM    6  C3  UNL     1       3.682   0.249  -0.410  1.00  0.00     0.028 C 
BRANCH   6   7
HETATM    7  C2  UNL     1       5.034  -0.202  -0.788  1.00  0.00    -0.037 C 
HETATM    8  C1  UNL     1       5.314  -0.437  -2.046  1.00  0.00     0.007 C 
ENDBRANCH   6   7
ENDBRANCH   5   6
ENDBRANCH   4   5
ENDBRANCH   1   4
BRANCH   1   9
HETATM    9  C6  UNL     1      -0.370   0.600  -0.168  1.00  0.00     0.232 C 
BRANCH   9  10
HETATM   10  C7  UNL     1      -1.235  -0.266   0.688  1.00  0.00     0.028 C 
BRANCH  10  11
HETATM   11  C8  UNL     1      -2.600   0.304   0.931  1.00  0.00     0.005 C 
BRANCH  11  12
HETATM   12  C9  UNL     1      -3.318   0.494  -0.359  1.00  0.00    -0.023 C 
HETATM   13  C10 UNL     1      -4.710   1.089  -0.123  1.00  0.00     0.009 C 
HETATM   14  C11 UNL     1      -3.550  -0.766  -1.151  1.00  0.00     0.009 C 
ENDBRANCH  11  12
ENDBRANCH  10  11
ENDBRANCH   9  10
ENDBRANCH   1   9
TORSDOF 8
