REMARK  11 active torsions:
REMARK  status: ('A' for Active; 'I' for Inactive)
REMARK    1  A    between atoms: C2_2  and  C3_3 
REMARK    2  A    between atoms: C3_3  and  C4_4 
REMARK    3  A    between atoms: C4_4  and  C5_5 
REMARK    4  A    between atoms: C7_7  and  C8_8 
REMARK    5  A    between atoms: N1_9  and  N2_11 
REMARK    6  A    between atoms: C12_18  and  N5_19 
REMARK    7  A    between atoms: N7_28  and  C18_29 
REMARK    8  A    between atoms: C18_29  and  C19_30 
REMARK    9  A    between atoms: C19_30  and  C20_31 
REMARK   10  A    between atoms: C20_31  and  C21_32 
REMARK   11  A    between atoms: C21_32  and  N8_33 
ROOT
HETATM    1  N5  UNL     1      -1.949   0.579   0.171  1.00  0.00    -0.191 N 
ATOM      2  H5  UNL     1      -1.600   0.895   1.076  1.00  0.00     0.184 HD
HETATM    3  C13 UNL     1      -1.125  -0.116  -0.506  1.00  0.00     0.684 A 
HETATM    4  N6  UNL     1       0.122  -0.376   0.016  1.00  0.00    -0.175 N 
ATOM      5  H6  UNL     1       0.377  -0.022   0.938  1.00  0.00     0.186 HD
HETATM    6  C14 UNL     1       0.999  -1.098  -0.696  1.00  0.00     0.134 A 
HETATM    7  C15 UNL     1       0.657  -1.576  -1.939  1.00  0.00     0.026 A 
HETATM    8  C16 UNL     1       1.765  -2.262  -2.404  1.00  0.00     0.034 A 
HETATM    9  C17 UNL     1       2.710  -2.168  -1.436  1.00  0.00     0.093 A 
HETATM   10  N7  UNL     1       2.282  -1.468  -0.380  1.00  0.00    -0.342 N 
HETATM   11  C27 UNL     1      -0.617  -1.303  -2.457  1.00  0.00     0.121 A 
HETATM   12  N10 UNL     1      -1.461  -0.580  -1.714  1.00  0.00    -0.201 N 
ATOM     13  H10 UNL     1      -2.391  -0.376  -2.080  1.00  0.00     0.183 HD
ENDROOT
BRANCH   1  14
HETATM   14  C12 UNL     1      -3.256   0.979  -0.127  1.00  0.00     0.055 A 
HETATM   15  C5  UNL     1      -4.388   0.588   0.529  1.00  0.00    -0.030 A 
HETATM   16  C6  UNL     1      -5.627   1.041   0.178  1.00  0.00     0.022 A 
HETATM   17  C7  UNL     1      -5.796   1.912  -0.850  1.00  0.00    -0.019 A 
HETATM   18  C10 UNL     1      -4.678   2.343  -1.552  1.00  0.00     0.015 A 
HETATM   19  C11 UNL     1      -3.433   1.881  -1.193  1.00  0.00     0.031 A 
BRANCH  15  20
HETATM   20  C4  UNL     1      -4.246  -0.349   1.660  1.00  0.00     0.041 C 
BRANCH  20  21
HETATM   21  C3  UNL     1      -5.449  -1.167   1.966  1.00  0.00     0.004 C 
BRANCH  21  22
HETATM   22  C2  UNL     1      -5.855  -2.054   0.828  1.00  0.00    -0.004 C 
HETATM   23  C1  UNL     1      -4.726  -3.012   0.505  1.00  0.00     0.005 C 
ENDBRANCH  21  22
ENDBRANCH  20  21
ENDBRANCH  15  20
BRANCH  17  24
HETATM   24  C8  UNL     1      -7.152   2.382  -1.231  1.00  0.00     0.118 C 
HETATM   25  N1  UNL     1      -8.104   1.956  -0.624  1.00  0.00    -0.309 N 
ATOM     26  H1  UNL     1      -7.639   1.337   0.040  1.00  0.00     0.186 HD
BRANCH  25  27
HETATM   27  N2  UNL     1      -9.346   1.785  -0.279  1.00  0.00    -0.276 N 
HETATM   28  C9  UNL     1      -9.896   1.831   0.882  1.00  0.00     0.215 C 
HETATM   29  N3  UNL     1      -9.088   2.109   2.019  1.00  0.00    -0.065 NA
HETATM   30  N4  UNL     1     -11.273   1.598   0.997  1.00  0.00    -0.065 NA
ATOM     31  H2  UNL     1      -9.983   1.583  -1.050  1.00  0.00     0.189 HD
ENDBRANCH  25  27
ENDBRANCH  17  24
ENDBRANCH   1  14
BRANCH  10  32
HETATM   32  C18 UNL     1       2.927  -1.129   0.871  1.00  0.00     0.130 C 
BRANCH  32  33
HETATM   33  C19 UNL     1       3.612   0.192   0.848  1.00  0.00     0.022 C 
BRANCH  33  34
HETATM   34  C20 UNL     1       4.705   0.369  -0.138  1.00  0.00     0.032 C 
BRANCH  34  35
HETATM   35  C21 UNL     1       5.855  -0.567   0.037  1.00  0.00     0.272 C 
BRANCH  35  36
HETATM   36  N8  UNL     1       6.880  -0.316  -0.960  1.00  0.00     0.091 N 
HETATM   37  C22 UNL     1       7.968  -1.222  -0.716  1.00  0.00     0.302 C 
HETATM   38  C23 UNL     1       8.948  -0.684   0.313  1.00  0.00     0.302 C 
HETATM   39  N9  UNL     1       9.440   0.586  -0.122  1.00  0.00     0.087 N 
HETATM   40  C24 UNL     1       9.401   1.579   0.931  1.00  0.00     0.310 C 
HETATM   41  C25 UNL     1       8.767   1.120  -1.275  1.00  0.00     0.302 C 
HETATM   42  C26 UNL     1       7.280   1.055  -1.015  1.00  0.00     0.302 C 
ENDBRANCH  35  36
ENDBRANCH  34  35
ENDBRANCH  33  34
ENDBRANCH  32  33
ENDBRANCH  10  32
TORSDOF 11
