REMARK  13 active torsions:
REMARK  status: ('A' for Active; 'I' for Inactive)
REMARK    1  A    between atoms: C2_2  and  N1_3 
REMARK       I    between atoms: N1_3  and  C3_5 
REMARK    2  A    between atoms: C3_5  and  C4_7 
REMARK    3  A    between atoms: C4_7  and  C5_9 
REMARK    4  A    between atoms: C5_9  and  C6_10 
REMARK    5  A    between atoms: C5_9  and  N2_18 
REMARK    6  A    between atoms: C6_10  and  C7_11 
REMARK       I    between atoms: N2_18  and  C13_20 
REMARK    7  A    between atoms: C13_20  and  C14_22 
REMARK    8  A    between atoms: C14_22  and  C15_23 
REMARK    9  A    between atoms: C15_23  and  C16_24 
REMARK   10  A    between atoms: C16_24  and  C20_32 
REMARK       I    between atoms: N3_25  and  C17_27 
REMARK   11  A    between atoms: C17_27  and  O5_29 
REMARK   12  A    between atoms: O5_29  and  C18_30 
REMARK       I    between atoms: C20_32  and  N4_34 
REMARK   13  A    between atoms: N4_34  and  C21_36 
ROOT
HETATM    1  N2  UNL     1      -0.442  -0.695   0.169  1.00  0.00    -0.349 N 
ATOM      2  H2  UNL     1      -0.355  -1.711   0.183  1.00  0.00     0.163 HD
HETATM    3  C13 UNL     1       0.692   0.105   0.290  1.00  0.00     0.218 C 
HETATM    4  O3  UNL     1       0.688   1.361   0.286  1.00  0.00    -0.274 OA
ENDROOT
BRANCH   3   5
HETATM    5  C14 UNL     1       2.039  -0.543   0.439  1.00  0.00     0.109 C 
BRANCH   5   6
HETATM    6  C15 UNL     1       3.142   0.481   0.549  1.00  0.00     0.072 C 
BRANCH   6   7
HETATM    7  C16 UNL     1       4.431  -0.213   0.672  1.00  0.00     0.082 C 
HETATM    8  N3  UNL     1       5.017  -0.212   1.819  1.00  0.00    -0.301 N 
HETATM    9  C17 UNL     1       4.548   0.394   2.992  1.00  0.00     0.365 C 
ATOM     10  H3  UNL     1       5.910  -0.700   1.879  1.00  0.00     0.171 HD
HETATM   11  O4  UNL     1       3.621  -0.165   3.632  1.00  0.00    -0.238 OA
BRANCH   9  12
HETATM   12  O5  UNL     1       5.035   1.581   3.507  1.00  0.00    -0.304 OA
BRANCH  12  13
HETATM   13  C18 UNL     1       4.562   2.180   4.678  1.00  0.00     0.176 C 
HETATM   14  C19 UNL     1       3.078   2.524   4.587  1.00  0.00     0.034 C 
ENDBRANCH  12  13
ENDBRANCH   9  12
BRANCH   7  15
HETATM   15  C20 UNL     1       5.014  -0.924  -0.433  1.00  0.00     0.264 C 
HETATM   16  O6  UNL     1       6.098  -1.570  -0.215  1.00  0.00    -0.266 OA
HETATM   17  N4  UNL     1       4.499  -0.971  -1.745  1.00  0.00    -0.348 N 
ATOM     18  H4  UNL     1       3.643  -0.471  -1.985  1.00  0.00     0.163 HD
BRANCH  17  19
HETATM   19  C21 UNL     1       5.211  -1.745  -2.749  1.00  0.00     0.022 C 
HETATM   20  C22 UNL     1       4.482  -1.668  -4.076  1.00  0.00     0.037 C 
HETATM   21  C23 UNL     1       5.291  -3.185  -2.276  1.00  0.00     0.037 C 
HETATM   22  C24 UNL     1       6.598  -1.157  -2.881  1.00  0.00     0.037 C 
ENDBRANCH  17  19
ENDBRANCH   7  15
ENDBRANCH   6   7
ENDBRANCH   5   6
ENDBRANCH   3   5
BRANCH   1  23
HETATM   23  C5  UNL     1      -1.789  -0.059   0.019  1.00  0.00     0.169 C 
BRANCH  23  24
HETATM   24  C4  UNL     1      -2.560  -0.465   1.211  1.00  0.00     0.239 C 
HETATM   25  O2  UNL     1      -2.145  -1.460   1.910  1.00  0.00    -0.285 OA
BRANCH  24  26
HETATM   26  C3  UNL     1      -3.769   0.151   1.706  1.00  0.00     0.289 C 
HETATM   27  N1  UNL     1      -4.499  -0.340   2.819  1.00  0.00    -0.355 N 
ATOM     28  H1  UNL     1      -4.148  -1.173   3.291  1.00  0.00     0.162 HD
HETATM   29  O1  UNL     1      -4.217   1.170   1.144  1.00  0.00    -0.264 OA
BRANCH  27  30
HETATM   30  C2  UNL     1      -5.695   0.260   3.319  1.00  0.00     0.118 C 
HETATM   31  C1  UNL     1      -5.390   1.678   3.738  1.00  0.00     0.026 C 
ENDBRANCH  27  30
ENDBRANCH  24  26
ENDBRANCH  23  24
BRANCH  23  32
HETATM   32  C6  UNL     1      -2.273  -0.614  -1.278  1.00  0.00     0.079 C 
BRANCH  32  33
HETATM   33  C7  UNL     1      -3.651  -0.290  -1.698  1.00  0.00    -0.014 A 
HETATM   34  C8  UNL     1      -4.115   0.780  -2.422  1.00  0.00     0.022 A 
HETATM   35  C9  UNL     1      -5.418   0.835  -2.706  1.00  0.00    -0.048 A 
HETATM   36  C10 UNL     1      -6.054   1.973  -3.503  1.00  0.00     0.049 C 
HETATM   37  C11 UNL     1      -6.206  -0.191  -2.248  1.00  0.00    -0.015 A 
HETATM   38  C12 UNL     1      -7.689  -0.366  -2.429  1.00  0.00     0.057 C 
HETATM   39  S1  UNL     1      -5.103  -1.195  -1.439  1.00  0.00    -0.099 SA
ENDBRANCH  32  33
ENDBRANCH  23  32
ENDBRANCH   1  23
TORSDOF 13
