REMARK  13 active torsions:
REMARK  status: ('A' for Active; 'I' for Inactive)
REMARK    1  A    between atoms: C2_2  and  C3_3 
REMARK    2  A    between atoms: C3_3  and  C4_5 
REMARK    3  A    between atoms: C4_5  and  C5_6 
REMARK    4  A    between atoms: C5_6  and  C6_7 
REMARK    5  A    between atoms: C6_7  and  C7_8 
REMARK    6  A    between atoms: C7_8  and  C8_9 
REMARK    7  A    between atoms: C8_9  and  C9_10 
REMARK    8  A    between atoms: C9_10  and  C10_11 
REMARK       I    between atoms: C10_11  and  N1_13 
REMARK    9  A    between atoms: N1_13  and  C12_15 
REMARK   10  A    between atoms: C12_15  and  C13_16 
REMARK       I    between atoms: C13_16  and  N2_18 
REMARK   11  A    between atoms: N2_18  and  C14_20 
REMARK   12  A    between atoms: C20_26  and  O4_27 
REMARK   13  A    between atoms: C22_31  and  O5_32 
ROOT
HETATM    1  C14 UNL     1       1.977  -1.545  -0.633  1.00  0.00     0.141 C 
HETATM    2  C15 UNL     1       2.927  -1.505   0.553  1.00  0.00     0.030 C 
HETATM    3  C16 UNL     1       4.007  -0.538   0.274  1.00  0.00     0.014 C 
HETATM    4  C17 UNL     1       3.711   0.886   0.510  1.00  0.00     0.058 C 
HETATM    5  C18 UNL     1       4.389   1.675  -0.585  1.00  0.00     0.013 A 
HETATM    6  C19 UNL     1       3.446   2.174  -1.450  1.00  0.00     0.040 A 
HETATM    7  C20 UNL     1       4.118   2.879  -2.420  1.00  0.00     0.154 A 
HETATM    8  N3  UNL     1       5.435   2.830  -2.181  1.00  0.00    -0.312 N 
HETATM    9  C21 UNL     1       6.486   3.462  -2.997  1.00  0.00     0.160 C 
HETATM   10  C22 UNL     1       5.610   2.100  -1.068  1.00  0.00     0.151 A 
HETATM   11  C23 UNL     1       2.082   1.766  -1.015  1.00  0.00     0.121 C 
HETATM   12  C24 UNL     1       1.081   2.871  -1.085  1.00  0.00     0.054 C 
HETATM   13  O6  UNL     1       1.692   0.592  -1.629  1.00  0.00    -0.339 OA
HETATM   14  C25 UNL     1       1.198  -0.264  -0.676  1.00  0.00     0.345 C 
HETATM   15  N4  UNL     1       1.281   0.379   0.610  1.00  0.00    -0.039 N 
ATOM     16  H41 UNL     1       1.424  -0.255   1.396  1.00  0.00     0.281 HD
ATOM     17  H42 UNL     1       0.402   0.767   0.952  1.00  0.00     0.281 HD
HETATM   18  C26 UNL     1       2.324   1.339   0.416  1.00  0.00     0.236 C 
ENDROOT
BRANCH   1  19
HETATM   19  N2  UNL     1       1.029  -2.633  -0.499  1.00  0.00    -0.351 N 
HETATM   20  C13 UNL     1       0.931  -3.744  -1.355  1.00  0.00     0.235 C 
HETATM   21  O3  UNL     1       1.695  -3.852  -2.330  1.00  0.00    -0.272 OA
ATOM     22  H2  UNL     1       0.377  -2.589   0.284  1.00  0.00     0.163 HD
BRANCH  20  23
HETATM   23  C12 UNL     1      -0.083  -4.793  -1.101  1.00  0.00     0.227 C 
BRANCH  23  24
HETATM   24  N1  UNL     1      -0.858  -4.448   0.089  1.00  0.00    -0.348 N 
HETATM   25  C10 UNL     1      -2.067  -3.670  -0.019  1.00  0.00     0.219 C 
HETATM   26  O2  UNL     1      -2.411  -3.371  -1.188  1.00  0.00    -0.273 OA
HETATM   27  C11 UNL     1      -0.403  -4.867   1.382  1.00  0.00     0.153 C 
BRANCH  25  28
HETATM   28  C9  UNL     1      -2.802  -3.285   1.199  1.00  0.00     0.103 C 
BRANCH  28  29
HETATM   29  C8  UNL     1      -4.072  -2.538   0.969  1.00  0.00     0.009 C 
BRANCH  29  30
HETATM   30  C7  UNL     1      -3.915  -1.226   0.244  1.00  0.00     0.000 C 
BRANCH  30  31
HETATM   31  C6  UNL     1      -2.994  -0.291   1.019  1.00  0.00     0.000 C 
BRANCH  31  32
HETATM   32  C5  UNL     1      -2.841   1.016   0.313  1.00  0.00     0.007 C 
BRANCH  32  33
HETATM   33  C4  UNL     1      -4.090   1.790   0.099  1.00  0.00     0.078 C 
BRANCH  33  34
HETATM   34  C3  UNL     1      -4.815   2.197   1.312  1.00  0.00     0.126 C 
HETATM   35  O1  UNL     1      -4.317   1.919   2.393  1.00  0.00    -0.298 OA
BRANCH  34  36
HETATM   36  C2  UNL     1      -6.107   2.919   1.307  1.00  0.00     0.074 C 
HETATM   37  C1  UNL     1      -6.563   3.174   2.716  1.00  0.00     0.013 C 
ENDBRANCH  34  36
ENDBRANCH  33  34
ENDBRANCH  32  33
ENDBRANCH  31  32
ENDBRANCH  30  31
ENDBRANCH  29  30
ENDBRANCH  28  29
ENDBRANCH  25  28
ENDBRANCH  23  24
ENDBRANCH  20  23
ENDBRANCH   1  19
BRANCH  10  38
HETATM   38  O5  UNL     1       6.854   1.825  -0.503  1.00  0.00    -0.345 OA
ATOM     39  H5  UNL     1       7.694   2.118  -0.835  1.00  0.00     0.219 HD
ENDBRANCH  10  38
BRANCH   7  40
HETATM   40  O4  UNL     1       3.545   3.565  -3.516  1.00  0.00    -0.345 OA
ATOM     41  H4  UNL     1       4.009   4.052  -4.186  1.00  0.00     0.219 HD
ENDBRANCH   7  40
TORSDOF 13
