REMARK  13 active torsions:
REMARK  status: ('A' for Active; 'I' for Inactive)
REMARK    1  A    between atoms: N1_2  and  C2_3 
REMARK    2  A    between atoms: N1_2  and  S1_9 
REMARK    3  A    between atoms: S1_9  and  N2_12 
REMARK    4  A    between atoms: N2_12  and  C8_13 
REMARK    5  A    between atoms: N2_12  and  S2_21 
REMARK    6  A    between atoms: C8_13  and  C9_14 
REMARK    7  A    between atoms: C9_14  and  O3_15 
REMARK    8  A    between atoms: N3_17  and  O4_19 
REMARK    9  A    between atoms: S2_21  and  C11_25 
REMARK   10  A    between atoms: C11_25  and  C12_26 
REMARK   11  A    between atoms: C12_26  and  C13_27 
REMARK   12  A    between atoms: C13_27  and  C14_28 
REMARK   13  A    between atoms: C14_28  and  C15_29 
ROOT
HETATM    1  S2  UNL     1      -0.091   1.202  -0.923  1.00  0.00     0.136 S 
HETATM    2  O5  UNL     1      -0.158   1.163   0.743  1.00  0.00    -0.234 OA
HETATM    3  C10 UNL     1       1.579   2.311  -1.002  1.00  0.00     0.173 C 
HETATM    4  N4  UNL     1       2.557   2.961  -1.070  1.00  0.00    -0.181 NA
ENDROOT
BRANCH   1   5
HETATM    5  N2  UNL     1      -1.637   2.177  -0.804  1.00  0.00    -0.177 N 
BRANCH   5   6
HETATM    6  S1  UNL     1      -3.080   1.532  -1.356  1.00  0.00     0.334 S 
HETATM    7  O1  UNL     1      -3.918   2.695  -1.887  1.00  0.00    -0.181 OA
HETATM    8  O2  UNL     1      -2.886   0.639  -2.562  1.00  0.00    -0.181 OA
BRANCH   6   9
HETATM    9  N1  UNL     1      -3.907   0.674  -0.156  1.00  0.00    -0.293 N 
HETATM   10  C1  UNL     1      -4.823   1.408   0.638  1.00  0.00     0.165 C 
BRANCH   9  11
HETATM   11  C2  UNL     1      -4.302  -0.662  -0.528  1.00  0.00     0.097 C 
HETATM   12  C3  UNL     1      -5.777  -0.733  -0.598  1.00  0.00     0.026 C 
HETATM   13  C4  UNL     1      -6.433  -1.736   0.309  1.00  0.00     0.002 C 
HETATM   14  C5  UNL     1      -5.625  -3.027   0.270  1.00  0.00     0.000 C 
HETATM   15  C6  UNL     1      -4.347  -2.691   1.004  1.00  0.00     0.002 C 
HETATM   16  C7  UNL     1      -3.588  -1.599   0.363  1.00  0.00     0.026 C 
ENDBRANCH   9  11
ENDBRANCH   6   9
ENDBRANCH   5   6
BRANCH   5  17
HETATM   17  C8  UNL     1      -1.639   3.448  -0.235  1.00  0.00     0.178 C 
BRANCH  17  18
HETATM   18  C9  UNL     1      -1.508   4.584  -1.144  1.00  0.00     0.177 C 
HETATM   19  N3  UNL     1      -2.402   5.506  -1.212  1.00  0.00    -0.246 N 
ATOM     20  H3  UNL     1      -3.215   5.415  -0.602  1.00  0.00     0.196 HD
BRANCH  18  21
HETATM   21  O3  UNL     1      -0.396   4.680  -1.959  1.00  0.00    -0.344 OA
ATOM     22  H3  UNL     1      -0.311   5.419  -2.550  1.00  0.00     0.219 HD
ENDBRANCH  18  21
BRANCH  19  23
HETATM   23  O4  UNL     1      -2.355   6.585  -2.023  1.00  0.00    -0.288 OA
ATOM     24  H4  UNL     1      -3.015   7.266  -2.073  1.00  0.00     0.244 HD
ENDBRANCH  19  23
ENDBRANCH  17  18
ENDBRANCH   5  17
ENDBRANCH   1   5
BRANCH   1  25
HETATM   25  C11 UNL     1       0.149  -0.606  -1.056  1.00  0.00     0.134 C 
BRANCH  25  26
HETATM   26  C12 UNL     1       0.645  -1.487   0.071  1.00  0.00     0.014 C 
BRANCH  26  27
HETATM   27  C13 UNL     1       1.996  -1.197   0.590  1.00  0.00     0.002 C 
BRANCH  27  28
HETATM   28  C14 UNL     1       3.097  -1.318  -0.406  1.00  0.00     0.011 C 
BRANCH  28  29
HETATM   29  C15 UNL     1       4.432  -1.049   0.199  1.00  0.00    -0.024 C 
HETATM   30  C16 UNL     1       4.759  -2.013   1.327  1.00  0.00     0.011 C 
HETATM   31  C17 UNL     1       6.180  -2.437   1.165  1.00  0.00     0.007 C 
HETATM   32  C18 UNL     1       6.730  -1.479   0.112  1.00  0.00     0.004 C 
HETATM   33  C19 UNL     1       7.020  -0.124   0.713  1.00  0.00     0.118 C 
HETATM   34  C21 UNL     1       5.538  -1.367  -0.817  1.00  0.00     0.017 C 
HETATM   35  N5  UNL     1       5.895   0.465   1.364  1.00  0.00    -0.420 N 
HETATM   36  C20 UNL     1       4.659   0.363   0.646  1.00  0.00     0.123 C 
ATOM     37  H5  UNL     1       5.965   0.924   2.272  1.00  0.00     0.153 HD
ENDBRANCH  28  29
ENDBRANCH  27  28
ENDBRANCH  26  27
ENDBRANCH  25  26
ENDBRANCH   1  25
TORSDOF 13
