REMARK  0 active torsions:
REMARK  status: ('A' for Active; 'I' for Inactive)
ROOT
HETATM    1  N1  UNL     1       4.701  -1.000   0.332  1.00  0.00    -0.191 NA
HETATM    2  C1  UNL     1       3.607  -0.634   0.221  1.00  0.00     0.099 C 
HETATM    3  C2  UNL     1       2.239  -0.162   0.104  1.00  0.00     0.045 A 
HETATM    4  C3  UNL     1       1.942   1.173  -0.096  1.00  0.00     0.023 A 
HETATM    5  C4  UNL     1       0.639   1.617  -0.207  1.00  0.00     0.014 A 
HETATM    6  C5  UNL     1      -0.411   0.732  -0.120  1.00  0.00    -0.026 A 
HETATM    7  C6  UNL     1      -1.727   1.157  -0.229  1.00  0.00     0.012 A 
HETATM    8  C7  UNL     1      -2.802   0.304  -0.147  1.00  0.00     0.001 A 
HETATM    9  C8  UNL     1      -2.519  -1.052   0.056  1.00  0.00     0.001 A 
HETATM   10  C9  UNL     1      -1.213  -1.481   0.165  1.00  0.00     0.012 A 
HETATM   11  C10 UNL     1      -0.145  -0.613   0.081  1.00  0.00    -0.025 A 
HETATM   12  C11 UNL     1       1.168  -1.027   0.188  1.00  0.00     0.034 A 
ENDROOT
TORSDOF 0
