REMARK  10 active torsions:
REMARK  status: ('A' for Active; 'I' for Inactive)
REMARK    1  A    between atoms: N1_1  and  S1_4 
REMARK    2  A    between atoms: S1_4  and  C1_6 
REMARK    3  A    between atoms: S1_4  and  N4_21 
REMARK    4  A    between atoms: C2_7  and  C3_8 
REMARK    5  A    between atoms: C3_8  and  N2_9 
REMARK    6  A    between atoms: C3_8  and  C4_13 
REMARK    7  A    between atoms: C4_13  and  C5_14 
REMARK    8  A    between atoms: C5_14  and  C6_15 
REMARK    9  A    between atoms: C6_15  and  C7_16 
REMARK   10  A    between atoms: C7_16  and  N3_17 
ROOT
HETATM    1  C1  UNL     1      -0.777  -0.669  -0.174  1.00  0.00     0.100 C 
HETATM    2  C2  UNL     1       0.319  -0.589   0.560  1.00  0.00     0.017 C 
ENDROOT
BRANCH   2   3
HETATM    3  C3  UNL     1       1.381  -1.620   0.559  1.00  0.00     0.207 C 
BRANCH   3   4
HETATM    4  N2  UNL     1       0.719  -2.928   0.414  1.00  0.00    -0.072 N 
ATOM      5  H23 UNL     1       0.002  -3.093   1.121  1.00  0.00     0.275 HD
ATOM      6  H22 UNL     1       0.112  -2.980  -0.404  1.00  0.00     0.275 HD
ATOM      7  H21 UNL     1       1.451  -3.638   0.413  1.00  0.00     0.275 HD
ENDBRANCH   3   4
BRANCH   3   8
HETATM    8  C4  UNL     1       2.304  -1.494  -0.626  1.00  0.00     0.037 C 
BRANCH   8   9
HETATM    9  C5  UNL     1       3.012  -0.172  -0.683  1.00  0.00     0.004 C 
BRANCH   9  10
HETATM   10  C6  UNL     1       3.867   0.084   0.532  1.00  0.00     0.027 C 
BRANCH  10  11
HETATM   11  C7  UNL     1       4.513   1.460   0.318  1.00  0.00     0.229 C 
BRANCH  11  12
HETATM   12  N3  UNL     1       5.358   1.767   1.468  1.00  0.00    -0.079 N 
ATOM     13  H33 UNL     1       4.851   1.708   2.351  1.00  0.00     0.274 HD
ATOM     14  H32 UNL     1       6.047   1.037   1.651  1.00  0.00     0.274 HD
ATOM     15  H31 UNL     1       5.787   2.681   1.326  1.00  0.00     0.274 HD
ENDBRANCH  11  12
ENDBRANCH  10  11
ENDBRANCH   9  10
ENDBRANCH   8   9
ENDBRANCH   3   8
ENDBRANCH   2   3
BRANCH   1  16
HETATM   16  S1  UNL     1      -2.034   0.523  -0.189  1.00  0.00     0.108 S 
HETATM   17  O1  UNL     1      -1.829   1.541  -1.301  1.00  0.00    -0.230 OA
BRANCH  16  18
HETATM   18  N1  UNL     1      -1.969   1.347   1.140  1.00  0.00    -0.345 N 
ATOM     19  H12 UNL     1      -1.820   2.352   1.226  1.00  0.00     0.167 HD
ATOM     20  H11 UNL     1      -2.106   0.665   1.885  1.00  0.00     0.167 HD
ENDBRANCH  16  18
BRANCH  16  21
HETATM   21  N4  UNL     1      -3.529  -0.225  -0.444  1.00  0.00    -0.212 NA
HETATM   22  C8  UNL     1      -4.294  -0.507   0.712  1.00  0.00     0.119 C 
HETATM   23  C9  UNL     1      -5.074   0.728   1.107  1.00  0.00     0.125 C 
HETATM   24  S2  UNL     1      -5.462   1.364  -0.533  1.00  0.00     0.030 S 
HETATM   25  O2  UNL     1      -4.974   2.967  -0.628  1.00  0.00    -0.257 OA
HETATM   26  C10 UNL     1      -4.335   0.320  -1.471  1.00  0.00     0.214 C 
ENDBRANCH  16  21
ENDBRANCH   1  16
TORSDOF 10
