REMARK  10 active torsions:
REMARK  status: ('A' for Active; 'I' for Inactive)
REMARK    1  A    between atoms: N1_2  and  C3_5 
REMARK    2  A    between atoms: C3_5  and  C4_6 
REMARK    3  A    between atoms: C4_6  and  C5_7 
REMARK    4  A    between atoms: C5_7  and  N2_8 
REMARK    5  A    between atoms: N2_8  and  C6_10 
REMARK    6  A    between atoms: C10_20  and  N6_21 
REMARK    7  A    between atoms: N7_24  and  C11_25 
REMARK    8  A    between atoms: C11_25  and  C12_26 
REMARK    9  A    between atoms: C12_26  and  C13_27 
REMARK   10  A    between atoms: C13_27  and  O2_28 
ROOT
HETATM    1  C6  UNL     1      -1.096   1.458  -0.395  1.00  0.00     0.133 A 
HETATM    2  N3  UNL     1      -2.189   2.256  -0.655  1.00  0.00    -0.337 N 
ATOM      3  H3  UNL     1      -2.070   3.259  -0.794  1.00  0.00     0.168 HD
HETATM    4  C7  UNL     1      -3.400   1.709  -0.723  1.00  0.00     0.183 A 
HETATM    5  N4  UNL     1      -3.601   0.396  -0.546  1.00  0.00    -0.336 N 
ATOM      6  H4  UNL     1      -4.548   0.022  -0.607  1.00  0.00     0.168 HD
HETATM    7  C8  UNL     1      -2.582  -0.435  -0.290  1.00  0.00     0.155 A 
HETATM    8  C9  UNL     1      -1.304   0.084  -0.210  1.00  0.00     0.137 A 
HETATM    9  N5  UNL     1      -0.504  -0.961   0.052  1.00  0.00    -0.184 N 
ATOM     10  H5  UNL     1       0.507  -0.901   0.170  1.00  0.00     0.184 HD
HETATM   11  C10 UNL     1      -1.222  -2.105   0.138  1.00  0.00     0.680 A 
HETATM   12  N7  UNL     1      -2.495  -1.767  -0.075  1.00  0.00    -0.166 N 
ENDROOT
BRANCH   1  13
HETATM   13  N2  UNL     1       0.032   1.956  -0.333  1.00  0.00    -0.374 N 
ATOM     14  H2  UNL     1      -0.028   2.961  -0.498  1.00  0.00     0.161 HD
BRANCH  13  15
HETATM   15  C5  UNL     1       1.357   1.597  -0.112  1.00  0.00     0.123 C 
BRANCH  15  16
HETATM   16  C4  UNL     1       2.315   2.793  -0.180  1.00  0.00     0.056 C 
BRANCH  16  17
HETATM   17  C3  UNL     1       3.735   2.448   0.035  1.00  0.00     0.312 C 
BRANCH  17  18
HETATM   18  N1  UNL     1       4.105   1.858   1.273  1.00  0.00     0.005 N 
HETATM   19  C1  UNL     1       4.059   0.431   1.294  1.00  0.00     0.355 C 
HETATM   20  C2  UNL     1       3.395   2.355   2.431  1.00  0.00     0.355 C 
HETATM   21  O1  UNL     1       5.422   2.220   1.481  1.00  0.00    -0.065 OA
ENDBRANCH  17  18
ENDBRANCH  16  17
ENDBRANCH  15  16
ENDBRANCH  13  15
ENDBRANCH   1  13
BRANCH  12  22
HETATM   22  C11 UNL     1      -3.645  -2.620  -0.043  1.00  0.00     0.151 C 
BRANCH  22  23
HETATM   23  C12 UNL     1      -4.164  -3.088  -1.343  1.00  0.00     0.047 C 
BRANCH  23  24
HETATM   24  C13 UNL     1      -3.262  -3.843  -2.243  1.00  0.00     0.165 C 
BRANCH  24  25
HETATM   25  O2  UNL     1      -2.187  -3.066  -2.647  1.00  0.00    -0.401 OA
ATOM     26  H2  UNL     1      -1.608  -3.550  -3.224  1.00  0.00     0.209 HD
ENDBRANCH  24  25
ENDBRANCH  23  24
ENDBRANCH  22  23
ENDBRANCH  12  22
BRANCH  11  27
HETATM   27  N6  UNL     1      -0.724  -3.292   0.414  1.00  0.00    -0.234 N 
ATOM     28  H62 UNL     1       0.249  -3.550   0.577  1.00  0.00     0.174 HD
ATOM     29  H61 UNL     1      -1.265  -4.154   0.479  1.00  0.00     0.174 HD
ENDBRANCH  11  27
TORSDOF 10
