REMARK  5 active torsions:
REMARK  status: ('A' for Active; 'I' for Inactive)
REMARK    1  A    between atoms: C2_2  and  C3_3 
REMARK    2  A    between atoms: C8_10  and  O2_11 
REMARK    3  A    between atoms: C15_20  and  O4_21 
REMARK    4  A    between atoms: O4_21  and  C16_22 
REMARK    5  A    between atoms: C16_22  and  C17_24 
ROOT
HETATM    1  C3  UNL     1      -0.777   2.155  -0.139  1.00  0.00     0.049 C 
HETATM    2  C4  UNL     1      -1.872   2.603  -1.058  1.00  0.00     0.131 C 
HETATM    3  C5  UNL     1      -1.476   2.939  -2.448  1.00  0.00     0.040 C 
HETATM    4  O1  UNL     1      -2.942   1.636  -1.067  1.00  0.00    -0.343 OA
HETATM    5  C6  UNL     1      -2.719   0.360  -0.516  1.00  0.00     0.105 A 
HETATM    6  C7  UNL     1      -3.803  -0.468  -0.224  1.00  0.00     0.102 A 
HETATM    7 CL1  UNL     1      -5.412   0.081  -0.543  1.00  0.00    -0.078 Cl
HETATM    8  C8  UNL     1      -3.608  -1.721   0.316  1.00  0.00     0.103 A 
HETATM    9  C9  UNL     1      -2.330  -2.173   0.576  1.00  0.00     0.041 A 
HETATM   10  C10 UNL     1      -1.806  -3.335   1.096  1.00  0.00    -0.024 A 
HETATM   11  C11 UNL     1      -2.636  -4.497   1.542  1.00  0.00     0.051 C 
HETATM   12  C12 UNL     1      -0.434  -3.224   1.123  1.00  0.00     0.150 A 
HETATM   13  O3  UNL     1      -0.144  -2.044   0.639  1.00  0.00    -0.321 OA
HETATM   14  C13 UNL     1      -1.235  -1.380   0.300  1.00  0.00     0.100 A 
HETATM   15  C14 UNL     1      -1.469  -0.131  -0.241  1.00  0.00     0.042 A 
HETATM   16  C15 UNL     1      -0.337   0.775  -0.563  1.00  0.00     0.177 C 
ENDROOT
BRANCH  16  17
HETATM   17  O4  UNL     1       0.862   0.376   0.058  1.00  0.00    -0.305 OA
BRANCH  17  18
HETATM   18  C16 UNL     1       1.965   0.061  -0.724  1.00  0.00     0.319 C 
HETATM   19  O5  UNL     1       1.819   0.153  -1.970  1.00  0.00    -0.257 OA
BRANCH  18  20
HETATM   20  C17 UNL     1       3.241  -0.360  -0.156  1.00  0.00     0.167 A 
HETATM   21  C18 UNL     1       4.343  -0.676  -0.919  1.00  0.00     0.133 A 
HETATM   22  N1  UNL     1       5.349  -1.022  -0.086  1.00  0.00    -0.347 N 
HETATM   23  C19 UNL     1       4.846  -0.911   1.152  1.00  0.00     0.120 A 
ATOM     24  H1  UNL     1       6.293  -1.308  -0.345  1.00  0.00     0.167 HD
HETATM   25  C20 UNL     1       5.633  -1.204   2.394  1.00  0.00     0.098 C 
HETATM   26  O6  UNL     1       3.588  -0.515   1.086  1.00  0.00    -0.291 OA
ENDBRANCH  18  20
ENDBRANCH  17  18
ENDBRANCH  16  17
BRANCH   1  27
HETATM   27  C2  UNL     1       0.291   3.127   0.116  1.00  0.00     0.006 C 
HETATM   28  C1  UNL     1       1.098   3.625  -1.020  1.00  0.00     0.006 C 
ENDBRANCH   1  27
BRANCH   8  29
HETATM   29  O2  UNL     1      -4.659  -2.569   0.618  1.00  0.00    -0.358 OA
ATOM     30  H2  UNL     1      -4.525  -3.433   0.990  1.00  0.00     0.217 HD
ENDBRANCH   8  29
TORSDOF 5
