REMARK  6 active torsions:
REMARK  status: ('A' for Active; 'I' for Inactive)
REMARK    1  A    between atoms: C2_2  and  O1_3 
REMARK    2  A    between atoms: O1_3  and  C3_4 
REMARK    3  A    between atoms: C5_6  and  C6_7 
REMARK    4  A    between atoms: N1_8  and  N2_10 
REMARK    5  A    between atoms: C7_11  and  S1_12 
REMARK    6  A    between atoms: C14_24  and  O2_25 
ROOT
HETATM    1  N2  UNL     1      -1.893  -1.897  -0.119  1.00  0.00    -0.221 N 
HETATM    2  C7  UNL     1      -3.067  -1.575  -0.683  1.00  0.00     0.133 A 
HETATM    3  C9  UNL     1      -3.893  -2.674  -0.631  1.00  0.00     0.152 A 
HETATM    4  C10 UNL     1      -5.249  -2.771  -1.124  1.00  0.00     0.120 C 
HETATM    5  N3  UNL     1      -6.333  -2.835  -1.512  1.00  0.00    -0.190 NA
HETATM    6  N4  UNL     1      -3.165  -3.650  -0.019  1.00  0.00    -0.321 N 
ATOM      7  H4  UNL     1      -3.494  -4.596   0.173  1.00  0.00     0.169 HD
HETATM    8  C11 UNL     1      -1.949  -3.176   0.292  1.00  0.00     0.199 A 
HETATM    9  S2  UNL     1      -0.772  -4.035   1.038  1.00  0.00    -0.039 SA
ENDROOT
BRANCH   2  10
HETATM   10  S1  UNL     1      -3.433   0.027  -1.368  1.00  0.00    -0.112 SA
HETATM   11  C8  UNL     1      -4.140   1.140  -0.129  1.00  0.00     0.097 C 
ENDBRANCH   2  10
BRANCH   1  12
HETATM   12  N1  UNL     1      -0.771  -1.083   0.040  1.00  0.00    -0.301 N 
HETATM   13  C6  UNL     1      -0.594  -0.445   1.136  1.00  0.00     0.119 C 
ATOM     14  H1  UNL     1      -0.092  -0.996  -0.716  1.00  0.00     0.186 HD
BRANCH  13  15
HETATM   15  C5  UNL     1       0.588   0.397   1.274  1.00  0.00    -0.015 A 
HETATM   16  C4  UNL     1       1.506   0.516   0.253  1.00  0.00     0.052 A 
HETATM   17  C3  UNL     1       2.635   1.311   0.364  1.00  0.00     0.104 A 
HETATM   18  C14 UNL     1       2.860   2.012   1.526  1.00  0.00     0.121 A 
HETATM   19  C13 UNL     1       1.952   1.912   2.573  1.00  0.00     0.070 A 
HETATM   20  C12 UNL     1       0.842   1.115   2.432  1.00  0.00     0.039 A 
HETATM   21 CL1  UNL     1       2.219   2.792   4.054  1.00  0.00    -0.081 Cl
BRANCH  17  22
HETATM   22  O1  UNL     1       3.544   1.418  -0.667  1.00  0.00    -0.349 OA
BRANCH  22  23
HETATM   23  C2  UNL     1       3.312   0.694  -1.866  1.00  0.00     0.171 C 
HETATM   24  C1  UNL     1       4.430   0.974  -2.826  1.00  0.00     0.034 C 
ENDBRANCH  22  23
ENDBRANCH  17  22
BRANCH  18  25
HETATM   25  O2  UNL     1       3.998   2.798   1.607  1.00  0.00    -0.356 OA
ATOM     26  H2  UNL     1       4.153   3.282   2.409  1.00  0.00     0.218 HD
ENDBRANCH  18  25
ENDBRANCH  13  15
ENDBRANCH   1  12
TORSDOF 6
