REMARK  4 active torsions:
REMARK  status: ('A' for Active; 'I' for Inactive)
REMARK    1  A    between atoms: C4_5  and  C5_6 
REMARK    2  A    between atoms: C7_10  and  N2_11 
REMARK    3  A    between atoms: N4_17  and  C9_19 
REMARK    4  A    between atoms: C9_19  and  C10_20 
ROOT
HETATM    1  C5  UNL     1       1.846  -0.668  -0.557  1.00  0.00     0.114 A 
HETATM    2  C6  UNL     1       0.822  -0.281   0.275  1.00  0.00     0.112 A 
HETATM    3  N1  UNL     1       0.782   0.378   1.441  1.00  0.00    -0.187 N 
ATOM      4  H1  UNL     1       1.652   0.693   1.869  1.00  0.00     0.184 HD
HETATM    5  C7  UNL     1      -0.405   0.634   2.065  1.00  0.00     0.678 A 
HETATM    6  N3  UNL     1      -1.578   0.240   1.542  1.00  0.00    -0.175 N 
ATOM      7  H3  UNL     1      -2.460   0.435   2.015  1.00  0.00     0.186 HD
HETATM    8  C8  UNL     1      -1.546  -0.416   0.381  1.00  0.00     0.147 A 
HETATM    9  N4  UNL     1      -2.629  -0.823  -0.177  1.00  0.00    -0.374 N 
ATOM     10  H4  UNL     1      -2.510  -1.316  -1.062  1.00  0.00     0.161 HD
HETATM   11  C13 UNL     1      -0.378  -0.704  -0.296  1.00  0.00     0.122 A 
HETATM   12  N5  UNL     1      -0.054  -1.325  -1.436  1.00  0.00    -0.293 N 
ATOM     13  H5  UNL     1      -0.721  -1.748  -2.081  1.00  0.00     0.187 HD
HETATM   14  N6  UNL     1       1.266  -1.311  -1.605  1.00  0.00    -0.291 N 
HETATM   15  C14 UNL     1       2.011  -1.880  -2.715  1.00  0.00     0.178 C 
ENDROOT
BRANCH   1  16
HETATM   16  C4  UNL     1       3.300  -0.475  -0.427  1.00  0.00     0.106 A 
HETATM   17  O1  UNL     1       4.175  -0.908  -1.319  1.00  0.00    -0.320 OA
HETATM   18  C3  UNL     1       5.403  -0.630  -1.007  1.00  0.00     0.149 A 
HETATM   19  C2  UNL     1       5.412   0.049   0.187  1.00  0.00    -0.037 A 
HETATM   20  C1  UNL     1       6.546   0.580   0.957  1.00  0.00     0.050 C 
HETATM   21  C15 UNL     1       4.055   0.132   0.531  1.00  0.00     0.048 A 
ENDBRANCH   1  16
BRANCH   5  22
HETATM   22  N2  UNL     1      -0.384   1.268   3.178  1.00  0.00    -0.234 N 
ATOM     23  H22 UNL     1       0.507   1.567   3.575  1.00  0.00     0.174 HD
ATOM     24  H21 UNL     1      -1.271   1.459   3.644  1.00  0.00     0.174 HD
ENDBRANCH   5  22
BRANCH   9  25
HETATM   25  C9  UNL     1      -3.964  -0.681   0.267  1.00  0.00     0.125 C 
BRANCH  25  26
HETATM   26  C10 UNL     1      -4.728   0.396  -0.513  1.00  0.00    -0.005 C 
HETATM   27  C11 UNL     1      -6.134   0.459   0.045  1.00  0.00     0.011 C 
HETATM   28  C12 UNL     1      -4.111   1.762  -0.330  1.00  0.00     0.011 C 
ENDBRANCH  25  26
ENDBRANCH   9  25
TORSDOF 4
