REMARK  4 active torsions:
REMARK  status: ('A' for Active; 'I' for Inactive)
REMARK    1  A    between atoms: C2_2  and  O1_4 
REMARK    2  A    between atoms: C2_2  and  C4_6 
REMARK    3  A    between atoms: C5_7  and  C6_8 
REMARK    4  A    between atoms: C6_8  and  O2_9 
ROOT
HETATM    1  C4  UNL     1      -0.529  -0.177   0.064  1.00  0.00    -0.066 C 
HETATM    2  C5  UNL     1       0.659  -0.242   0.328  1.00  0.00    -0.065 C 
ENDROOT
BRANCH   1   3
HETATM    3  C2  UNL     1      -1.949  -0.091  -0.277  1.00  0.00     0.114 C 
HETATM    4  C1  UNL     1      -2.234   1.107  -1.130  1.00  0.00     0.060 C 
HETATM    5  C3  UNL     1      -2.745  -0.101   1.013  1.00  0.00     0.060 C 
BRANCH   3   6
HETATM    6  O1  UNL     1      -2.361  -1.235  -0.991  1.00  0.00    -0.378 OA
ATOM      7  H1  UNL     1      -2.180  -1.995  -0.450  1.00  0.00     0.211 HD
ENDBRANCH   3   6
ENDBRANCH   1   3
BRANCH   2   8
HETATM    8  C6  UNL     1       2.093  -0.322   0.621  1.00  0.00     0.121 A 
HETATM    9  C7  UNL     1       2.897   0.852   0.217  1.00  0.00     0.055 A 
HETATM   10  C8  UNL     1       3.050  -0.392  -0.584  1.00  0.00     0.055 A 
BRANCH   8  11
HETATM   11  O2  UNL     1       2.476  -1.075   1.729  1.00  0.00    -0.378 OA
ATOM     12  H2  UNL     1       3.405  -1.127   1.919  1.00  0.00     0.211 HD
ENDBRANCH   8  11
ENDBRANCH   2   8
TORSDOF 4
