REMARK  15 active torsions:
REMARK  status: ('A' for Active; 'I' for Inactive)
REMARK    1  A    between atoms: O1_2  and  C2_3 
REMARK    2  A    between atoms: C2_3  and  C3_4 
REMARK    3  A    between atoms: C3_4  and  O2_5 
REMARK    4  A    between atoms: C3_4  and  N1_7 
REMARK    5  A    between atoms: N1_7  and  C4_9 
REMARK    6  A    between atoms: C5_10  and  O3_11 
REMARK    7  A    between atoms: C8_14  and  O4_15 
REMARK    8  A    between atoms: C12_19  and  O5_20 
REMARK    9  A    between atoms: O5_20  and  C13_21 
REMARK   10  A    between atoms: C13_21  and  C14_22 
REMARK   11  A    between atoms: C14_22  and  N2_23 
REMARK       I    between atoms: N2_23  and  C15_25 
REMARK   12  A    between atoms: C15_25  and  C16_27 
REMARK       I    between atoms: N3_30  and  C19_31 
REMARK   13  A    between atoms: C23_36  and  C25_38 
REMARK   14  A    between atoms: C28_41  and  O8_42 
REMARK   15  A    between atoms: C30_44  and  O9_45 
ROOT
HETATM    1  C4  UNL     1      -0.598  -2.018  -0.661  1.00  0.00     0.102 A 
HETATM    2  C5  UNL     1      -1.107  -3.214  -1.103  1.00  0.00     0.100 A 
HETATM    3  C7  UNL     1      -0.270  -4.308  -1.023  1.00  0.00     0.076 A 
HETATM    4  C8  UNL     1       1.000  -4.201  -0.528  1.00  0.00     0.079 A 
HETATM    5  C10 UNL     1       1.479  -2.962  -0.088  1.00  0.00     0.007 A 
HETATM    6  C11 UNL     1       2.863  -2.923   0.434  1.00  0.00     0.054 C 
HETATM    7  C12 UNL     1       0.673  -1.847  -0.152  1.00  0.00     0.107 A 
ENDROOT
BRANCH   1   8
HETATM    8  N1  UNL     1      -1.513  -0.889  -0.790  1.00  0.00    -0.330 N 
ATOM      9  H1  UNL     1      -1.481  -0.278  -1.606  1.00  0.00     0.168 HD
BRANCH   8  10
HETATM   10  C3  UNL     1      -2.438  -0.668   0.240  1.00  0.00     0.175 C 
BRANCH  10  11
HETATM   11  C2  UNL     1      -3.442   0.327   0.408  1.00  0.00     0.125 C 
HETATM   12  C23 UNL     1      -3.716   1.302  -0.420  1.00  0.00    -0.014 C 
HETATM   13  C24 UNL     1      -3.039   1.585  -1.708  1.00  0.00     0.052 C 
BRANCH  11  14
HETATM   14  O1  UNL     1      -4.242   0.297   1.558  1.00  0.00    -0.351 OA
HETATM   15  C1  UNL     1      -4.288  -0.645   2.555  1.00  0.00     0.210 C 
ENDBRANCH  11  14
BRANCH  12  16
HETATM   16  C25 UNL     1      -4.834   2.252  -0.112  1.00  0.00    -0.025 A 
HETATM   17  C26 UNL     1      -4.614   3.597  -0.277  1.00  0.00     0.015 A 
HETATM   18  C27 UNL     1      -5.624   4.532  -0.027  1.00  0.00     0.040 A 
HETATM   19  C28 UNL     1      -6.860   4.081   0.392  1.00  0.00     0.101 A 
HETATM   20  C30 UNL     1      -7.089   2.728   0.561  1.00  0.00     0.102 A 
HETATM   21  C32 UNL     1      -6.061   1.812   0.305  1.00  0.00     0.051 A 
BRANCH  19  22
HETATM   22  O8  UNL     1      -7.904   4.961   0.657  1.00  0.00    -0.353 OA
HETATM   23  C29 UNL     1      -7.660   6.343   0.483  1.00  0.00     0.210 C 
ENDBRANCH  19  22
BRANCH  20  24
HETATM   24  O9  UNL     1      -8.344   2.322   0.984  1.00  0.00    -0.353 OA
HETATM   25  C31 UNL     1      -8.546   0.916   1.147  1.00  0.00     0.210 C 
ENDBRANCH  20  24
ENDBRANCH  12  16
ENDBRANCH  10  11
BRANCH  10  26
HETATM   26  O2  UNL     1      -2.344  -1.537   1.204  1.00  0.00    -0.344 OA
ATOM     27  H2  UNL     1      -1.674  -2.201   1.092  1.00  0.00     0.219 HD
ENDBRANCH  10  26
ENDBRANCH   8  10
ENDBRANCH   1   8
BRANCH   2  28
HETATM   28  O3  UNL     1      -2.412  -3.320  -1.611  1.00  0.00    -0.353 OA
HETATM   29  C6  UNL     1      -2.841  -4.578  -2.036  1.00  0.00     0.210 C 
ENDBRANCH   2  28
BRANCH   7  30
HETATM   30  O5  UNL     1       1.124  -0.641   0.270  1.00  0.00    -0.346 OA
BRANCH  30  31
HETATM   31  C13 UNL     1       1.102  -0.058   1.530  1.00  0.00     0.195 C 
BRANCH  31  32
HETATM   32  C14 UNL     1       1.702   1.320   1.405  1.00  0.00     0.149 C 
BRANCH  32  33
HETATM   33  N2  UNL     1       3.046   1.257   0.921  1.00  0.00    -0.359 N 
HETATM   34  C15 UNL     1       4.069   0.617   1.647  1.00  0.00     0.222 C 
HETATM   35  O6  UNL     1       3.833   0.081   2.752  1.00  0.00    -0.273 OA
ATOM     36  H2  UNL     1       3.270   1.688   0.024  1.00  0.00     0.162 HD
BRANCH  34  37
HETATM   37  C16 UNL     1       5.454   0.585   1.073  1.00  0.00     0.081 C 
HETATM   38  C17 UNL     1       5.529  -0.133  -0.235  1.00  0.00     0.034 C 
HETATM   39  C18 UNL     1       6.899   0.112  -0.834  1.00  0.00     0.126 C 
HETATM   40  N3  UNL     1       7.783   0.743   0.142  1.00  0.00    -0.352 N 
HETATM   41  C19 UNL     1       8.574   1.875  -0.189  1.00  0.00     0.215 C 
HETATM   42  C21 UNL     1       7.825   0.166   1.464  1.00  0.00     0.126 C 
HETATM   43  C20 UNL     1       8.491   2.415  -1.568  1.00  0.00     0.117 C 
HETATM   44  O7  UNL     1       9.318   2.385   0.690  1.00  0.00    -0.274 OA
HETATM   45  C22 UNL     1       6.448   0.001   2.041  1.00  0.00     0.034 C 
ENDBRANCH  34  37
ENDBRANCH  32  33
ENDBRANCH  31  32
ENDBRANCH  30  31
ENDBRANCH   7  30
BRANCH   4  46
HETATM   46  O4  UNL     1       1.847  -5.319  -0.450  1.00  0.00    -0.355 OA
HETATM   47  C9  UNL     1       1.358  -6.555  -0.894  1.00  0.00     0.210 C 
ENDBRANCH   4  46
TORSDOF 15
