REMARK  6 active torsions:
REMARK  status: ('A' for Active; 'I' for Inactive)
REMARK    1  A    between atoms: N1_2  and  C2_4 
REMARK    2  A    between atoms: N3_7  and  C3_8 
REMARK    3  A    between atoms: C5_10  and  N4_11 
REMARK    4  A    between atoms: N6_18  and  C10_19 
REMARK    5  A    between atoms: C14_23  and  O1_24 
REMARK    6  A    between atoms: O1_24  and  C15_25 
ROOT
HETATM    1  C15 UNL     1       6.733  -0.225   1.800  1.00  0.00     0.300 C 
HETATM    2  C16 UNL     1       7.342  -0.185   3.115  1.00  0.00     0.085 C 
HETATM    3  N7  UNL     1       7.847  -0.143   4.161  1.00  0.00    -0.195 NA
ENDROOT
BRANCH   1   4
HETATM    4  O1  UNL     1       5.609  -1.116   1.796  1.00  0.00    -0.321 OA
BRANCH   4   5
HETATM    5  C14 UNL     1       4.931  -1.242   0.577  1.00  0.00     0.155 A 
HETATM    6  C13 UNL     1       3.805  -0.536   0.213  1.00  0.00     0.032 A 
HETATM    7  C12 UNL     1       3.160   0.409   1.018  1.00  0.00     0.021 C 
HETATM    8  C18 UNL     1       3.426  -0.934  -1.065  1.00  0.00     0.063 A 
HETATM    9  C11 UNL     1       1.827   0.781   0.853  1.00  0.00     0.051 C 
HETATM   10  C10 UNL     1       0.936   0.517  -0.162  1.00  0.00     0.130 C 
HETATM   11  N11 UNL     1       1.166  -0.160  -1.299  1.00  0.00    -0.327 N 
HETATM   12  C19 UNL     1       2.374  -0.509  -1.851  1.00  0.00     0.115 C 
ATOM     13  H11 UNL     1       0.338  -0.452  -1.818  1.00  0.00     0.169 HD
HETATM   14  N10 UNL     1       2.505  -0.410  -3.104  1.00  0.00    -0.385 N 
ATOM     15 2H10 UNL     1       3.402  -0.669  -3.514  1.00  0.00     0.157 HD
ATOM     16 1H10 UNL     1       1.728  -0.096  -3.685  1.00  0.00     0.157 HD
HETATM   17  C17 UNL     1       4.314  -1.873  -1.470  1.00  0.00     0.133 A 
HETATM   18  N8  UNL     1       5.215  -2.046  -0.467  1.00  0.00    -0.324 N 
HETATM   19  N9  UNL     1       4.321  -2.579  -2.701  1.00  0.00    -0.082 NA
ATOM     20  H8  UNL     1       6.000  -2.696  -0.500  1.00  0.00     0.169 HD
BRANCH  10  21
HETATM   21  N6  UNL     1      -0.395   0.995  -0.040  1.00  0.00    -0.220 N 
HETATM   22  C3  UNL     1      -1.519   0.328   0.263  1.00  0.00     0.150 A 
HETATM   23  C4  UNL     1      -2.585   1.197   0.269  1.00  0.00     0.101 A 
HETATM   24  C5  UNL     1      -2.063   2.431  -0.045  1.00  0.00     0.122 A 
HETATM   25  N5  UNL     1      -0.755   2.255  -0.219  1.00  0.00    -0.276 N 
ATOM     26  H5  UNL     1      -0.107   3.004  -0.462  1.00  0.00     0.189 HD
BRANCH  22  27
HETATM   27  N3  UNL     1      -1.586  -1.066   0.532  1.00  0.00    -0.259 N 
HETATM   28  N2  UNL     1      -1.776  -2.038  -0.478  1.00  0.00    -0.129 N 
HETATM   29  C2  UNL     1      -2.614  -3.011  -0.212  1.00  0.00     0.688 C 
ATOM     30  H2  UNL     1      -1.285  -1.985  -1.370  1.00  0.00     0.206 HD
HETATM   31  N12 UNL     1      -3.248  -2.992   1.062  1.00  0.00    -0.223 N 
HETATM   32  C21 UNL     1      -2.718  -2.308   2.221  1.00  0.00     0.160 C 
ATOM     33  H12 UNL     1      -4.131  -3.492   1.164  1.00  0.00     0.177 HD
HETATM   34  C20 UNL     1      -1.463  -1.571   1.867  1.00  0.00     0.171 C 
BRANCH  29  35
HETATM   35  N1  UNL     1      -2.861  -4.029  -1.175  1.00  0.00    -0.229 N 
HETATM   36  C1  UNL     1      -3.435  -5.296  -0.779  1.00  0.00     0.165 C 
ATOM     37  H1  UNL     1      -2.631  -3.863  -2.155  1.00  0.00     0.177 HD
ENDBRANCH  29  35
ENDBRANCH  22  27
BRANCH  24  38
HETATM   38  N4  UNL     1      -2.798   3.661  -0.156  1.00  0.00    -0.366 N 
HETATM   39  C6  UNL     1      -2.236   4.941  -0.504  1.00  0.00     0.124 C 
HETATM   40  C7  UNL     1      -3.372   5.789  -1.007  1.00  0.00     0.021 C 
HETATM   41  C8  UNL     1      -4.579   4.879  -0.976  1.00  0.00     0.021 C 
HETATM   42  C9  UNL     1      -4.208   3.848   0.056  1.00  0.00     0.124 C 
ENDBRANCH  24  38
ENDBRANCH  10  21
ENDBRANCH   4   5
ENDBRANCH   1   4
TORSDOF 6
