REMARK  9 active torsions:
REMARK  status: ('A' for Active; 'I' for Inactive)
REMARK    1  A    between atoms: N2_9  and  C6_10 
REMARK    2  A    between atoms: C6_10  and  C7_11 
REMARK    3  A    between atoms: C7_11  and  C8_12 
REMARK    4  A    between atoms: C8_12  and  C9_13 
REMARK    5  A    between atoms: C9_13  and  C10_14 
REMARK    6  A    between atoms: C10_14  and  C11_15 
REMARK    7  A    between atoms: C11_15  and  C12_16 
REMARK       I    between atoms: N5_22  and  C14_24 
REMARK       I    between atoms: C14_24  and  N7_29 
REMARK    8  A    between atoms: N6_25  and  O2_27 
REMARK    9  A    between atoms: N7_29  and  N8_31 
ROOT
HETATM    1  C10 UNL     1       0.801  -2.557  -0.648  1.00  0.00     0.006 C 
ENDROOT
BRANCH   1   2
HETATM    2  C9  UNL     1      -0.265  -3.516  -1.077  1.00  0.00     0.000 C 
BRANCH   2   3
HETATM    3  C8  UNL     1      -1.242  -2.950  -2.047  1.00  0.00     0.002 C 
BRANCH   3   4
HETATM    4  C7  UNL     1      -2.012  -1.761  -1.573  1.00  0.00     0.020 C 
BRANCH   4   5
HETATM    5  C6  UNL     1      -2.824  -2.102  -0.336  1.00  0.00     0.133 C 
BRANCH   5   6
HETATM    6  N2  UNL     1      -3.577  -0.963   0.130  1.00  0.00    -0.303 N 
HETATM    7  C2  UNL     1      -4.823  -0.720  -0.271  1.00  0.00     0.083 A 
HETATM    8  C1  UNL     1      -5.511  -1.632  -1.211  1.00  0.00     0.089 C 
HETATM    9  N1  UNL     1      -5.518   0.371   0.174  1.00  0.00    -0.331 N 
HETATM   10  C3  UNL     1      -4.960   1.226   1.029  1.00  0.00     0.122 A 
ATOM     11  H1  UNL     1      -6.471   0.531  -0.152  1.00  0.00     0.168 HD
HETATM   12  C4  UNL     1      -3.682   1.019   1.470  1.00  0.00     0.072 A 
HETATM   13  N11 UNL     1      -5.700   2.375   1.495  1.00  0.00    -0.316 N 
HETATM   14  C5  UNL     1      -3.012  -0.088   1.001  1.00  0.00     0.260 A 
HETATM   15  C16 UNL     1      -3.022   1.929   2.410  1.00  0.00     0.170 A 
HETATM   16  O1  UNL     1      -1.823  -0.351   1.363  1.00  0.00    -0.267 OA
HETATM   17  N9  UNL     1      -3.840   3.036   2.811  1.00  0.00    -0.360 N 
HETATM   18  C17 UNL     1      -5.044   3.242   2.403  1.00  0.00     0.190 A 
ATOM     19  H9  UNL     1      -3.440   3.708   3.466  1.00  0.00     0.162 HD
HETATM   20  N10 UNL     1      -5.710   4.394   2.905  1.00  0.00    -0.063 NA
ATOM     21  H11 UNL     1      -6.655   2.555   1.184  1.00  0.00     0.170 HD
ENDBRANCH   5   6
ENDBRANCH   4   5
ENDBRANCH   3   4
ENDBRANCH   2   3
ENDBRANCH   1   2
BRANCH   1  22
HETATM   22  C11 UNL     1       1.632  -2.060  -1.811  1.00  0.00     0.066 C 
BRANCH  22  23
HETATM   23  C12 UNL     1       2.640  -1.120  -1.207  1.00  0.00     0.069 A 
HETATM   24  N3  UNL     1       3.595  -0.424  -1.803  1.00  0.00    -0.296 N 
HETATM   25  N4  UNL     1       4.361   0.327  -1.127  1.00  0.00    -0.279 N 
ATOM     26  H3  UNL     1       3.716  -0.492  -2.814  1.00  0.00     0.187 HD
HETATM   27  C13 UNL     1       4.186   0.403   0.196  1.00  0.00     0.180 A 
ATOM     28  H4  UNL     1       5.098   0.864  -1.585  1.00  0.00     0.189 HD
HETATM   29  N5  UNL     1       4.825   1.087   1.101  1.00  0.00    -0.166 N 
HETATM   30  S1  UNL     1       2.869  -0.655   0.433  1.00  0.00    -0.037 SA
HETATM   31  C14 UNL     1       5.894   1.915   0.731  1.00  0.00     0.719 C 
ATOM     32  H5  UNL     1       4.547   1.020   2.080  1.00  0.00     0.186 HD
HETATM   33  N6  UNL     1       5.844   3.185   0.927  1.00  0.00    -0.097 N 
HETATM   34  N7  UNL     1       7.036   1.317   0.134  1.00  0.00    -0.133 N 
ATOM     35  H6  UNL     1       6.642   3.754   0.644  1.00  0.00     0.213 HD
HETATM   36  C15 UNL     1       7.880   2.166  -0.684  1.00  0.00     0.197 C 
BRANCH  33  37
HETATM   37  O2  UNL     1       4.772   3.804   1.496  1.00  0.00    -0.276 OA
ATOM     38  H2  UNL     1       4.735   4.742   1.641  1.00  0.00     0.245 HD
ENDBRANCH  33  37
BRANCH  34  39
HETATM   39  N8  UNL     1       7.344  -0.053   0.325  1.00  0.00    -0.329 N 
ATOM     40  H82 UNL     1       6.750  -0.650   0.900  1.00  0.00     0.177 HD
ATOM     41  H81 UNL     1       8.164  -0.482  -0.104  1.00  0.00     0.177 HD
ENDBRANCH  34  39
ENDBRANCH  22  23
ENDBRANCH   1  22
TORSDOF 9
