REMARK  8 active torsions:
REMARK  status: ('A' for Active; 'I' for Inactive)
REMARK    1  A    between atoms: C2_2  and  C3_3 
REMARK    2  A    between atoms: C3_3  and  N1_4 
REMARK    3  A    between atoms: N1_4  and  C4_5 
REMARK    4  A    between atoms: N5_16  and  C9_17 
REMARK    5  A    between atoms: C11_19  and  N6_20 
REMARK    6  A    between atoms: N6_20  and  C12_23 
REMARK    7  A    between atoms: C18_31  and  C19_32 
REMARK    8  A    between atoms: N8_33  and  N9_35 
REMARK       I    between atoms: N9_35  and  C20_37 
ROOT
HETATM    1  C9  UNL     1       0.010   0.014   0.653  1.00  0.00     0.242 C 
HETATM    2  C10 UNL     1      -0.623  -0.781  -0.490  1.00  0.00     0.109 C 
HETATM    3  C11 UNL     1      -2.070  -0.385  -0.591  1.00  0.00     0.290 C 
HETATM    4  N7  UNL     1      -2.292   1.028  -0.537  1.00  0.00    -0.342 N 
ATOM      5  H7  UNL     1      -3.160   1.394  -0.928  1.00  0.00     0.163 HD
HETATM    6  C18 UNL     1      -1.443   1.878  -0.014  1.00  0.00     0.159 C 
HETATM    7  O1  UNL     1      -0.287   1.365   0.503  1.00  0.00    -0.308 OA
ENDROOT
BRANCH   1   8
HETATM    8  N5  UNL     1       1.436  -0.226   0.686  1.00  0.00    -0.299 N 
HETATM    9  C6  UNL     1       2.353   0.212  -0.213  1.00  0.00     0.143 A 
HETATM   10  N3  UNL     1       2.228   0.978  -1.317  1.00  0.00    -0.336 N 
HETATM   11  C7  UNL     1       3.602  -0.263   0.147  1.00  0.00     0.137 A 
HETATM   12  C5  UNL     1       3.338   1.264  -2.048  1.00  0.00     0.184 A 
ATOM     13  H3  UNL     1       1.316   1.337  -1.598  1.00  0.00     0.168 HD
HETATM   14  N2  UNL     1       4.546   0.800  -1.696  1.00  0.00    -0.325 N 
HETATM   15  C4  UNL     1       4.761   0.017  -0.591  1.00  0.00     0.209 A 
ATOM     16  H2  UNL     1       5.346   1.042  -2.280  1.00  0.00     0.169 HD
HETATM   17  N4  UNL     1       3.455  -0.975   1.246  1.00  0.00    -0.345 N 
HETATM   18  C8  UNL     1       2.162  -0.960   1.579  1.00  0.00     0.188 A 
ATOM     19  H4  UNL     1       4.199  -1.454   1.754  1.00  0.00     0.167 HD
BRANCH  15  20
HETATM   20  N1  UNL     1       5.854  -0.372  -0.335  1.00  0.00    -0.401 NA
BRANCH  20  21
HETATM   21  C3  UNL     1       6.892  -0.983   0.269  1.00  0.00     0.157 C 
BRANCH  21  22
HETATM   22  C2  UNL     1       8.212  -0.233   0.352  1.00  0.00     0.055 C 
HETATM   23  C1  UNL     1       9.182  -1.160   1.064  1.00  0.00     0.011 C 
ENDBRANCH  21  22
ENDBRANCH  20  21
ENDBRANCH  15  20
ENDBRANCH   1   8
BRANCH   3  24
HETATM   24  N6  UNL     1      -2.779  -1.030   0.528  1.00  0.00    -0.050 N 
ATOM     25  H62 UNL     1      -2.186  -1.713   0.999  1.00  0.00     0.280 HD
ATOM     26  H61 UNL     1      -2.921  -0.380   1.302  1.00  0.00     0.280 HD
BRANCH  24  27
HETATM   27  C12 UNL     1      -4.025  -1.621   0.104  1.00  0.00     0.188 C 
HETATM   28  C13 UNL     1      -3.911  -2.728  -0.880  1.00  0.00     0.033 C 
HETATM   29  C14 UNL     1      -4.536  -4.015  -0.397  1.00  0.00     0.002 C 
HETATM   30  C15 UNL     1      -5.951  -3.831   0.107  1.00  0.00     0.000 C 
HETATM   31  C16 UNL     1      -6.143  -2.624   0.966  1.00  0.00     0.002 C 
HETATM   32  C17 UNL     1      -4.832  -1.961   1.338  1.00  0.00     0.033 C 
ENDBRANCH  24  27
ENDBRANCH   3  24
BRANCH   6  33
HETATM   33  C19 UNL     1      -1.743   3.278   0.001  1.00  0.00     0.163 C 
HETATM   34  N8  UNL     1      -0.997   4.171   0.503  1.00  0.00    -0.305 N 
ATOM     35  H8  UNL     1      -0.119   3.870   0.926  1.00  0.00     0.186 HD
BRANCH  34  36
HETATM   36  N9  UNL     1      -1.286   5.526   0.519  1.00  0.00    -0.274 N 
HETATM   37  C20 UNL     1      -2.555   5.991   0.138  1.00  0.00     0.200 C 
HETATM   38  N10 UNL     1      -2.670   6.767  -0.881  1.00  0.00    -0.372 N 
HETATM   39  N11 UNL     1      -3.731   5.633   0.834  1.00  0.00    -0.062 NA
ATOM     40 2H10 UNL     1      -1.821   7.025  -1.384  1.00  0.00     0.158 HD
ATOM     41 1H10 UNL     1      -3.592   7.105  -1.158  1.00  0.00     0.158 HD
ATOM     42  H9  UNL     1      -0.570   6.192   0.810  1.00  0.00     0.189 HD
ENDBRANCH  34  36
ENDBRANCH   6  33
TORSDOF 8
