REMARK  3 active torsions:
REMARK  status: ('A' for Active; 'I' for Inactive)
REMARK       I    between atoms: C3_3  and  N1_5 
REMARK    1  A    between atoms: N1_5  and  C4_7 
REMARK    2  A    between atoms: C7_10  and  C8_11 
REMARK    3  A    between atoms: N3_19  and  C12_20 
ROOT
HETATM    1  C1  UNL     1       9.368  -0.819  -0.500  1.00  0.00     0.022 C 
HETATM    2  C2  UNL     1       8.222  -0.471  -0.681  1.00  0.00    -0.016 C 
HETATM    3  C3  UNL     1       6.857  -0.033  -0.908  1.00  0.00     0.300 C 
HETATM    4  O1  UNL     1       6.582   0.595  -1.951  1.00  0.00    -0.258 OA
HETATM    5  N1  UNL     1       5.897  -0.334   0.054  1.00  0.00    -0.316 N 
ATOM      6  H1  UNL     1       6.235  -0.853   0.864  1.00  0.00     0.170 HD
ENDROOT
BRANCH   5   7
HETATM    7  C4  UNL     1       4.524  -0.021   0.064  1.00  0.00     0.035 A 
HETATM    8  C5  UNL     1       3.682  -0.555   1.053  1.00  0.00     0.030 A 
HETATM    9  C6  UNL     1       2.346  -0.282   1.113  1.00  0.00     0.013 A 
HETATM   10  C7  UNL     1       1.744   0.535   0.203  1.00  0.00    -0.035 A 
HETATM   11  C19 UNL     1       2.537   1.082  -0.787  1.00  0.00     0.013 A 
HETATM   12  C20 UNL     1       3.894   0.798  -0.837  1.00  0.00     0.030 A 
BRANCH  10  13
HETATM   13  C8  UNL     1       0.330   0.833   0.221  1.00  0.00     0.034 C 
HETATM   14  C9  UNL     1      -0.658  -0.005   0.036  1.00  0.00     0.101 A 
HETATM   15  C10 UNL     1      -0.507  -1.418  -0.237  1.00  0.00     0.263 A 
HETATM   16  C18 UNL     1      -2.052   0.504   0.153  1.00  0.00     0.270 A 
HETATM   17  O2  UNL     1       0.608  -1.986  -0.369  1.00  0.00    -0.267 OA
HETATM   18  N2  UNL     1      -1.676  -2.229  -0.374  1.00  0.00    -0.299 N 
HETATM   19  C11 UNL     1      -2.979  -1.685  -0.250  1.00  0.00     0.188 A 
ATOM     20  H2  UNL     1      -1.570  -3.225  -0.566  1.00  0.00     0.171 HD
HETATM   21  S1  UNL     1      -4.284  -2.647  -0.412  1.00  0.00    -0.040 SA
HETATM   22  N3  UNL     1      -3.195  -0.306   0.016  1.00  0.00    -0.254 N 
HETATM   23  O3  UNL     1      -2.238   1.729   0.390  1.00  0.00    -0.266 OA
BRANCH  22  24
HETATM   24  C12 UNL     1      -4.518   0.218   0.140  1.00  0.00     0.045 A 
HETATM   25  C13 UNL     1      -4.939   0.877   1.283  1.00  0.00     0.030 A 
HETATM   26  C14 UNL     1      -6.219   1.382   1.402  1.00  0.00     0.002 A 
HETATM   27  C15 UNL     1      -7.133   1.248   0.379  1.00  0.00     0.000 A 
HETATM   28  C16 UNL     1      -6.724   0.592  -0.767  1.00  0.00     0.002 A 
HETATM   29  C17 UNL     1      -5.437   0.088  -0.880  1.00  0.00     0.030 A 
ENDBRANCH  22  24
ENDBRANCH  10  13
ENDBRANCH   5   7
TORSDOF 3
