REMARK  4 active torsions:
REMARK  status: ('A' for Active; 'I' for Inactive)
REMARK    1  A    between atoms: C5_5  and  C6_6 
REMARK    2  A    between atoms: C9_10  and  N2_11 
REMARK    3  A    between atoms: N2_11  and  C10_13 
REMARK    4  A    between atoms: C15_20  and  C16_21 
REMARK       I    between atoms: C16_21  and  N4_23 
ROOT
HETATM    1  C6  UNL     1       0.339   0.773   0.243  1.00  0.00     0.014 A 
HETATM    2  C7  UNL     1       1.658   1.014   0.652  1.00  0.00     0.100 A 
HETATM    3  C8  UNL     1       1.945   2.184   1.445  1.00  0.00     0.104 C 
HETATM    4  N1  UNL     1       2.160   3.130   2.096  1.00  0.00    -0.191 NA
HETATM    5  C9  UNL     1       2.705   0.168   0.322  1.00  0.00     0.125 A 
HETATM    6  N3  UNL     1       2.382  -0.898  -0.413  1.00  0.00    -0.327 N 
ATOM      7  H3  UNL     1       3.135  -1.536  -0.670  1.00  0.00     0.169 HD
HETATM    8  C13 UNL     1       1.134  -1.200  -0.845  1.00  0.00     0.121 A 
HETATM    9  C14 UNL     1       0.081  -0.342  -0.509  1.00  0.00     0.039 A 
HETATM   10  C15 UNL     1      -1.027  -0.908  -1.090  1.00  0.00     0.069 A 
HETATM   11  C19 UNL     1      -0.670  -2.075  -1.763  1.00  0.00     0.025 A 
HETATM   12  C20 UNL     1      -1.620  -2.943  -2.507  1.00  0.00     0.069 C 
HETATM   13  N5  UNL     1       0.643  -2.215  -1.590  1.00  0.00    -0.340 N 
HETATM   14  C21 UNL     1       1.465  -3.294  -2.113  1.00  0.00     0.158 C 
ENDROOT
BRANCH   1  15
HETATM   15  C5  UNL     1      -0.670   1.724   0.625  1.00  0.00    -0.023 A 
HETATM   16  C4  UNL     1      -0.930   2.801  -0.171  1.00  0.00     0.013 A 
HETATM   17  C3  UNL     1      -1.856   3.733   0.214  1.00  0.00     0.007 A 
HETATM   18  C2  UNL     1      -2.542   3.607   1.404  1.00  0.00    -0.062 A 
HETATM   19  C1  UNL     1      -3.546   4.658   1.777  1.00  0.00     0.048 C 
HETATM   20  C23 UNL     1      -2.290   2.529   2.213  1.00  0.00     0.007 A 
HETATM   21  C22 UNL     1      -1.348   1.593   1.808  1.00  0.00     0.013 A 
ENDBRANCH   1  15
BRANCH   5  22
HETATM   22  N2  UNL     1       3.865   0.484   0.746  1.00  0.00    -0.371 N 
ATOM     23  H2  UNL     1       3.907   1.342   1.296  1.00  0.00     0.161 HD
BRANCH  22  24
HETATM   24  C10 UNL     1       5.109  -0.180   0.568  1.00  0.00     0.075 C 
HETATM   25  C11 UNL     1       5.122  -1.586   1.105  1.00  0.00     0.031 C 
HETATM   26  C12 UNL     1       5.423  -0.206  -0.913  1.00  0.00     0.031 C 
ENDBRANCH  22  24
ENDBRANCH   5  22
BRANCH  10  27
HETATM   27  C16 UNL     1      -2.404  -0.443  -1.043  1.00  0.00     0.256 C 
HETATM   28  O1  UNL     1      -2.793   0.363  -1.916  1.00  0.00    -0.267 OA
HETATM   29  N4  UNL     1      -3.320  -0.871  -0.056  1.00  0.00    -0.357 N 
HETATM   30  C17 UNL     1      -3.002  -1.807   1.004  1.00  0.00     0.152 C 
HETATM   31  C18 UNL     1      -4.672  -0.358  -0.082  1.00  0.00     0.152 C 
ENDBRANCH  10  27
TORSDOF 4
