REMARK  2 active torsions:
REMARK  status: ('A' for Active; 'I' for Inactive)
REMARK    1  A    between atoms: C2_2  and  S1_3 
REMARK    2  A    between atoms: S1_3  and  C3_4 
ROOT
HETATM    1  C3  UNL     1       0.268  -1.298   0.144  1.00  0.00     0.137 C 
HETATM    2  N1  UNL     1      -0.843  -1.942   0.093  1.00  0.00    -0.352 N 
ATOM      3  H1  UNL     1      -0.933  -2.938  -0.107  1.00  0.00     0.163 HD
HETATM    4  C4  UNL     1      -1.942  -1.052   0.360  1.00  0.00     0.218 C 
HETATM    5  C5  UNL     1      -2.326  -1.111   1.770  1.00  0.00     0.087 C 
HETATM    6  N2  UNL     1      -2.617  -1.177   2.887  1.00  0.00    -0.195 NA
HETATM    7  C6  UNL     1      -1.346   0.303   0.076  1.00  0.00     0.058 C 
HETATM    8  C7  UNL     1      -1.976   1.423   0.829  1.00  0.00     0.041 C 
HETATM    9  C8  UNL     1      -1.397   0.498  -1.427  1.00  0.00     0.041 C 
HETATM   10  N3  UNL     1       0.033   0.070   0.435  1.00  0.00    -0.359 N 
ATOM     11  H3  UNL     1       0.696   0.745   0.816  1.00  0.00     0.162 HD
ENDROOT
BRANCH   1  12
HETATM   12  S1  UNL     1       1.898  -1.979  -0.119  1.00  0.00    -0.095 SA
BRANCH  12  13
HETATM   13  C2  UNL     1       3.173  -0.735   0.031  1.00  0.00     0.078 C 
HETATM   14  C1  UNL     1       3.092   0.300  -1.063  1.00  0.00     0.016 C 
ENDBRANCH  12  13
ENDBRANCH   1  12
TORSDOF 2
