REMARK  14 active torsions:
REMARK  status: ('A' for Active; 'I' for Inactive)
REMARK    1  A    between atoms: N1_1  and  N2_4 
REMARK    2  A    between atoms: C1_6  and  C2_7 
REMARK    3  A    between atoms: C1_6  and  N4_11 
REMARK    4  A    between atoms: C2_7  and  N3_8 
REMARK    5  A    between atoms: N4_11  and  C3_13 
REMARK    6  A    between atoms: C4_14  and  C5_15 
REMARK    7  A    between atoms: C5_15  and  N5_16 
REMARK    8  A    between atoms: C5_15  and  C6_20 
REMARK    9  A    between atoms: C6_20  and  O3_21 
REMARK   10  A    between atoms: C7_25  and  N7_26 
REMARK   11  A    between atoms: N7_26  and  C8_27 
REMARK   12  A    between atoms: C8_27  and  C9_28 
REMARK   13  A    between atoms: C9_28  and  O4_29 
REMARK   14  A    between atoms: C10_33  and  N9_34 
REMARK       I    between atoms: N9_34  and  C11_36 
REMARK       I    between atoms: C11_36  and  N10_37 
REMARK       I    between atoms: C11_36  and  N11_41 
ROOT
HETATM    1  C3  UNL     1       0.507   0.094  -0.455  1.00  0.00     0.103 A 
HETATM    2  C4  UNL     1      -0.430  -0.898  -0.632  1.00  0.00     0.076 A 
HETATM    3  N6  UNL     1      -1.682  -0.635  -0.421  1.00  0.00    -0.316 N 
ATOM      4  H6  UNL     1      -2.371  -1.376  -0.549  1.00  0.00     0.170 HD
HETATM    5  C7  UNL     1      -2.111   0.614  -0.030  1.00  0.00     0.255 A 
HETATM    6  N8  UNL     1      -1.165   1.606   0.131  1.00  0.00    -0.301 N 
ATOM      7  H8  UNL     1      -1.468   2.538   0.413  1.00  0.00     0.171 HD
HETATM    8  C10 UNL     1       0.095   1.387  -0.066  1.00  0.00     0.136 A 
ENDROOT
BRANCH   1   9
HETATM    9  N4  UNL     1       1.912  -0.162  -0.587  1.00  0.00    -0.339 N 
ATOM     10  H4  UNL     1       2.309  -0.165  -1.527  1.00  0.00     0.167 HD
BRANCH   9  11
HETATM   11  C1  UNL     1       2.787  -0.412   0.502  1.00  0.00     0.120 C 
HETATM   12  N2  UNL     1       3.808   0.403   0.656  1.00  0.00    -0.294 N 
ATOM     13  H2  UNL     1       3.902   1.181   0.003  1.00  0.00     0.187 HD
BRANCH  12  14
HETATM   14  N1  UNL     1       4.757   0.271   1.644  1.00  0.00    -0.344 N 
ATOM     15  H12 UNL     1       4.647  -0.512   2.288  1.00  0.00     0.176 HD
ATOM     16  H11 UNL     1       5.549   0.903   1.763  1.00  0.00     0.176 HD
ENDBRANCH  12  14
BRANCH  11  17
HETATM   17  C2  UNL     1       2.715  -1.518   1.485  1.00  0.00     0.278 C 
BRANCH  17  18
HETATM   18  N3  UNL     1       3.579  -2.581   1.056  1.00  0.00    -0.148 N 
HETATM   19  O1  UNL     1       4.245  -2.445  -0.011  1.00  0.00    -0.536 OA
HETATM   20  O2  UNL     1       3.686  -3.750   1.808  1.00  0.00    -0.536 OA
ENDBRANCH  17  18
ENDBRANCH  11  17
ENDBRANCH   9  11
ENDBRANCH   1   9
BRANCH   2  21
HETATM   21  C5  UNL     1      -0.053  -2.284  -1.091  1.00  0.00     0.258 C 
BRANCH  21  22
HETATM   22  N5  UNL     1       1.178  -2.366  -1.797  1.00  0.00    -0.068 N 
ATOM     23  H53 UNL     1       1.175  -1.721  -2.587  1.00  0.00     0.275 HD
ATOM     24  H52 UNL     1       1.931  -1.961  -1.241  1.00  0.00     0.275 HD
ATOM     25  H51 UNL     1       1.433  -3.304  -2.107  1.00  0.00     0.275 HD
ENDBRANCH  21  22
BRANCH  21  26
HETATM   26  C6  UNL     1      -1.161  -2.698  -2.101  1.00  0.00     0.203 C 
BRANCH  26  27
HETATM   27  O3  UNL     1      -0.918  -4.002  -2.569  1.00  0.00    -0.398 OA
ATOM     28  H3  UNL     1      -1.595  -4.255  -3.186  1.00  0.00     0.209 HD
ENDBRANCH  26  27
ENDBRANCH  21  26
ENDBRANCH   2  21
BRANCH   8  29
HETATM   29  N9  UNL     1       0.976   2.301   0.024  1.00  0.00    -0.325 N 
HETATM   30  C11 UNL     1       0.732   3.687   0.391  1.00  0.00     0.481 C 
HETATM   31  N10 UNL     1       0.567   4.492  -0.847  1.00  0.00    -0.033 N 
HETATM   32  N11 UNL     1       1.888   4.169   1.094  1.00  0.00    -0.033 N 
ATOM     33 3H10 UNL     1       1.357   4.392  -1.484  1.00  0.00     0.278 HD
ATOM     34 2H10 UNL     1      -0.158   4.119  -1.460  1.00  0.00     0.278 HD
ATOM     35 1H10 UNL     1       0.396   5.464  -0.590  1.00  0.00     0.278 HD
ATOM     36 3H11 UNL     1       2.135   3.586   1.894  1.00  0.00     0.278 HD
ATOM     37 2H11 UNL     1       2.751   4.047   0.565  1.00  0.00     0.278 HD
ATOM     38 1H11 UNL     1       1.717   5.141   1.351  1.00  0.00     0.278 HD
ATOM     39  H9  UNL     1       1.940   2.038  -0.180  1.00  0.00     0.165 HD
ENDBRANCH   8  29
BRANCH   5  40
HETATM   40  N7  UNL     1      -3.265   0.849   0.281  1.00  0.00    -0.413 NA
BRANCH  40  41
HETATM   41  C8  UNL     1      -4.522   1.117   0.624  1.00  0.00     0.247 C 
BRANCH  41  42
HETATM   42  C9  UNL     1      -5.462  -0.136   0.692  1.00  0.00     0.197 C 
BRANCH  42  43
HETATM   43  O4  UNL     1      -4.956  -0.984   1.668  1.00  0.00    -0.398 OA
ATOM     44  H4  UNL     1      -5.526  -1.743   1.709  1.00  0.00     0.209 HD
ENDBRANCH  42  43
ENDBRANCH  41  42
ENDBRANCH  40  41
ENDBRANCH   5  40
TORSDOF 14
