REMARK  10 active torsions:
REMARK  status: ('A' for Active; 'I' for Inactive)
REMARK    1  A    between atoms: C2_2  and  O1_3 
REMARK    2  A    between atoms: C2_2  and  C3_5 
REMARK    3  A    between atoms: C3_5  and  O2_6 
REMARK    4  A    between atoms: C3_5  and  C4_8 
REMARK    5  A    between atoms: C4_8  and  O3_9 
REMARK    6  A    between atoms: C4_8  and  C5_11 
REMARK    7  A    between atoms: C5_11  and  O4_12 
REMARK    8  A    between atoms: C7_16  and  N1_17 
REMARK    9  A    between atoms: C10_27  and  N5_28 
REMARK   10  A    between atoms: C12_34  and  O7_35 
ROOT
HETATM    1  C5  UNL     1       0.958   0.671  -0.220  1.00  0.00     0.137 C 
HETATM    2  C6  UNL     1       0.747   0.392   1.242  1.00  0.00     0.214 C 
HETATM    3  O5  UNL     1       0.333  -0.963   1.192  1.00  0.00    -0.359 OA
HETATM    4  C7  UNL     1      -0.703  -0.950   0.261  1.00  0.00     0.279 C 
HETATM    5  C12 UNL     1      -0.352   0.065  -0.773  1.00  0.00     0.208 C 
ENDROOT
BRANCH   4   6
HETATM    6  N1  UNL     1      -1.924  -0.632   0.993  1.00  0.00    -0.227 N 
HETATM    7  N2  UNL     1      -2.091  -0.536   2.305  1.00  0.00    -0.236 N 
HETATM    8  N3  UNL     1      -3.315  -0.236   2.625  1.00  0.00    -0.278 N 
ATOM      9  H2  UNL     1      -1.345  -0.681   2.985  1.00  0.00     0.208 HD
HETATM   10  C8  UNL     1      -4.025  -0.119   1.495  1.00  0.00     0.164 A 
ATOM     11  H3  UNL     1      -3.673  -0.111   3.572  1.00  0.00     0.189 HD
HETATM   12  C9  UNL     1      -5.349   0.180   1.245  1.00  0.00     0.291 A 
HETATM   13  C11 UNL     1      -3.131  -0.373   0.462  1.00  0.00     0.175 A 
HETATM   14  O6  UNL     1      -6.111   0.400   2.214  1.00  0.00    -0.265 OA
HETATM   15  N4  UNL     1      -5.753   0.218  -0.033  1.00  0.00    -0.154 N 
HETATM   16  C10 UNL     1      -4.904  -0.024  -1.044  1.00  0.00     0.680 A 
ATOM     17  H4  UNL     1      -6.727   0.436  -0.242  1.00  0.00     0.187 HD
HETATM   18  N6  UNL     1      -3.618  -0.314  -0.784  1.00  0.00    -0.173 N 
ATOM     19  H6  UNL     1      -2.989  -0.496  -1.566  1.00  0.00     0.186 HD
BRANCH  16  20
HETATM   20  N5  UNL     1      -5.280   0.009  -2.284  1.00  0.00    -0.234 N 
ATOM     21  H52 UNL     1      -6.256   0.229  -2.481  1.00  0.00     0.174 HD
ATOM     22  H51 UNL     1      -4.635  -0.175  -3.052  1.00  0.00     0.174 HD
ENDBRANCH  16  20
ENDBRANCH   4   6
BRANCH   5  23
HETATM   23  O7  UNL     1      -0.091  -0.472  -2.025  1.00  0.00    -0.388 OA
ATOM     24  H7  UNL     1      -0.896  -0.844  -2.365  1.00  0.00     0.210 HD
ENDBRANCH   5  23
BRANCH   1  25
HETATM   25  C4  UNL     1       2.136  -0.118  -0.703  1.00  0.00     0.188 C 
BRANCH  25  26
HETATM   26  C3  UNL     1       3.465   0.506  -0.600  1.00  0.00     0.178 C 
BRANCH  26  27
HETATM   27  C2  UNL     1       4.215   0.379   0.668  1.00  0.00     0.145 C 
HETATM   28  C1  UNL     1       4.337  -1.014   1.192  1.00  0.00     0.042 C 
BRANCH  27  29
HETATM   29  O1  UNL     1       5.539   0.812   0.382  1.00  0.00    -0.393 OA
ATOM     30  H1  UNL     1       5.461   1.698   0.049  1.00  0.00     0.210 HD
ENDBRANCH  27  29
ENDBRANCH  26  27
BRANCH  26  31
HETATM   31  O2  UNL     1       3.465   1.834  -1.020  1.00  0.00    -0.390 OA
ATOM     32  H2  UNL     1       2.983   1.916  -1.835  1.00  0.00     0.210 HD
ENDBRANCH  26  31
ENDBRANCH  25  26
BRANCH  25  33
HETATM   33  O3  UNL     1       2.135  -1.441  -0.278  1.00  0.00    -0.390 OA
ATOM     34  H3  UNL     1       1.277  -1.844  -0.344  1.00  0.00     0.210 HD
ENDBRANCH  25  33
ENDBRANCH   1  25
BRANCH   1  35
HETATM   35  O4  UNL     1       0.947   1.978  -0.592  1.00  0.00    -0.382 OA
ATOM     36  H4  UNL     1       0.200   2.478  -0.286  1.00  0.00     0.210 HD
ENDBRANCH   1  35
TORSDOF 10
