REMARK  6 active torsions:
REMARK  status: ('A' for Active; 'I' for Inactive)
REMARK    1  A    between atoms: C2_2  and  C3_3 
REMARK    2  A    between atoms: C3_3  and  N1_4 
REMARK    3  A    between atoms: N1_4  and  C6_7 
REMARK    4  A    between atoms: C6_7  and  C7_8 
REMARK    5  A    between atoms: C7_8  and  S1_9 
REMARK    6  A    between atoms: S1_9  and  N2_12 
ROOT
HETATM    1  N2  UNL     1      -0.271  -3.021  -0.314  1.00  0.00    -0.116 N 
ATOM      2  H2  UNL     1      -0.277  -3.988  -0.639  1.00  0.00     0.197 HD
HETATM    3  C8  UNL     1      -1.387  -2.389  -0.286  1.00  0.00     0.692 A 
HETATM    4  N3  UNL     1      -2.610  -2.867  -0.647  1.00  0.00    -0.193 N 
ATOM      5  H3  UNL     1      -2.814  -3.804  -0.995  1.00  0.00     0.184 HD
HETATM    6  C9  UNL     1      -3.498  -1.878  -0.461  1.00  0.00     0.054 A 
HETATM    7  C10 UNL     1      -2.846  -0.772   0.017  1.00  0.00     0.087 A 
HETATM    8  N4  UNL     1      -1.549  -1.121   0.114  1.00  0.00    -0.190 N 
ATOM      9  H4  UNL     1      -0.801  -0.510   0.443  1.00  0.00     0.184 HD
HETATM   10  C11 UNL     1      -3.498   0.511   0.341  1.00  0.00     0.196 C 
HETATM   11  C12 UNL     1      -2.988   1.532  -0.676  1.00  0.00     0.056 C 
HETATM   12  C13 UNL     1      -3.079   0.901   1.743  1.00  0.00     0.056 C 
HETATM   13  N5  UNL     1      -4.927   0.435   0.249  1.00  0.00     0.099 N 
HETATM   14  C14 UNL     1      -5.521   1.749   0.048  1.00  0.00     0.311 C 
HETATM   15  C15 UNL     1      -5.375  -0.401  -0.839  1.00  0.00     0.279 C 
HETATM   16  C16 UNL     1      -4.962  -1.841  -0.689  1.00  0.00     0.090 C 
ENDROOT
BRANCH   1  17
HETATM   17  S1  UNL     1       1.250  -2.333   0.167  1.00  0.00     0.245 S 
HETATM   18  O1  UNL     1       2.206  -3.497   0.237  1.00  0.00    -0.205 OA
HETATM   19  O2  UNL     1       1.052  -1.737   1.504  1.00  0.00    -0.205 OA
BRANCH  17  20
HETATM   20  C7  UNL     1       1.783  -1.198  -1.079  1.00  0.00     0.192 C 
BRANCH  20  21
HETATM   21  C6  UNL     1       3.070  -0.526  -0.851  1.00  0.00     0.253 C 
BRANCH  21  22
HETATM   22  N1  UNL     1       3.259   0.309   0.269  1.00  0.00    -0.074 N 
HETATM   23  C4  UNL     1       2.129   1.116   0.635  1.00  0.00     0.272 C 
HETATM   24  C5  UNL     1       3.811  -0.347   1.450  1.00  0.00     0.272 C 
BRANCH  22  25
HETATM   25  C3  UNL     1       4.322   1.269  -0.123  1.00  0.00     0.236 C 
BRANCH  25  26
HETATM   26  C2  UNL     1       5.537   0.575  -0.650  1.00  0.00     0.023 C 
HETATM   27  C1  UNL     1       6.539   1.681  -1.010  1.00  0.00     0.007 C 
ENDBRANCH  25  26
ENDBRANCH  22  25
ENDBRANCH  21  22
ENDBRANCH  20  21
ENDBRANCH  17  20
ENDBRANCH   1  17
TORSDOF 6
