REMARK  6 active torsions:
REMARK  status: ('A' for Active; 'I' for Inactive)
REMARK    1  A    between atoms: C2_2  and  N1_3 
REMARK    2  A    between atoms: N1_3  and  C3_4 
REMARK    3  A    between atoms: N1_3  and  C6_8 
REMARK    4  A    between atoms: C3_4  and  C4_5 
REMARK    5  A    between atoms: C6_8  and  C7_9 
REMARK    6  A    between atoms: C7_9  and  N2_10 
ROOT
HETATM    1  C6  UNL     1      -1.148  -0.335   0.712  1.00  0.00     0.303 C 
ENDROOT
BRANCH   1   2
HETATM    2  N1  UNL     1      -2.417  -0.306   0.021  1.00  0.00     0.093 N 
BRANCH   2   3
HETATM    3  C2  UNL     1      -2.748  -1.672  -0.338  1.00  0.00     0.268 C 
HETATM    4  C1  UNL     1      -3.905  -1.717  -1.321  1.00  0.00     0.037 C 
ENDBRANCH   2   3
BRANCH   2   5
HETATM    5  C3  UNL     1      -3.500   0.216   0.800  1.00  0.00     0.300 C 
BRANCH   5   6
HETATM    6  C4  UNL     1      -3.439   1.678   1.056  1.00  0.00     0.015 C 
HETATM    7  C5  UNL     1      -2.525   2.483   0.584  1.00  0.00     0.082 C 
HETATM    8 CL1  UNL     1      -2.593   4.191   0.989  1.00  0.00    -0.097 Cl
ENDBRANCH   5   6
ENDBRANCH   2   5
ENDBRANCH   1   2
BRANCH   1   9
HETATM    9  C7  UNL     1      -0.044  -0.601  -0.273  1.00  0.00     0.302 C 
BRANCH   9  10
HETATM   10  N2  UNL     1       1.235  -0.641   0.365  1.00  0.00     0.090 N 
HETATM   11  C8  UNL     1       1.674   0.610   0.903  1.00  0.00     0.272 C 
HETATM   12  C9  UNL     1       3.144   0.568   1.284  1.00  0.00     0.030 C 
HETATM   13  C10 UNL     1       4.060   1.120   0.249  1.00  0.00     0.002 C 
HETATM   14  C11 UNL     1       4.135   0.339  -1.025  1.00  0.00     0.002 C 
HETATM   15  C12 UNL     1       2.764  -0.106  -1.495  1.00  0.00     0.030 C 
HETATM   16  C13 UNL     1       2.178  -1.181  -0.603  1.00  0.00     0.272 C 
ENDBRANCH   9  10
ENDBRANCH   1   9
TORSDOF 6
