REMARK  15 active torsions:
REMARK  status: ('A' for Active; 'I' for Inactive)
REMARK    1  A    between atoms: C6_10  and  O2_11 
REMARK    2  A    between atoms: O2_11  and  C7_12 
REMARK    3  A    between atoms: C8_13  and  O3_14 
REMARK    4  A    between atoms: C9_16  and  O4_17 
REMARK    5  A    between atoms: C10_19  and  O5_20 
REMARK    6  A    between atoms: C11_22  and  C12_23 
REMARK    7  A    between atoms: C13_24  and  C14_25 
REMARK    8  A    between atoms: C14_25  and  C15_26 
REMARK    9  A    between atoms: C14_25  and  O7_30 
REMARK   10  A    between atoms: C15_26  and  O6_27 
REMARK   11  A    between atoms: O6_27  and  C16_28 
REMARK   12  A    between atoms: O7_30  and  C17_31 
REMARK   13  A    between atoms: C17_31  and  C19_33 
REMARK   14  A    between atoms: C20_34  and  C21_35 
REMARK   15  A    between atoms: C24_38  and  O8_39 
ROOT
HETATM    1  C7  UNL     1      -1.830   1.298  -0.664  1.00  0.00     0.166 C 
HETATM    2  C8  UNL     1      -1.830   2.734  -1.189  1.00  0.00     0.179 C 
HETATM    3  C9  UNL     1      -1.025   3.497  -0.196  1.00  0.00     0.178 C 
HETATM    4  C10 UNL     1      -0.432   2.478   0.752  1.00  0.00     0.159 C 
HETATM    5  C11 UNL     1      -0.408   1.247  -0.171  1.00  0.00     0.071 C 
ENDROOT
BRANCH   5   6
HETATM    6  C12 UNL     1      -0.016   0.039   0.542  1.00  0.00    -0.018 C 
HETATM    7  C13 UNL     1       1.018  -0.734   0.288  1.00  0.00     0.003 C 
BRANCH   7   8
HETATM    8  C14 UNL     1       2.005  -0.478  -0.834  1.00  0.00     0.169 C 
BRANCH   8   9
HETATM    9  C15 UNL     1       1.432  -1.175  -2.034  1.00  0.00     0.211 C 
BRANCH   9  10
HETATM   10  O6  UNL     1       1.994  -1.044  -3.227  1.00  0.00    -0.349 OA
BRANCH  10  11
HETATM   11  C16 UNL     1       1.973   0.051  -3.987  1.00  0.00     0.218 C 
HETATM   12 CL1  UNL     1       2.664   1.545  -3.392  1.00  0.00    -0.071 Cl
ENDBRANCH  10  11
ENDBRANCH   9  10
ENDBRANCH   8   9
BRANCH   8  13
HETATM   13  O7  UNL     1       3.257  -0.901  -0.473  1.00  0.00    -0.371 OA
BRANCH  13  14
HETATM   14  C17 UNL     1       4.271  -0.022  -0.359  1.00  0.00     0.141 C 
HETATM   15  C18 UNL     1       5.349  -0.429  -1.361  1.00  0.00     0.044 C 
BRANCH  14  16
HETATM   16  C19 UNL     1       4.894  -0.134   0.999  1.00  0.00     0.004 C 
HETATM   17  C20 UNL     1       6.131  -0.525   1.184  1.00  0.00    -0.002 C 
BRANCH  17  18
HETATM   18  C21 UNL     1       6.670  -0.610   2.547  1.00  0.00    -0.005 C 
HETATM   19  C22 UNL     1       7.914  -1.000   2.771  1.00  0.00    -0.031 C 
HETATM   20  C23 UNL     1       8.817  -1.370   1.631  1.00  0.00     0.036 C 
ENDBRANCH  17  18
ENDBRANCH  14  16
ENDBRANCH  13  14
ENDBRANCH   8  13
ENDBRANCH   7   8
ENDBRANCH   5   6
BRANCH   1  21
HETATM   21  O2  UNL     1      -2.659   1.127   0.402  1.00  0.00    -0.350 OA
BRANCH  21  22
HETATM   22  C6  UNL     1      -3.631   0.171   0.275  1.00  0.00     0.295 C 
HETATM   23  O1  UNL     1      -4.862   0.886   0.280  1.00  0.00    -0.332 OA
HETATM   24  C5  UNL     1      -5.748   0.427  -0.660  1.00  0.00     0.403 C 
HETATM   25  N1  UNL     1      -6.721  -0.501  -0.124  1.00  0.00    -0.046 N 
HETATM   26  C3  UNL     1      -6.078  -1.686   0.433  1.00  0.00     0.215 C 
ATOM     27  H12 UNL     1      -7.423  -0.750  -0.821  1.00  0.00     0.280 HD
ATOM     28  H11 UNL     1      -7.330  -0.050   0.559  1.00  0.00     0.280 HD
HETATM   29  C2  UNL     1      -5.165  -1.226   1.503  1.00  0.00    -0.026 C 
HETATM   30  C4  UNL     1      -7.125  -2.650   0.886  1.00  0.00     0.045 C 
HETATM   31  C1  UNL     1      -5.703  -1.178   2.708  1.00  0.00     0.019 C 
HETATM   32  C24 UNL     1      -3.741  -0.814   1.404  1.00  0.00     0.203 C 
BRANCH  32  33
HETATM   33  O8  UNL     1      -2.976  -1.966   1.173  1.00  0.00    -0.386 OA
ATOM     34  H8  UNL     1      -2.065  -1.703   1.110  1.00  0.00     0.210 HD
ENDBRANCH  32  33
ENDBRANCH  21  22
ENDBRANCH   1  21
BRANCH   4  35
HETATM   35  O5  UNL     1       0.843   2.814   1.168  1.00  0.00    -0.392 OA
ATOM     36  H5  UNL     1       1.215   2.174   1.763  1.00  0.00     0.210 HD
ENDBRANCH   4  35
BRANCH   2  37
HETATM   37  O3  UNL     1      -1.193   2.694  -2.427  1.00  0.00    -0.390 OA
ATOM     38  H3  UNL     1      -1.193   3.586  -2.753  1.00  0.00     0.210 HD
ENDBRANCH   2  37
BRANCH   3  39
HETATM   39  O4  UNL     1      -1.717   4.493   0.457  1.00  0.00    -0.390 OA
ATOM     40  H4  UNL     1      -1.203   4.980   1.091  1.00  0.00     0.210 HD
ENDBRANCH   3  39
TORSDOF 15
