REMARK  5 active torsions:
REMARK  status: ('A' for Active; 'I' for Inactive)
REMARK    1  A    between atoms: N1_1  and  C1_5 
REMARK    2  A    between atoms: C1_5  and  C2_6 
REMARK    3  A    between atoms: C2_6  and  N2_7 
REMARK    4  A    between atoms: C5_10  and  C6_11 
REMARK    5  A    between atoms: C6_11  and  O1_12 
ROOT
HETATM    1  N2  UNL     1      -0.982   0.386   0.078  1.00  0.00     0.090 N 
HETATM    2  C3  UNL     1      -0.082   1.436  -0.244  1.00  0.00     0.273 C 
HETATM    3  C4  UNL     1       1.195   0.920  -0.818  1.00  0.00     0.037 C 
HETATM    4  C5  UNL     1       1.861   0.250   0.402  1.00  0.00     0.012 C 
HETATM    5  C7  UNL     1       1.055  -0.965   0.658  1.00  0.00     0.037 C 
HETATM    6  C8  UNL     1      -0.396  -0.874   0.410  1.00  0.00     0.273 C 
ENDROOT
BRANCH   1   7
HETATM    7  C2  UNL     1      -1.892   0.192  -1.066  1.00  0.00     0.299 C 
BRANCH   7   8
HETATM    8  C1  UNL     1      -2.993  -0.702  -0.591  1.00  0.00     0.259 C 
BRANCH   8   9
HETATM    9  N1  UNL     1      -3.728  -0.028   0.507  1.00  0.00    -0.078 N 
ATOM     10  H13 UNL     1      -3.111   0.263   1.265  1.00  0.00     0.274 HD
ATOM     11  H12 UNL     1      -4.068   0.895   0.236  1.00  0.00     0.274 HD
ATOM     12  H11 UNL     1      -4.479  -0.638   0.831  1.00  0.00     0.274 HD
ENDBRANCH   8   9
ENDBRANCH   7   8
ENDBRANCH   1   7
BRANCH   4  13
HETATM   13  C6  UNL     1       3.293   0.076   0.083  1.00  0.00     0.168 C 
BRANCH  13  14
HETATM   14  O1  UNL     1       3.942  -0.531   1.161  1.00  0.00    -0.400 OA
ATOM     15  H1  UNL     1       4.863  -0.643   0.956  1.00  0.00     0.209 HD
ENDBRANCH  13  14
ENDBRANCH   4  13
TORSDOF 5
