REMARK  3 active torsions:
REMARK  status: ('A' for Active; 'I' for Inactive)
REMARK    1  A    between atoms: C2_2  and  O2_4 
REMARK    2  A    between atoms: O2_4  and  C3_5 
REMARK    3  A    between atoms: C3_5  and  C5_7 
ROOT
HETATM    1  C3  UNL     1       0.492  -0.775  -0.049  1.00  0.00     0.132 C 
HETATM    2  C4  UNL     1       0.545  -2.284   0.009  1.00  0.00     0.040 C 
ENDROOT
BRANCH   1   3
HETATM    3  O2  UNL     1       1.655  -0.294   0.600  1.00  0.00    -0.316 OA
BRANCH   3   4
HETATM    4  C2  UNL     1       2.531   0.510  -0.088  1.00  0.00     0.255 C 
HETATM    5  C1  UNL     1       3.786   1.057   0.539  1.00  0.00     0.126 C 
HETATM    6  O1  UNL     1       2.261   0.791  -1.286  1.00  0.00    -0.266 OA
ENDBRANCH   3   4
ENDBRANCH   1   3
BRANCH   1   7
HETATM    7  C5  UNL     1      -0.769  -0.310   0.644  1.00  0.00     0.015 C 
HETATM    8  C6  UNL     1      -1.953  -0.861  -0.103  1.00  0.00     0.007 C 
HETATM    9  C7  UNL     1      -2.626   0.371  -0.717  1.00  0.00     0.000 C 
HETATM   10  C8  UNL     1      -2.381   1.384   0.406  1.00  0.00     0.000 C 
HETATM   11  C9  UNL     1      -0.880   1.203   0.583  1.00  0.00     0.007 C 
ENDBRANCH   1   7
TORSDOF 3
