REMARK  3 active torsions:
REMARK  status: ('A' for Active; 'I' for Inactive)
REMARK    1  A    between atoms: C6_6  and  N1_7 
REMARK    2  A    between atoms: N1_7  and  C7_10 
REMARK    3  A    between atoms: C9_12  and  N2_13 
ROOT
HETATM    1  N1  UNL     1       0.527  -0.203  -0.840  1.00  0.00    -0.064 N 
ATOM      2  H11 UNL     1       0.509   0.689  -1.334  1.00  0.00     0.278 HD
ATOM      3  H12 UNL     1       0.340  -0.796  -1.648  1.00  0.00     0.278 HD
ENDROOT
BRANCH   1   4
HETATM    4  C6  UNL     1      -0.469  -0.307   0.190  1.00  0.00     0.194 C 
HETATM    5  C2  UNL     1      -1.836   0.192  -0.135  1.00  0.00    -0.019 C 
HETATM    6  C1  UNL     1      -2.316   0.012  -1.541  1.00  0.00     0.017 C 
HETATM    7  C3  UNL     1      -2.061   1.572   0.446  1.00  0.00     0.017 C 
HETATM    8  C4  UNL     1      -2.356  -0.933   0.740  1.00  0.00     0.013 C 
HETATM    9  C5  UNL     1      -1.094  -1.679   0.349  1.00  0.00     0.034 C 
ENDBRANCH   1   4
BRANCH   1  10
HETATM   10  C7  UNL     1       1.818  -0.488  -0.188  1.00  0.00     0.218 A 
HETATM   11  C8  UNL     1       2.284   0.426   0.887  1.00  0.00     0.070 A 
HETATM   12  C9  UNL     1       2.984   0.396  -0.473  1.00  0.00     0.216 A 
BRANCH  12  13
HETATM   13  N2  UNL     1       4.289  -0.266  -0.515  1.00  0.00    -0.073 N 
ATOM     14  H23 UNL     1       4.446  -0.780   0.352  1.00  0.00     0.274 HD
ATOM     15  H22 UNL     1       4.266  -1.037  -1.182  1.00  0.00     0.274 HD
ATOM     16  H21 UNL     1       5.087   0.339  -0.710  1.00  0.00     0.274 HD
ENDBRANCH  12  13
ENDBRANCH   1  10
TORSDOF 3
