REMARK  3 active torsions:
REMARK  status: ('A' for Active; 'I' for Inactive)
REMARK    1  A    between atoms: N1_1  and  C1_5 
REMARK    2  A    between atoms: C5_9  and  N2_10 
REMARK    3  A    between atoms: N2_10  and  C6_12 
ROOT
HETATM    1  C1  UNL     1      -2.076  -0.950   0.203  1.00  0.00     0.185 C 
HETATM    2  C2  UNL     1      -2.698   0.205  -0.492  1.00  0.00     0.033 C 
HETATM    3  C3  UNL     1      -1.893   1.454  -0.574  1.00  0.00     0.004 C 
HETATM    4  C4  UNL     1      -0.428   1.232  -0.749  1.00  0.00     0.025 C 
HETATM    5  C5  UNL     1       0.002   0.286   0.369  1.00  0.00     0.079 C 
HETATM    6  C9  UNL     1      -0.566  -1.047   0.049  1.00  0.00     0.057 C 
ENDROOT
BRANCH   5   7
HETATM    7  N2  UNL     1       1.377   0.347   0.656  1.00  0.00    -0.413 N 
ATOM      8  H2  UNL     1       1.714   0.646   1.571  1.00  0.00     0.154 HD
BRANCH   7   9
HETATM    9  C6  UNL     1       2.282  -0.025  -0.379  1.00  0.00     0.077 A 
HETATM   10  C7  UNL     1       3.762   0.207  -0.004  1.00  0.00     0.027 A 
HETATM   11  C8  UNL     1       3.204  -1.165  -0.214  1.00  0.00     0.027 A 
ENDBRANCH   7   9
ENDBRANCH   5   7
BRANCH   1  12
HETATM   12  N1  UNL     1      -2.363  -0.966   1.610  1.00  0.00    -0.075 N 
ATOM     13  H13 UNL     1      -2.094  -0.086   2.049  1.00  0.00     0.274 HD
ATOM     14  H12 UNL     1      -3.368  -0.934   1.780  1.00  0.00     0.274 HD
ATOM     15  H11 UNL     1      -1.936  -1.760   2.088  1.00  0.00     0.274 HD
ENDBRANCH   1  12
TORSDOF 3
