REMARK  2 active torsions:
REMARK  status: ('A' for Active; 'I' for Inactive)
REMARK    1  A    between atoms: C2_2  and  N1_3 
REMARK    2  A    between atoms: N1_3  and  C3_6 
ROOT
HETATM    1  C1  UNL     1       0.325   1.701  -1.166  1.00  0.00     0.046 C 
HETATM    2  C2  UNL     1      -0.335   0.632  -0.326  1.00  0.00     0.125 C 
HETATM    3  C6  UNL     1      -0.729  -0.593  -1.113  1.00  0.00     0.066 C 
HETATM    4  C7  UNL     1      -1.240  -1.625  -0.108  1.00  0.00     0.235 C 
HETATM    5  N2  UNL     1      -1.971  -0.982   0.981  1.00  0.00    -0.075 N 
ATOM      6  H21 UNL     1      -1.377  -0.751   1.777  1.00  0.00     0.277 HD
ATOM      7  H22 UNL     1      -2.603  -1.619   1.466  1.00  0.00     0.277 HD
HETATM    8  C8  UNL     1      -2.646   0.170   0.429  1.00  0.00     0.235 C 
HETATM    9  C9  UNL     1      -1.606   1.235   0.228  1.00  0.00     0.066 C 
ENDROOT
BRANCH   2  10
HETATM   10  N1  UNL     1       0.586   0.236   0.717  1.00  0.00    -0.062 N 
ATOM     11  H12 UNL     1       0.787   0.993   1.370  1.00  0.00     0.278 HD
ATOM     12  H11 UNL     1       0.168  -0.415   1.382  1.00  0.00     0.278 HD
BRANCH  10  13
HETATM   13  C3  UNL     1       1.770  -0.290   0.102  1.00  0.00     0.187 A 
HETATM   14  C4  UNL     1       2.644  -1.303   0.742  1.00  0.00     0.035 A 
HETATM   15  C5  UNL     1       3.043   0.111   0.866  1.00  0.00     0.035 A 
ENDBRANCH  10  13
ENDBRANCH   2  10
TORSDOF 2
