REMARK  1 active torsions:
REMARK  status: ('A' for Active; 'I' for Inactive)
REMARK    1  A    between atoms: N2_6  and  C5_7 
ROOT
HETATM    1  N1  UNL     1      -3.131   2.556   0.029  1.00  0.00    -0.195 NA
HETATM    2  C1  UNL     1      -2.465   1.699  -0.329  1.00  0.00     0.086 C 
HETATM    3  C2  UNL     1      -1.611   0.616  -0.792  1.00  0.00     0.207 C 
HETATM    4  C3  UNL     1      -1.767  -0.570   0.117  1.00  0.00     0.063 C 
HETATM    5  C4  UNL     1      -0.370  -1.204  -0.005  1.00  0.00     0.155 C 
HETATM    6  N2  UNL     1       0.465  -0.066  -0.282  1.00  0.00    -0.257 N 
HETATM    7  N5  UNL     1      -0.221   0.913  -0.709  1.00  0.00    -0.313 N 
ATOM      8  H5  UNL     1       0.180   1.815  -0.965  1.00  0.00     0.182 HD
ENDROOT
BRANCH   6   9
HETATM    9  C5  UNL     1       1.885   0.042  -0.129  1.00  0.00     0.281 A 
HETATM   10  N3  UNL     1       2.622   0.398   0.918  1.00  0.00    -0.242 N 
HETATM   11  N4  UNL     1       3.720   0.225   0.208  1.00  0.00    -0.195 N 
ATOM     12  H3  UNL     1       2.421   0.686   1.876  1.00  0.00     0.192 HD
HETATM   13  O1  UNL     1       2.981  -0.121  -0.802  1.00  0.00    -0.182 OA
ATOM     14  H4  UNL     1       4.721   0.322   0.379  1.00  0.00     0.216 HD
ENDBRANCH   6   9
TORSDOF 1
