REMARK  3 active torsions:
REMARK  status: ('A' for Active; 'I' for Inactive)
REMARK    1  A    between atoms: C2_2  and  C4_4 
REMARK    2  A    between atoms: C4_4  and  C6_6 
REMARK    3  A    between atoms: C8_8  and  N1_9 
ROOT
HETATM    1  C6  UNL     1      -0.017  -0.315  -0.412  1.00  0.00     0.086 C 
HETATM    2  C7  UNL     1      -0.685   0.432   0.721  1.00  0.00     0.058 C 
HETATM    3  C8  UNL     1      -2.021   0.928   0.219  1.00  0.00     0.187 C 
HETATM    4  C9  UNL     1      -2.849  -0.314  -0.075  1.00  0.00     0.052 C 
HETATM    5  C10 UNL     1      -2.165  -1.000  -1.245  1.00  0.00     0.116 C 
HETATM    6  N2  UNL     1      -0.808  -1.315  -1.010  1.00  0.00    -0.416 N 
ATOM      7  H2  UNL     1      -0.419  -2.224  -1.262  1.00  0.00     0.153 HD
ENDROOT
BRANCH   1   8
HETATM    8  C4  UNL     1       1.294  -0.840   0.100  1.00  0.00     0.032 C 
HETATM    9  C5  UNL     1       2.055  -1.651  -0.893  1.00  0.00     0.017 C 
BRANCH   8  10
HETATM   10  C2  UNL     1       2.186   0.285   0.560  1.00  0.00    -0.087 C 
HETATM   11  C1  UNL     1       2.602   0.334   1.819  1.00  0.00     0.014 C 
HETATM   12  C3  UNL     1       2.628   1.359  -0.350  1.00  0.00     0.043 C 
ENDBRANCH   8  10
ENDBRANCH   1   8
BRANCH   3  13
HETATM   13  N1  UNL     1      -2.674   1.790   1.177  1.00  0.00    -0.075 N 
ATOM     14  H13 UNL     1      -2.766   1.332   2.084  1.00  0.00     0.274 HD
ATOM     15  H12 UNL     1      -2.070   2.566   1.449  1.00  0.00     0.274 HD
ATOM     16  H11 UNL     1      -3.576   2.125   0.838  1.00  0.00     0.274 HD
ENDBRANCH   3  13
TORSDOF 3
