REMARK  2 active torsions:
REMARK  status: ('A' for Active; 'I' for Inactive)
REMARK    1  A    between atoms: S1_2  and  C2_3 
REMARK    2  A    between atoms: C4_12  and  C5_13 
ROOT
HETATM    1  C2  UNL     1       0.561   0.172  -0.766  1.00  0.00     0.169 C 
HETATM    2  N1  UNL     1       0.893   1.551  -1.010  1.00  0.00    -0.347 N 
ATOM      3  H1  UNL     1       1.701   1.879  -1.539  1.00  0.00     0.163 HD
HETATM    4  C3  UNL     1      -0.079   2.380  -0.401  1.00  0.00     0.170 C 
HETATM    5  N2  UNL     1      -0.197   3.683  -0.518  1.00  0.00    -0.371 N 
ATOM      6  H21 UNL     1      -0.898   4.280  -0.079  1.00  0.00     0.159 HD
ATOM      7  H22 UNL     1       0.399   4.299  -1.070  1.00  0.00     0.159 HD
HETATM    8  N3  UNL     1      -0.910   1.521   0.369  1.00  0.00    -0.355 N 
ATOM      9  H3  UNL     1      -1.419   1.764   1.219  1.00  0.00     0.163 HD
HETATM   10  C4  UNL     1      -0.890   0.233  -0.292  1.00  0.00     0.121 C 
ENDROOT
BRANCH   1  11
HETATM   11  S1  UNL     1       1.492  -0.508   0.639  1.00  0.00    -0.146 SA
HETATM   12  C1  UNL     1       3.265  -0.601   0.281  1.00  0.00     0.092 C 
ENDBRANCH   1  11
BRANCH  10  13
HETATM   13  C5  UNL     1      -1.216  -0.827   0.704  1.00  0.00     0.011 A 
HETATM   14  C6  UNL     1      -1.079  -2.284   0.355  1.00  0.00     0.007 A 
HETATM   15  C7  UNL     1      -2.427  -1.674   0.323  1.00  0.00     0.007 A 
ENDBRANCH  10  13
TORSDOF 2
