REMARK  9 active torsions:
REMARK  status: ('A' for Active; 'I' for Inactive)
REMARK    1  A    between atoms: C2_2  and  O1_3 
REMARK    2  A    between atoms: O1_3  and  C3_4 
REMARK       I    between atoms: C3_4  and  N1_6 
REMARK       I    between atoms: N1_6  and  C4_8 
REMARK       I    between atoms: C4_8  and  N6_20 
REMARK    3  A    between atoms: N2_9  and  O3_11 
REMARK    4  A    between atoms: O3_11  and  C5_12 
REMARK    5  A    between atoms: N4_14  and  N5_16 
REMARK    6  A    between atoms: N5_16  and  O4_18 
REMARK    7  A    between atoms: N6_20  and  N7_22 
REMARK    8  A    between atoms: N8_24  and  C6_26 
REMARK    9  A    between atoms: C9_29  and  N9_30 
ROOT
HETATM    1  C3  UNL     1      -2.193   0.805  -0.116  1.00  0.00     0.379 C 
HETATM    2  O2  UNL     1      -1.292   1.380  -0.777  1.00  0.00    -0.238 OA
HETATM    3  N1  UNL     1      -2.012  -0.441   0.512  1.00  0.00    -0.132 N 
ATOM      4  H1  UNL     1      -2.776  -0.866   1.038  1.00  0.00     0.190 HD
HETATM    5  C4  UNL     1      -0.772  -1.098   0.411  1.00  0.00     0.722 C 
HETATM    6  N2  UNL     1      -0.596  -2.237   0.980  1.00  0.00    -0.086 N 
ATOM      7  H2  UNL     1       0.304  -2.712   0.905  1.00  0.00     0.214 HD
HETATM    8  N6  UNL     1       0.303  -0.540  -0.307  1.00  0.00    -0.116 N 
ATOM      9  H6  UNL     1       0.771   0.299   0.036  1.00  0.00     0.207 HD
ENDROOT
BRANCH   6  10
HETATM   10  O3  UNL     1      -1.605  -2.805   1.678  1.00  0.00    -0.188 OA
BRANCH  10  11
HETATM   11  C5  UNL     1      -2.526  -3.676   1.123  1.00  0.00     0.272 C 
HETATM   12  N3  UNL     1      -3.283  -4.557   1.942  1.00  0.00    -0.053 NA
HETATM   13  N4  UNL     1      -2.689  -3.679  -0.144  1.00  0.00    -0.246 N 
ATOM     14  H4  UNL     1      -2.140  -3.042  -0.721  1.00  0.00     0.192 HD
BRANCH  13  15
HETATM   15  N5  UNL     1      -3.607  -4.540  -0.753  1.00  0.00    -0.207 N 
ATOM     16  H5  UNL     1      -3.814  -5.440  -0.320  1.00  0.00     0.215 HD
BRANCH  15  17
HETATM   17  O4  UNL     1      -4.181  -4.223  -1.826  1.00  0.00    -0.274 OA
ATOM     18  H4  UNL     1      -4.805  -4.808  -2.240  1.00  0.00     0.246 HD
ENDBRANCH  15  17
ENDBRANCH  13  15
ENDBRANCH  10  11
ENDBRANCH   6  10
BRANCH   8  19
HETATM   19  N7  UNL     1       0.718  -1.142  -1.483  1.00  0.00    -0.228 N 
HETATM   20  N8  UNL     1       1.897  -1.021  -1.904  1.00  0.00    -0.286 N 
ATOM     21  H8  UNL     1       2.158  -1.483  -2.775  1.00  0.00     0.188 HD
ATOM     22  H7  UNL     1       0.052  -1.697  -2.021  1.00  0.00     0.209 HD
BRANCH  20  23
HETATM   23  C6  UNL     1       2.877  -0.266  -1.211  1.00  0.00     0.049 A 
HETATM   24  C7  UNL     1       3.449   0.833  -1.841  1.00  0.00     0.033 A 
HETATM   25  C8  UNL     1       4.409   1.604  -1.211  1.00  0.00     0.038 A 
HETATM   26  C9  UNL     1       4.828   1.304   0.067  1.00  0.00     0.103 A 
HETATM   27  C10 UNL     1       4.252   0.211   0.681  1.00  0.00     0.038 A 
HETATM   28  C11 UNL     1       3.302  -0.553   0.059  1.00  0.00     0.033 A 
BRANCH  26  29
HETATM   29  N9  UNL     1       5.808   2.093   0.707  1.00  0.00    -0.116 N 
HETATM   30  O5  UNL     1       6.194   1.832   1.859  1.00  0.00    -0.532 OA
HETATM   31  O6  UNL     1       6.352   3.171   0.054  1.00  0.00    -0.532 OA
ENDBRANCH  26  29
ENDBRANCH  20  23
ENDBRANCH   8  19
BRANCH   1  32
HETATM   32  O1  UNL     1      -3.410   1.440  -0.011  1.00  0.00    -0.304 OA
BRANCH  32  33
HETATM   33  C2  UNL     1      -3.692   2.690  -0.602  1.00  0.00     0.176 C 
HETATM   34  C1  UNL     1      -2.772   3.780  -0.091  1.00  0.00     0.034 C 
ENDBRANCH  32  33
ENDBRANCH   1  32
TORSDOF 9
