REMARK  3 active torsions:
REMARK  status: ('A' for Active; 'I' for Inactive)
REMARK    1  A    between atoms: C3_3  and  C4_4 
REMARK    2  A    between atoms: C3_3  and  N1_6 
REMARK    3  A    between atoms: C7_8  and  N2_9 
ROOT
HETATM    1  C1  UNL     1      -1.690   2.680  -0.116  1.00  0.00     0.014 C 
HETATM    2  C2  UNL     1      -1.334   1.523  -0.088  1.00  0.00    -0.077 C 
HETATM    3  C3  UNL     1      -0.906   0.110  -0.029  1.00  0.00     0.325 C 
ENDROOT
BRANCH   3   4
HETATM    4  C4  UNL     1      -1.784  -0.576   0.936  1.00  0.00     0.011 C 
HETATM    5  C5  UNL     1      -1.794  -1.884   1.005  1.00  0.00     0.010 C 
ENDBRANCH   3   4
BRANCH   3   6
HETATM    6  N1  UNL     1       0.476   0.142   0.466  1.00  0.00     0.144 N 
HETATM    7  C6  UNL     1       1.355   0.853  -0.470  1.00  0.00     0.342 A 
HETATM    8  C7  UNL     1       1.485  -0.624  -0.186  1.00  0.00     0.447 A 
BRANCH   8   9
HETATM    9  N2  UNL     1       2.634  -0.949   0.667  1.00  0.00    -0.046 N 
ATOM     10  H23 UNL     1       3.033  -0.100   1.069  1.00  0.00     0.277 HD
ATOM     11  H22 UNL     1       2.326  -1.416   1.520  1.00  0.00     0.277 HD
ATOM     12  H21 UNL     1       3.356  -1.497   0.200  1.00  0.00     0.277 HD
ENDBRANCH   8   9
ENDBRANCH   3   6
TORSDOF 3
