REMARK  1 active torsions:
REMARK  status: ('A' for Active; 'I' for Inactive)
REMARK       I    between atoms: N3_4  and  C2_6 
REMARK    1  A    between atoms: N5_8  and  C3_10 
ROOT
HETATM    1  N1  UNL     1      -1.635  -0.149   0.949  1.00  0.00    -0.066 NA
HETATM    2  C1  UNL     1      -0.971  -0.639  -0.214  1.00  0.00     0.203 C 
HETATM    3  N2  UNL     1      -1.516  -1.734  -0.931  1.00  0.00    -0.066 NA
HETATM    4  N3  UNL     1       0.113  -0.120  -0.639  1.00  0.00    -0.307 N 
ATOM      5  H3  UNL     1       0.534  -0.521  -1.477  1.00  0.00     0.170 HD
HETATM    6  C2  UNL     1       0.777   0.978  -0.028  1.00  0.00     0.194 C 
HETATM    7  N4  UNL     1       0.255   2.291  -0.125  1.00  0.00    -0.063 NA
HETATM    8  N5  UNL     1       1.880   0.770   0.629  1.00  0.00    -0.331 N 
ATOM      9  H5  UNL     1       2.363   1.552   1.071  1.00  0.00     0.168 HD
ENDROOT
BRANCH   8  10
HETATM   10  C3  UNL     1       2.414  -0.540   0.734  1.00  0.00     0.172 C 
HETATM   11  S1  UNL     1       3.969  -0.848   1.031  1.00  0.00    -0.074 SA
ENDBRANCH   8  10
TORSDOF 1
