REMARK  3 active torsions:
REMARK  status: ('A' for Active; 'I' for Inactive)
REMARK    1  A    between atoms: C4_4  and  C5_5 
REMARK    2  A    between atoms: C5_5  and  N1_6 
REMARK    3  A    between atoms: N1_6  and  C6_8 
ROOT
HETATM    1  N1  UNL     1       0.827  -0.578  -0.044  1.00  0.00    -0.370 N 
ATOM      2  H1  UNL     1       0.464  -1.531  -0.055  1.00  0.00     0.161 HD
ENDROOT
BRANCH   1   3
HETATM    3  C5  UNL     1      -0.069   0.539  -0.043  1.00  0.00     0.178 C 
BRANCH   3   4
HETATM    4  C4  UNL     1      -1.486   0.124  -0.168  1.00  0.00     0.026 A 
HETATM    5  C3  UNL     1      -2.443   1.118  -0.178  1.00  0.00     0.027 A 
HETATM    6  C2  UNL     1      -3.787   0.858  -0.289  1.00  0.00     0.003 A 
HETATM    7  C1  UNL     1      -4.177  -0.469  -0.394  1.00  0.00     0.017 A 
HETATM    8  C9  UNL     1      -3.199  -1.446  -0.381  1.00  0.00     0.088 A 
HETATM    9  N4  UNL     1      -1.892  -1.140  -0.270  1.00  0.00    -0.368 N 
ATOM     10  H4  UNL     1      -1.201  -1.890  -0.264  1.00  0.00     0.165 HD
ENDBRANCH   3   4
ENDBRANCH   1   3
BRANCH   1  11
HETATM   11  C6  UNL     1       2.091  -0.364  -0.031  1.00  0.00     0.117 A 
HETATM   12  C7  UNL     1       3.021  -1.390  -0.031  1.00  0.00     0.068 A 
HETATM   13  C8  UNL     1       4.272  -0.801  -0.014  1.00  0.00     0.111 A 
HETATM   14  N2  UNL     1       4.048   0.515  -0.006  1.00  0.00    -0.310 N 
HETATM   15  N3  UNL     1       2.764   0.799  -0.015  1.00  0.00    -0.286 N 
ATOM     16  H2  UNL     1       4.787   1.218   0.006  1.00  0.00     0.186 HD
ATOM     17  H3  UNL     1       2.353   1.733  -0.011  1.00  0.00     0.188 HD
ENDBRANCH   1  11
TORSDOF 3
