REMARK  3 active torsions:
REMARK  status: ('A' for Active; 'I' for Inactive)
REMARK    1  A    between atoms: C2_2  and  C3_3 
REMARK    2  A    between atoms: C3_3  and  N1_4 
REMARK    3  A    between atoms: N1_4  and  C4_6 
ROOT
HETATM    1  C4  UNL     1      -0.018   0.669  -0.226  1.00  0.00     0.120 A 
HETATM    2  N2  UNL     1      -0.532   1.890  -0.602  1.00  0.00    -0.338 N 
ATOM      3  H2  UNL     1       0.119   2.651  -0.798  1.00  0.00     0.168 HD
HETATM    4  C5  UNL     1      -1.832   2.125  -0.722  1.00  0.00     0.183 A 
HETATM    5  N3  UNL     1      -2.755   1.192  -0.486  1.00  0.00    -0.338 N 
ATOM      6  H3  UNL     1      -3.750   1.393  -0.584  1.00  0.00     0.168 HD
HETATM    7  C6  UNL     1      -2.320  -0.028  -0.113  1.00  0.00     0.120 A 
HETATM    8  N4  UNL     1      -2.985  -1.158   0.190  1.00  0.00    -0.351 N 
ATOM      9  H4  UNL     1      -4.001  -1.252   0.178  1.00  0.00     0.166 HD
HETATM   10  C7  UNL     1      -2.141  -2.138   0.508  1.00  0.00     0.091 A 
HETATM   11  C8  UNL     1      -0.851  -1.632   0.412  1.00  0.00     0.036 A 
HETATM   12  C9  UNL     1      -0.978  -0.317   0.023  1.00  0.00     0.053 A 
ENDROOT
BRANCH   1  13
HETATM   13  N1  UNL     1       1.221   0.516  -0.133  1.00  0.00    -0.352 N 
ATOM     14  H1  UNL     1       1.723   1.373  -0.363  1.00  0.00     0.166 HD
BRANCH  13  15
HETATM   15  C3  UNL     1       2.093  -0.513   0.201  1.00  0.00     0.089 C 
BRANCH  15  16
HETATM   16  C2  UNL     1       3.539  -0.072   0.219  1.00  0.00     0.007 C 
HETATM   17  C1  UNL     1       3.803   1.176  -0.069  1.00  0.00     0.012 C 
ENDBRANCH  15  16
ENDBRANCH  13  15
ENDBRANCH   1  13
TORSDOF 3
