REMARK  5 active torsions:
REMARK  status: ('A' for Active; 'I' for Inactive)
REMARK    1  A    between atoms: C5_7  and  S1_8 
REMARK    2  A    between atoms: S1_8  and  N1_11 
REMARK    3  A    between atoms: N1_11  and  C6_13 
REMARK    4  A    between atoms: C6_13  and  N2_15 
REMARK    5  A    between atoms: N2_15  and  C7_17 
ROOT
HETATM    1  N1  UNL     1       0.588   0.538  -0.309  1.00  0.00    -0.257 N 
ATOM      2  H1  UNL     1      -0.103   0.955   0.314  1.00  0.00     0.181 HD
ENDROOT
BRANCH   1   3
HETATM    3  S1  UNL     1       2.071   1.334  -0.616  1.00  0.00     0.267 S 
HETATM    4  O2  UNL     1       2.100   2.679   0.052  1.00  0.00    -0.200 OA
HETATM    5  O3  UNL     1       2.237   1.582  -2.092  1.00  0.00    -0.200 OA
BRANCH   3   6
HETATM    6  C5  UNL     1       3.439   0.416  -0.082  1.00  0.00     0.112 A 
HETATM    7  C2  UNL     1       4.756   0.830  -0.292  1.00  0.00     0.074 A 
HETATM    8  C1  UNL     1       5.136   2.087  -1.013  1.00  0.00     0.078 C 
HETATM    9  O1  UNL     1       5.524  -0.064   0.244  1.00  0.00    -0.302 OA
HETATM   10  C3  UNL     1       4.834  -1.038   0.794  1.00  0.00     0.146 A 
HETATM   11 CL1  UNL     1       5.447  -2.456   1.631  1.00  0.00    -0.057 Cl
HETATM   12  C4  UNL     1       3.486  -0.776   0.612  1.00  0.00     0.078 A 
ENDBRANCH   3   6
ENDBRANCH   1   3
BRANCH   1  13
HETATM   13  C6  UNL     1       0.332  -0.711  -0.933  1.00  0.00     0.181 C 
HETATM   14  S2  UNL     1       1.442  -1.359  -1.963  1.00  0.00    -0.040 SA
BRANCH  13  15
HETATM   15  N2  UNL     1      -0.892  -1.359  -0.668  1.00  0.00    -0.362 N 
ATOM     16  H2  UNL     1      -1.064  -2.265  -1.103  1.00  0.00     0.162 HD
BRANCH  15  17
HETATM   17  C7  UNL     1      -1.911  -0.807   0.185  1.00  0.00     0.083 C 
HETATM   18  C8  UNL     1      -2.581   0.330  -0.511  1.00  0.00     0.025 C 
HETATM   19  C9  UNL     1      -3.363   1.063   0.571  1.00  0.00     0.002 C 
HETATM   20  C10 UNL     1      -4.334   0.134   1.207  1.00  0.00     0.000 C 
HETATM   21  C11 UNL     1      -4.296  -1.294   0.808  1.00  0.00     0.002 C 
HETATM   22  C12 UNL     1      -2.962  -1.852   0.448  1.00  0.00     0.025 C 
ENDBRANCH  15  17
ENDBRANCH  13  15
ENDBRANCH   1  13
TORSDOF 5
