REMARK  3 active torsions:
REMARK  status: ('A' for Active; 'I' for Inactive)
REMARK    1  A    between atoms: N1_2  and  C1_4 
REMARK    2  A    between atoms: N4_9  and  C2_10 
REMARK    3  A    between atoms: C8_16  and  N5_17 
ROOT
HETATM    1  C1  UNL     1      -0.920  -2.545  -1.700  1.00  0.00     0.235 A 
HETATM    2  N2  UNL     1       0.334  -3.002  -1.977  1.00  0.00    -0.263 N 
ATOM      3  H2  UNL     1       0.572  -3.818  -2.541  1.00  0.00     0.190 HD
HETATM    4  N3  UNL     1       1.159  -2.210  -1.392  1.00  0.00    -0.237 N 
ATOM      5  H3  UNL     1       2.173  -2.314  -1.430  1.00  0.00     0.208 HD
HETATM    6  N4  UNL     1       0.536  -1.238  -0.730  1.00  0.00    -0.254 N 
HETATM    7  C8  UNL     1      -0.805  -1.425  -0.909  1.00  0.00     0.176 A 
ENDROOT
BRANCH   7   8
HETATM    8  N5  UNL     1      -1.791  -0.612  -0.345  1.00  0.00    -0.342 N 
HETATM    9  C9  UNL     1      -2.084  -0.713   1.099  1.00  0.00     0.145 C 
HETATM   10  C10 UNL     1      -2.399   0.636   1.677  1.00  0.00     0.133 C 
HETATM   11  N6  UNL     1      -1.859   1.722   0.895  1.00  0.00    -0.417 N 
HETATM   12  C11 UNL     1      -2.271   1.765  -0.471  1.00  0.00     0.155 C 
ATOM     13  H6  UNL     1      -1.224   2.414   1.293  1.00  0.00     0.153 HD
HETATM   14  C12 UNL     1      -2.619   0.385  -1.012  1.00  0.00     0.200 C 
HETATM   15 CL1  UNL     1      -4.355   0.199  -0.625  1.00  0.00    -0.101 Cl
ENDBRANCH   7   8
BRANCH   1  16
HETATM   16  N1  UNL     1      -2.093  -3.167  -2.168  1.00  0.00    -0.092 N 
HETATM   17  O1  UNL     1      -3.112  -2.552  -2.462  1.00  0.00    -0.530 OA
HETATM   18  O2  UNL     1      -2.091  -4.531  -2.325  1.00  0.00    -0.530 OA
ENDBRANCH   1  16
BRANCH   6  19
HETATM   19  C2  UNL     1       1.213  -0.231   0.019  1.00  0.00     0.111 C 
HETATM   20  C3  UNL     1       2.521  -0.855   0.533  1.00  0.00     0.027 C 
HETATM   21  C4  UNL     1       3.305   0.062   1.395  1.00  0.00     0.002 C 
HETATM   22  C5  UNL     1       3.564   1.391   0.701  1.00  0.00     0.000 C 
HETATM   23  C6  UNL     1       2.223   1.949   0.318  1.00  0.00     0.002 C 
HETATM   24  C7  UNL     1       1.629   0.991  -0.732  1.00  0.00     0.027 C 
ENDBRANCH   6  19
TORSDOF 3
