REMARK  9 active torsions:
REMARK  status: ('A' for Active; 'I' for Inactive)
REMARK    1  A    between atoms: C2_2  and  O1_3 
REMARK    2  A    between atoms: C2_2  and  N1_5 
REMARK    3  A    between atoms: N1_5  and  C4_7 
REMARK    4  A    between atoms: C6_9  and  N2_10 
REMARK    5  A    between atoms: N2_10  and  C7_12 
REMARK    6  A    between atoms: C7_12  and  C8_13 
REMARK    7  A    between atoms: C8_13  and  S1_14 
REMARK    8  A    between atoms: C9_20  and  N4_21 
REMARK    9  A    between atoms: N6_28  and  O5_29 
ROOT
HETATM    1  C4  UNL     1       0.051   1.119   0.327  1.00  0.00     0.154 A 
HETATM    2  C5  UNL     1       0.994   0.377  -0.362  1.00  0.00     0.100 A 
HETATM    3  C6  UNL     1       0.735  -0.871  -0.849  1.00  0.00     0.120 A 
HETATM    4  N3  UNL     1      -0.502  -1.361  -0.626  1.00  0.00    -0.174 N 
ATOM      5  H3  UNL     1      -0.732  -2.291  -0.975  1.00  0.00     0.186 HD
HETATM    6  C9  UNL     1      -1.443  -0.667   0.040  1.00  0.00     0.715 A 
HETATM    7  N6  UNL     1      -1.144   0.561   0.502  1.00  0.00    -0.035 N 
ENDROOT
BRANCH   3   8
HETATM    8  N2  UNL     1       1.689  -1.657  -1.555  1.00  0.00    -0.375 N 
ATOM      9  H2  UNL     1       1.376  -2.558  -1.918  1.00  0.00     0.161 HD
BRANCH   8  10
HETATM   10  C7  UNL     1       3.048  -1.290  -1.798  1.00  0.00     0.139 C 
BRANCH  10  11
HETATM   11  C8  UNL     1       3.821  -1.384  -0.508  1.00  0.00     0.184 C 
BRANCH  11  12
HETATM   12  S1  UNL     1       5.527  -0.907  -0.758  1.00  0.00     0.103 S 
HETATM   13  O2  UNL     1       5.520   0.565  -1.078  1.00  0.00    -0.595 OA
HETATM   14  O3  UNL     1       6.187  -1.700  -1.819  1.00  0.00    -0.595 OA
HETATM   15  O4  UNL     1       6.273  -1.069   0.756  1.00  0.00    -0.595 OA
ENDBRANCH  11  12
ENDBRANCH  10  11
ENDBRANCH   8  10
ENDBRANCH   3   8
BRANCH   1  16
HETATM   16  N1  UNL     1       0.291   2.401   0.839  1.00  0.00    -0.343 N 
HETATM   17  C3  UNL     1       0.808   2.557   2.171  1.00  0.00     0.154 C 
BRANCH  16  18
HETATM   18  C2  UNL     1       0.029   3.569   0.045  1.00  0.00     0.216 C 
HETATM   19  C1  UNL     1       1.280   4.392  -0.175  1.00  0.00     0.063 C 
BRANCH  18  20
HETATM   20  O1  UNL     1      -0.882   4.435   0.698  1.00  0.00    -0.377 OA
ATOM     21  H1  UNL     1      -1.667   3.918   0.836  1.00  0.00     0.212 HD
ENDBRANCH  18  20
ENDBRANCH  16  18
ENDBRANCH   1  16
BRANCH   6  22
HETATM   22  N4  UNL     1      -2.719  -1.248   0.238  1.00  0.00    -0.177 N 
HETATM   23  C10 UNL     1      -3.664  -1.126  -0.852  1.00  0.00     0.150 C 
HETATM   24  C11 UNL     1      -4.903  -1.959  -0.609  1.00  0.00     0.040 C 
HETATM   25  C12 UNL     1      -4.428  -3.192   0.168  1.00  0.00     0.122 C 
HETATM   26  N5  UNL     1      -4.129  -2.763   1.497  1.00  0.00    -0.385 N 
HETATM   27  C13 UNL     1      -2.981  -1.901   1.489  1.00  0.00     0.196 C 
ATOM     28  H5  UNL     1      -4.654  -3.030   2.330  1.00  0.00     0.160 HD
ENDBRANCH   6  22
BRANCH   7  29
HETATM   29  O5  UNL     1      -2.144   1.226   1.178  1.00  0.00    -0.268 OA
ATOM     30  H5  UNL     1      -2.997   0.828   1.303  1.00  0.00     0.246 HD
ENDBRANCH   7  29
TORSDOF 9
