REMARK  4 active torsions:
REMARK  status: ('A' for Active; 'I' for Inactive)
REMARK       I    between atoms: C1_4  and  N3_6 
REMARK    1  A    between atoms: N3_6  and  N4_8 
REMARK    2  A    between atoms: C2_10  and  C3_11 
REMARK    3  A    between atoms: C5_13  and  C6_14 
REMARK    4  A    between atoms: C8_17  and  C9_18 
ROOT
HETATM    1  C3  UNL     1      -0.944  -0.363  -0.213  1.00  0.00     0.008 A 
HETATM    2  C4  UNL     1       0.367   0.060  -0.158  1.00  0.00     0.000 A 
HETATM    3  C5  UNL     1       0.770   1.303  -0.542  1.00  0.00     0.014 A 
HETATM    4  C7  UNL     1       2.105   1.714  -0.454  1.00  0.00     0.027 A 
HETATM    5  C8  UNL     1       3.072   0.875   0.039  1.00  0.00    -0.024 A 
HETATM    6  C15 UNL     1       2.679  -0.369   0.443  1.00  0.00     0.024 A 
HETATM    7  C16 UNL     1       1.369  -0.776   0.358  1.00  0.00    -0.021 A 
HETATM    8  C17 UNL     1       1.079  -2.029   0.831  1.00  0.00     0.042 A 
HETATM    9  C18 UNL     1      -0.228  -2.460   0.795  1.00  0.00     0.047 A 
HETATM   10  N5  UNL     1      -0.747  -3.634   1.222  1.00  0.00    -0.354 N 
ATOM     11  H5  UNL     1      -0.217  -4.401   1.636  1.00  0.00     0.166 HD
HETATM   12  C19 UNL     1      -2.063  -3.625   1.013  1.00  0.00     0.060 A 
HETATM   13  C20 UNL     1      -3.035  -4.560   1.276  1.00  0.00     0.033 A 
HETATM   14  C21 UNL     1      -4.333  -4.257   0.952  1.00  0.00     0.019 A 
HETATM   15  C22 UNL     1      -4.633  -3.032   0.374  1.00  0.00     0.088 A 
HETATM   16  N6  UNL     1      -3.643  -2.183   0.150  1.00  0.00    -0.363 N 
ATOM     17  H6  UNL     1      -3.883  -1.288  -0.276  1.00  0.00     0.165 HD
HETATM   18  C23 UNL     1      -2.371  -2.397   0.431  1.00  0.00     0.072 A 
HETATM   19  C24 UNL     1      -1.225  -1.647   0.284  1.00  0.00     0.032 A 
ENDROOT
BRANCH   1  20
HETATM   20  C2  UNL     1      -1.906   0.304  -1.037  1.00  0.00     0.120 C 
HETATM   21  N4  UNL     1      -3.158   0.113  -1.187  1.00  0.00    -0.309 N 
ATOM     22  H4  UNL     1      -3.568  -0.641  -0.635  1.00  0.00     0.186 HD
BRANCH  21  23
HETATM   23  N3  UNL     1      -4.013   0.800  -2.000  1.00  0.00    -0.274 N 
HETATM   24  C1  UNL     1      -4.990   1.665  -1.423  1.00  0.00     0.200 C 
HETATM   25  N1  UNL     1      -5.935   1.219  -0.672  1.00  0.00    -0.372 N 
HETATM   26  N2  UNL     1      -4.956   3.082  -1.660  1.00  0.00    -0.062 NA
ATOM     27  H12 UNL     1      -6.633   1.837  -0.260  1.00  0.00     0.158 HD
ATOM     28  H11 UNL     1      -5.959   0.213  -0.504  1.00  0.00     0.158 HD
ATOM     29  H3  UNL     1      -3.954   0.696  -3.013  1.00  0.00     0.189 HD
ENDBRANCH  21  23
ENDBRANCH   1  20
BRANCH   3  30
HETATM   30  C6  UNL     1      -0.153   2.377  -0.788  1.00  0.00     0.271 C 
HETATM   31  O1  UNL     1      -0.926   2.714   0.193  1.00  0.00    -0.301 OA
ENDBRANCH   3  30
BRANCH   5  32
HETATM   32  C9  UNL     1       4.461   1.315   0.110  1.00  0.00    -0.026 A 
HETATM   33  C10 UNL     1       4.964   2.197  -0.834  1.00  0.00     0.012 A 
HETATM   34  C11 UNL     1       6.268   2.637  -0.806  1.00  0.00     0.001 A 
HETATM   35  C12 UNL     1       7.096   2.189   0.185  1.00  0.00     0.000 A 
HETATM   36  C13 UNL     1       6.633   1.308   1.147  1.00  0.00     0.001 A 
HETATM   37  C14 UNL     1       5.311   0.877   1.098  1.00  0.00     0.012 A 
ENDBRANCH   5  32
TORSDOF 4
