REMARK  9 active torsions:
REMARK  status: ('A' for Active; 'I' for Inactive)
REMARK    1  A    between atoms: O1_2  and  C2_3 
REMARK    2  A    between atoms: C4_7  and  N2_8 
REMARK    3  A    between atoms: C6_13  and  O2_14 
REMARK    4  A    between atoms: C8_16  and  C9_17 
REMARK    5  A    between atoms: C9_17  and  N4_18 
REMARK    6  A    between atoms: C9_17  and  N5_22 
REMARK    7  A    between atoms: N5_22  and  N6_24 
REMARK    8  A    between atoms: C12_32  and  N8_33 
REMARK    9  A    between atoms: N8_33  and  C13_35 
ROOT
HETATM    1  N2  UNL     1       0.609  -1.511  -1.106  1.00  0.00    -0.324 N 
ATOM      2  H2  UNL     1       0.600  -2.510  -1.314  1.00  0.00     0.169 HD
HETATM    3  C5  UNL     1      -0.519  -0.963  -0.850  1.00  0.00     0.178 A 
HETATM    4  N3  UNL     1      -1.667  -1.695  -0.859  1.00  0.00    -0.317 N 
ATOM      5  H3  UNL     1      -1.622  -2.691  -1.074  1.00  0.00     0.169 HD
HETATM    6  C6  UNL     1      -2.880  -1.122  -0.586  1.00  0.00     0.171 A 
HETATM    7  C8  UNL     1      -2.977   0.221  -0.294  1.00  0.00     0.115 A 
HETATM    8  N7  UNL     1      -1.828   0.940  -0.289  1.00  0.00    -0.317 N 
ATOM      9  H7  UNL     1      -1.871   1.937  -0.077  1.00  0.00     0.169 HD
HETATM   10  C10 UNL     1      -0.616   0.375  -0.558  1.00  0.00     0.290 A 
HETATM   11  O3  UNL     1       0.384   1.160  -0.519  1.00  0.00    -0.264 OA
ENDROOT
BRANCH   1  12
HETATM   12  C4  UNL     1       1.859  -0.868  -1.128  1.00  0.00     0.108 A 
HETATM   13  N1  UNL     1       2.338  -0.293  -2.225  1.00  0.00    -0.349 N 
HETATM   14  C3  UNL     1       3.533   0.305  -2.233  1.00  0.00     0.128 A 
ATOM     15  H1  UNL     1       1.782  -0.308  -3.080  1.00  0.00     0.166 HD
HETATM   16  C2  UNL     1       4.278   0.323  -1.081  1.00  0.00     0.110 A 
HETATM   17  C12 UNL     1       3.830  -0.262   0.100  1.00  0.00     0.072 A 
HETATM   18  C11 UNL     1       2.613  -0.856   0.060  1.00  0.00     0.081 A 
BRANCH  16  19
HETATM   19  O1  UNL     1       5.512   0.944  -1.100  1.00  0.00    -0.352 OA
HETATM   20  C1  UNL     1       6.060   1.563  -2.230  1.00  0.00     0.210 C 
ENDBRANCH  16  19
BRANCH  17  21
HETATM   21  N8  UNL     1       4.662  -0.192   1.226  1.00  0.00    -0.332 N 
ATOM     22  H8  UNL     1       5.556   0.287   1.120  1.00  0.00     0.168 HD
BRANCH  21  23
HETATM   23  C13 UNL     1       4.364  -0.725   2.477  1.00  0.00     0.353 C 
HETATM   24  O4  UNL     1       3.351  -1.329   2.800  1.00  0.00    -0.283 OA
ENDBRANCH  21  23
ENDBRANCH  17  21
ENDBRANCH   1  12
BRANCH   6  25
HETATM   25  O2  UNL     1      -3.966  -1.972  -0.624  1.00  0.00    -0.339 OA
HETATM   26  C7  UNL     1      -4.362  -2.834   0.399  1.00  0.00     0.211 C 
ENDBRANCH   6  25
BRANCH   7  27
HETATM   27  C9  UNL     1      -4.243   0.935  -0.029  1.00  0.00     0.350 C 
BRANCH  27  28
HETATM   28  N4  UNL     1      -5.052   0.135   0.870  1.00  0.00    -0.051 N 
ATOM     29  H43 UNL     1      -5.204  -0.811   0.520  1.00  0.00     0.277 HD
ATOM     30  H42 UNL     1      -4.556  -0.109   1.727  1.00  0.00     0.277 HD
ATOM     31  H41 UNL     1      -5.926   0.628   1.053  1.00  0.00     0.277 HD
ENDBRANCH  27  28
BRANCH  27  32
HETATM   32  N5  UNL     1      -4.051   2.234   0.528  1.00  0.00    -0.307 N 
ATOM     33  H5  UNL     1      -4.322   3.078   0.023  1.00  0.00     0.182 HD
BRANCH  32  34
HETATM   34  N6  UNL     1      -3.486   2.294   1.774  1.00  0.00    -0.347 N 
ATOM     35  H62 UNL     1      -3.221   1.441   2.267  1.00  0.00     0.176 HD
ATOM     36  H61 UNL     1      -3.349   3.223   2.172  1.00  0.00     0.176 HD
ENDBRANCH  32  34
ENDBRANCH  27  32
ENDBRANCH   7  27
TORSDOF 9
