REMARK  8 active torsions:
REMARK  status: ('A' for Active; 'I' for Inactive)
REMARK    1  A    between atoms: C3_3  and  C4_4 
REMARK    2  A    between atoms: C4_4  and  N1_5 
REMARK    3  A    between atoms: N1_5  and  C7_8 
REMARK    4  A    between atoms: C7_8  and  C8_9 
REMARK    5  A    between atoms: C11_12  and  N2_13 
REMARK       I    between atoms: N2_13  and  C12_15 
REMARK    6  A    between atoms: C12_15  and  C13_17 
REMARK    7  A    between atoms: C13_17  and  N3_18 
REMARK    8  A    between atoms: N3_18  and  N4_20 
ROOT
HETATM    1  C1  UNL     1      -7.581   0.820   1.034  1.00  0.00     0.112 C 
HETATM    2  C2  UNL     1      -6.132   1.018   0.809  1.00  0.00    -0.109 C 
HETATM    3  C3  UNL     1      -4.955   1.200   0.621  1.00  0.00    -0.079 C 
ENDROOT
BRANCH   3   4
HETATM    4  C4  UNL     1      -3.517   1.418   0.364  1.00  0.00     0.330 C 
BRANCH   4   5
HETATM    5  N1  UNL     1      -2.957   0.579  -0.616  1.00  0.00    -0.061 N 
HETATM    6  C5  UNL     1      -4.122  -0.170  -1.173  1.00  0.00     0.273 C 
HETATM    7  C6  UNL     1      -2.605   1.430  -1.722  1.00  0.00     0.273 C 
BRANCH   5   8
HETATM    8  C7  UNL     1      -1.920  -0.391  -0.245  1.00  0.00     0.277 C 
BRANCH   8   9
HETATM    9  C8  UNL     1      -0.624   0.034   0.168  1.00  0.00    -0.021 C 
HETATM   10  C9  UNL     1      -0.209   1.380   0.137  1.00  0.00     0.012 C 
HETATM   11  C10 UNL     1       1.086   1.891  -0.051  1.00  0.00     0.030 C 
HETATM   12  C11 UNL     1       2.193   1.151  -0.457  1.00  0.00     0.035 C 
HETATM   13  C14 UNL     1       2.424  -0.207  -0.387  1.00  0.00     0.043 C 
HETATM   14  C15 UNL     1       1.624  -1.120   0.270  1.00  0.00    -0.000 A 
HETATM   15  C16 UNL     1       2.293  -2.232   0.704  1.00  0.00     0.016 A 
HETATM   16  C21 UNL     1       0.242  -0.969   0.544  1.00  0.00    -0.009 A 
HETATM   17  C17 UNL     1       3.752  -2.342   0.382  1.00  0.00     0.069 C 
HETATM   18  N6  UNL     1       1.627  -3.169   1.389  1.00  0.00    -0.368 N 
HETATM   19  C18 UNL     1       0.322  -3.035   1.657  1.00  0.00     0.095 A 
ATOM     20  H6  UNL     1       2.122  -4.000   1.713  1.00  0.00     0.165 HD
HETATM   21  C19 UNL     1      -0.444  -1.921   1.248  1.00  0.00    -0.035 A 
HETATM   22  C20 UNL     1      -1.816  -1.684   1.570  1.00  0.00     0.050 C 
BRANCH  12  23
HETATM   23  N2  UNL     1       3.149   1.866  -0.983  1.00  0.00    -0.326 N 
HETATM   24  C12 UNL     1       4.351   1.276  -1.451  1.00  0.00     0.241 C 
HETATM   25  O1  UNL     1       4.345   0.784  -2.614  1.00  0.00    -0.271 OA
ATOM     26  H2  UNL     1       3.029   2.876  -1.060  1.00  0.00     0.169 HD
BRANCH  24  27
HETATM   27  C13 UNL     1       5.589   1.210  -0.659  1.00  0.00     0.243 C 
BRANCH  27  28
HETATM   28  N3  UNL     1       6.647   0.553  -1.399  1.00  0.00    -0.314 N 
ATOM     29  H3  UNL     1       6.455   0.216  -2.342  1.00  0.00     0.182 HD
BRANCH  28  30
HETATM   30  N4  UNL     1       7.922   0.366  -0.861  1.00  0.00    -0.253 N 
HETATM   31  N5  UNL     1       8.762  -0.329  -1.507  1.00  0.00    -0.331 N 
ATOM     32  H52 UNL     1       8.496  -0.738  -2.403  1.00  0.00     0.178 HD
ATOM     33  H51 UNL     1       9.693  -0.466  -1.114  1.00  0.00     0.178 HD
ATOM     34  H4  UNL     1       8.173   0.781   0.036  1.00  0.00     0.207 HD
ENDBRANCH  28  30
ENDBRANCH  27  28
ENDBRANCH  24  27
ENDBRANCH  12  23
ENDBRANCH   8   9
ENDBRANCH   5   8
ENDBRANCH   4   5
ENDBRANCH   3   4
TORSDOF 8
