REMARK  9 active torsions:
REMARK  status: ('A' for Active; 'I' for Inactive)
REMARK    1  A    between atoms: C2_2  and  N2_6 
REMARK    2  A    between atoms: C3_8  and  C4_9 
REMARK    3  A    between atoms: C3_8  and  C5_12 
REMARK    4  A    between atoms: C4_9  and  O1_10 
REMARK    5  A    between atoms: C5_12  and  C6_13 
REMARK    6  A    between atoms: C6_13  and  N3_14 
REMARK    7  A    between atoms: N3_14  and  C7_15 
REMARK    8  A    between atoms: C7_15  and  C8_16 
REMARK    9  A    between atoms: C8_16  and  N4_17 
ROOT
HETATM    1  N3  UNL     1       0.761  -1.768  -0.339  1.00  0.00    -0.061 N 
HETATM    2  C16 UNL     1       0.934  -2.711  -1.458  1.00  0.00     0.263 C 
HETATM    3  C17 UNL     1       2.052  -3.673  -1.220  1.00  0.00     0.195 C 
HETATM    4  O2  UNL     1       1.705  -4.482  -0.139  1.00  0.00    -0.388 OA
HETATM    5  C18 UNL     1       1.608  -3.671   0.977  1.00  0.00     0.195 C 
HETATM    6  C19 UNL     1       0.575  -2.591   0.834  1.00  0.00     0.263 C 
ENDROOT
BRANCH   1   7
HETATM    7  C6  UNL     1       1.981  -1.008  -0.277  1.00  0.00     0.243 C 
BRANCH   7   8
HETATM    8  C5  UNL     1       1.881   0.269   0.480  1.00  0.00     0.082 C 
BRANCH   8   9
HETATM    9  C3  UNL     1       3.234   0.931   0.443  1.00  0.00     0.013 C 
HETATM   10  N2  UNL     1       3.389   2.093  -0.079  1.00  0.00    -0.352 N 
ATOM     11  H2  UNL     1       2.593   2.590  -0.479  1.00  0.00     0.166 HD
BRANCH  10  12
HETATM   12  C2  UNL     1       4.675   2.673  -0.092  1.00  0.00     0.070 C 
HETATM   13  C1  UNL     1       5.649   2.391  -1.199  1.00  0.00     0.088 C 
HETATM   14  N1  UNL     1       5.044   3.460   0.850  1.00  0.00    -0.389 N 
ATOM     15  H12 UNL     1       5.974   3.879   0.841  1.00  0.00     0.157 HD
ATOM     16  H11 UNL     1       4.382   3.652   1.602  1.00  0.00     0.157 HD
ENDBRANCH  10  12
BRANCH   9  17
HETATM   17  C4  UNL     1       4.368   0.199   1.023  1.00  0.00     0.216 C 
BRANCH  17  18
HETATM   18  O1  UNL     1       4.048  -0.032   2.379  1.00  0.00    -0.395 OA
ATOM     19  H1  UNL     1       4.781  -0.505   2.754  1.00  0.00     0.209 HD
ENDBRANCH  17  18
ENDBRANCH   9  17
ENDBRANCH   8   9
ENDBRANCH   7   8
ENDBRANCH   1   7
BRANCH   1  20
HETATM   20  C7  UNL     1      -0.395  -0.992  -0.649  1.00  0.00     0.265 C 
BRANCH  20  21
HETATM   21  C8  UNL     1      -1.240  -0.654   0.548  1.00  0.00     0.265 C 
BRANCH  21  22
HETATM   22  N4  UNL     1      -2.402   0.132   0.203  1.00  0.00    -0.061 N 
HETATM   23  C9  UNL     1      -2.844   0.759   1.459  1.00  0.00     0.265 C 
HETATM   24  C10 UNL     1      -4.197   1.393   1.314  1.00  0.00     0.265 C 
HETATM   25  N5  UNL     1      -4.401   1.620  -0.124  1.00  0.00    -0.066 N 
HETATM   26  C11 UNL     1      -5.577   2.418  -0.295  1.00  0.00     0.272 C 
HETATM   27  C12 UNL     1      -3.202   2.257  -0.609  1.00  0.00     0.265 C 
HETATM   28  C14 UNL     1      -4.595   0.308  -0.713  1.00  0.00     0.265 C 
HETATM   29  C13 UNL     1      -2.102   1.213  -0.700  1.00  0.00     0.265 C 
HETATM   30  C15 UNL     1      -3.509  -0.663  -0.257  1.00  0.00     0.265 C 
ENDBRANCH  21  22
ENDBRANCH  20  21
ENDBRANCH   1  20
TORSDOF 9
