REMARK  8 active torsions:
REMARK  status: ('A' for Active; 'I' for Inactive)
REMARK    1  A    between atoms: C2_2  and  N1_3 
REMARK       I    between atoms: N1_3  and  C3_4 
REMARK    2  A    between atoms: N1_3  and  C5_7 
REMARK    3  A    between atoms: C5_7  and  N2_9 
REMARK    4  A    between atoms: N2_9  and  N3_11 
REMARK    5  A    between atoms: N5_17  and  C8_18 
REMARK    6  A    between atoms: C8_18  and  C9_19 
REMARK    7  A    between atoms: C9_19  and  C10_20 
REMARK    8  A    between atoms: C10_20  and  C11_21 
ROOT
HETATM    1  N3  UNL     1      -1.121  -0.157  -1.435  1.00  0.00    -0.130 N 
ATOM      2  H3  UNL     1      -1.262  -0.571  -2.356  1.00  0.00     0.205 HD
HETATM    3  C6  UNL     1       0.024  -0.387  -0.999  1.00  0.00     0.701 A 
HETATM    4  N4  UNL     1       0.861  -1.124  -1.796  1.00  0.00    -0.186 N 
ATOM      5  H4  UNL     1       0.522  -1.451  -2.701  1.00  0.00     0.185 HD
HETATM    6  C7  UNL     1       2.104  -1.426  -1.425  1.00  0.00     0.202 A 
HETATM    7  N5  UNL     1       2.609  -1.020  -0.235  1.00  0.00    -0.332 N 
HETATM    8  C12 UNL     1       1.831  -0.305   0.563  1.00  0.00     0.098 A 
HETATM    9  C13 UNL     1       2.320   0.191   1.872  1.00  0.00     0.090 C 
HETATM   10  N6  UNL     1       0.558   0.002   0.180  1.00  0.00    -0.175 N 
HETATM   11  C14 UNL     1      -0.265   0.782   1.090  1.00  0.00     0.177 C 
ENDROOT
BRANCH   1  12
HETATM   12  N2  UNL     1      -2.231   0.500  -1.007  1.00  0.00    -0.262 N 
ATOM     13  H2  UNL     1      -2.221   1.519  -1.046  1.00  0.00     0.190 HD
BRANCH  12  14
HETATM   14  C5  UNL     1      -3.396  -0.124  -0.512  1.00  0.00     0.196 C 
HETATM   15  S1  UNL     1      -3.349  -1.780  -0.477  1.00  0.00    -0.039 SA
BRANCH  14  16
HETATM   16  N1  UNL     1      -4.573   0.494  -0.054  1.00  0.00    -0.294 N 
HETATM   17  C3  UNL     1      -4.828   1.888   0.005  1.00  0.00     0.222 C 
HETATM   18  C4  UNL     1      -6.159   2.357   0.533  1.00  0.00     0.117 C 
HETATM   19  O1  UNL     1      -4.024   2.783  -0.352  1.00  0.00    -0.273 OA
BRANCH  16  20
HETATM   20  C2  UNL     1      -5.691  -0.366   0.427  1.00  0.00     0.130 C 
HETATM   21  C1  UNL     1      -6.631  -0.727  -0.676  1.00  0.00     0.027 C 
ENDBRANCH  16  20
ENDBRANCH  14  16
ENDBRANCH  12  14
ENDBRANCH   1  12
BRANCH   7  22
HETATM   22  C8  UNL     1       3.958  -1.414   0.078  1.00  0.00     0.131 C 
BRANCH  22  23
HETATM   23  C9  UNL     1       4.970  -0.368  -0.349  1.00  0.00     0.021 C 
BRANCH  23  24
HETATM   24  C10 UNL     1       6.368  -0.823  -0.000  1.00  0.00     0.012 C 
BRANCH  24  25
HETATM   25  C11 UNL     1       7.411   0.175  -0.402  1.00  0.00     0.085 C 
HETATM   26 BR1  UNL     1       7.358   0.476  -2.318  1.00  0.00    -0.097 Br
ENDBRANCH  24  25
ENDBRANCH  23  24
ENDBRANCH  22  23
ENDBRANCH   7  22
TORSDOF 8
