REMARK  7 active torsions:
REMARK  status: ('A' for Active; 'I' for Inactive)
REMARK    1  A    between atoms: C4_9  and  C5_10 
REMARK    2  A    between atoms: C5_10  and  C6_11 
REMARK    3  A    between atoms: N3_17  and  C11_18 
REMARK    4  A    between atoms: C11_18  and  C12_19 
REMARK    5  A    between atoms: C12_19  and  C13_20 
REMARK    6  A    between atoms: C13_20  and  C14_21 
REMARK    7  A    between atoms: C14_21  and  S1_22 
ROOT
HETATM    1  C6  UNL     1       1.883  -0.766   0.307  1.00  0.00    -0.019 A 
HETATM    2  C7  UNL     1       2.438  -1.389  -0.817  1.00  0.00     0.022 A 
HETATM    3  C8  UNL     1       1.863  -1.353  -2.063  1.00  0.00    -0.027 A 
HETATM    4  C9  UNL     1       2.471  -2.023  -3.244  1.00  0.00     0.051 C 
HETATM    5  C10 UNL     1       0.659  -0.648  -2.189  1.00  0.00     0.087 A 
HETATM    6 BR1  UNL     1      -0.140  -0.596  -3.912  1.00  0.00    -0.030 Br
HETATM    7  N3  UNL     1       0.103  -0.040  -1.128  1.00  0.00    -0.350 N 
HETATM    8  C16 UNL     1       0.681  -0.088   0.081  1.00  0.00     0.103 A 
ENDROOT
BRANCH   1   9
HETATM    9  C5  UNL     1       2.502  -0.866   1.590  1.00  0.00     0.032 C 
BRANCH   9  10
HETATM   10  C4  UNL     1       3.387  -0.101   2.173  1.00  0.00     0.061 A 
HETATM   11  C2  UNL     1       3.988   1.039   1.715  1.00  0.00     0.054 A 
HETATM   12  C1  UNL     1       3.872   1.694   0.596  1.00  0.00     0.045 C 
HETATM   13  N1  UNL     1       4.835   1.449   2.717  1.00  0.00    -0.298 N 
HETATM   14  N2  UNL     1       4.767   0.624   3.730  1.00  0.00    -0.265 N 
ATOM     15  H1  UNL     1       5.430   2.276   2.677  1.00  0.00     0.187 HD
HETATM   16  C3  UNL     1       3.900  -0.339   3.454  1.00  0.00     0.272 A 
ATOM     17  H2  UNL     1       5.298   0.709   4.597  1.00  0.00     0.190 HD
HETATM   18  O1  UNL     1       3.596  -1.297   4.212  1.00  0.00    -0.266 OA
ENDBRANCH   9  10
ENDBRANCH   1   9
BRANCH   7  19
HETATM   19  C11 UNL     1      -1.131   0.670  -1.303  1.00  0.00     0.129 C 
BRANCH  19  20
HETATM   20  C12 UNL     1      -2.344  -0.233  -1.074  1.00  0.00     0.021 C 
BRANCH  20  21
HETATM   21  C13 UNL     1      -3.546   0.645  -1.291  1.00  0.00     0.016 C 
BRANCH  21  22
HETATM   22  C14 UNL     1      -4.870   0.001  -1.156  1.00  0.00     0.140 C 
BRANCH  22  23
HETATM   23  S1  UNL     1      -5.203  -0.699   0.428  1.00  0.00     0.140 S 
HETATM   24  C15 UNL     1      -5.094   0.571   1.669  1.00  0.00     0.161 C 
HETATM   25  O2  UNL     1      -6.630  -1.229   0.397  1.00  0.00    -0.228 OA
HETATM   26  O3  UNL     1      -4.257  -1.792   0.714  1.00  0.00    -0.228 OA
ENDBRANCH  22  23
ENDBRANCH  21  22
ENDBRANCH  20  21
ENDBRANCH  19  20
ENDBRANCH   7  19
TORSDOF 7
