REMARK  15 active torsions:
REMARK  status: ('A' for Active; 'I' for Inactive)
REMARK    1  A    between atoms: O1_2  and  C2_3 
REMARK    2  A    between atoms: C2_3  and  O2_4 
REMARK    3  A    between atoms: C2_3  and  C3_6 
REMARK    4  A    between atoms: C3_6  and  O3_7 
REMARK    5  A    between atoms: O3_7  and  C4_8 
REMARK    6  A    between atoms: C5_9  and  O4_10 
REMARK    7  A    between atoms: O4_10  and  C6_11 
REMARK    8  A    between atoms: C7_13  and  C8_14 
REMARK    9  A    between atoms: C8_14  and  O6_15 
REMARK   10  A    between atoms: C9_17  and  O7_18 
REMARK   11  A    between atoms: C10_20  and  O8_21 
REMARK   12  A    between atoms: C11_23  and  O9_24 
REMARK   13  A    between atoms: C16_30  and  C17_31 
REMARK   14  A    between atoms: C18_32  and  C19_33 
REMARK   15  A    between atoms: C19_33  and  C21_35 
ROOT
HETATM    1  C4  UNL     1      -0.083  -0.154  -0.461  1.00  0.00     0.088 A 
HETATM    2  C5  UNL     1      -1.138  -0.404  -1.242  1.00  0.00     0.101 A 
HETATM    3  C12 UNL     1      -1.228  -1.606  -2.035  1.00  0.00     0.036 A 
HETATM    4  C13 UNL     1      -0.274  -2.511  -2.015  1.00  0.00    -0.019 A 
HETATM    5  C14 UNL     1       0.910  -2.344  -1.194  1.00  0.00     0.018 A 
HETATM    6  C15 UNL     1       2.117  -2.577  -2.114  1.00  0.00     0.015 C 
HETATM    7  C16 UNL     1       1.030  -1.089  -0.397  1.00  0.00     0.075 A 
ENDROOT
BRANCH   2   8
HETATM    8  O4  UNL     1      -2.201   0.535  -1.288  1.00  0.00    -0.315 OA
BRANCH   8   9
HETATM    9  C6  UNL     1      -3.494   0.015  -1.047  1.00  0.00     0.298 C 
HETATM   10  O5  UNL     1      -3.470  -0.549   0.250  1.00  0.00    -0.348 OA
HETATM   11  C7  UNL     1      -4.624  -1.324   0.340  1.00  0.00     0.179 C 
HETATM   12  C9  UNL     1      -5.779  -0.397   0.566  1.00  0.00     0.180 C 
HETATM   13  C10 UNL     1      -5.517   1.002   0.069  1.00  0.00     0.183 C 
HETATM   14  C11 UNL     1      -4.562   1.046  -1.091  1.00  0.00     0.205 C 
BRANCH  11  15
HETATM   15  C8  UNL     1      -4.510  -2.416   1.358  1.00  0.00     0.198 C 
BRANCH  15  16
HETATM   16  O6  UNL     1      -5.713  -3.121   1.362  1.00  0.00    -0.398 OA
ATOM     17  H6  UNL     1      -5.641  -3.814   2.008  1.00  0.00     0.209 HD
ENDBRANCH  15  16
ENDBRANCH  11  15
BRANCH  12  18
HETATM   18  O7  UNL     1      -6.917  -0.956   0.015  1.00  0.00    -0.390 OA
ATOM     19  H7  UNL     1      -7.649  -0.368   0.158  1.00  0.00     0.210 HD
ENDBRANCH  12  18
BRANCH  13  20
HETATM   20  O8  UNL     1      -6.742   1.542  -0.322  1.00  0.00    -0.390 OA
ATOM     21  H8  UNL     1      -6.577   2.424  -0.635  1.00  0.00     0.210 HD
ENDBRANCH  13  20
BRANCH  14  22
HETATM   22  O9  UNL     1      -5.312   0.879  -2.258  1.00  0.00    -0.388 OA
ATOM     23  H9  UNL     1      -5.995   1.539  -2.286  1.00  0.00     0.210 HD
ENDBRANCH  14  22
ENDBRANCH   8   9
ENDBRANCH   2   8
BRANCH   1  24
HETATM   24  O3  UNL     1      -0.127   0.999   0.240  1.00  0.00    -0.347 OA
BRANCH  24  25
HETATM   25  C3  UNL     1       0.782   1.830   0.837  1.00  0.00     0.235 C 
BRANCH  25  26
HETATM   26  C2  UNL     1       0.083   3.040   1.504  1.00  0.00     0.280 C 
BRANCH  26  27
HETATM   27  O1  UNL     1       1.019   3.865   2.100  1.00  0.00    -0.364 OA
HETATM   28  C1  UNL     1       0.801   4.015   3.463  1.00  0.00     0.204 C 
ENDBRANCH  26  27
BRANCH  26  29
HETATM   29  O2  UNL     1      -0.534   3.749   0.487  1.00  0.00    -0.369 OA
ATOM     30  H2  UNL     1      -1.177   3.182   0.078  1.00  0.00     0.212 HD
ENDBRANCH  26  29
ENDBRANCH  25  26
ENDBRANCH  24  25
ENDBRANCH   1  24
BRANCH   7  31
HETATM   31  C17 UNL     1       2.325  -0.463  -0.851  1.00  0.00    -0.018 C 
HETATM   32  C18 UNL     1       3.290  -0.293   0.020  1.00  0.00    -0.025 C 
BRANCH  32  33
HETATM   33  C19 UNL     1       4.609   0.310  -0.307  1.00  0.00     0.007 C 
HETATM   34  C20 UNL     1       4.853   1.615   0.379  1.00  0.00     0.014 C 
BRANCH  33  35
HETATM   35  C21 UNL     1       5.702  -0.698  -0.010  1.00  0.00    -0.015 C 
HETATM   36  C22 UNL     1       7.072  -0.139  -0.325  1.00  0.00     0.010 C 
HETATM   37  C23 UNL     1       5.712  -1.073   1.462  1.00  0.00     0.010 C 
ENDBRANCH  33  35
ENDBRANCH  32  33
ENDBRANCH   7  31
TORSDOF 15
