REMARK  15 active torsions:
REMARK  status: ('A' for Active; 'I' for Inactive)
REMARK    1  A    between atoms: C2_2  and  C3_3 
REMARK    2  A    between atoms: C3_3  and  C4_4 
REMARK    3  A    between atoms: C4_4  and  C5_5 
REMARK    4  A    between atoms: C5_5  and  C6_6 
REMARK    5  A    between atoms: C7_7  and  O1_8 
REMARK    6  A    between atoms: O1_8  and  C8_9 
REMARK    7  A    between atoms: C12_13  and  O2_14 
REMARK    8  A    between atoms: O2_14  and  C13_15 
REMARK    9  A    between atoms: C15_18  and  O4_19 
REMARK   10  A    between atoms: C16_21  and  C17_22 
REMARK   11  A    between atoms: C17_22  and  O5_23 
REMARK   12  A    between atoms: C18_27  and  C19_28 
REMARK   13  A    between atoms: C19_28  and  O8_29 
REMARK   14  A    between atoms: C20_31  and  O9_32 
REMARK   15  A    between atoms: C21_34  and  O10_35 
ROOT
HETATM    1  C6  UNL     1      -2.452  -0.267   0.781  1.00  0.00     0.072 C 
HETATM    2  C7  UNL     1      -1.419  -0.775  -0.210  1.00  0.00     0.270 C 
HETATM    3  O7  UNL     1      -1.902  -1.743  -1.026  1.00  0.00    -0.351 OA
HETATM    4  C18 UNL     1      -2.521  -2.828  -0.546  1.00  0.00     0.179 C 
HETATM    5  C20 UNL     1      -3.281  -2.564   0.717  1.00  0.00     0.178 C 
HETATM    6  C21 UNL     1      -3.700  -1.115   0.731  1.00  0.00     0.158 C 
ENDROOT
BRANCH   2   7
HETATM    7  O1  UNL     1      -0.365  -1.272   0.541  1.00  0.00    -0.331 OA
BRANCH   7   8
HETATM    8  C8  UNL     1       0.828  -0.577   0.348  1.00  0.00     0.263 C 
HETATM    9  C9  UNL     1       1.362  -0.056   1.641  1.00  0.00     0.061 C 
HETATM   10  C10 UNL     1       2.823  -0.184   1.853  1.00  0.00     0.007 C 
HETATM   11  C11 UNL     1       3.701   0.797   1.189  1.00  0.00     0.035 C 
HETATM   12  C12 UNL     1       4.686   0.181   0.215  1.00  0.00     0.163 C 
HETATM   13  C15 UNL     1       4.090  -0.860  -0.661  1.00  0.00     0.178 C 
HETATM   14  C16 UNL     1       2.652  -0.595  -1.027  1.00  0.00     0.179 C 
HETATM   15  O6  UNL     1       1.801  -1.376  -0.250  1.00  0.00    -0.351 OA
BRANCH  12  16
HETATM   16  O2  UNL     1       5.266   1.259  -0.506  1.00  0.00    -0.314 OA
BRANCH  16  17
HETATM   17  C13 UNL     1       6.610   1.581  -0.435  1.00  0.00     0.255 C 
HETATM   18  C14 UNL     1       7.234   2.690  -1.171  1.00  0.00     0.126 C 
HETATM   19  O3  UNL     1       7.332   0.861   0.319  1.00  0.00    -0.266 OA
ENDBRANCH  16  17
ENDBRANCH  12  16
BRANCH  13  20
HETATM   20  O4  UNL     1       4.819  -0.878  -1.861  1.00  0.00    -0.390 OA
ATOM     21  H4  UNL     1       4.438  -1.544  -2.421  1.00  0.00     0.210 HD
ENDBRANCH  13  20
BRANCH  14  22
HETATM   22  C17 UNL     1       2.368  -0.952  -2.489  1.00  0.00     0.198 C 
BRANCH  22  23
HETATM   23  O5  UNL     1       2.624  -2.299  -2.654  1.00  0.00    -0.398 OA
ATOM     24  H5  UNL     1       2.448  -2.520  -3.561  1.00  0.00     0.209 HD
ENDBRANCH  22  23
ENDBRANCH  14  22
ENDBRANCH   7   8
ENDBRANCH   2   7
BRANCH   1  25
HETATM   25  C5  UNL     1      -2.730   1.181   0.441  1.00  0.00     0.012 C 
BRANCH  25  26
HETATM   26  C4  UNL     1      -3.731   1.836   1.326  1.00  0.00     0.001 C 
BRANCH  26  27
HETATM   27  C3  UNL     1      -3.921   3.272   0.920  1.00  0.00    -0.000 C 
BRANCH  27  28
HETATM   28  C2  UNL     1      -4.413   3.433  -0.484  1.00  0.00    -0.005 C 
HETATM   29  C1  UNL     1      -5.753   2.727  -0.656  1.00  0.00     0.005 C 
ENDBRANCH  27  28
ENDBRANCH  26  27
ENDBRANCH  25  26
ENDBRANCH   1  25
BRANCH   6  30
HETATM   30  O10 UNL     1      -4.390  -0.946   1.956  1.00  0.00    -0.392 OA
ATOM     31  H10 UNL     1      -5.175  -1.480   1.925  1.00  0.00     0.210 HD
ENDBRANCH   6  30
BRANCH   4  32
HETATM   32  C19 UNL     1      -1.520  -3.963  -0.366  1.00  0.00     0.198 C 
BRANCH  32  33
HETATM   33  O8  UNL     1      -0.933  -4.278  -1.585  1.00  0.00    -0.398 OA
ATOM     34  H8  UNL     1      -0.309  -4.986  -1.473  1.00  0.00     0.209 HD
ENDBRANCH  32  33
ENDBRANCH   4  32
BRANCH   5  35
HETATM   35  O9  UNL     1      -2.404  -2.816   1.795  1.00  0.00    -0.390 OA
ATOM     36  H9  UNL     1      -2.886  -2.649   2.596  1.00  0.00     0.210 HD
ENDBRANCH   5  35
TORSDOF 15
