REMARK  5 active torsions:
REMARK  status: ('A' for Active; 'I' for Inactive)
REMARK    1  A    between atoms: N1_2  and  C2_5 
REMARK    2  A    between atoms: C2_5  and  C3_6 
REMARK    3  A    between atoms: C3_6  and  N2_7 
REMARK    4  A    between atoms: N2_7  and  C4_9 
REMARK    5  A    between atoms: C5_12  and  N4_13 
ROOT
HETATM    1  C4  UNL     1       1.256   0.587  -0.494  1.00  0.00     0.125 A 
HETATM    2  N3  UNL     1       0.228  -0.266  -0.558  1.00  0.00    -0.176 N 
ATOM      3  H3  UNL     1       0.422  -1.236  -0.806  1.00  0.00     0.186 HD
HETATM    4  C5  UNL     1      -1.071   0.092  -0.309  1.00  0.00     0.682 A 
HETATM    5  N5  UNL     1      -1.278   1.379   0.011  1.00  0.00    -0.195 N 
ATOM      6  H5  UNL     1      -2.233   1.681   0.202  1.00  0.00     0.184 HD
HETATM    7  C11 UNL     1      -0.281   2.304   0.095  1.00  0.00     0.036 A 
HETATM    8  C12 UNL     1       1.013   1.902  -0.162  1.00  0.00     0.009 A 
HETATM    9  C13 UNL     1       2.292   2.668  -0.153  1.00  0.00     0.044 C 
HETATM   10  C14 UNL     1       1.920   4.153  -0.052  1.00  0.00     0.005 C 
HETATM   11  C15 UNL     1       1.424   4.379   1.336  1.00  0.00     0.001 C 
HETATM   12  C16 UNL     1      -0.052   4.351   1.510  1.00  0.00     0.006 C 
HETATM   13  C17 UNL     1      -0.820   3.608   0.462  1.00  0.00     0.058 C 
ENDROOT
BRANCH   1  14
HETATM   14  N2  UNL     1       2.469   0.241  -0.726  1.00  0.00    -0.374 N 
ATOM     15  H2  UNL     1       3.171   0.977  -0.647  1.00  0.00     0.161 HD
BRANCH  14  16
HETATM   16  C3  UNL     1       2.949  -1.051  -1.081  1.00  0.00     0.148 C 
BRANCH  16  17
HETATM   17  C2  UNL     1       2.787  -2.056   0.057  1.00  0.00     0.251 C 
BRANCH  17  18
HETATM   18  N1  UNL     1       3.295  -3.366  -0.359  1.00  0.00    -0.077 N 
HETATM   19  C1  UNL     1       2.435  -3.932  -1.397  1.00  0.00     0.267 C 
ATOM     20  H12 UNL     1       3.407  -4.001   0.432  1.00  0.00     0.276 HD
ATOM     21  H11 UNL     1       4.270  -3.321  -0.654  1.00  0.00     0.276 HD
ENDBRANCH  17  18
ENDBRANCH  16  17
ENDBRANCH  14  16
ENDBRANCH   1  14
BRANCH   4  22
HETATM   22  N4  UNL     1      -2.089  -0.893  -0.408  1.00  0.00    -0.218 N 
HETATM   23  C6  UNL     1      -1.732  -2.252  -0.786  1.00  0.00     0.141 C 
HETATM   24  C7  UNL     1      -2.152  -3.257   0.274  1.00  0.00     0.020 C 
HETATM   25  C8  UNL     1      -3.638  -3.044   0.491  1.00  0.00     0.003 C 
HETATM   26  C9  UNL     1      -3.937  -1.628   0.903  1.00  0.00     0.020 C 
HETATM   27  C10 UNL     1      -3.474  -0.637  -0.155  1.00  0.00     0.141 C 
ENDBRANCH   4  22
TORSDOF 5
