REMARK  3 active torsions:
REMARK  status: ('A' for Active; 'I' for Inactive)
REMARK    1  A    between atoms: N1_1  and  N2_4 
REMARK    2  A    between atoms: N2_4  and  C1_6 
REMARK    3  A    between atoms: C2_8  and  N3_9 
ROOT
HETATM    1  N3  UNL     1       0.821  -0.127  -0.345  1.00  0.00    -0.210 N 
HETATM    2  N4  UNL     1       1.838  -0.896   0.111  1.00  0.00    -0.241 N 
ATOM      3  H4  UNL     1       1.868  -1.916   0.100  1.00  0.00     0.192 HD
HETATM    4  C3  UNL     1       2.797  -0.089   0.579  1.00  0.00     0.343 A 
HETATM    5  O1  UNL     1       3.920  -0.417   1.096  1.00  0.00    -0.245 OA
HETATM    6  N5  UNL     1       2.423   1.192   0.436  1.00  0.00    -0.258 N 
ATOM      7  H5  UNL     1       2.945   2.027   0.701  1.00  0.00     0.175 HD
HETATM    8  C4  UNL     1       1.197   1.129  -0.139  1.00  0.00     0.349 A 
HETATM    9  O2  UNL     1       0.560   2.172  -0.414  1.00  0.00    -0.245 OA
ENDROOT
BRANCH   1  10
HETATM   10  C2  UNL     1      -0.386  -0.681  -0.900  1.00  0.00     0.164 C 
HETATM   11  C1  UNL     1      -1.423  -1.060   0.036  1.00  0.00     0.132 C 
HETATM   12  S1  UNL     1      -1.399  -2.639   0.554  1.00  0.00    -0.058 SA
BRANCH  11  13
HETATM   13  N2  UNL     1      -2.433  -0.244   0.546  1.00  0.00    -0.296 N 
ATOM     14  H2  UNL     1      -3.088  -0.658   1.210  1.00  0.00     0.187 HD
BRANCH  13  15
HETATM   15  N1  UNL     1      -2.610   1.107   0.209  1.00  0.00    -0.344 N 
ATOM     16  H12 UNL     1      -1.946   1.504  -0.456  1.00  0.00     0.176 HD
ATOM     17  H11 UNL     1      -3.348   1.704   0.582  1.00  0.00     0.176 HD
ENDBRANCH  13  15
ENDBRANCH  11  13
ENDBRANCH   1  10
TORSDOF 3
