REMARK  3 active torsions:
REMARK  status: ('A' for Active; 'I' for Inactive)
REMARK    1  A    between atoms: N1_1  and  N2_4 
REMARK    2  A    between atoms: N2_4  and  N3_5 
REMARK       I    between atoms: N3_5  and  C1_7 
REMARK    3  A    between atoms: N5_9  and  C2_11 
ROOT
HETATM    1  N3  UNL     1      -0.958   0.039  -1.592  1.00  0.00    -0.187 N 
ATOM      2  H3  UNL     1      -1.014  -0.682  -2.311  1.00  0.00     0.206 HD
HETATM    3  C1  UNL     1      -0.130  -0.176  -0.462  1.00  0.00     0.221 C 
HETATM    4  N4  UNL     1       0.198  -1.519  -0.140  1.00  0.00    -0.061 NA
HETATM    5  N5  UNL     1       0.305   0.826   0.243  1.00  0.00    -0.307 N 
ATOM      6  H5  UNL     1       0.046   1.776  -0.023  1.00  0.00     0.170 HD
ENDROOT
BRANCH   1   7
HETATM    7  N2  UNL     1      -1.621   1.088  -1.730  1.00  0.00    -0.241 NA
BRANCH   7   8
HETATM    8  N1  UNL     1      -2.443   2.001  -1.500  1.00  0.00    -0.260 N 
ATOM      9  H12 UNL     1      -2.788   1.625  -0.617  1.00  0.00     0.193 HD
ATOM     10  H11 UNL     1      -2.985   2.858  -1.613  1.00  0.00     0.193 HD
ENDBRANCH   7   8
ENDBRANCH   1   7
BRANCH   5  11
HETATM   11  C2  UNL     1       1.135   0.621   1.378  1.00  0.00     0.355 C 
HETATM   12  O1  UNL     1       0.726   0.814   2.561  1.00  0.00    -0.283 OA
ENDBRANCH   5  11
TORSDOF 3
