REMARK  9 active torsions:
REMARK  status: ('A' for Active; 'I' for Inactive)
REMARK    1  A    between atoms: C2_2  and  C3_3 
REMARK    2  A    between atoms: C3_3  and  C5_5 
REMARK    3  A    between atoms: C6_6  and  O1_7 
REMARK    4  A    between atoms: C12_17  and  C13_18 
REMARK    5  A    between atoms: C16_22  and  O5_23 
REMARK    6  A    between atoms: C17_27  and  C18_28 
REMARK    7  A    between atoms: C22_35  and  C23_36 
REMARK    8  A    between atoms: C23_36  and  C24_37 
REMARK    9  A    between atoms: C24_37  and  S1_38 
ROOT
HETATM    1  C5  UNL     1      -2.507  -1.693   0.860  1.00  0.00     0.076 C 
HETATM    2  C6  UNL     1      -1.050  -1.947   0.691  1.00  0.00     0.203 C 
HETATM    3  O2  UNL     1      -0.526  -2.348  -0.442  1.00  0.00    -0.314 OA
HETATM    4  C7  UNL     1       0.354  -3.173  -1.059  1.00  0.00     0.226 C 
HETATM    5  C8  UNL     1       0.540  -4.557  -0.471  1.00  0.00     0.051 C 
HETATM    6  C9  UNL     1       1.681  -2.456  -1.211  1.00  0.00     0.288 C 
HETATM    7  O3  UNL     1       2.242  -2.701  -2.320  1.00  0.00    -0.262 OA
HETATM    8  O4  UNL     1       2.068  -1.690  -0.192  1.00  0.00    -0.312 OA
HETATM    9  C10 UNL     1       3.133  -1.441   0.639  1.00  0.00     0.150 C 
HETATM   10  C11 UNL     1       3.694  -2.722   1.139  1.00  0.00     0.042 C 
HETATM   11  C12 UNL     1       4.091  -0.431   0.090  1.00  0.00     0.116 C 
HETATM   12  N1  UNL     1       3.991   0.870   0.755  1.00  0.00    -0.345 N 
HETATM   13  C15 UNL     1       5.209   1.663   0.742  1.00  0.00     0.154 C 
HETATM   14  C16 UNL     1       2.857   1.391   1.387  1.00  0.00     0.215 C 
HETATM   15  N2  UNL     1       1.514   1.522   1.024  1.00  0.00    -0.343 N 
ATOM     16  H2  UNL     1       0.904   0.882   1.532  1.00  0.00     0.164 HD
HETATM   17  C17 UNL     1       0.805   2.347   0.105  1.00  0.00     0.180 C 
HETATM   18  C21 UNL     1      -0.114   1.681  -0.816  1.00  0.00     0.241 C 
HETATM   19  O6  UNL     1       0.467   0.896  -1.659  1.00  0.00    -0.271 OA
HETATM   20  N3  UNL     1      -1.497   1.739  -0.950  1.00  0.00    -0.346 N 
ATOM     21  H3  UNL     1      -1.797   1.858  -1.917  1.00  0.00     0.163 HD
HETATM   22  C22 UNL     1      -2.578   1.670  -0.043  1.00  0.00     0.177 C 
HETATM   23  C26 UNL     1      -2.457   0.874   1.172  1.00  0.00     0.246 C 
HETATM   24  O7  UNL     1      -1.878   1.498   2.148  1.00  0.00    -0.271 OA
HETATM   25  N4  UNL     1      -2.844  -0.437   1.503  1.00  0.00    -0.319 N 
HETATM   26  C27 UNL     1      -3.739  -0.607   2.704  1.00  0.00     0.159 C 
ENDROOT
BRANCH   1  27
HETATM   27  C3  UNL     1      -3.428  -2.155  -0.189  1.00  0.00     0.036 C 
HETATM   28  C4  UNL     1      -3.386  -1.513  -1.529  1.00  0.00     0.016 C 
BRANCH  27  29
HETATM   29  C2  UNL     1      -3.414  -3.659  -0.356  1.00  0.00     0.006 C 
HETATM   30  C1  UNL     1      -4.617  -4.132  -1.155  1.00  0.00     0.006 C 
ENDBRANCH  27  29
ENDBRANCH   1  27
BRANCH   2  31
HETATM   31  O1  UNL     1      -0.443  -1.704   1.820  1.00  0.00    -0.339 OA
ATOM     32  H1  UNL     1       0.487  -1.866   1.712  1.00  0.00     0.220 HD
ENDBRANCH   2  31
BRANCH  22  33
HETATM   33  C23 UNL     1      -2.899   3.147   0.315  1.00  0.00     0.045 C 
BRANCH  33  34
HETATM   34  C24 UNL     1      -3.265   3.927  -0.880  1.00  0.00     0.076 C 
BRANCH  34  35
HETATM   35  S1  UNL     1      -4.732   3.249  -1.713  1.00  0.00    -0.173 SA
HETATM   36  C25 UNL     1      -6.217   3.424  -0.656  1.00  0.00     0.089 C 
ENDBRANCH  34  35
ENDBRANCH  33  34
ENDBRANCH  22  33
BRANCH  17  37
HETATM   37  C18 UNL     1       1.586   3.386  -0.642  1.00  0.00     0.009 C 
HETATM   38  C19 UNL     1       2.229   4.346   0.350  1.00  0.00     0.012 C 
HETATM   39  C20 UNL     1       2.482   2.949  -1.715  1.00  0.00     0.012 C 
ENDBRANCH  17  37
BRANCH  11  40
HETATM   40  C13 UNL     1       5.485  -0.885  -0.116  1.00  0.00     0.023 C 
HETATM   41  C14 UNL     1       6.279  -1.357   1.030  1.00  0.00     0.007 C 
ENDBRANCH  11  40
BRANCH  14  42
HETATM   42  O5  UNL     1       3.134   1.853   2.580  1.00  0.00    -0.333 OA
ATOM     43  H5  UNL     1       2.364   2.207   3.009  1.00  0.00     0.220 HD
ENDBRANCH  14  42
TORSDOF 9
