REMARK  4 active torsions:
REMARK  status: ('A' for Active; 'I' for Inactive)
REMARK       I    between atoms: C1_4  and  N3_6 
REMARK    1  A    between atoms: N3_6  and  C2_8 
REMARK    2  A    between atoms: C2_8  and  C3_9 
REMARK    3  A    between atoms: C3_9  and  C4_10 
REMARK    4  A    between atoms: C3_9  and  N5_17 
ROOT
HETATM    1  C3  UNL     1       0.340   0.298  -0.334  1.00  0.00     0.152 C 
ENDROOT
BRANCH   1   2
HETATM    2  C2  UNL     1       1.785   0.046  -0.200  1.00  0.00     0.093 C 
BRANCH   2   3
HETATM    3  N3  UNL     1       2.361  -1.197  -0.448  1.00  0.00    -0.342 N 
HETATM    4  C1  UNL     1       3.785  -1.333  -0.571  1.00  0.00     0.185 C 
HETATM    5  N1  UNL     1       4.442  -1.015  -1.617  1.00  0.00    -0.374 N 
HETATM    6  N2  UNL     1       4.511  -1.858   0.518  1.00  0.00    -0.064 NA
ATOM      7  H12 UNL     1       5.454  -1.112  -1.704  1.00  0.00     0.158 HD
ATOM      8  H11 UNL     1       3.917  -0.635  -2.405  1.00  0.00     0.158 HD
ATOM      9  H3  UNL     1       1.765  -2.019  -0.543  1.00  0.00     0.167 HD
ENDBRANCH   2   3
ENDBRANCH   1   2
BRANCH   1  10
HETATM   10  C4  UNL     1       0.071   1.724   0.037  1.00  0.00    -0.015 A 
HETATM   11  C5  UNL     1      -0.566   2.592  -0.859  1.00  0.00     0.012 A 
HETATM   12  C6  UNL     1      -0.779   3.903  -0.483  1.00  0.00     0.018 A 
HETATM   13  C7  UNL     1      -0.363   4.350   0.764  1.00  0.00     0.087 A 
HETATM   14  N4  UNL     1       0.245   3.484   1.592  1.00  0.00    -0.375 N 
HETATM   15  C8  UNL     1       0.463   2.197   1.255  1.00  0.00     0.097 A 
ATOM     16  H4  UNL     1       0.552   3.812   2.508  1.00  0.00     0.164 HD
ENDBRANCH   1  10
BRANCH   1  17
HETATM   17  N5  UNL     1      -0.617  -0.546   0.259  1.00  0.00    -0.400 N 
HETATM   18  C9  UNL     1      -0.749  -1.866  -0.276  1.00  0.00     0.118 C 
HETATM   19  C10 UNL     1      -2.141  -2.289  -0.666  1.00  0.00     0.019 C 
HETATM   20  C11 UNL     1      -3.223  -1.909   0.280  1.00  0.00     0.003 C 
HETATM   21  C12 UNL     1      -2.811  -0.867   1.264  1.00  0.00     0.019 C 
HETATM   22  C13 UNL     1      -1.879   0.080   0.526  1.00  0.00     0.118 C 
ENDBRANCH   1  17
TORSDOF 4
