REMARK  5 active torsions:
REMARK  status: ('A' for Active; 'I' for Inactive)
REMARK    1  A    between atoms: C2_2  and  C3_3 
REMARK    2  A    between atoms: C3_3  and  C4_4 
REMARK    3  A    between atoms: C4_4  and  C5_5 
REMARK    4  A    between atoms: C5_5  and  C6_6 
REMARK    5  A    between atoms: C6_6  and  O1_7 
ROOT
HETATM    1  C6  UNL     1      -0.543  -0.189  -0.345  1.00  0.00     0.112 C 
HETATM    2  C7  UNL     1      -0.649   1.220   0.315  1.00  0.00     0.052 C 
HETATM    3  C8  UNL     1      -1.966   1.382   1.081  1.00  0.00     0.031 C 
HETATM    4  C9  UNL     1      -3.231   1.289   0.399  1.00  0.00     0.235 C 
HETATM    5  N1  UNL     1      -3.990   0.061   0.299  1.00  0.00    -0.049 N 
ATOM      6  H11 UNL     1      -4.884   0.223  -0.164  1.00  0.00     0.279 HD
ATOM      7  H12 UNL     1      -4.327  -0.234   1.216  1.00  0.00     0.279 HD
HETATM    8  C10 UNL     1      -3.237  -1.042  -0.371  1.00  0.00     0.360 C 
HETATM    9  C11 UNL     1      -3.618  -2.237   0.439  1.00  0.00     0.104 C 
HETATM   10  N2  UNL     1      -3.893  -3.165   1.077  1.00  0.00    -0.194 NA
HETATM   11  C12 UNL     1      -1.871  -0.706  -0.435  1.00  0.00    -0.098 C 
ENDROOT
BRANCH   1  12
HETATM   12  C5  UNL     1       0.380  -1.082   0.401  1.00  0.00     0.050 C 
BRANCH  12  13
HETATM   13  C4  UNL     1       1.727  -0.663   0.764  1.00  0.00     0.004 C 
BRANCH  13  14
HETATM   14  C3  UNL     1       2.657  -0.298  -0.367  1.00  0.00    -0.000 C 
BRANCH  14  15
HETATM   15  C2  UNL     1       4.035   0.095   0.159  1.00  0.00    -0.005 C 
HETATM   16  C1  UNL     1       4.926   0.450  -1.004  1.00  0.00     0.005 C 
ENDBRANCH  14  15
ENDBRANCH  13  14
ENDBRANCH  12  13
ENDBRANCH   1  12
BRANCH   1  17
HETATM   17  O1  UNL     1       0.097   0.075  -1.567  1.00  0.00    -0.378 OA
ATOM     18  H1  UNL     1      -0.493   0.646  -2.044  1.00  0.00     0.211 HD
ENDBRANCH   1  17
TORSDOF 5
