REMARK  4 active torsions:
REMARK  status: ('A' for Active; 'I' for Inactive)
REMARK    1  A    between atoms: C2_2  and  C4_4 
REMARK    2  A    between atoms: C2_2  and  C18_22 
REMARK    3  A    between atoms: C7_9  and  N2_10 
REMARK    4  A    between atoms: N3_13  and  C10_14 
ROOT
HETATM    1  C4  UNL     1      -3.023   1.203  -0.119  1.00  0.00     0.071 C 
HETATM    2  C5  UNL     1      -3.818   2.389   0.339  1.00  0.00     0.033 C 
HETATM    3  C6  UNL     1      -3.229   2.671   1.686  1.00  0.00     0.121 C 
HETATM    4  N1  UNL     1      -1.941   2.073   1.620  1.00  0.00    -0.379 N 
ATOM      5  H1  UNL     1      -1.203   2.274   2.295  1.00  0.00     0.160 HD
HETATM    6  C7  UNL     1      -1.783   1.253   0.634  1.00  0.00     0.080 C 
ENDROOT
BRANCH   6   7
HETATM    7  N2  UNL     1      -0.554   0.537   0.364  1.00  0.00    -0.367 N 
HETATM    8  C8  UNL     1       0.116  -0.252   1.379  1.00  0.00     0.154 C 
HETATM    9  C9  UNL     1       1.274  -0.991   0.798  1.00  0.00     0.292 C 
HETATM   10  N3  UNL     1       2.195  -0.216   0.035  1.00  0.00     0.096 N 
HETATM   11  C16 UNL     1       1.571   0.903  -0.585  1.00  0.00     0.292 C 
HETATM   12  C17 UNL     1       0.113   0.552  -0.922  1.00  0.00     0.154 C 
BRANCH  10  13
HETATM   13  C10 UNL     1       2.919  -1.067  -0.870  1.00  0.00     0.223 C 
HETATM   14  C11 UNL     1       3.918  -0.308  -1.714  1.00  0.00     0.036 C 
HETATM   15  C12 UNL     1       4.853   0.455  -0.822  1.00  0.00     0.002 C 
HETATM   16  C13 UNL     1       5.639  -0.525   0.007  1.00  0.00     0.000 C 
HETATM   17  C14 UNL     1       4.760  -1.478   0.779  1.00  0.00     0.002 C 
HETATM   18  C15 UNL     1       3.695  -2.098  -0.084  1.00  0.00     0.036 C 
ENDBRANCH  10  13
ENDBRANCH   6   7
BRANCH   1  19
HETATM   19  C2  UNL     1      -3.778  -0.058  -0.190  1.00  0.00     0.061 C 
HETATM   20  C1  UNL     1      -4.932   0.172  -1.190  1.00  0.00     0.025 C 
HETATM   21  C3  UNL     1      -2.935  -1.135  -0.866  1.00  0.00     0.025 C 
BRANCH  19  22
HETATM   22  C18 UNL     1      -4.389  -0.644   1.004  1.00  0.00     0.395 C 
HETATM   23  F1  UNL     1      -5.357   0.122   1.625  1.00  0.00    -0.170 F 
HETATM   24  F2  UNL     1      -3.527  -1.079   1.977  1.00  0.00    -0.170 F 
HETATM   25  F3  UNL     1      -5.071  -1.802   0.582  1.00  0.00    -0.170 F 
ENDBRANCH  19  22
ENDBRANCH   1  19
TORSDOF 4
