REMARK  6 active torsions:
REMARK  status: ('A' for Active; 'I' for Inactive)
REMARK    1  A    between atoms: N1_2  and  C2_5 
REMARK    2  A    between atoms: C6_10  and  C7_11 
REMARK    3  A    between atoms: C7_11  and  N2_12 
REMARK       I    between atoms: N2_12  and  C8_14 
REMARK    4  A    between atoms: C8_14  and  C9_16 
REMARK    5  A    between atoms: C9_16  and  S1_18 
REMARK    6  A    between atoms: C16_26  and  N3_27 
ROOT
HETATM    1  C2  UNL     1      -2.391   1.307   0.315  1.00  0.00     0.198 C 
HETATM    2  C3  UNL     1      -2.362   0.724   1.696  1.00  0.00     0.048 C 
HETATM    3  C4  UNL     1      -1.028   1.084   2.264  1.00  0.00     0.018 C 
HETATM    4  C5  UNL     1       0.025   1.116   1.432  1.00  0.00     0.096 C 
HETATM    5  F1  UNL     1       1.199   1.445   2.001  1.00  0.00    -0.211 F 
HETATM    6  C6  UNL     1      -0.058   0.826   0.003  1.00  0.00     0.072 C 
HETATM    7  C12 UNL     1      -1.450   0.380  -0.419  1.00  0.00     0.034 C 
HETATM    8  C13 UNL     1      -1.728  -0.959   0.166  1.00  0.00     0.005 A 
HETATM    9  C14 UNL     1      -3.052  -1.584  -0.244  1.00  0.00     0.017 A 
HETATM   10  C15 UNL     1      -2.787  -3.013  -0.716  1.00  0.00     0.012 C 
HETATM   11  C16 UNL     1      -3.535  -1.505   1.165  1.00  0.00     0.192 A 
HETATM   12  C17 UNL     1      -2.311  -0.776   1.547  1.00  0.00     0.031 A 
ENDROOT
BRANCH   6  13
HETATM   13  C7  UNL     1       0.990  -0.039  -0.587  1.00  0.00     0.134 C 
BRANCH  13  14
HETATM   14  N2  UNL     1       2.334   0.495  -0.487  1.00  0.00    -0.359 N 
HETATM   15  C8  UNL     1       3.391  -0.282  -1.020  1.00  0.00     0.235 C 
HETATM   16  O1  UNL     1       3.122  -1.388  -1.548  1.00  0.00    -0.272 OA
ATOM     17  H2  UNL     1       2.512   1.398  -0.048  1.00  0.00     0.162 HD
BRANCH  15  18
HETATM   18  C9  UNL     1       4.813   0.137  -0.992  1.00  0.00     0.195 C 
HETATM   19  C10 UNL     1       5.015   1.442  -1.708  1.00  0.00     0.036 C 
BRANCH  18  20
HETATM   20  S1  UNL     1       5.340   0.278   0.682  1.00  0.00     0.153 S 
HETATM   21  C11 UNL     1       5.166  -1.266   1.559  1.00  0.00     0.162 C 
HETATM   22  O2  UNL     1       4.562   1.308   1.443  1.00  0.00    -0.227 OA
HETATM   23  O3  UNL     1       6.793   0.676   0.737  1.00  0.00    -0.227 OA
ENDBRANCH  18  20
ENDBRANCH  15  18
ENDBRANCH  13  14
ENDBRANCH   6  13
BRANCH   1  24
HETATM   24  N1  UNL     1      -3.660   1.460  -0.286  1.00  0.00    -0.074 N 
HETATM   25  C1  UNL     1      -3.476   2.056  -1.596  1.00  0.00     0.267 C 
ATOM     26  H12 UNL     1      -4.309   1.987   0.297  1.00  0.00     0.277 HD
ATOM     27  H11 UNL     1      -4.185   0.586  -0.323  1.00  0.00     0.277 HD
ENDBRANCH   1  24
BRANCH  11  28
HETATM   28  N3  UNL     1      -4.811  -0.908   1.409  1.00  0.00    -0.074 N 
ATOM     29  H33 UNL     1      -4.826   0.026   0.999  1.00  0.00     0.274 HD
ATOM     30  H32 UNL     1      -5.514  -1.381   0.842  1.00  0.00     0.274 HD
ATOM     31  H31 UNL     1      -5.141  -0.854   2.373  1.00  0.00     0.274 HD
ENDBRANCH  11  28
TORSDOF 6
