REMARK  2 active torsions:
REMARK  status: ('A' for Active; 'I' for Inactive)
REMARK    1  A    between atoms: C4_7  and  C6_9 
REMARK    2  A    between atoms: C6_9  and  C7_10 
ROOT
HETATM    1  C7  UNL     1       2.363   0.987   0.435  1.00  0.00    -0.091 C 
HETATM    2  C8  UNL     1       3.325   1.226   1.133  1.00  0.00    -0.024 C 
HETATM    3 BR1  UNL     1       4.816   1.629   2.232  1.00  0.00     0.010 Br
ENDROOT
BRANCH   1   4
HETATM    4  C6  UNL     1       1.226   0.717  -0.410  1.00  0.00     0.135 C 
BRANCH   4   5
HETATM    5  C4  UNL     1       0.374  -0.381   0.172  1.00  0.00     0.119 C 
HETATM    6  C3  UNL     1      -0.157  -0.076   1.494  1.00  0.00     0.252 C 
HETATM    7  N1  UNL     1      -1.472   0.401   1.286  1.00  0.00    -0.315 N 
HETATM    8  O1  UNL     1       0.427  -0.207   2.583  1.00  0.00    -0.270 OA
HETATM    9  C2  UNL     1      -1.854   0.193   0.088  1.00  0.00     0.076 C 
ATOM     10  H1  UNL     1      -2.041   0.853   2.002  1.00  0.00     0.170 HD
HETATM   11  C1  UNL     1      -3.211   0.594  -0.426  1.00  0.00     0.089 C 
HETATM   12  N2  UNL     1      -0.833  -0.449  -0.632  1.00  0.00    -0.362 N 
ATOM     13  H2  UNL     1      -0.923  -0.883  -1.551  1.00  0.00     0.162 HD
HETATM   14  C5  UNL     1       1.030  -1.735   0.083  1.00  0.00     0.050 C 
ENDBRANCH   4   5
ENDBRANCH   1   4
TORSDOF 2
