REMARK  3 active torsions:
REMARK  status: ('A' for Active; 'I' for Inactive)
REMARK    1  A    between atoms: O1_2  and  C2_3 
REMARK    2  A    between atoms: C3_5  and  C4_6 
REMARK    3  A    between atoms: C4_6  and  N1_7 
ROOT
HETATM    1  C2  UNL     1      -1.950  -0.996   0.383  1.00  0.00     0.296 C 
HETATM    2  O2  UNL     1      -0.831  -0.626   1.123  1.00  0.00    -0.334 OA
HETATM    3  C3  UNL     1       0.122  -0.124   0.264  1.00  0.00     0.255 C 
HETATM    4  N4  UNL     1       0.177   1.317   0.338  1.00  0.00    -0.110 NA
HETATM    5  N5  UNL     1      -0.906   1.951  -0.204  1.00  0.00    -0.330 N 
HETATM    6  C6  UNL     1      -0.782   2.364  -1.556  1.00  0.00     0.166 C 
HETATM    7  C7  UNL     1      -2.180   1.498   0.210  1.00  0.00     0.180 C 
HETATM    8  C8  UNL     1      -2.595   0.161  -0.318  1.00  0.00     0.244 C 
HETATM    9  F1  UNL     1      -2.359   0.152  -1.684  1.00  0.00    -0.242 F 
ENDROOT
BRANCH   3  10
HETATM   10  C4  UNL     1       1.523  -0.635   0.610  1.00  0.00     0.173 C 
BRANCH  10  11
HETATM   11  N1  UNL     1       2.496  -0.086  -0.311  1.00  0.00    -0.363 N 
HETATM   12  C5  UNL     1       3.747   0.053   0.003  1.00  0.00     0.197 C 
HETATM   13  N2  UNL     1       4.136  -0.357   1.303  1.00  0.00    -0.067 NA
HETATM   14  N3  UNL     1       4.673   0.598  -0.936  1.00  0.00    -0.067 NA
ATOM     15  H1  UNL     1       2.187   0.202  -1.240  1.00  0.00     0.161 HD
ENDBRANCH  10  11
ENDBRANCH   3  10
BRANCH   1  16
HETATM   16  O1  UNL     1      -2.900  -1.660   1.117  1.00  0.00    -0.363 OA
HETATM   17  C1  UNL     1      -3.141  -2.958   0.706  1.00  0.00     0.204 C 
ENDBRANCH   1  16
TORSDOF 3
