REMARK  7 active torsions:
REMARK  status: ('A' for Active; 'I' for Inactive)
REMARK    1  A    between atoms: C2_2  and  C4_4 
REMARK    2  A    between atoms: C4_4  and  N1_5 
REMARK    3  A    between atoms: N1_5  and  C5_7 
REMARK    4  A    between atoms: C5_7  and  N2_9 
REMARK    5  A    between atoms: N2_9  and  C6_11 
REMARK    6  A    between atoms: C6_11  and  C7_12 
REMARK    7  A    between atoms: C7_12  and  N3_13 
ROOT
HETATM    1  N2  UNL     1      -0.233  -0.415   0.821  1.00  0.00    -0.366 N 
ATOM      2  H2  UNL     1      -0.945  -0.690   1.498  1.00  0.00     0.161 HD
ENDROOT
BRANCH   1   3
HETATM    3  C5  UNL     1       1.088  -0.899   0.969  1.00  0.00     0.167 C 
HETATM    4  S1  UNL     1       1.440  -1.905   2.198  1.00  0.00    -0.041 SA
BRANCH   3   5
HETATM    5  N1  UNL     1       2.107  -0.519   0.067  1.00  0.00    -0.367 N 
ATOM      6  H1  UNL     1       1.889   0.103  -0.712  1.00  0.00     0.161 HD
BRANCH   5   7
HETATM    7  C4  UNL     1       3.457  -1.007   0.242  1.00  0.00     0.126 C 
BRANCH   7   8
HETATM    8  C2  UNL     1       4.434  -0.283  -0.667  1.00  0.00    -0.005 C 
HETATM    9  C1  UNL     1       5.811  -0.854  -0.409  1.00  0.00     0.011 C 
HETATM   10  C3  UNL     1       4.471   1.188  -0.260  1.00  0.00     0.011 C 
ENDBRANCH   7   8
ENDBRANCH   5   7
ENDBRANCH   3   5
ENDBRANCH   1   3
BRANCH   1  11
HETATM   11  C6  UNL     1      -0.589   0.448  -0.254  1.00  0.00     0.152 C 
BRANCH  11  12
HETATM   12  C7  UNL     1      -1.876   1.149  -0.025  1.00  0.00     0.292 C 
BRANCH  12  13
HETATM   13  N3  UNL     1      -3.040   0.361   0.204  1.00  0.00     0.091 N 
HETATM   14  C8  UNL     1      -4.138   1.283   0.371  1.00  0.00     0.282 C 
HETATM   15  C9  UNL     1      -5.235   0.745   1.265  1.00  0.00     0.104 C 
HETATM   16  S2  UNL     1      -5.381  -1.030   0.871  1.00  0.00    -0.166 SA
HETATM   17  C10 UNL     1      -4.615  -1.225  -0.787  1.00  0.00     0.104 C 
HETATM   18  C11 UNL     1      -3.205  -0.659  -0.753  1.00  0.00     0.282 C 
ENDBRANCH  12  13
ENDBRANCH  11  12
ENDBRANCH   1  11
TORSDOF 7
