REMARK  4 active torsions:
REMARK  status: ('A' for Active; 'I' for Inactive)
REMARK       I    between atoms: N1_2  and  C2_4 
REMARK    1  A    between atoms: C2_4  and  C3_6 
REMARK    2  A    between atoms: N2_8  and  C5_9 
REMARK    3  A    between atoms: C5_9  and  N3_10 
REMARK    4  A    between atoms: C5_9  and  C7_14 
ROOT
HETATM    1  N3  UNL     1      -2.884  -0.992   0.293  1.00  0.00    -0.294 N 
ATOM      2  H3  UNL     1      -2.959  -1.795   0.917  1.00  0.00     0.174 HD
HETATM    3  C6  UNL     1      -3.512  -1.024  -0.957  1.00  0.00     0.179 C 
HETATM    4  N4  UNL     1      -4.046  -1.075  -2.006  1.00  0.00    -0.172 NA
ENDROOT
BRANCH   1   5
HETATM    5  C5  UNL     1      -2.146   0.146   0.698  1.00  0.00     0.385 C 
BRANCH   5   6
HETATM    6  N2  UNL     1      -0.966   0.446  -0.080  1.00  0.00     0.118 N 
HETATM    7  C4  UNL     1      -0.377  -0.596  -0.848  1.00  0.00     0.291 C 
HETATM    8  C3  UNL     1       0.767  -0.622   0.124  1.00  0.00     0.134 C 
HETATM    9  C8  UNL     1       0.209   0.622   0.783  1.00  0.00     0.291 C 
BRANCH   8  10
HETATM   10  C2  UNL     1       2.112  -0.323  -0.409  1.00  0.00     0.224 C 
HETATM   11  N1  UNL     1       3.194  -0.320   0.509  1.00  0.00    -0.365 N 
HETATM   12  C1  UNL     1       4.535  -0.034   0.052  1.00  0.00     0.149 C 
ATOM     13  H1  UNL     1       3.025  -0.520   1.495  1.00  0.00     0.161 HD
HETATM   14  O1  UNL     1       2.294  -0.083  -1.612  1.00  0.00    -0.273 OA
ENDBRANCH   8  10
ENDBRANCH   5   6
BRANCH   5  15
HETATM   15  C7  UNL     1      -2.975   1.422   0.716  1.00  0.00     0.237 C 
HETATM   16 CL1  UNL     1      -1.916   2.654   1.496  1.00  0.00    -0.079 Cl
HETATM   17 CL2  UNL     1      -4.470   1.270   1.616  1.00  0.00    -0.079 Cl
HETATM   18 CL3  UNL     1      -3.227   1.875  -0.990  1.00  0.00    -0.079 Cl
ENDBRANCH   5  15
ENDBRANCH   1   5
TORSDOF 4
