REMARK  3 active torsions:
REMARK  status: ('A' for Active; 'I' for Inactive)
REMARK    1  A    between atoms: C2_2  and  C3_3 
REMARK    2  A    between atoms: C3_3  and  N1_4 
REMARK    3  A    between atoms: C6_7  and  C7_8 
ROOT
HETATM    1  N1  UNL     1       1.306  -0.155   0.500  1.00  0.00    -0.378 N 
HETATM    2  C4  UNL     1       0.280   0.385   1.328  1.00  0.00     0.148 C 
HETATM    3  C5  UNL     1      -1.030  -0.034   0.749  1.00  0.00     0.107 C 
HETATM    4  C6  UNL     1      -0.760  -1.256  -0.134  1.00  0.00     0.076 C 
HETATM    5  C8  UNL     1       0.010  -0.729  -1.358  1.00  0.00     0.045 C 
HETATM    6  C9  UNL     1       1.198   0.123  -0.867  1.00  0.00     0.157 C 
HETATM    7  C10 UNL     1       1.075   1.542  -1.267  1.00  0.00     0.265 C 
HETATM    8  F1  UNL     1       1.812   2.330  -0.375  1.00  0.00    -0.204 F 
HETATM    9  F2  UNL     1       1.729   1.734  -2.499  1.00  0.00    -0.204 F 
HETATM   10  C11 UNL     1      -0.250   2.147  -1.430  1.00  0.00     0.100 C 
HETATM   11  C12 UNL     1      -1.201   2.152  -0.286  1.00  0.00     0.123 C 
HETATM   12  N4  UNL     1      -1.769   0.881   0.011  1.00  0.00    -0.410 N 
HETATM   13  C13 UNL     1      -3.183   0.932   0.318  1.00  0.00     0.143 C 
ENDROOT
BRANCH   4  14
HETATM   14  C7  UNL     1      -1.959  -1.960  -0.528  1.00  0.00     0.093 C 
HETATM   15  N2  UNL     1      -2.220  -2.204  -1.751  1.00  0.00    -0.391 N 
ATOM     16  H22 UNL     1      -1.560  -1.882  -2.459  1.00  0.00     0.157 HD
ATOM     17  H21 UNL     1      -3.066  -2.701  -2.029  1.00  0.00     0.157 HD
HETATM   18  N3  UNL     1      -2.872  -2.406   0.452  1.00  0.00    -0.088 NA
ENDBRANCH   4  14
BRANCH   1  19
HETATM   19  C3  UNL     1       2.435  -0.578   1.148  1.00  0.00     0.085 C 
BRANCH  19  20
HETATM   20  C2  UNL     1       3.493  -1.244   0.395  1.00  0.00     0.007 C 
HETATM   21  C1  UNL     1       4.697  -0.725   0.355  1.00  0.00     0.012 C 
ENDBRANCH  19  20
ENDBRANCH   1  19
TORSDOF 3
