REMARK  7 active torsions:
REMARK  status: ('A' for Active; 'I' for Inactive)
REMARK    1  A    between atoms: O1_2  and  C2_3 
REMARK    2  A    between atoms: N1_8  and  C8_10 
REMARK    3  A    between atoms: C8_10  and  C9_11 
REMARK    4  A    between atoms: C9_11  and  C10_12 
REMARK    5  A    between atoms: C10_12  and  C11_13 
REMARK    6  A    between atoms: C11_13  and  O2_14 
REMARK    7  A    between atoms: C13_17  and  O3_18 
ROOT
HETATM    1  C2  UNL     1      -3.346   0.163   0.098  1.00  0.00     0.060 C 
HETATM    2  C3  UNL     1      -4.183   0.789   1.182  1.00  0.00     0.046 C 
HETATM    3  C4  UNL     1      -2.556  -1.040   0.646  1.00  0.00     0.047 C 
HETATM    4  C5  UNL     1      -1.356  -0.940  -0.159  1.00  0.00     0.051 C 
HETATM    5  C6  UNL     1      -0.081  -1.492   0.225  1.00  0.00     0.244 C 
HETATM    6  N1  UNL     1       0.900  -0.575  -0.380  1.00  0.00    -0.068 N 
HETATM    7  C7  UNL     1       1.458  -1.213  -1.548  1.00  0.00     0.272 C 
HETATM    8  C12 UNL     1       0.138   0.592  -0.860  1.00  0.00     0.275 C 
HETATM    9  C13 UNL     1      -1.047   0.566   0.012  1.00  0.00     0.090 C 
HETATM   10  C14 UNL     1      -2.326   1.120  -0.487  1.00  0.00     0.077 C 
ENDROOT
BRANCH   6  11
HETATM   11  C8  UNL     1       1.865  -0.109   0.550  1.00  0.00     0.237 C 
BRANCH  11  12
HETATM   12  C9  UNL     1       3.291  -0.274   0.109  1.00  0.00     0.030 C 
BRANCH  12  13
HETATM   13  C10 UNL     1       4.213   0.260   1.189  1.00  0.00     0.028 C 
BRANCH  13  14
HETATM   14  C11 UNL     1       5.666   0.113   0.781  1.00  0.00     0.164 C 
BRANCH  14  15
HETATM   15  O2  UNL     1       6.451   0.614   1.800  1.00  0.00    -0.401 OA
ATOM     16  H2  UNL     1       7.361   0.522   1.544  1.00  0.00     0.209 HD
ENDBRANCH  14  15
ENDBRANCH  13  14
ENDBRANCH  12  13
ENDBRANCH  11  12
ENDBRANCH   6  11
BRANCH   9  17
HETATM   17  O3  UNL     1      -0.747   0.886   1.300  1.00  0.00    -0.388 OA
ATOM     18  H3  UNL     1      -0.557   1.811   1.405  1.00  0.00     0.210 HD
ENDBRANCH   9  17
BRANCH   1  19
HETATM   19  O1  UNL     1      -4.118  -0.321  -0.949  1.00  0.00    -0.385 OA
HETATM   20  C1  UNL     1      -4.879   0.638  -1.572  1.00  0.00     0.202 C 
ENDBRANCH   1  19
TORSDOF 7
