REMARK  9 active torsions:
REMARK  status: ('A' for Active; 'I' for Inactive)
REMARK    1  A    between atoms: C2_2  and  N1_3 
REMARK    2  A    between atoms: C3_6  and  N3_7 
REMARK    3  A    between atoms: N3_7  and  C4_9 
REMARK    4  A    between atoms: C4_9  and  C5_10 
REMARK    5  A    between atoms: C5_10  and  C6_11 
REMARK    6  A    between atoms: C12_24  and  N5_25 
REMARK    7  A    between atoms: N5_25  and  C13_27 
REMARK    8  A    between atoms: C13_27  and  C14_28 
REMARK    9  A    between atoms: C14_28  and  C15_31 
ROOT
HETATM    1  N1  UNL     1      -2.042   1.728   0.529  1.00  0.00    -0.109 N 
HETATM    2  N2  UNL     1      -0.830   2.260   0.773  1.00  0.00    -0.115 N 
ATOM      3  H2  UNL     1      -0.656   3.135   1.267  1.00  0.00     0.206 HD
HETATM    4  C3  UNL     1       0.106   1.458   0.265  1.00  0.00     0.707 A 
HETATM    5  N4  UNL     1      -0.506   0.414  -0.303  1.00  0.00    -0.020 N 
ATOM      6  H4  UNL     1      -0.047  -0.366  -0.774  1.00  0.00     0.203 HD
HETATM    7  C12 UNL     1      -1.871   0.576  -0.140  1.00  0.00     0.713 A 
ENDROOT
BRANCH   4   8
HETATM    8  N3  UNL     1       1.377   1.711   0.346  1.00  0.00    -0.224 N 
ATOM      9  H3  UNL     1       1.659   2.567   0.823  1.00  0.00     0.177 HD
BRANCH   8  10
HETATM   10  C4  UNL     1       2.409   0.877  -0.184  1.00  0.00     0.143 C 
BRANCH  10  11
HETATM   11  C5  UNL     1       3.190   0.331   1.009  1.00  0.00     0.065 C 
BRANCH  11  12
HETATM   12  C6  UNL     1       4.272  -0.542   0.484  1.00  0.00     0.027 A 
HETATM   13  C7  UNL     1       5.422  -0.039  -0.088  1.00  0.00     0.167 A 
HETATM   14  F1  UNL     1       5.554   1.306  -0.166  1.00  0.00    -0.202 F 
HETATM   15  C8  UNL     1       6.419  -0.885  -0.571  1.00  0.00     0.197 A 
HETATM   16  F2  UNL     1       7.548  -0.402  -1.133  1.00  0.00    -0.199 F 
HETATM   17  C9  UNL     1       6.246  -2.242  -0.473  1.00  0.00     0.199 A 
HETATM   18  F3  UNL     1       7.180  -3.111  -0.924  1.00  0.00    -0.199 F 
HETATM   19  C10 UNL     1       5.111  -2.771   0.093  1.00  0.00     0.197 A 
HETATM   20  F4  UNL     1       4.965  -4.127   0.178  1.00  0.00    -0.199 F 
HETATM   21  C11 UNL     1       4.119  -1.908   0.573  1.00  0.00     0.167 A 
HETATM   22  F5  UNL     1       3.009  -2.464   1.126  1.00  0.00    -0.202 F 
ENDBRANCH  11  12
ENDBRANCH  10  11
ENDBRANCH   8  10
ENDBRANCH   4   8
BRANCH   1  23
HETATM   23  C2  UNL     1      -3.283   2.357   0.934  1.00  0.00     0.164 C 
HETATM   24  C1  UNL     1      -3.806   3.337  -0.097  1.00  0.00     0.029 C 
ENDBRANCH   1  23
BRANCH   7  25
HETATM   25  N5  UNL     1      -2.664  -0.300  -0.586  1.00  0.00    -0.197 N 
ATOM     26  H5  UNL     1      -2.199  -1.075  -1.059  1.00  0.00     0.183 HD
BRANCH  25  27
HETATM   27  C13 UNL     1      -4.069  -0.412  -0.555  1.00  0.00     0.162 C 
BRANCH  27  28
HETATM   28  C14 UNL     1      -4.527  -1.595  -1.406  1.00  0.00     0.333 C 
HETATM   29  F6  UNL     1      -5.905  -1.675  -1.353  1.00  0.00    -0.194 F 
HETATM   30  F7  UNL     1      -4.146  -1.483  -2.709  1.00  0.00    -0.194 F 
BRANCH  28  31
HETATM   31  C15 UNL     1      -4.001  -2.910  -0.830  1.00  0.00     0.430 C 
HETATM   32  F8  UNL     1      -4.476  -3.903  -1.676  1.00  0.00    -0.207 F 
HETATM   33  F9  UNL     1      -2.637  -2.967  -0.838  1.00  0.00    -0.207 F 
ENDBRANCH  28  31
ENDBRANCH  27  28
ENDBRANCH  25  27
ENDBRANCH   7  25
TORSDOF 9
