REMARK  7 active torsions:
REMARK  status: ('A' for Active; 'I' for Inactive)
REMARK    1  A    between atoms: C2_2  and  N1_4 
REMARK    2  A    between atoms: N1_4  and  C4_6 
REMARK    3  A    between atoms: C4_6  and  C5_7 
REMARK    4  A    between atoms: C5_7  and  O1_8 
REMARK    5  A    between atoms: C5_7  and  C6_10 
REMARK    6  A    between atoms: C6_10  and  N2_11 
REMARK    7  A    between atoms: N3_16  and  C11_17 
ROOT
HETATM    1  N2  UNL     1      -0.692   0.801   1.237  1.00  0.00    -0.329 N 
HETATM    2  C7  UNL     1      -1.573   0.041   2.101  1.00  0.00     0.159 C 
HETATM    3  C8  UNL     1      -2.435  -0.743   1.143  1.00  0.00     0.053 A 
HETATM    4  C9  UNL     1      -3.537  -1.598   1.630  1.00  0.00     0.035 A 
HETATM    5  C10 UNL     1      -2.296  -2.202   0.975  1.00  0.00     0.035 A 
HETATM    6  N3  UNL     1      -2.601   0.173   0.052  1.00  0.00    -0.319 N 
HETATM    7  C14 UNL     1      -1.430   0.952   0.001  1.00  0.00     0.321 C 
HETATM    8  O2  UNL     1      -1.100   1.670  -0.996  1.00  0.00    -0.247 OA
ENDROOT
BRANCH   1   9
HETATM    9  C6  UNL     1       0.600   1.343   1.406  1.00  0.00     0.164 C 
BRANCH   9  10
HETATM   10  C5  UNL     1       1.777   0.464   1.077  1.00  0.00     0.174 C 
BRANCH  10  11
HETATM   11  C4  UNL     1       1.825   0.133  -0.386  1.00  0.00     0.089 C 
BRANCH  11  12
HETATM   12  N1  UNL     1       2.957  -0.552  -0.798  1.00  0.00    -0.396 N 
ATOM     13  H1  UNL     1       2.846  -1.532  -1.059  1.00  0.00     0.159 HD
BRANCH  12  14
HETATM   14  C2  UNL     1       4.229  -0.006  -0.882  1.00  0.00     0.072 C 
HETATM   15  C1  UNL     1       4.935   0.449   0.348  1.00  0.00     0.031 C 
HETATM   16  C3  UNL     1       5.182  -1.003  -1.569  1.00  0.00     0.031 C 
ENDBRANCH  12  14
ENDBRANCH  11  12
ENDBRANCH  10  11
BRANCH  10  17
HETATM   17  O1  UNL     1       1.814  -0.682   1.872  1.00  0.00    -0.389 OA
ATOM     18  H1  UNL     1       1.784  -0.472   2.798  1.00  0.00     0.210 HD
ENDBRANCH  10  17
ENDBRANCH   9  10
ENDBRANCH   1   9
BRANCH   6  19
HETATM   19  C11 UNL     1      -3.755   0.282  -0.836  1.00  0.00     0.081 C 
HETATM   20  C12 UNL     1      -4.292   1.702  -0.812  1.00  0.00     0.032 C 
HETATM   21  C13 UNL     1      -3.344   0.020  -2.290  1.00  0.00     0.032 C 
ENDBRANCH   6  19
TORSDOF 7
