REMARK  6 active torsions:
REMARK  status: ('A' for Active; 'I' for Inactive)
REMARK    1  A    between atoms: C2_2  and  C3_3 
REMARK    2  A    between atoms: C3_3  and  C4_4 
REMARK    3  A    between atoms: C4_4  and  C5_5 
REMARK    4  A    between atoms: C6_6  and  C7_7 
REMARK    5  A    between atoms: C7_7  and  C8_8 
REMARK    6  A    between atoms: C8_8  and  C9_9 
ROOT
HETATM    1  C7  UNL     1      -1.113   0.168  -0.392  1.00  0.00     0.029 C 
ENDROOT
BRANCH   1   2
HETATM    2  C6  UNL     1       0.072  -0.325  -1.087  1.00  0.00    -0.031 C 
HETATM    3  C5  UNL     1       1.261  -0.479  -0.553  1.00  0.00    -0.030 C 
BRANCH   3   4
HETATM    4  C4  UNL     1       1.678  -0.201   0.832  1.00  0.00     0.030 C 
BRANCH   4   5
HETATM    5  C3  UNL     1       2.764   0.808   0.982  1.00  0.00     0.030 C 
BRANCH   5   6
HETATM    6  C2  UNL     1       4.071   0.464   0.410  1.00  0.00    -0.037 C 
HETATM    7  C1  UNL     1       4.480  -0.677  -0.074  1.00  0.00     0.007 C 
ENDBRANCH   5   6
ENDBRANCH   4   5
ENDBRANCH   3   4
ENDBRANCH   1   2
BRANCH   1   8
HETATM    8  C8  UNL     1      -2.249  -0.834  -0.380  1.00  0.00     0.038 C 
BRANCH   8   9
HETATM    9  C9  UNL     1      -3.402  -0.170   0.377  1.00  0.00     0.211 A 
HETATM   10  C10 UNL     1      -3.964   1.095  -0.141  1.00  0.00     0.265 A 
HETATM   11  N1  UNL     1      -4.692  -0.151  -0.242  1.00  0.00    -0.067 N 
ATOM     12  H12 UNL     1      -5.114  -0.664  -1.016  1.00  0.00     0.277 HD
ATOM     13  H11 UNL     1      -5.622  -0.454   0.049  1.00  0.00     0.277 HD
ENDBRANCH   8   9
ENDBRANCH   1   8
TORSDOF 6
