REMARK  11 active torsions:
REMARK  status: ('A' for Active; 'I' for Inactive)
REMARK    1  A    between atoms: C2_2  and  C3_3 
REMARK    2  A    between atoms: C3_3  and  N1_4 
REMARK    3  A    between atoms: N1_4  and  C4_5 
REMARK    4  A    between atoms: N1_4  and  C7_8 
REMARK    5  A    between atoms: C4_5  and  C5_6 
REMARK    6  A    between atoms: C7_8  and  C8_9 
REMARK    7  A    between atoms: C8_9  and  N2_10 
REMARK       I    between atoms: N2_10  and  C9_12 
REMARK    8  A    between atoms: C9_12  and  C10_14 
REMARK    9  A    between atoms: C10_14  and  N3_15 
REMARK   10  A    between atoms: C12_17  and  C13_18 
REMARK   11  A    between atoms: C19_29  and  N5_30 
ROOT
HETATM    1  N3  UNL     1       0.866  -1.438  -1.247  1.00  0.00    -0.314 N 
HETATM    2  C11 UNL     1       1.506  -0.550  -2.008  1.00  0.00     0.107 A 
HETATM    3  C12 UNL     1       2.826  -0.147  -1.788  1.00  0.00    -0.008 A 
HETATM    4  C17 UNL     1       3.499  -0.704  -0.725  1.00  0.00    -0.006 A 
HETATM    5  C18 UNL     1       4.814  -0.387  -0.444  1.00  0.00     0.043 A 
HETATM    6  C19 UNL     1       5.472  -0.967   0.604  1.00  0.00     0.040 A 
HETATM    7  C23 UNL     1       4.785  -1.870   1.364  1.00  0.00     0.037 A 
HETATM    8  C24 UNL     1       3.469  -2.248   1.155  1.00  0.00    -0.043 A 
HETATM    9  C25 UNL     1       2.806  -3.243   2.043  1.00  0.00     0.049 C 
HETATM   10  C26 UNL     1       2.823  -1.641   0.079  1.00  0.00     0.049 A 
HETATM   11  C27 UNL     1       1.522  -1.984  -0.204  1.00  0.00     0.259 A 
HETATM   12  O5  UNL     1       0.925  -2.808   0.503  1.00  0.00    -0.267 OA
ENDROOT
BRANCH   1  13
HETATM   13  C10 UNL     1      -0.523  -1.817  -1.540  1.00  0.00     0.234 C 
BRANCH  13  14
HETATM   14  C9  UNL     1      -1.475  -0.956  -0.829  1.00  0.00     0.235 C 
HETATM   15  N2  UNL     1      -2.871  -1.132  -0.948  1.00  0.00    -0.358 N 
ATOM     16  H2  UNL     1      -3.223  -1.878  -1.548  1.00  0.00     0.162 HD
HETATM   17  O1  UNL     1      -1.062  -0.023  -0.083  1.00  0.00    -0.272 OA
BRANCH  15  18
HETATM   18  C8  UNL     1      -3.826  -0.288  -0.246  1.00  0.00     0.142 C 
BRANCH  18  19
HETATM   19  C7  UNL     1      -5.233  -0.733  -0.579  1.00  0.00     0.136 C 
BRANCH  19  20
HETATM   20  N1  UNL     1      -6.180   0.068   0.097  1.00  0.00    -0.411 N 
BRANCH  20  21
HETATM   21  C3  UNL     1      -6.310   1.421  -0.279  1.00  0.00     0.116 C 
BRANCH  21  22
HETATM   22  C2  UNL     1      -6.385   2.385   0.883  1.00  0.00     0.015 C 
HETATM   23  C1  UNL     1      -6.521   3.786   0.321  1.00  0.00     0.006 C 
ENDBRANCH  21  22
ENDBRANCH  20  21
BRANCH  20  24
HETATM   24  C4  UNL     1      -7.263  -0.569   0.737  1.00  0.00     0.116 C 
BRANCH  24  25
HETATM   25  C5  UNL     1      -8.487  -0.784  -0.113  1.00  0.00     0.015 C 
HETATM   26  C6  UNL     1      -8.165  -1.642  -1.313  1.00  0.00     0.006 C 
ENDBRANCH  24  25
ENDBRANCH  20  24
ENDBRANCH  19  20
ENDBRANCH  18  19
ENDBRANCH  15  18
ENDBRANCH  13  14
ENDBRANCH   1  13
BRANCH   3  27
HETATM   27  C13 UNL     1       3.471   0.806  -2.677  1.00  0.00     0.038 C 
HETATM   28  C14 UNL     1       3.818   2.027  -2.402  1.00  0.00     0.079 C 
HETATM   29  S1  UNL     1       4.629   3.135  -3.591  1.00  0.00    -0.024 SA
HETATM   30  C16 UNL     1       3.674   2.869  -1.246  1.00  0.00     0.266 C 
HETATM   31  C15 UNL     1       5.365   4.182  -2.295  1.00  0.00     0.291 C 
HETATM   32  O2  UNL     1       6.398   4.878  -2.399  1.00  0.00    -0.260 OA
HETATM   33  N4  UNL     1       4.489   3.996  -1.197  1.00  0.00    -0.283 N 
ATOM     34  H4  UNL     1       4.458   4.651  -0.415  1.00  0.00     0.172 HD
HETATM   35  O3  UNL     1       2.833   2.589  -0.311  1.00  0.00    -0.267 OA
ENDBRANCH   3  27
BRANCH   6  36
HETATM   36  N5  UNL     1       6.851  -0.635   0.894  1.00  0.00    -0.298 N 
HETATM   37  C20 UNL     1       7.426   0.673   1.105  1.00  0.00     0.153 C 
HETATM   38  C21 UNL     1       8.827   0.511   0.577  1.00  0.00     0.144 C 
HETATM   39  N6  UNL     1       9.143  -0.898   0.817  1.00  0.00    -0.341 N 
HETATM   40  C22 UNL     1       7.915  -1.562   1.024  1.00  0.00     0.323 C 
ATOM     41  H6  UNL     1      10.072  -1.319   0.832  1.00  0.00     0.164 HD
HETATM   42  O4  UNL     1       7.777  -2.775   1.281  1.00  0.00    -0.247 OA
ENDBRANCH   6  36
TORSDOF 11
