REMARK  2 active torsions:
REMARK  status: ('A' for Active; 'I' for Inactive)
REMARK    1  A    between atoms: S1_2  and  C2_3 
REMARK    2  A    between atoms: C3_4  and  O1_5 
ROOT
HETATM    1  C2  UNL     1       0.509   0.541  -0.614  1.00  0.00     0.091 C 
HETATM    2  C3  UNL     1      -0.544  -0.253  -1.274  1.00  0.00     0.135 C 
HETATM    3  C4  UNL     1      -1.495  -1.042  -0.485  1.00  0.00     0.077 C 
HETATM    4  C5  UNL     1      -1.741  -0.629   0.928  1.00  0.00     0.249 C 
HETATM    5  N1  UNL     1      -1.985   0.747   1.136  1.00  0.00    -0.061 N 
ATOM      6  H11 UNL     1      -2.497   0.891   2.006  1.00  0.00     0.278 HD
ATOM      7  H12 UNL     1      -2.675   1.092   0.469  1.00  0.00     0.278 HD
HETATM    8  C6  UNL     1      -0.833   1.545   1.107  1.00  0.00     0.250 C 
HETATM    9  C7  UNL     1       0.402   0.728   0.868  1.00  0.00     0.091 C 
HETATM   10  S2  UNL     1      -0.098  -0.811   1.724  1.00  0.00    -0.128 SA
ENDROOT
BRANCH   1  11
HETATM   11  S1  UNL     1       2.196   0.060  -1.129  1.00  0.00    -0.165 SA
HETATM   12  C1  UNL     1       3.088  -0.828   0.141  1.00  0.00     0.090 C 
ENDBRANCH   1  11
BRANCH   2  13
HETATM   13  O1  UNL     1      -1.282   0.514  -2.199  1.00  0.00    -0.394 OA
ATOM     14  H1  UNL     1      -1.960   0.003  -2.624  1.00  0.00     0.210 HD
ENDBRANCH   2  13
TORSDOF 2
