REMARK  3 active torsions:
REMARK  status: ('A' for Active; 'I' for Inactive)
REMARK    1  A    between atoms: C5_6  and  O1_7 
REMARK    2  A    between atoms: C8_11  and  C9_12 
REMARK    3  A    between atoms: C9_12  and  O2_15 
ROOT
HETATM    1  C1  UNL     1      -1.170  -2.466  -0.499  1.00  0.00     0.310 C 
HETATM    2  N1  UNL     1      -0.669  -1.301   0.230  1.00  0.00     0.092 N 
HETATM    3  C2  UNL     1       0.725  -1.482   0.494  1.00  0.00     0.282 C 
HETATM    4  C3  UNL     1       1.369  -0.201   0.163  1.00  0.00    -0.007 C 
HETATM    5  C4  UNL     1       2.649  -0.254  -0.639  1.00  0.00     0.043 C 
HETATM    6  C5  UNL     1       3.079   0.975   0.138  1.00  0.00     0.119 C 
HETATM    7  C6  UNL     1       2.166   0.480   1.256  1.00  0.00     0.043 C 
HETATM    8  C7  UNL     1       0.368   0.703  -0.496  1.00  0.00     0.050 C 
HETATM    9  C8  UNL     1      -0.843  -0.159  -0.607  1.00  0.00     0.256 C 
ENDROOT
BRANCH   6  10
HETATM   10  O1  UNL     1       4.424   1.009   0.472  1.00  0.00    -0.396 OA
ATOM     11  H1  UNL     1       4.693   1.779   0.959  1.00  0.00     0.210 HD
ENDBRANCH   6  10
BRANCH   9  12
HETATM   12  C9  UNL     1      -2.051   0.682  -0.238  1.00  0.00     0.081 C 
HETATM   13  C10 UNL     1      -1.915   1.166   1.163  1.00  0.00     0.047 C 
HETATM   14  C11 UNL     1      -3.338  -0.104  -0.428  1.00  0.00     0.047 C 
BRANCH  12  15
HETATM   15  O2  UNL     1      -2.118   1.757  -1.115  1.00  0.00    -0.388 OA
ATOM     16  H2  UNL     1      -2.874   2.284  -0.884  1.00  0.00     0.210 HD
ENDBRANCH  12  15
ENDBRANCH   9  12
TORSDOF 3
