REMARK  15 active torsions:
REMARK  status: ('A' for Active; 'I' for Inactive)
REMARK    1  A    between atoms: C2_2  and  C3_3 
REMARK    2  A    between atoms: N2_7  and  C5_8 
REMARK    3  A    between atoms: C5_8  and  C6_9 
REMARK    4  A    between atoms: C10_14  and  C11_15 
REMARK    5  A    between atoms: C11_15  and  C12_16 
REMARK    6  A    between atoms: C12_16  and  C14_19 
REMARK    7  A    between atoms: C14_19  and  N4_20 
REMARK    8  A    between atoms: N4_20  and  C15_23 
REMARK    9  A    between atoms: C15_23  and  C16_24 
REMARK   10  A    between atoms: C15_23  and  C23_33 
REMARK   11  A    between atoms: C16_24  and  C17_25 
REMARK   12  A    between atoms: C20_28  and  O1_29 
REMARK   13  A    between atoms: C23_33  and  O2_34 
REMARK   14  A    between atoms: C23_33  and  C24_36 
REMARK   15  A    between atoms: C24_36  and  C25_37 
ROOT
HETATM    1  C12 UNL     1      -0.010   1.479  -2.584  1.00  0.00     0.122 C 
HETATM    2  C13 UNL     1      -0.171   0.004  -2.666  1.00  0.00     0.066 C 
HETATM    3  N3  UNL     1      -0.287  -1.153  -2.749  1.00  0.00    -0.197 NA
ENDROOT
BRANCH   1   4
HETATM    4  C11 UNL     1       0.992   1.846  -1.519  1.00  0.00     0.059 C 
BRANCH   4   5
HETATM    5  C10 UNL     1       2.318   1.249  -1.796  1.00  0.00    -0.053 A 
HETATM    6  C9  UNL     1       3.227   1.923  -2.578  1.00  0.00     0.049 A 
HETATM    7  C8  UNL     1       4.470   1.354  -2.862  1.00  0.00     0.117 A 
HETATM    8  C7  UNL     1       4.789   0.098  -2.351  1.00  0.00     0.051 A 
HETATM    9  F1  UNL     1       5.401   1.972  -3.621  1.00  0.00    -0.206 F 
HETATM   10  C6  UNL     1       3.891  -0.585  -1.570  1.00  0.00    -0.035 A 
HETATM   11  C29 UNL     1       2.664   0.014  -1.308  1.00  0.00     0.016 A 
BRANCH  10  12
HETATM   12  C5  UNL     1       4.116  -1.925  -0.974  1.00  0.00     0.187 C 
BRANCH  12  13
HETATM   13  N2  UNL     1       4.773  -1.928   0.291  1.00  0.00    -0.292 N 
HETATM   14  N1  UNL     1       4.187  -1.801   1.456  1.00  0.00    -0.309 N 
HETATM   15  C4  UNL     1       5.082  -1.829   2.443  1.00  0.00     0.116 A 
ATOM     16  H1  UNL     1       3.181  -1.695   1.589  1.00  0.00     0.186 HD
HETATM   17  C3  UNL     1       6.320  -1.987   1.852  1.00  0.00    -0.018 A 
HETATM   18  C30 UNL     1       6.086  -2.044   0.503  1.00  0.00     0.032 A 
HETATM   19  C31 UNL     1       7.161  -2.228  -0.539  1.00  0.00     0.070 C 
BRANCH  17  20
HETATM   20  C2  UNL     1       7.650  -2.079   2.508  1.00  0.00     0.037 C 
HETATM   21  C1  UNL     1       8.403  -0.784   2.354  1.00  0.00     0.010 C 
ENDBRANCH  17  20
ENDBRANCH  12  13
ENDBRANCH  10  12
ENDBRANCH   4   5
ENDBRANCH   1   4
BRANCH   1  22
HETATM   22  C14 UNL     1      -1.371   1.986  -2.165  1.00  0.00     0.252 C 
BRANCH  22  23
HETATM   23  N4  UNL     1      -1.735   1.383  -0.929  1.00  0.00    -0.067 N 
ATOM     24  H42 UNL     1      -1.615   0.371  -0.978  1.00  0.00     0.277 HD
ATOM     25  H41 UNL     1      -1.048   1.606  -0.209  1.00  0.00     0.277 HD
BRANCH  23  26
HETATM   26  C15 UNL     1      -3.081   1.713  -0.467  1.00  0.00     0.218 C 
BRANCH  26  27
HETATM   27  C16 UNL     1      -4.122   1.219  -1.390  1.00  0.00     0.074 C 
BRANCH  27  28
HETATM   28  C17 UNL     1      -5.530   1.480  -1.050  1.00  0.00    -0.056 A 
HETATM   29  C18 UNL     1      -6.309   0.541  -0.365  1.00  0.00     0.010 A 
HETATM   30  C19 UNL     1      -7.621   0.755  -0.047  1.00  0.00     0.037 A 
HETATM   31  C20 UNL     1      -8.226   1.930  -0.402  1.00  0.00     0.065 A 
HETATM   32  C21 UNL     1      -7.474   2.887  -1.086  1.00  0.00     0.037 A 
HETATM   33  C22 UNL     1      -6.167   2.666  -1.398  1.00  0.00     0.010 A 
BRANCH  31  34
HETATM   34  O1  UNL     1      -9.559   2.181  -0.096  1.00  0.00    -0.361 OA
ATOM     35  H1  UNL     1      -9.979   2.997  -0.342  1.00  0.00     0.217 HD
ENDBRANCH  31  34
ENDBRANCH  27  28
ENDBRANCH  26  27
BRANCH  26  36
HETATM   36  C23 UNL     1      -3.144   1.279   0.963  1.00  0.00     0.149 C 
BRANCH  36  37
HETATM   37  O2  UNL     1      -4.319   1.499   1.621  1.00  0.00    -0.393 OA
ATOM     38  H2  UNL     1      -4.359   1.223   2.529  1.00  0.00     0.210 HD
ENDBRANCH  36  37
BRANCH  36  39
HETATM   39  C24 UNL     1      -2.531  -0.087   1.208  1.00  0.00     0.048 C 
BRANCH  39  40
HETATM   40  C25 UNL     1      -2.627  -0.481   2.669  1.00  0.00     0.082 C 
HETATM   41  C26 UNL     1      -1.958  -1.865   2.770  1.00  0.00     0.034 C 
HETATM   42  C27 UNL     1      -2.930  -2.745   1.978  1.00  0.00     0.123 C 
HETATM   43  N5  UNL     1      -4.219  -2.109   2.234  1.00  0.00    -0.361 N 
HETATM   44  C28 UNL     1      -4.032  -0.894   2.982  1.00  0.00     0.222 C 
ATOM     45  H5  UNL     1      -5.121  -2.473   1.927  1.00  0.00     0.162 HD
HETATM   46  O3  UNL     1      -4.903  -0.389   3.696  1.00  0.00    -0.273 OA
ENDBRANCH  39  40
ENDBRANCH  36  39
ENDBRANCH  26  36
ENDBRANCH  23  26
ENDBRANCH  22  23
ENDBRANCH   1  22
TORSDOF 15
