REMARK  17 active torsions:
REMARK  status: ('A' for Active; 'I' for Inactive)
REMARK    1  A    between atoms: C2_2  and  C3_3 
REMARK    2  A    between atoms: C3_3  and  C5_5 
REMARK    3  A    between atoms: C5_5  and  N1_6 
REMARK    4  A    between atoms: C5_5  and  C6_10 
REMARK       I    between atoms: C6_10  and  N2_12 
REMARK    5  A    between atoms: N2_12  and  C7_14 
REMARK    6  A    between atoms: C8_16  and  N3_17 
REMARK    7  A    between atoms: N3_17  and  C10_19 
REMARK    8  A    between atoms: C10_19  and  C11_21 
REMARK    9  A    between atoms: C11_21  and  C12_22 
REMARK   10  A    between atoms: C12_22  and  C13_23 
REMARK   11  A    between atoms: C13_23  and  C14_24 
REMARK   12  A    between atoms: C14_24  and  C15_25 
REMARK   13  A    between atoms: C15_25  and  C16_26 
REMARK   14  A    between atoms: C16_26  and  N4_27 
REMARK   15  A    between atoms: N4_27  and  C17_28 
REMARK   16  A    between atoms: C17_28  and  O2_29 
REMARK   17  A    between atoms: C17_28  and  N5_31 
ROOT
HETATM    1  C12 UNL     1       2.157  -0.589   3.184  1.00  0.00     0.006 C 
HETATM    2  N6  UNL     1       1.329  -0.843   4.151  1.00  0.00    -0.301 N 
ATOM      3  H6  UNL     1       0.351  -1.003   3.910  1.00  0.00     0.177 HD
HETATM    4  C22 UNL     1       1.686  -0.912   5.495  1.00  0.00     0.181 C 
HETATM    5  N7  UNL     1       1.977  -0.945   6.639  1.00  0.00    -0.172 NA
ENDROOT
BRANCH   1   6
HETATM    6  C11 UNL     1       1.629  -0.552   1.828  1.00  0.00     0.123 C 
BRANCH   6   7
HETATM    7  C10 UNL     1       0.255  -0.997   1.587  1.00  0.00     0.085 C 
HETATM    8  S2  UNL     1      -0.891  -1.303   2.661  1.00  0.00    -0.065 SA
BRANCH   7   9
HETATM    9  N3  UNL     1      -0.063  -1.158   0.178  1.00  0.00    -0.340 N 
HETATM   10  C9  UNL     1       0.990  -0.843  -0.768  1.00  0.00     0.157 C 
BRANCH   9  11
HETATM   11  C8  UNL     1      -1.336  -1.597  -0.222  1.00  0.00     0.070 C 
HETATM   12  S1  UNL     1      -2.722  -0.466  -0.473  1.00  0.00    -0.086 SA
HETATM   13  C7  UNL     1      -4.130  -1.564  -0.865  1.00  0.00     0.161 C 
HETATM   14  C25 UNL     1      -3.592  -2.670  -1.705  1.00  0.00    -0.014 C 
HETATM   15  C24 UNL     1      -2.700  -3.541  -0.853  1.00  0.00     0.041 C 
HETATM   16  C26 UNL     1      -2.917  -2.228  -2.964  1.00  0.00     0.018 C 
HETATM   17  C27 UNL     1      -4.751  -3.612  -2.128  1.00  0.00     0.018 C 
HETATM   18  C23 UNL     1      -1.470  -2.903  -0.421  1.00  0.00     0.011 C 
BRANCH  13  19
HETATM   19  N2  UNL     1      -5.220  -0.824  -1.398  1.00  0.00    -0.345 N 
HETATM   20  C6  UNL     1      -6.391  -0.533  -0.595  1.00  0.00     0.249 C 
HETATM   21  O1  UNL     1      -6.454  -0.944   0.572  1.00  0.00    -0.271 OA
ATOM     22  H2  UNL     1      -5.178  -0.492  -2.362  1.00  0.00     0.163 HD
BRANCH  20  23
HETATM   23  C5  UNL     1      -7.472   0.249  -1.208  1.00  0.00     0.278 C 
BRANCH  23  24
HETATM   24  C3  UNL     1      -7.821   1.370  -0.234  1.00  0.00     0.021 C 
HETATM   25  C4  UNL     1      -8.826   2.338  -0.763  1.00  0.00     0.012 C 
BRANCH  24  26
HETATM   26  C2  UNL     1      -6.523   2.160  -0.014  1.00  0.00     0.002 C 
HETATM   27  C1  UNL     1      -6.843   3.235   1.000  1.00  0.00     0.005 C 
ENDBRANCH  24  26
ENDBRANCH  23  24
BRANCH  23  28
HETATM   28  N1  UNL     1      -8.696  -0.519  -1.405  1.00  0.00    -0.066 N 
ATOM     29  H13 UNL     1      -9.109  -0.853  -0.534  1.00  0.00     0.275 HD
ATOM     30  H12 UNL     1      -9.486   0.050  -1.709  1.00  0.00     0.275 HD
ATOM     31  H11 UNL     1      -8.463  -1.269  -2.056  1.00  0.00     0.275 HD
ENDBRANCH  23  28
ENDBRANCH  20  23
ENDBRANCH  13  19
ENDBRANCH   9  11
ENDBRANCH   7   9
ENDBRANCH   6   7
ENDBRANCH   1   6
BRANCH   1  32
HETATM   32  C13 UNL     1       3.596  -0.341   3.430  1.00  0.00     0.080 C 
BRANCH  32  33
HETATM   33  C14 UNL     1       4.161   0.983   3.230  1.00  0.00    -0.022 C 
BRANCH  33  34
HETATM   34  C15 UNL     1       4.087   1.752   1.997  1.00  0.00     0.002 C 
BRANCH  34  35
HETATM   35  C16 UNL     1       4.587   1.252   0.708  1.00  0.00     0.249 C 
BRANCH  35  36
HETATM   36  N4  UNL     1       5.941   0.860   0.604  1.00  0.00    -0.406 NA
BRANCH  36  37
HETATM   37  C17 UNL     1       7.194   0.493   0.512  1.00  0.00     0.291 C 
BRANCH  37  38
HETATM   38  O2  UNL     1       7.737  -0.451   1.242  1.00  0.00    -0.322 OA
ATOM     39  H2  UNL     1       8.646  -0.717   1.175  1.00  0.00     0.222 HD
ENDBRANCH  37  38
BRANCH  37  40
HETATM   40  N5  UNL     1       8.173   1.055  -0.393  1.00  0.00    -0.332 N 
HETATM   41  C18 UNL     1       7.812   2.125  -1.308  1.00  0.00     0.153 C 
HETATM   42  C19 UNL     1       9.123   2.636  -1.908  1.00  0.00     0.187 C 
HETATM   43  O3  UNL     1       9.713   1.647  -2.649  1.00  0.00    -0.388 OA
HETATM   44  C20 UNL     1       9.862   0.473  -1.941  1.00  0.00     0.187 C 
HETATM   45  C21 UNL     1       9.530   0.591  -0.462  1.00  0.00     0.153 C 
ENDBRANCH  37  40
ENDBRANCH  36  37
ENDBRANCH  35  36
ENDBRANCH  34  35
ENDBRANCH  33  34
ENDBRANCH  32  33
ENDBRANCH   1  32
TORSDOF 17
