REMARK  6 active torsions:
REMARK  status: ('A' for Active; 'I' for Inactive)
REMARK    1  A    between atoms: N2_5  and  C4_6 
REMARK    2  A    between atoms: C4_6  and  C5_7 
REMARK    3  A    between atoms: C5_7  and  C6_8 
REMARK    4  A    between atoms: C6_8  and  N3_9 
REMARK    5  A    between atoms: N3_9  and  C7_11 
REMARK    6  A    between atoms: C10_17  and  C11_18 
REMARK       I    between atoms: C11_18  and  N6_20 
REMARK       I    between atoms: N6_20  and  C12_22 
ROOT
HETATM    1  C7  UNL     1       1.476  -0.211  -0.275  1.00  0.00     0.680 A 
HETATM    2  N4  UNL     1       2.209  -1.266   0.065  1.00  0.00    -0.181 N 
ATOM      3  H4  UNL     1       1.721  -2.120   0.334  1.00  0.00     0.185 HD
HETATM    4  C8  UNL     1       3.533  -1.277   0.076  1.00  0.00     0.149 A 
HETATM    5  C9  UNL     1       4.245  -2.459   0.466  1.00  0.00     0.119 C 
HETATM    6  N5  UNL     1       4.807  -3.436   0.798  1.00  0.00    -0.190 NA
HETATM    7  C10 UNL     1       4.222  -0.097  -0.297  1.00  0.00     0.114 A 
HETATM    8  C13 UNL     1       3.494   1.000  -0.655  1.00  0.00     0.133 A 
HETATM    9  N9  UNL     1       4.016   2.065  -1.083  1.00  0.00    -0.384 N 
ATOM     10  H91 UNL     1       3.472   2.885  -1.351  1.00  0.00     0.157 HD
ATOM     11  H92 UNL     1       5.034   2.133  -1.101  1.00  0.00     0.157 HD
HETATM   12  N10 UNL     1       2.120   0.908  -0.631  1.00  0.00    -0.176 N 
ATOM     13  H10 UNL     1       1.570   1.726  -0.895  1.00  0.00     0.186 HD
ENDROOT
BRANCH   7  14
HETATM   14  C11 UNL     1       5.666  -0.188  -0.292  1.00  0.00     0.264 C 
HETATM   15  O1  UNL     1       6.207  -1.281  -0.698  1.00  0.00    -0.267 OA
HETATM   16  N6  UNL     1       6.566   0.805   0.122  1.00  0.00    -0.297 N 
HETATM   17  C12 UNL     1       7.990   0.623   0.075  1.00  0.00     0.188 C 
ATOM     18  H6  UNL     1       6.195   1.689   0.469  1.00  0.00     0.171 HD
HETATM   19  N7  UNL     1       8.753   1.587   0.475  1.00  0.00    -0.373 N 
HETATM   20  N8  UNL     1       8.570  -0.577  -0.395  1.00  0.00    -0.064 NA
ATOM     21  H72 UNL     1       8.334   2.453   0.814  1.00  0.00     0.158 HD
ATOM     22  H71 UNL     1       9.764   1.458   0.442  1.00  0.00     0.158 HD
ENDBRANCH   7  14
BRANCH   1  23
HETATM   23  N3  UNL     1       0.189  -0.231  -0.276  1.00  0.00    -0.226 N 
ATOM     24  H3  UNL     1      -0.300  -1.084  -0.006  1.00  0.00     0.177 HD
BRANCH  23  25
HETATM   25  C6  UNL     1      -0.575   0.938  -0.654  1.00  0.00     0.140 C 
BRANCH  25  26
HETATM   26  C5  UNL     1      -2.070   0.616  -0.554  1.00  0.00     0.050 C 
BRANCH  26  27
HETATM   27  C4  UNL     1      -2.377   0.239   0.854  1.00  0.00     0.274 C 
BRANCH  27  28
HETATM   28  N2  UNL     1      -3.747  -0.092   1.127  1.00  0.00     0.094 N 
HETATM   29  C3  UNL     1      -4.097  -1.311   0.495  1.00  0.00     0.316 C 
HETATM   30  C2  UNL     1      -5.575  -1.521   0.288  1.00  0.00     0.087 C 
HETATM   31  N1  UNL     1      -6.274  -0.418  -0.242  1.00  0.00    -0.394 N 
HETATM   32  C1  UNL     1      -7.672  -0.388   0.003  1.00  0.00     0.148 C 
HETATM   33  C15 UNL     1      -5.605   0.840  -0.195  1.00  0.00     0.151 C 
HETATM   34  C14 UNL     1      -4.655   0.996   0.957  1.00  0.00     0.292 C 
ENDBRANCH  27  28
ENDBRANCH  26  27
ENDBRANCH  25  26
ENDBRANCH  23  25
ENDBRANCH   1  23
TORSDOF 6
