REMARK  3 active torsions:
REMARK  status: ('A' for Active; 'I' for Inactive)
REMARK    1  A    between atoms: C2_7  and  C3_8 
REMARK    2  A    between atoms: C3_8  and  N3_9 
REMARK    3  A    between atoms: C4_14  and  N4_15 
ROOT
HETATM    1  N1  UNL     1      -1.475   2.427  -0.525  1.00  0.00    -0.234 N 
ATOM      2  H11 UNL     1      -2.457   2.699  -0.489  1.00  0.00     0.174 HD
ATOM      3  H12 UNL     1      -0.789   3.150  -0.741  1.00  0.00     0.174 HD
HETATM    4  C1  UNL     1      -1.084   1.208  -0.308  1.00  0.00     0.680 A 
HETATM    5  N2  UNL     1       0.208   0.850  -0.355  1.00  0.00    -0.172 N 
ATOM      6  H2  UNL     1       0.914   1.555  -0.568  1.00  0.00     0.186 HD
HETATM    7  C2  UNL     1       0.587  -0.400  -0.131  1.00  0.00     0.168 A 
HETATM    8  O1  UNL     1      -0.327  -1.310   0.146  1.00  0.00    -0.264 OA
HETATM    9  C4  UNL     1      -1.603  -1.014   0.204  1.00  0.00     0.237 A 
HETATM   10  N5  UNL     1      -1.989   0.254  -0.023  1.00  0.00    -0.155 N 
ATOM     11  H5  UNL     1      -2.979   0.495   0.021  1.00  0.00     0.188 HD
ENDROOT
BRANCH   7  12
HETATM   12  C3  UNL     1       1.998  -0.808  -0.179  1.00  0.00     0.314 C 
BRANCH  12  13
HETATM   13  N3  UNL     1       2.822   0.310  -0.490  1.00  0.00    -0.072 N 
ATOM     14  H33 UNL     1       2.529   0.772  -1.351  1.00  0.00     0.274 HD
ATOM     15  H32 UNL     1       2.671   1.086   0.155  1.00  0.00     0.274 HD
ATOM     16  H31 UNL     1       3.801   0.027  -0.523  1.00  0.00     0.274 HD
ENDBRANCH  12  13
ENDBRANCH   7  12
BRANCH   9  17
HETATM   17  N4  UNL     1      -2.494  -1.924   0.479  1.00  0.00    -0.364 N 
ATOM     18  H42 UNL     1      -2.201  -2.886   0.651  1.00  0.00     0.159 HD
ATOM     19  H41 UNL     1      -3.487  -1.694   0.524  1.00  0.00     0.159 HD
ENDBRANCH   9  17
TORSDOF 3
