REMARK  4 active torsions:
REMARK  status: ('A' for Active; 'I' for Inactive)
REMARK    1  A    between atoms: C2_2  and  C3_3 
REMARK    2  A    between atoms: C3_3  and  N1_4 
REMARK    3  A    between atoms: N2_6  and  C5_8 
REMARK    4  A    between atoms: C8_17  and  N6_18 
ROOT
HETATM    1  N1  UNL     1      -0.921  -0.182  -0.701  1.00  0.00    -0.162 N 
HETATM    2  C4  UNL     1       0.392  -0.239  -0.415  1.00  0.00     0.689 A 
HETATM    3  N2  UNL     1       1.134  -1.265  -0.680  1.00  0.00    -0.161 N 
ATOM      4  H2  UNL     1       0.741  -2.093  -1.128  1.00  0.00     0.187 HD
HETATM    5  N5  UNL     1       0.759   0.923   0.170  1.00  0.00    -0.184 N 
ATOM      6  H5  UNL     1       1.695   1.166   0.495  1.00  0.00     0.184 HD
HETATM    7  C7  UNL     1      -0.342   1.703   0.245  1.00  0.00     0.137 A 
HETATM    8  C8  UNL     1      -0.546   2.986   0.747  1.00  0.00     0.131 A 
HETATM    9  N7  UNL     1      -1.795   3.479   0.664  1.00  0.00    -0.337 N 
ATOM     10  H7  UNL     1      -1.964   4.417   1.027  1.00  0.00     0.168 HD
HETATM   11  C9  UNL     1      -2.828   2.815   0.135  1.00  0.00     0.183 A 
HETATM   12  N8  UNL     1      -2.634   1.584  -0.348  1.00  0.00    -0.336 N 
ATOM     13  H8  UNL     1      -3.416   1.071  -0.754  1.00  0.00     0.168 HD
HETATM   14  C10 UNL     1      -1.409   1.014  -0.303  1.00  0.00     0.156 A 
ENDROOT
BRANCH   1  15
HETATM   15  C3  UNL     1      -1.709  -1.233  -1.338  1.00  0.00     0.176 C 
BRANCH  15  16
HETATM   16  C2  UNL     1      -2.283  -2.141  -0.314  1.00  0.00    -0.016 C 
HETATM   17  C1  UNL     1      -1.997  -3.454  -0.295  1.00  0.00     0.008 C 
ENDBRANCH  15  16
ENDBRANCH   1  15
BRANCH   3  18
HETATM   18  C5  UNL     1       2.539  -1.208  -0.324  1.00  0.00     0.192 A 
HETATM   19  N3  UNL     1       3.600  -0.757  -0.823  1.00  0.00    -0.346 N 
HETATM   20  C6  UNL     1       4.399  -1.191   0.257  1.00  0.00     0.249 A 
ATOM     21  H3  UNL     1       3.808  -0.260  -1.689  1.00  0.00     0.164 HD
HETATM   22  N4  UNL     1       3.192  -1.691   0.803  1.00  0.00    -0.346 N 
ATOM     23  H4  UNL     1       2.921  -2.188   1.652  1.00  0.00     0.164 HD
ENDBRANCH   3  18
BRANCH   8  24
HETATM   24  N6  UNL     1       0.422   3.653   1.262  1.00  0.00    -0.383 N 
ATOM     25  H62 UNL     1       1.369   3.279   1.325  1.00  0.00     0.157 HD
ATOM     26  H61 UNL     1       0.273   4.593   1.630  1.00  0.00     0.157 HD
ENDBRANCH   8  24
TORSDOF 4
