REMARK  5 active torsions:
REMARK  status: ('A' for Active; 'I' for Inactive)
REMARK    1  A    between atoms: N1_1  and  N2_4 
REMARK    2  A    between atoms: N3_8  and  O1_9 
REMARK    3  A    between atoms: C3_13  and  C4_14 
REMARK    4  A    between atoms: C4_14  and  N5_15 
REMARK    5  A    between atoms: C4_14  and  O2_19 
ROOT
HETATM    1  N2  UNL     1      -2.688  -0.026   0.572  1.00  0.00    -0.291 N 
ATOM      2  H2  UNL     1      -3.410   0.559   0.993  1.00  0.00     0.188 HD
HETATM    3  C1  UNL     1      -1.475   0.391   0.530  1.00  0.00     0.140 A 
HETATM    4  C2  UNL     1      -1.097   1.615   1.036  1.00  0.00     0.193 A 
HETATM    5  N3  UNL     1       0.172   2.055   0.994  1.00  0.00    -0.170 N 
HETATM    6  N4  UNL     1       1.072   1.263   0.440  1.00  0.00    -0.259 N 
ATOM      7  H4  UNL     1       2.045   1.566   0.391  1.00  0.00     0.191 HD
HETATM    8  C3  UNL     1       0.724   0.057  -0.064  1.00  0.00     0.156 A 
HETATM    9  N6  UNL     1      -0.546  -0.396  -0.028  1.00  0.00    -0.325 N 
ATOM     10  H6  UNL     1      -0.791  -1.308  -0.413  1.00  0.00     0.169 HD
ENDROOT
BRANCH   8  11
HETATM   11  C4  UNL     1       1.774  -0.818  -0.686  1.00  0.00     0.386 C 
BRANCH  11  12
HETATM   12  N5  UNL     1       2.632  -0.047  -1.565  1.00  0.00    -0.046 N 
ATOM     13  H53 UNL     1       2.095   0.457  -2.270  1.00  0.00     0.277 HD
ATOM     14  H52 UNL     1       3.044   0.753  -1.084  1.00  0.00     0.277 HD
ATOM     15  H51 UNL     1       3.345  -0.641  -1.987  1.00  0.00     0.277 HD
ENDBRANCH  11  12
BRANCH  11  16
HETATM   16  O2  UNL     1       2.531  -1.463   0.271  1.00  0.00    -0.364 OA
ATOM     17  H2  UNL     1       3.195  -2.017  -0.122  1.00  0.00     0.212 HD
ENDBRANCH  11  16
ENDBRANCH   8  11
BRANCH   5  18
HETATM   18  O1  UNL     1       0.528   3.298   1.514  1.00  0.00    -0.268 OA
ATOM     19  H1  UNL     1       1.425   3.609   1.484  1.00  0.00     0.247 HD
ENDBRANCH   5  18
BRANCH   1  20
HETATM   20  N1  UNL     1      -3.028  -1.273   0.047  1.00  0.00    -0.344 N 
ATOM     21  H12 UNL     1      -2.294  -1.846  -0.370  1.00  0.00     0.176 HD
ATOM     22  H11 UNL     1      -3.992  -1.604   0.080  1.00  0.00     0.176 HD
ENDBRANCH   1  20
TORSDOF 5
