REMARK  5 active torsions:
REMARK  status: ('A' for Active; 'I' for Inactive)
REMARK    1  A    between atoms: N1_1  and  N2_4 
REMARK    2  A    between atoms: C1_6  and  C2_7 
REMARK    3  A    between atoms: C1_6  and  N6_20 
REMARK    4  A    between atoms: C4_14  and  C5_15 
REMARK    5  A    between atoms: N5_16  and  O2_18 
ROOT
HETATM    1  C2  UNL     1       0.590   0.764  -0.002  1.00  0.00     0.112 A 
HETATM    2  N3  UNL     1       1.381   1.877  -0.196  1.00  0.00    -0.303 N 
ATOM      3  H3  UNL     1       1.034   2.825  -0.342  1.00  0.00     0.171 HD
HETATM    4  C3  UNL     1       2.675   1.526  -0.164  1.00  0.00     0.325 A 
HETATM    5  O1  UNL     1       3.641   2.327  -0.311  1.00  0.00    -0.247 OA
HETATM    6  N4  UNL     1       2.759   0.206   0.047  1.00  0.00    -0.305 N 
ATOM      7  H4  UNL     1       3.618  -0.340   0.119  1.00  0.00     0.171 HD
HETATM    8  C4  UNL     1       1.471  -0.281   0.149  1.00  0.00     0.084 A 
ENDROOT
BRANCH   1   9
HETATM    9  C1  UNL     1      -0.844   0.841   0.012  1.00  0.00     0.170 C 
HETATM   10  N2  UNL     1      -1.513   1.927  -0.150  1.00  0.00    -0.289 N 
ATOM     11  H2  UNL     1      -2.515   1.744  -0.101  1.00  0.00     0.188 HD
BRANCH  10  12
HETATM   12  N1  UNL     1      -1.282   3.213  -0.362  1.00  0.00    -0.344 N 
ATOM     13  H12 UNL     1      -0.275   3.370  -0.407  1.00  0.00     0.176 HD
ATOM     14  H11 UNL     1      -1.813   4.075  -0.491  1.00  0.00     0.176 HD
ENDBRANCH  10  12
BRANCH   9  15
HETATM   15  N6  UNL     1      -1.744  -0.269   0.208  1.00  0.00    -0.248 N 
HETATM   16  C6  UNL     1      -2.265  -0.638   1.405  1.00  0.00     0.120 A 
HETATM   17  C7  UNL     1      -3.129  -1.697   1.193  1.00  0.00     0.038 A 
HETATM   18  C8  UNL     1      -3.102  -1.942  -0.161  1.00  0.00     0.109 A 
HETATM   19  N7  UNL     1      -2.239  -1.041  -0.721  1.00  0.00    -0.304 N 
ATOM     20  H7  UNL     1      -2.016  -0.981  -1.714  1.00  0.00     0.186 HD
ENDBRANCH   9  15
ENDBRANCH   1   9
BRANCH   8  21
HETATM   21  C5  UNL     1       1.158  -1.673   0.379  1.00  0.00     0.145 C 
HETATM   22  N5  UNL     1       2.022  -2.586   0.510  1.00  0.00    -0.278 N 
ATOM     23  H5  UNL     1       1.610  -3.506   0.666  1.00  0.00     0.193 HD
BRANCH  22  24
HETATM   24  O2  UNL     1       3.348  -2.608   0.489  1.00  0.00    -0.290 OA
ATOM     25  H2  UNL     1       3.997  -3.294   0.587  1.00  0.00     0.244 HD
ENDBRANCH  22  24
ENDBRANCH   8  21
TORSDOF 5
