REMARK  4 active torsions:
REMARK  status: ('A' for Active; 'I' for Inactive)
REMARK    1  A    between atoms: C5_11  and  N3_12 
REMARK    2  A    between atoms: N3_12  and  C6_14 
REMARK    3  A    between atoms: C6_14  and  C7_15 
REMARK       I    between atoms: C7_15  and  N4_17 
REMARK    4  A    between atoms: N4_17  and  N5_19 
ROOT
HETATM    1  N1  UNL     1       0.278  -2.109  -3.021  1.00  0.00    -0.191 NA
HETATM    2  C1  UNL     1       0.969  -1.618  -2.248  1.00  0.00     0.109 C 
HETATM    3  C2  UNL     1       1.848  -1.013  -1.301  1.00  0.00     0.122 A 
HETATM    4  S1  UNL     1       3.475  -1.466  -1.083  1.00  0.00    -0.015 SA
HETATM    5  C3  UNL     1       4.269  -0.561   0.122  1.00  0.00     0.292 A 
HETATM    6  O1  UNL     1       5.492  -0.725   0.458  1.00  0.00    -0.260 OA
HETATM    7  N2  UNL     1       3.505   0.371   0.721  1.00  0.00    -0.282 N 
ATOM      8  H2  UNL     1       3.949   0.932   1.448  1.00  0.00     0.172 HD
HETATM    9  C4  UNL     1       2.231   0.632   0.459  1.00  0.00     0.277 A 
HETATM   10  O2  UNL     1       1.683   1.565   1.147  1.00  0.00    -0.266 OA
HETATM   11  C5  UNL     1       1.427   0.024  -0.460  1.00  0.00     0.125 A 
ENDROOT
BRANCH  11  12
HETATM   12  N3  UNL     1       0.069   0.441  -0.605  1.00  0.00    -0.375 N 
ATOM     13  H3  UNL     1      -0.150   1.184  -1.269  1.00  0.00     0.160 HD
BRANCH  12  14
HETATM   14  C6  UNL     1      -1.006  -0.155   0.158  1.00  0.00     0.224 C 
BRANCH  14  15
HETATM   15  C7  UNL     1      -2.316   0.442  -0.167  1.00  0.00     0.253 C 
HETATM   16  O3  UNL     1      -2.381   1.354  -1.019  1.00  0.00    -0.270 OA
HETATM   17  N4  UNL     1      -3.505   0.012   0.460  1.00  0.00    -0.275 N 
ATOM     18  H4  UNL     1      -3.457  -0.732   1.156  1.00  0.00     0.189 HD
BRANCH  17  19
HETATM   19  N5  UNL     1      -4.743   0.576   0.154  1.00  0.00    -0.343 N 
ATOM     20  H52 UNL     1      -4.773   1.319  -0.544  1.00  0.00     0.176 HD
ATOM     21  H51 UNL     1      -5.602   0.265   0.607  1.00  0.00     0.176 HD
ENDBRANCH  17  19
ENDBRANCH  14  15
ENDBRANCH  12  14
ENDBRANCH  11  12
TORSDOF 4
