REMARK  6 active torsions:
REMARK  status: ('A' for Active; 'I' for Inactive)
REMARK    1  A    between atoms: C2_2  and  C3_4 
REMARK    2  A    between atoms: C8_10  and  N1_11 
REMARK    3  A    between atoms: C10_13  and  O2_14 
REMARK    4  A    between atoms: O2_14  and  C11_15 
REMARK    5  A    between atoms: C15_19  and  C16_20 
REMARK    6  A    between atoms: C19_23  and  C20_24 
ROOT
HETATM    1  C11 UNL     1       0.564  -1.120   0.015  1.00  0.00     0.072 A 
HETATM    2  C12 UNL     1       0.772  -2.228   0.801  1.00  0.00     0.037 A 
HETATM    3  C13 UNL     1       2.024  -2.592   1.304  1.00  0.00     0.003 A 
HETATM    4  C14 UNL     1       3.113  -1.819   1.009  1.00  0.00     0.010 A 
HETATM    5  C15 UNL     1       2.945  -0.687   0.215  1.00  0.00    -0.028 A 
HETATM    6  C22 UNL     1       1.708  -0.349  -0.265  1.00  0.00     0.046 A 
ENDROOT
BRANCH   5   7
HETATM    7  C16 UNL     1       4.187   0.081  -0.043  1.00  0.00     0.060 C 
HETATM    8  C17 UNL     1       4.036   1.268  -0.924  1.00  0.00     0.044 C 
HETATM    9  C18 UNL     1       4.779   0.528   1.306  1.00  0.00     0.077 C 
HETATM   10  C19 UNL     1       6.120   1.205   1.026  1.00  0.00     0.242 C 
HETATM   11  O3  UNL     1       7.003   0.169   0.587  1.00  0.00    -0.308 OA
HETATM   12  C21 UNL     1       6.528  -0.620  -0.469  1.00  0.00     0.214 C 
HETATM   13  N2  UNL     1       7.379  -1.157  -1.313  1.00  0.00    -0.365 N 
HETATM   14  N3  UNL     1       5.141  -0.839  -0.627  1.00  0.00    -0.344 N 
ATOM     15  H22 UNL     1       8.380  -0.999  -1.199  1.00  0.00     0.159 HD
ATOM     16  H21 UNL     1       7.033  -1.731  -2.082  1.00  0.00     0.159 HD
ATOM     17  H3  UNL     1       4.811  -1.647  -1.154  1.00  0.00     0.164 HD
BRANCH  10  18
HETATM   18  C20 UNL     1       6.594   1.790   2.340  1.00  0.00     0.413 C 
HETATM   19  F1  UNL     1       5.652   2.686   2.760  1.00  0.00    -0.168 F 
HETATM   20  F2  UNL     1       6.638   0.759   3.251  1.00  0.00    -0.168 F 
HETATM   21  F3  UNL     1       7.847   2.376   2.210  1.00  0.00    -0.168 F 
ENDBRANCH  10  18
ENDBRANCH   5   7
BRANCH   1  22
HETATM   22  O2  UNL     1      -0.661  -0.772  -0.476  1.00  0.00    -0.314 OA
BRANCH  22  23
HETATM   23  C10 UNL     1      -1.800  -1.559  -0.286  1.00  0.00     0.394 A 
HETATM   24  N1  UNL     1      -3.135  -1.112  -0.477  1.00  0.00     0.129 N 
HETATM   25  C9  UNL     1      -2.567  -1.790  -1.581  1.00  0.00     0.341 A 
BRANCH  24  26
HETATM   26  C8  UNL     1      -3.619   0.182  -0.503  1.00  0.00     0.243 C 
HETATM   27  C3  UNL     1      -5.034   0.305   0.050  1.00  0.00     0.056 C 
HETATM   28  C4  UNL     1      -5.162  -0.705   1.206  1.00  0.00     0.026 C 
HETATM   29  C5  UNL     1      -6.128  -0.012  -0.897  1.00  0.00     0.092 C 
HETATM   30  S1  UNL     1      -5.511  -0.650  -2.478  1.00  0.00    -0.168 SA
HETATM   31  C6  UNL     1      -4.181   0.489  -2.977  1.00  0.00     0.076 C 
HETATM   32  C7  UNL     1      -3.479   0.979  -1.764  1.00  0.00     0.047 C 
BRANCH  27  33
HETATM   33  C2  UNL     1      -5.189   1.636   0.681  1.00  0.00     0.134 C 
HETATM   34  C1  UNL     1      -6.530   1.915   1.312  1.00  0.00     0.091 C 
HETATM   35  O1  UNL     1      -4.361   2.508   0.742  1.00  0.00    -0.297 OA
ENDBRANCH  27  33
ENDBRANCH  24  26
ENDBRANCH  22  23
ENDBRANCH   1  22
TORSDOF 6
