REMARK  8 active torsions:
REMARK  status: ('A' for Active; 'I' for Inactive)
REMARK    1  A    between atoms: C2_2  and  N1_3 
REMARK    2  A    between atoms: N1_3  and  C3_4 
REMARK    3  A    between atoms: N1_3  and  C5_6 
REMARK    4  A    between atoms: C5_6  and  C6_7 
REMARK    5  A    between atoms: C6_7  and  N2_8 
REMARK    6  A    between atoms: N2_8  and  C7_9 
REMARK    7  A    between atoms: C8_12  and  N4_13 
REMARK       I    between atoms: N8_26  and  C14_27 
REMARK    8  A    between atoms: C14_27  and  C15_29 
ROOT
HETATM    1  C7  UNL     1      -2.284  -1.405   0.551  1.00  0.00     0.223 A 
HETATM    2  N3  UNL     1      -2.876  -2.641   0.302  1.00  0.00    -0.162 N 
ATOM      3  H3  UNL     1      -3.889  -2.656   0.187  1.00  0.00     0.187 HD
HETATM    4  C8  UNL     1      -2.240  -3.797   0.201  1.00  0.00     0.679 A 
HETATM    5  N5  UNL     1      -0.925  -3.800   0.347  1.00  0.00    -0.174 N 
ATOM      6  H5  UNL     1      -0.422  -4.684   0.273  1.00  0.00     0.186 HD
HETATM    7  C9  UNL     1      -0.239  -2.687   0.587  1.00  0.00     0.154 A 
HETATM    8  N6  UNL     1       1.069  -2.435   0.784  1.00  0.00    -0.328 N 
ATOM      9  H6  UNL     1       1.809  -3.137   0.767  1.00  0.00     0.169 HD
HETATM   10  C10 UNL     1       1.255  -1.140   1.003  1.00  0.00     0.104 A 
HETATM   11  N7  UNL     1       0.023  -0.508   0.947  1.00  0.00    -0.327 N 
HETATM   12  C11 UNL     1      -0.889  -1.457   0.696  1.00  0.00     0.140 A 
HETATM   13  C12 UNL     1       0.067   0.915   1.126  1.00  0.00     0.151 C 
HETATM   14  C13 UNL     1       1.164   1.508   0.207  1.00  0.00     0.146 C 
HETATM   15  N8  UNL     1       2.432   0.876   0.498  1.00  0.00    -0.343 N 
HETATM   16  C14 UNL     1       3.630   1.423  -0.002  1.00  0.00     0.228 C 
HETATM   17  O1  UNL     1       3.568   2.481  -0.691  1.00  0.00    -0.273 OA
HETATM   18  C21 UNL     1       2.422  -0.287   1.324  1.00  0.00     0.202 C 
ENDROOT
BRANCH  16  19
HETATM   19  C15 UNL     1       4.928   0.821   0.242  1.00  0.00     0.112 C 
HETATM   20  C16 UNL     1       5.190  -0.313  -0.800  1.00  0.00     0.100 C 
HETATM   21  C17 UNL     1       6.526  -0.153  -1.243  1.00  0.00    -0.156 C 
HETATM   22  C18 UNL     1       7.861   0.181  -1.511  1.00  0.00     0.254 C 
HETATM   23  O2  UNL     1       8.224   1.364  -0.785  1.00  0.00    -0.353 OA
HETATM   24  C19 UNL     1       7.397   1.651   0.289  1.00  0.00     0.132 C 
HETATM   25  C20 UNL     1       5.983   1.914   0.168  1.00  0.00     0.012 C 
ENDBRANCH  16  19
BRANCH   1  26
HETATM   26  N2  UNL     1      -2.959  -0.428   0.644  1.00  0.00    -0.396 NA
BRANCH  26  27
HETATM   27  C6  UNL     1      -3.466   0.779   0.789  1.00  0.00     0.202 C 
BRANCH  27  28
HETATM   28  C5  UNL     1      -4.934   1.093   0.872  1.00  0.00     0.121 C 
BRANCH  28  29
HETATM   29  N1  UNL     1      -5.757   0.773  -0.220  1.00  0.00    -0.369 N 
BRANCH  29  30
HETATM   30  C2  UNL     1      -6.076  -0.560  -0.522  1.00  0.00     0.059 C 
HETATM   31  C1  UNL     1      -6.619  -1.309   0.665  1.00  0.00     0.055 C 
ENDBRANCH  29  30
BRANCH  29  32
HETATM   32  C3  UNL     1      -5.374   1.535  -1.419  1.00  0.00     0.123 C 
HETATM   33  C4  UNL     1      -6.603   1.724  -2.280  1.00  0.00     0.027 C 
ENDBRANCH  29  32
ENDBRANCH  28  29
ENDBRANCH  27  28
ENDBRANCH  26  27
ENDBRANCH   1  26
BRANCH   4  34
HETATM   34  N4  UNL     1      -2.918  -4.894  -0.035  1.00  0.00    -0.234 N 
ATOM     35  H42 UNL     1      -3.932  -4.892  -0.148  1.00  0.00     0.174 HD
ATOM     36  H41 UNL     1      -2.428  -5.785  -0.113  1.00  0.00     0.174 HD
ENDBRANCH   4  34
TORSDOF 8
