REMARK  8 active torsions:
REMARK  status: ('A' for Active; 'I' for Inactive)
REMARK    1  A    between atoms: C2_2  and  C3_3 
REMARK    2  A    between atoms: C3_3  and  O1_5 
REMARK    3  A    between atoms: O1_5  and  C5_6 
REMARK       I    between atoms: C5_6  and  N1_8 
REMARK    4  A    between atoms: N1_8  and  C6_10 
REMARK    5  A    between atoms: C6_10  and  C7_11 
REMARK    6  A    between atoms: C6_10  and  C18_31 
REMARK       I    between atoms: C7_11  and  N2_13 
REMARK    7  A    between atoms: C12_19  and  C13_20 
REMARK    8  A    between atoms: C13_20  and  N4_24 
ROOT
HETATM    1  C7  UNL     1       0.345  -0.284   0.142  1.00  0.00     0.244 C 
HETATM    2  O3  UNL     1       0.475   0.760   0.857  1.00  0.00    -0.271 OA
HETATM    3  N2  UNL     1      -0.877  -0.442  -0.583  1.00  0.00    -0.328 N 
HETATM    4  C8  UNL     1      -1.218  -1.548  -1.445  1.00  0.00     0.201 C 
HETATM    5  S1  UNL     1      -2.195  -0.689  -2.753  1.00  0.00    -0.137 SA
HETATM    6  C9  UNL     1      -2.038   0.971  -1.993  1.00  0.00     0.030 C 
HETATM    7  C10 UNL     1      -3.055   1.935  -2.391  1.00  0.00     0.029 C 
HETATM    8  C11 UNL     1      -0.665   1.560  -2.351  1.00  0.00     0.029 C 
HETATM    9  C12 UNL     1      -1.945   0.548  -0.569  1.00  0.00     0.173 C 
ENDROOT
BRANCH   1  10
HETATM   10  C6  UNL     1       1.474  -1.224   0.128  1.00  0.00     0.182 C 
BRANCH  10  11
HETATM   11  N1  UNL     1       2.586  -0.605   0.814  1.00  0.00    -0.323 N 
HETATM   12  C5  UNL     1       3.851  -0.379   0.273  1.00  0.00     0.361 C 
HETATM   13  O2  UNL     1       4.082  -0.728  -0.908  1.00  0.00    -0.238 OA
ATOM     14  H1  UNL     1       2.432  -0.308   1.777  1.00  0.00     0.165 HD
BRANCH  12  15
HETATM   15  O1  UNL     1       4.886   0.215   0.962  1.00  0.00    -0.299 OA
BRANCH  15  16
HETATM   16  C3  UNL     1       6.116   0.398   0.334  1.00  0.00     0.129 C 
HETATM   17  C4  UNL     1       7.254  -0.309   1.035  1.00  0.00     0.040 C 
BRANCH  16  18
HETATM   18  C2  UNL     1       6.476   1.870   0.233  1.00  0.00     0.028 C 
HETATM   19  C1  UNL     1       6.681   2.482   1.596  1.00  0.00     0.007 C 
ENDBRANCH  16  18
ENDBRANCH  15  16
ENDBRANCH  12  15
ENDBRANCH  10  11
BRANCH  10  20
HETATM   20  C18 UNL     1       1.077  -2.523   0.751  1.00  0.00     0.009 C 
HETATM   21  C19 UNL     1       2.236  -3.534   0.711  1.00  0.00     0.012 C 
HETATM   22  C20 UNL     1       0.637  -2.392   2.189  1.00  0.00     0.012 C 
ENDBRANCH  10  20
ENDBRANCH   1  10
BRANCH   9  23
HETATM   23  C13 UNL     1      -3.109   0.014   0.090  1.00  0.00     0.098 C 
HETATM   24  N3  UNL     1      -2.956  -1.013   0.884  1.00  0.00    -0.387 N 
ATOM     25  H32 UNL     1      -1.989  -1.337   0.911  1.00  0.00     0.157 HD
ATOM     26  H31 UNL     1      -3.780  -1.391   1.351  1.00  0.00     0.157 HD
BRANCH  23  27
HETATM   27  N4  UNL     1      -4.446   0.462   0.053  1.00  0.00    -0.366 N 
HETATM   28  C14 UNL     1      -5.431  -0.294  -0.661  1.00  0.00     0.143 C 
HETATM   29  C15 UNL     1      -6.718  -0.435   0.133  1.00  0.00     0.133 C 
HETATM   30  N5  UNL     1      -7.133   0.844   0.624  1.00  0.00    -0.418 N 
HETATM   31  C16 UNL     1      -6.169   1.535   1.424  1.00  0.00     0.133 C 
ATOM     32  H5  UNL     1      -8.052   1.235   0.418  1.00  0.00     0.153 HD
HETATM   33  C17 UNL     1      -4.823   1.660   0.739  1.00  0.00     0.143 C 
ENDBRANCH  23  27
ENDBRANCH   9  23
TORSDOF 8
