REMARK  5 active torsions:
REMARK  status: ('A' for Active; 'I' for Inactive)
REMARK    1  A    between atoms: N2_7  and  S1_9 
REMARK    2  A    between atoms: S1_9  and  C4_12 
REMARK    3  A    between atoms: C6_16  and  S2_17 
REMARK    4  A    between atoms: S2_17  and  C7_18 
REMARK    5  A    between atoms: C11_25  and  C12_26 
ROOT
HETATM    1  S1  UNL     1      -0.052   1.870   0.652  1.00  0.00     0.271 S 
HETATM    2  O2  UNL     1       0.041   3.170  -0.109  1.00  0.00    -0.200 OA
HETATM    3  O3  UNL     1      -0.164   2.218   2.123  1.00  0.00    -0.200 OA
ENDROOT
BRANCH   1   4
HETATM    4  N2  UNL     1      -1.433   1.020   0.137  1.00  0.00    -0.258 N 
HETATM    5  C3  UNL     1      -2.427   0.732   0.911  1.00  0.00     0.189 A 
HETATM    6  O1  UNL     1      -2.435   1.092   2.199  1.00  0.00    -0.218 OA
HETATM    7  C11 UNL     1      -3.598   0.064   0.660  1.00  0.00     0.027 A 
HETATM    8  N1  UNL     1      -3.512   0.703   2.766  1.00  0.00    -0.263 N 
HETATM    9  C2  UNL     1      -4.289   0.059   1.887  1.00  0.00     0.040 A 
ATOM     10  H1  UNL     1      -3.746   0.860   3.746  1.00  0.00     0.194 HD
HETATM   11  C1  UNL     1      -5.611  -0.567   2.058  1.00  0.00     0.071 C 
ATOM     12  H2  UNL     1      -1.479   0.721  -0.837  1.00  0.00     0.181 HD
BRANCH   7  13
HETATM   13  C12 UNL     1      -4.052  -0.525  -0.602  1.00  0.00    -0.018 C 
HETATM   14  C13 UNL     1      -5.358   0.075  -1.089  1.00  0.00     0.019 C 
HETATM   15  C14 UNL     1      -4.225  -2.039  -0.483  1.00  0.00     0.019 C 
HETATM   16  C15 UNL     1      -3.047  -0.278  -1.697  1.00  0.00     0.019 C 
ENDBRANCH   7  13
ENDBRANCH   1   4
BRANCH   1  17
HETATM   17  C4  UNL     1       1.418   0.980   0.449  1.00  0.00     0.163 A 
HETATM   18  C5  UNL     1       2.420   1.471  -0.350  1.00  0.00     0.121 A 
HETATM   19  N3  UNL     1       3.582   0.772  -0.514  1.00  0.00    -0.345 N 
HETATM   20  C6  UNL     1       3.788  -0.411   0.094  1.00  0.00     0.147 A 
ATOM     21  H3  UNL     1       4.313   1.157  -1.113  1.00  0.00     0.167 HD
HETATM   22  N4  UNL     1       2.790  -0.868   0.870  1.00  0.00    -0.302 N 
HETATM   23  C10 UNL     1       1.641  -0.228   1.063  1.00  0.00     0.272 A 
ATOM     24  H4  UNL     1       2.923  -1.763   1.341  1.00  0.00     0.171 HD
HETATM   25  O4  UNL     1       0.708  -0.670   1.798  1.00  0.00    -0.266 OA
BRANCH  20  26
HETATM   26  S2  UNL     1       5.312  -1.318  -0.128  1.00  0.00    -0.090 SA
BRANCH  26  27
HETATM   27  C7  UNL     1       6.452  -0.461  -1.216  1.00  0.00     0.047 C 
HETATM   28  C8  UNL     1       6.906   0.824  -0.548  1.00  0.00     0.021 C 
HETATM   29  C9  UNL     1       7.686  -1.313  -1.444  1.00  0.00     0.021 C 
ENDBRANCH  26  27
ENDBRANCH  20  26
ENDBRANCH   1  17
TORSDOF 5
