REMARK  3 active torsions:
REMARK  status: ('A' for Active; 'I' for Inactive)
REMARK    1  A    between atoms: N1_1  and  C1_5 
REMARK    2  A    between atoms: C1_5  and  C2_6 
REMARK    3  A    between atoms: N2_9  and  C5_10 
ROOT
HETATM    1  C2  UNL     1       1.946   0.260  -0.644  1.00  0.00     0.172 C 
HETATM    2  C3  UNL     1       1.921   0.244   0.879  1.00  0.00     0.052 C 
HETATM    3  C4  UNL     1       0.523   0.791   1.093  1.00  0.00     0.123 C 
HETATM    4  N2  UNL     1      -0.157   0.417  -0.088  1.00  0.00    -0.190 NA
HETATM    5  O1  UNL     1       0.671  -0.240  -0.903  1.00  0.00    -0.296 OA
ENDROOT
BRANCH   4   6
HETATM    6  C5  UNL     1      -1.391  -0.283   0.109  1.00  0.00     0.113 C 
HETATM    7  C6  UNL     1      -2.437   0.505   0.823  1.00  0.00     0.051 C 
HETATM    8  C7  UNL     1      -3.701  -0.273   0.429  1.00  0.00     0.234 C 
HETATM    9  N3  UNL     1      -3.495  -0.422  -0.992  1.00  0.00    -0.073 N 
HETATM   10  C8  UNL     1      -2.076  -0.566  -1.221  1.00  0.00     0.254 C 
ATOM     11  H32 UNL     1      -4.040  -1.186  -1.393  1.00  0.00     0.277 HD
ATOM     12  H31 UNL     1      -3.908   0.338  -1.533  1.00  0.00     0.277 HD
ENDBRANCH   4   6
BRANCH   1  13
HETATM   13  C1  UNL     1       3.036  -0.597  -1.205  1.00  0.00     0.263 C 
BRANCH  13  14
HETATM   14  N1  UNL     1       4.308   0.016  -0.881  1.00  0.00    -0.077 N 
ATOM     15  H13 UNL     1       4.369   0.985  -1.195  1.00  0.00     0.274 HD
ATOM     16  H12 UNL     1       4.418   0.188   0.118  1.00  0.00     0.274 HD
ATOM     17  H11 UNL     1       5.051  -0.568  -1.264  1.00  0.00     0.274 HD
ENDBRANCH  13  14
ENDBRANCH   1  13
TORSDOF 3
