REMARK  6 active torsions:
REMARK  status: ('A' for Active; 'I' for Inactive)
REMARK    1  A    between atoms: C2_3  and  C3_4 
REMARK    2  A    between atoms: C2_3  and  N5_12 
REMARK    3  A    between atoms: C3_4  and  N2_5 
REMARK    4  A    between atoms: C7_14  and  C8_15 
REMARK    5  A    between atoms: C8_15  and  N6_16 
REMARK    6  A    between atoms: N6_16  and  C9_18 
ROOT
HETATM    1  N1  UNL     1      -2.161   0.584   2.472  1.00  0.00    -0.195 NA
HETATM    2  C1  UNL     1      -2.226   0.522   1.300  1.00  0.00     0.087 C 
HETATM    3  C2  UNL     1      -2.321   0.463  -0.157  1.00  0.00     0.221 C 
ENDROOT
BRANCH   3   4
HETATM    4  C3  UNL     1      -3.300  -0.607  -0.584  1.00  0.00     0.190 C 
BRANCH   4   5
HETATM    5  N2  UNL     1      -4.619  -0.295  -0.030  1.00  0.00    -0.284 N 
HETATM    6  C4  UNL     1      -5.518   0.455  -0.679  1.00  0.00     0.201 A 
HETATM    7  N3  UNL     1      -6.597   0.532   0.112  1.00  0.00    -0.346 N 
HETATM    8  C5  UNL     1      -6.337  -0.167   1.222  1.00  0.00     0.198 A 
ATOM      9  H3  UNL     1      -7.461   1.033  -0.095  1.00  0.00     0.167 HD
HETATM   10  N4  UNL     1      -5.109  -0.682   1.136  1.00  0.00    -0.293 N 
ATOM     11  H4  UNL     1      -4.640  -1.261   1.833  1.00  0.00     0.188 HD
ENDBRANCH   4   5
ENDBRANCH   3   4
BRANCH   3  12
HETATM   12  N5  UNL     1      -1.020   0.166  -0.715  1.00  0.00    -0.287 N 
HETATM   13  C6  UNL     1      -0.053  -0.332   0.095  1.00  0.00     0.125 A 
HETATM   14  C7  UNL     1       1.194  -0.620  -0.423  1.00  0.00     0.059 A 
HETATM   15  N10 UNL     1       1.387  -0.386  -1.736  1.00  0.00    -0.298 N 
HETATM   16  N11 UNL     1       0.415   0.104  -2.505  1.00  0.00    -0.251 N 
ATOM     17  H10 UNL     1       2.297  -0.588  -2.150  1.00  0.00     0.187 HD
HETATM   18  C11 UNL     1      -0.809   0.394  -2.025  1.00  0.00     0.342 A 
ATOM     19  H11 UNL     1       0.605   0.265  -3.494  1.00  0.00     0.191 HD
HETATM   20  O2  UNL     1      -1.731   0.860  -2.762  1.00  0.00    -0.245 OA
BRANCH  14  21
HETATM   21  C8  UNL     1       2.288  -1.167   0.422  1.00  0.00     0.198 C 
BRANCH  21  22
HETATM   22  N6  UNL     1       3.062  -0.095   0.988  1.00  0.00    -0.219 N 
ATOM     23  H6  UNL     1       2.609   0.509   1.674  1.00  0.00     0.178 HD
BRANCH  22  24
HETATM   24  C9  UNL     1       4.291   0.153   0.685  1.00  0.00     0.697 A 
HETATM   25  N7  UNL     1       5.102  -0.480  -0.173  1.00  0.00    -0.128 N 
HETATM   26  N8  UNL     1       6.269   0.138  -0.145  1.00  0.00    -0.237 N 
ATOM     27  H7  UNL     1       4.862  -1.291  -0.743  1.00  0.00     0.205 HD
HETATM   28  C10 UNL     1       6.190   1.158   0.730  1.00  0.00     0.353 A 
ATOM     29  H8  UNL     1       7.091  -0.115  -0.694  1.00  0.00     0.192 HD
HETATM   30  O1  UNL     1       7.147   1.959   0.996  1.00  0.00    -0.245 OA
HETATM   31  N9  UNL     1       4.962   1.173   1.250  1.00  0.00    -0.139 N 
ATOM     32  H9  UNL     1       4.602   1.830   1.942  1.00  0.00     0.189 HD
ENDBRANCH  22  24
ENDBRANCH  21  22
ENDBRANCH  14  21
ENDBRANCH   3  12
TORSDOF 6
