REMARK  7 active torsions:
REMARK  status: ('A' for Active; 'I' for Inactive)
REMARK    1  A    between atoms: C3_4  and  N2_5 
REMARK    2  A    between atoms: C4_6  and  C5_7 
REMARK    3  A    between atoms: C5_7  and  N3_8 
REMARK    4  A    between atoms: C7_14  and  C8_15 
REMARK    5  A    between atoms: C8_15  and  O3_16 
REMARK    6  A    between atoms: C9_18  and  S1_19 
REMARK    7  A    between atoms: C11_27  and  N7_28 
ROOT
HETATM    1  N1  UNL     1       3.120   0.395  -2.219  1.00  0.00    -0.191 NA
HETATM    2  C1  UNL     1       2.790   0.204  -1.138  1.00  0.00     0.107 C 
HETATM    3  C2  UNL     1       2.375  -0.001   0.210  1.00  0.00     0.132 A 
HETATM    4  C3  UNL     1       1.070  -0.072   0.574  1.00  0.00     0.136 A 
HETATM    5  N5  UNL     1       0.847  -0.256   1.915  1.00  0.00    -0.337 N 
ATOM      6  H5  UNL     1      -0.115  -0.317   2.249  1.00  0.00     0.168 HD
HETATM    7  C10 UNL     1       1.850  -0.359   2.805  1.00  0.00     0.183 A 
HETATM    8  N6  UNL     1       3.142  -0.288   2.442  1.00  0.00    -0.338 N 
ATOM      9  H6  UNL     1       3.888  -0.368   3.133  1.00  0.00     0.168 HD
HETATM   10  C11 UNL     1       3.416  -0.110   1.148  1.00  0.00     0.124 A 
ENDROOT
BRANCH   4  11
HETATM   11  N2  UNL     1      -0.080   0.004  -0.221  1.00  0.00    -0.299 N 
HETATM   12  C4  UNL     1      -0.670   1.291  -0.514  1.00  0.00     0.106 C 
HETATM   13  N4  UNL     1      -1.969   1.310  -0.604  1.00  0.00    -0.377 N 
HETATM   14  C6  UNL     1      -2.867   0.220  -0.448  1.00  0.00     0.130 C 
ATOM     15  H4  UNL     1      -2.392   2.215  -0.811  1.00  0.00     0.160 HD
HETATM   16  C7  UNL     1      -2.252  -1.105  -0.170  1.00  0.00     0.066 C 
HETATM   17  C9  UNL     1      -0.826  -1.133  -0.713  1.00  0.00     0.238 C 
BRANCH  12  18
HETATM   18  C5  UNL     1       0.098   2.531  -0.696  1.00  0.00     0.277 C 
BRANCH  18  19
HETATM   19  N3  UNL     1       0.425   2.894  -2.027  1.00  0.00    -0.148 N 
HETATM   20  O1  UNL     1       0.076   2.216  -2.997  1.00  0.00    -0.536 OA
HETATM   21  O2  UNL     1       1.151   4.033  -2.255  1.00  0.00    -0.536 OA
ENDBRANCH  18  19
ENDBRANCH  12  18
BRANCH  16  22
HETATM   22  C8  UNL     1      -2.409  -1.580   1.225  1.00  0.00     0.173 C 
BRANCH  22  23
HETATM   23  O3  UNL     1      -3.812  -1.675   1.440  1.00  0.00    -0.400 OA
ATOM     24  H3  UNL     1      -3.913  -1.979   2.334  1.00  0.00     0.209 HD
ENDBRANCH  22  23
ENDBRANCH  16  22
BRANCH  17  25
HETATM   25  S1  UNL     1      -0.992  -1.247  -2.454  1.00  0.00     0.275 S 
HETATM   26  O4  UNL     1       0.404  -1.376  -3.321  1.00  0.00    -0.210 OA
HETATM   27  O5  UNL     1      -2.037  -2.464  -2.926  1.00  0.00    -0.210 OA
ENDBRANCH  17  25
ENDBRANCH   4  11
BRANCH  10  28
HETATM   28  N7  UNL     1       4.646  -0.043   0.805  1.00  0.00    -0.384 N 
ATOM     29  H72 UNL     1       4.855   0.093  -0.184  1.00  0.00     0.157 HD
ATOM     30  H71 UNL     1       5.401  -0.122   1.486  1.00  0.00     0.157 HD
ENDBRANCH  10  28
TORSDOF 7
