REMARK  6 active torsions:
REMARK  status: ('A' for Active; 'I' for Inactive)
REMARK    1  A    between atoms: S1_2  and  N1_3 
REMARK    2  A    between atoms: N1_3  and  N2_5 
REMARK    3  A    between atoms: N2_5  and  C2_7 
REMARK    4  A    between atoms: N4_12  and  C4_13 
REMARK    5  A    between atoms: C6_19  and  N7_20 
REMARK    6  A    between atoms: N7_20  and  N8_22 
ROOT
HETATM    1  C2  UNL     1       2.325   1.075  -0.263  1.00  0.00     0.717 A 
HETATM    2  N3  UNL     1       1.776   2.323  -0.378  1.00  0.00    -0.136 N 
ATOM      3  H3  UNL     1       2.253   3.172  -0.682  1.00  0.00     0.189 HD
HETATM    4  C3  UNL     1       0.507   2.216  -0.018  1.00  0.00     0.375 A 
HETATM    5  O1  UNL     1      -0.339   3.170   0.007  1.00  0.00    -0.244 OA
HETATM    6  N4  UNL     1       0.244   0.923   0.324  1.00  0.00    -0.016 N 
HETATM    7  N10 UNL     1       1.364   0.261   0.164  1.00  0.00    -0.105 N 
ATOM      8  H10 UNL     1       1.482  -0.736   0.342  1.00  0.00     0.207 HD
ENDROOT
BRANCH   6   9
HETATM    9  C4  UNL     1      -1.049   0.525   0.759  1.00  0.00     0.723 A 
HETATM   10  N5  UNL     1      -1.345   0.575   2.076  1.00  0.00    -0.185 N 
HETATM   11  C5  UNL     1      -2.571   0.226   2.538  1.00  0.00     0.215 A 
ATOM     12  H5  UNL     1      -0.631   0.882   2.737  1.00  0.00     0.185 HD
HETATM   13  N6  UNL     1      -3.536  -0.182   1.703  1.00  0.00    -0.185 N 
HETATM   14  C6  UNL     1      -3.265  -0.241   0.378  1.00  0.00     0.713 A 
ATOM     15  H6  UNL     1      -4.456  -0.443   2.058  1.00  0.00     0.185 HD
HETATM   16  N9  UNL     1      -2.023   0.115  -0.067  1.00  0.00    -0.019 N 
ATOM     17  H9  UNL     1      -1.829   0.067  -1.067  1.00  0.00     0.203 HD
BRANCH  14  18
HETATM   18  N7  UNL     1      -4.248  -0.642  -0.551  1.00  0.00    -0.134 N 
HETATM   19  C7  UNL     1      -5.579  -0.090  -0.516  1.00  0.00     0.197 C 
BRANCH  18  20
HETATM   20  N8  UNL     1      -3.949  -1.594  -1.512  1.00  0.00    -0.329 N 
ATOM     21  H82 UNL     1      -3.007  -1.985  -1.537  1.00  0.00     0.177 HD
ATOM     22  H81 UNL     1      -4.660  -1.884  -2.184  1.00  0.00     0.177 HD
ENDBRANCH  18  20
ENDBRANCH  14  18
ENDBRANCH   6   9
BRANCH   1  23
HETATM   23  N2  UNL     1       3.551   0.889  -0.552  1.00  0.00    -0.125 N 
ATOM     24  H2  UNL     1       4.056   1.719  -0.862  1.00  0.00     0.206 HD
BRANCH  23  25
HETATM   25  N1  UNL     1       4.292  -0.262  -0.508  1.00  0.00    -0.260 N 
ATOM     26  H1  UNL     1       4.216  -0.957  -1.250  1.00  0.00     0.195 HD
BRANCH  25  27
HETATM   27  S1  UNL     1       5.381  -0.520   0.856  1.00  0.00    -0.043 SA
HETATM   28  C1  UNL     1       6.843  -1.483   0.364  1.00  0.00     0.116 C 
ENDBRANCH  25  27
ENDBRANCH  23  25
ENDBRANCH   1  23
TORSDOF 6
