REMARK  22 active torsions:
REMARK  status: ('A' for Active; 'I' for Inactive)
REMARK       I    between atoms: N1_2  and  C2_3 
REMARK    1  A    between atoms: N1_2  and  C4_10 
REMARK    2  A    between atoms: C2_3  and  C3_5 
REMARK    3  A    between atoms: C3_5  and  N2_6 
REMARK    4  A    between atoms: C5_11  and  O2_12 
REMARK    5  A    between atoms: O2_12  and  C6_13 
REMARK    6  A    between atoms: C6_13  and  C7_14 
REMARK    7  A    between atoms: C7_14  and  C8_15 
REMARK    8  A    between atoms: C8_15  and  C9_16 
REMARK    9  A    between atoms: C9_16  and  C10_17 
REMARK   10  A    between atoms: C10_17  and  C11_18 
REMARK   11  A    between atoms: C11_18  and  C12_19 
REMARK   12  A    between atoms: C12_19  and  C13_20 
REMARK   13  A    between atoms: C13_20  and  C14_21 
REMARK   14  A    between atoms: C14_21  and  C15_22 
REMARK   15  A    between atoms: C15_22  and  C16_23 
REMARK   16  A    between atoms: C16_23  and  C17_24 
REMARK   17  A    between atoms: C18_27  and  O5_28 
REMARK   18  A    between atoms: C19_30  and  C20_31 
REMARK   19  A    between atoms: C20_31  and  O6_32 
REMARK   20  A    between atoms: C20_31  and  N3_34 
REMARK   21  A    between atoms: C22_36  and  C23_37 
REMARK   22  A    between atoms: C25_41  and  C26_42 
ROOT
HETATM    1  C4  UNL     1      -2.284  -0.961   0.032  1.00  0.00     0.132 C 
HETATM    2  C5  UNL     1      -1.147  -0.784   0.965  1.00  0.00     0.174 C 
HETATM    3  C18 UNL     1      -1.938  -1.426   2.055  1.00  0.00     0.163 C 
HETATM    4  C19 UNL     1      -3.032  -1.753   1.035  1.00  0.00     0.117 C 
ENDROOT
BRANCH   2   5
HETATM    5  O2  UNL     1       0.022  -1.496   0.616  1.00  0.00    -0.381 OA
BRANCH   5   6
HETATM    6  C6  UNL     1       1.097  -0.567   0.728  1.00  0.00     0.168 C 
BRANCH   6   7
HETATM    7  C7  UNL     1       2.343  -1.296   0.350  1.00  0.00     0.026 C 
BRANCH   7   8
HETATM    8  C8  UNL     1       3.536  -0.323   0.408  1.00  0.00     0.002 C 
BRANCH   8   9
HETATM    9  C9  UNL     1       3.728   0.222   1.770  1.00  0.00     0.000 C 
BRANCH   9  10
HETATM   10  C10 UNL     1       4.814   1.172   2.015  1.00  0.00     0.000 C 
BRANCH  10  11
HETATM   11  C11 UNL     1       6.198   0.759   1.849  1.00  0.00     0.000 C 
BRANCH  11  12
HETATM   12  C12 UNL     1       6.752   0.330   0.536  1.00  0.00     0.000 C 
BRANCH  12  13
HETATM   13  C13 UNL     1       6.632   1.362  -0.510  1.00  0.00     0.000 C 
BRANCH  13  14
HETATM   14  C14 UNL     1       7.020   1.043  -1.894  1.00  0.00     0.001 C 
BRANCH  14  15
HETATM   15  C15 UNL     1       8.368   0.603  -2.219  1.00  0.00     0.010 C 
BRANCH  15  16
HETATM   16  C16 UNL     1       8.859  -0.720  -1.735  1.00  0.00     0.113 C 
BRANCH  16  17
HETATM   17  C17 UNL     1      10.279  -0.947  -2.217  1.00  0.00     0.172 C 
HETATM   18  O3  UNL     1      10.810  -0.059  -2.891  1.00  0.00    -0.648 OA
HETATM   19  O4  UNL     1      10.926  -2.104  -1.903  1.00  0.00    -0.648 OA
ENDBRANCH  16  17
ENDBRANCH  15  16
ENDBRANCH  14  15
ENDBRANCH  13  14
ENDBRANCH  12  13
ENDBRANCH  11  12
ENDBRANCH  10  11
ENDBRANCH   9  10
ENDBRANCH   8   9
ENDBRANCH   7   8
ENDBRANCH   6   7
ENDBRANCH   5   6
ENDBRANCH   2   5
BRANCH   1  20
HETATM   20  N1  UNL     1      -2.800   0.182  -0.620  1.00  0.00    -0.347 N 
HETATM   21  C1  UNL     1      -2.935   0.136  -2.088  1.00  0.00     0.153 C 
HETATM   22  C2  UNL     1      -3.204   1.351   0.046  1.00  0.00     0.245 C 
HETATM   23  O1  UNL     1      -3.047   1.438   1.321  1.00  0.00    -0.272 OA
BRANCH  22  24
HETATM   24  C3  UNL     1      -3.819   2.559  -0.551  1.00  0.00     0.332 C 
BRANCH  24  25
HETATM   25  N2  UNL     1      -4.031   2.555  -1.945  1.00  0.00    -0.071 N 
ATOM     26  H23 UNL     1      -3.152   2.353  -2.421  1.00  0.00     0.274 HD
ATOM     27  H22 UNL     1      -4.579   1.734  -2.202  1.00  0.00     0.274 HD
ATOM     28  H21 UNL     1      -4.455   3.387  -2.356  1.00  0.00     0.274 HD
ENDBRANCH  24  25
ENDBRANCH  22  24
ENDBRANCH   1  20
BRANCH   3  29
HETATM   29  O5  UNL     1      -1.288  -2.605   2.494  1.00  0.00    -0.392 OA
ATOM     30  H5  UNL     1      -1.792  -3.014   3.188  1.00  0.00     0.210 HD
ENDBRANCH   3  29
BRANCH   4  31
HETATM   31  C20 UNL     1      -4.347  -1.384   1.525  1.00  0.00     0.123 C 
BRANCH  31  32
HETATM   32  O6  UNL     1      -4.359  -1.067   2.806  1.00  0.00    -0.349 OA
ATOM     33  H6  UNL     1      -5.220  -0.825   3.127  1.00  0.00     0.219 HD
ENDBRANCH  31  32
BRANCH  31  34
HETATM   34  N3  UNL     1      -5.597  -1.290   0.932  1.00  0.00    -0.351 N 
HETATM   35  C21 UNL     1      -6.755  -0.709   1.740  1.00  0.00     0.139 C 
HETATM   36  C22 UNL     1      -7.052   0.455   0.769  1.00  0.00     0.095 C 
HETATM   37  C24 UNL     1      -6.814  -0.162  -0.623  1.00  0.00     0.050 C 
HETATM   38  C25 UNL     1      -6.309  -1.577  -0.265  1.00  0.00     0.176 C 
BRANCH  36  39
HETATM   39  C23 UNL     1      -8.436   0.932   0.907  1.00  0.00     0.236 C 
HETATM   40  N4  UNL     1      -8.905   1.450   2.137  1.00  0.00    -0.062 NA
HETATM   41  O7  UNL     1      -9.210   0.878  -0.076  1.00  0.00    -0.276 OA
ENDBRANCH  36  39
BRANCH  38  42
HETATM   42  C26 UNL     1      -5.765  -2.331  -1.348  1.00  0.00     0.254 C 
HETATM   43  N5  UNL     1      -6.333  -2.274  -2.685  1.00  0.00    -0.060 NA
HETATM   44  O8  UNL     1      -4.776  -3.086  -1.240  1.00  0.00    -0.275 OA
ENDBRANCH  38  42
ENDBRANCH  31  34
ENDBRANCH   4  31
TORSDOF 22
