REMARK  6 active torsions:
REMARK  status: ('A' for Active; 'I' for Inactive)
REMARK    1  A    between atoms: C2_5  and  N3_6 
REMARK    2  A    between atoms: C4_12  and  C5_13 
REMARK       I    between atoms: C5_13  and  N5_15 
REMARK    3  A    between atoms: N5_15  and  N6_17 
REMARK    4  A    between atoms: C6_19  and  C7_20 
REMARK    5  A    between atoms: C10_23  and  O3_24 
REMARK    6  A    between atoms: C13_31  and  N9_32 
ROOT
HETATM    1  C1  UNL     1      -6.955  -1.010  -0.739  1.00  0.00     0.198 C 
HETATM    2  N1  UNL     1      -5.689  -0.316  -0.621  1.00  0.00    -0.111 N 
HETATM    3  N2  UNL     1      -5.650   0.986  -0.423  1.00  0.00    -0.114 N 
ATOM      4  H2  UNL     1      -6.518   1.517  -0.351  1.00  0.00     0.206 HD
HETATM    5  C2  UNL     1      -4.440   1.629  -0.314  1.00  0.00     0.717 A 
HETATM    6  N4  UNL     1      -3.293   0.921  -0.411  1.00  0.00    -0.008 N 
HETATM    7  C3  UNL     1      -1.970   1.252  -0.349  1.00  0.00     0.318 A 
HETATM    8  O1  UNL     1      -1.620   2.451  -0.163  1.00  0.00    -0.263 OA
HETATM    9  C4  UNL     1      -1.225   0.130  -0.513  1.00  0.00     0.191 A 
HETATM   10  N7  UNL     1      -2.109  -0.897  -0.677  1.00  0.00    -0.253 N 
ATOM     11  H7  UNL     1      -1.875  -1.879  -0.824  1.00  0.00     0.190 HD
HETATM   12  N8  UNL     1      -3.318  -0.384  -0.610  1.00  0.00     0.006 N 
HETATM   13  C13 UNL     1      -4.546  -0.992  -0.714  1.00  0.00     0.730 A 
ENDROOT
BRANCH   9  14
HETATM   14  C5  UNL     1       0.221   0.009  -0.518  1.00  0.00     0.293 C 
HETATM   15  O2  UNL     1       0.733  -1.156  -0.691  1.00  0.00    -0.264 OA
HETATM   16  N5  UNL     1       1.053   1.133  -0.339  1.00  0.00    -0.265 N 
ATOM     17  H5  UNL     1       0.657   2.063  -0.201  1.00  0.00     0.190 HD
BRANCH  16  18
HETATM   18  N6  UNL     1       2.454   0.933  -0.357  1.00  0.00    -0.308 N 
HETATM   19  C6  UNL     1       2.939   0.056   0.441  1.00  0.00     0.118 C 
ATOM     20  H6  UNL     1       3.056   1.468  -0.983  1.00  0.00     0.186 HD
BRANCH  19  21
HETATM   21  C7  UNL     1       4.390  -0.200   0.472  1.00  0.00    -0.019 A 
HETATM   22  C8  UNL     1       4.918  -1.142   1.328  1.00  0.00     0.015 A 
HETATM   23  C9  UNL     1       6.275  -1.376   1.350  1.00  0.00     0.037 A 
HETATM   24  C10 UNL     1       7.118  -0.674   0.521  1.00  0.00     0.065 A 
HETATM   25  C11 UNL     1       6.599   0.267  -0.335  1.00  0.00     0.037 A 
HETATM   26  C12 UNL     1       5.242   0.500  -0.357  1.00  0.00     0.015 A 
BRANCH  24  27
HETATM   27  O3  UNL     1       8.496  -0.943   0.575  1.00  0.00    -0.361 OA
ATOM     28  H3  UNL     1       9.078  -0.458   0.002  1.00  0.00     0.217 HD
ENDBRANCH  24  27
ENDBRANCH  19  21
ENDBRANCH  16  18
ENDBRANCH   9  14
BRANCH   5  29
HETATM   29  N3  UNL     1      -4.428   2.874  -0.124  1.00  0.00    -0.231 N 
ATOM     30  H32 UNL     1      -5.294   3.408  -0.051  1.00  0.00     0.174 HD
ATOM     31  H31 UNL     1      -3.530   3.351  -0.043  1.00  0.00     0.174 HD
ENDBRANCH   5  29
BRANCH  13  32
HETATM   32  N9  UNL     1      -4.611  -2.255  -0.907  1.00  0.00    -0.230 N 
ATOM     33  H92 UNL     1      -5.522  -2.706  -0.984  1.00  0.00     0.174 HD
ATOM     34  H91 UNL     1      -3.735  -2.773  -0.978  1.00  0.00     0.174 HD
ENDBRANCH  13  32
TORSDOF 6
