REMARK  10 active torsions:
REMARK  status: ('A' for Active; 'I' for Inactive)
REMARK    1  A    between atoms: C2_2  and  C3_3 
REMARK    2  A    between atoms: C4_4  and  C5_5 
REMARK       I    between atoms: N1_10  and  C9_11 
REMARK    3  A    between atoms: C10_16  and  C11_17 
REMARK    4  A    between atoms: C11_17  and  C12_18 
REMARK    5  A    between atoms: C12_18  and  C13_19 
REMARK    6  A    between atoms: C13_19  and  C14_20 
REMARK    7  A    between atoms: C14_20  and  C15_21 
REMARK    8  A    between atoms: C15_21  and  C16_22 
REMARK    9  A    between atoms: C17_23  and  C18_24 
REMARK   10  A    between atoms: C22_28  and  C23_29 
ROOT
HETATM    1  C5  UNL     1      -8.069   0.560  -0.485  1.00  0.00    -0.092 C 
HETATM    2  C6  UNL     1      -9.182   0.604  -0.042  1.00  0.00    -0.110 C 
HETATM    3  C7  UNL     1     -10.535   0.655   0.524  1.00  0.00     0.112 C 
ENDROOT
BRANCH   1   4
HETATM    4  C4  UNL     1      -6.705   0.509  -1.001  1.00  0.00     0.167 C 
HETATM    5  C3  UNL     1      -5.936  -0.593  -0.256  1.00  0.00     0.055 C 
HETATM    6  C10 UNL     1      -4.504  -0.055  -0.451  1.00  0.00     0.105 C 
HETATM    7  N1  UNL     1      -4.730   1.282   0.072  1.00  0.00    -0.286 N 
HETATM    8  C8  UNL     1      -5.922   1.709  -0.625  1.00  0.00     0.243 C 
HETATM    9  C9  UNL     1      -4.088   2.098   0.998  1.00  0.00     0.191 C 
HETATM   10  O1  UNL     1      -6.248   2.886  -0.876  1.00  0.00    -0.271 OA
HETATM   11  N2  UNL     1      -3.586   3.223   0.650  1.00  0.00    -0.373 N 
HETATM   12  N3  UNL     1      -3.981   1.732   2.379  1.00  0.00    -0.063 NA
ATOM     13  H22 UNL     1      -3.662   3.484  -0.333  1.00  0.00     0.158 HD
ATOM     14  H21 UNL     1      -3.115   3.821   1.329  1.00  0.00     0.158 HD
BRANCH   5  15
HETATM   15  C2  UNL     1      -6.137  -1.905  -0.887  1.00  0.00    -0.029 C 
HETATM   16  C1  UNL     1      -7.004  -2.177  -1.827  1.00  0.00     0.007 C 
ENDBRANCH   5  15
BRANCH   6  17
HETATM   17  C11 UNL     1      -3.577  -0.902   0.310  1.00  0.00     0.026 C 
BRANCH  17  18
HETATM   18  C12 UNL     1      -2.119  -0.526   0.203  1.00  0.00     0.002 C 
BRANCH  18  19
HETATM   19  C13 UNL     1      -1.605  -0.583  -1.202  1.00  0.00     0.001 C 
BRANCH  19  20
HETATM   20  C14 UNL     1      -0.159  -0.183  -1.218  1.00  0.00     0.012 C 
BRANCH  20  21
HETATM   21  C15 UNL     1       0.696  -1.094  -0.370  1.00  0.00     0.094 C 
BRANCH  21  22
HETATM   22  C16 UNL     1       2.110  -0.666  -0.429  1.00  0.00    -0.101 C 
HETATM   23  C17 UNL     1       3.262  -0.306  -0.460  1.00  0.00    -0.067 C 
BRANCH  23  24
HETATM   24  C18 UNL     1       4.631   0.134  -0.473  1.00  0.00     0.018 A 
HETATM   25  C19 UNL     1       5.025   1.312  -1.099  1.00  0.00     0.020 A 
HETATM   26  C20 UNL     1       6.340   1.696  -1.089  1.00  0.00     0.002 A 
HETATM   27  C21 UNL     1       7.262   0.900  -0.453  1.00  0.00     0.007 A 
HETATM   28  C22 UNL     1       6.902  -0.270   0.174  1.00  0.00    -0.049 A 
HETATM   29  C27 UNL     1       5.576  -0.649   0.160  1.00  0.00     0.028 A 
BRANCH  28  30
HETATM   30  C23 UNL     1       7.863  -1.147   0.865  1.00  0.00     0.075 C 
HETATM   31  C24 UNL     1       8.623  -0.328   1.913  1.00  0.00     0.283 C 
HETATM   32  N4  UNL     1       9.891  -0.835   1.430  1.00  0.00     0.085 N 
HETATM   33  C25 UNL     1      10.882   0.178   1.151  1.00  0.00     0.309 C 
HETATM   34  C26 UNL     1       9.204  -1.314   0.258  1.00  0.00     0.283 C 
ENDBRANCH  28  30
ENDBRANCH  23  24
ENDBRANCH  21  22
ENDBRANCH  20  21
ENDBRANCH  19  20
ENDBRANCH  18  19
ENDBRANCH  17  18
ENDBRANCH   6  17
ENDBRANCH   1   4
TORSDOF 10
