REMARK  7 active torsions:
REMARK  status: ('A' for Active; 'I' for Inactive)
REMARK       I    between atoms: C1_4  and  N3_6 
REMARK    1  A    between atoms: N3_6  and  C2_8 
REMARK    2  A    between atoms: C3_11  and  C4_12 
REMARK    3  A    between atoms: C7_15  and  O1_16 
REMARK    4  A    between atoms: O1_16  and  C8_17 
REMARK    5  A    between atoms: C8_17  and  C9_18 
REMARK    6  A    between atoms: C15_24  and  C16_25 
REMARK    7  A    between atoms: C20_29  and  C21_30 
ROOT
HETATM    1  C4  UNL     1       2.395  -0.443  -0.298  1.00  0.00    -0.008 A 
HETATM    2  C5  UNL     1       1.756  -1.631  -0.011  1.00  0.00     0.016 A 
HETATM    3  C6  UNL     1       0.393  -1.658   0.115  1.00  0.00     0.038 A 
HETATM    4  C7  UNL     1      -0.333  -0.488  -0.047  1.00  0.00     0.075 A 
HETATM    5  C15 UNL     1       0.293   0.715  -0.337  1.00  0.00    -0.020 A 
HETATM    6  C23 UNL     1       1.665   0.700  -0.455  1.00  0.00     0.024 A 
ENDROOT
BRANCH   1   7
HETATM    7  C3  UNL     1       3.867  -0.461  -0.427  1.00  0.00     0.060 A 
HETATM    8  N4  UNL     1       4.533  -1.623  -0.262  1.00  0.00    -0.191 N 
HETATM    9  C2  UNL     1       5.860  -1.761  -0.356  1.00  0.00     0.684 A 
ATOM     10  H4  UNL     1       3.985  -2.457  -0.050  1.00  0.00     0.184 HD
HETATM   11  N5  UNL     1       6.606  -0.696  -0.630  1.00  0.00    -0.202 N 
HETATM   12  C25 UNL     1       6.005   0.493  -0.806  1.00  0.00     0.108 A 
ATOM     13  H5  UNL     1       7.620  -0.780  -0.706  1.00  0.00     0.183 HD
HETATM   14  C24 UNL     1       4.616   0.637  -0.708  1.00  0.00     0.048 A 
BRANCH   9  15
HETATM   15  N3  UNL     1       6.367  -2.947  -0.171  1.00  0.00    -0.164 N 
HETATM   16  C1  UNL     1       7.740  -3.217  -0.243  1.00  0.00     0.200 C 
HETATM   17  N1  UNL     1       8.199  -3.881  -1.246  1.00  0.00    -0.373 N 
HETATM   18  N2  UNL     1       8.596  -2.757   0.781  1.00  0.00    -0.063 NA
ATOM     19  H12 UNL     1       9.199  -4.078  -1.298  1.00  0.00     0.158 HD
ATOM     20  H11 UNL     1       7.581  -4.213  -1.986  1.00  0.00     0.158 HD
ATOM     21  H3  UNL     1       5.732  -3.718   0.037  1.00  0.00     0.187 HD
ENDBRANCH   9  15
ENDBRANCH   1   7
BRANCH   5  22
HETATM   22  C16 UNL     1      -0.550   1.926  -0.495  1.00  0.00     0.022 C 
HETATM   23  C17 UNL     1       0.362   3.078  -0.865  1.00  0.00     0.009 C 
HETATM   24  C18 UNL     1      -0.518   4.277  -1.153  1.00  0.00     0.001 C 
HETATM   25  C19 UNL     1      -1.224   4.667   0.120  1.00  0.00     0.010 C 
HETATM   26  C20 UNL     1      -1.038   3.651   1.217  1.00  0.00     0.051 C 
HETATM   27  C22 UNL     1      -1.321   2.249   0.757  1.00  0.00     0.019 C 
BRANCH  26  28
HETATM   28  C21 UNL     1      -2.022   4.045   2.327  1.00  0.00     0.357 C 
HETATM   29  F1  UNL     1      -3.304   4.001   1.779  1.00  0.00    -0.214 F 
HETATM   30  F2  UNL     1      -1.799   5.393   2.619  1.00  0.00    -0.214 F 
ENDBRANCH  26  28
ENDBRANCH   5  22
BRANCH   4  31
HETATM   31  O1  UNL     1      -1.713  -0.490   0.076  1.00  0.00    -0.350 OA
BRANCH  31  32
HETATM   32  C8  UNL     1      -2.355  -1.714   0.371  1.00  0.00     0.180 C 
BRANCH  32  33
HETATM   33  C9  UNL     1      -3.853  -1.556   0.472  1.00  0.00     0.010 C 
HETATM   34  C10 UNL     1      -4.412  -1.042  -0.840  1.00  0.00     0.007 C 
HETATM   35  C11 UNL     1      -5.694  -1.729  -1.210  1.00  0.00     0.000 C 
HETATM   36  C12 UNL     1      -6.580  -1.989  -0.015  1.00  0.00     0.000 C 
HETATM   37  C13 UNL     1      -5.910  -2.885   0.991  1.00  0.00     0.000 C 
HETATM   38  C14 UNL     1      -4.426  -2.947   0.687  1.00  0.00     0.007 C 
ENDBRANCH  32  33
ENDBRANCH  31  32
ENDBRANCH   4  31
TORSDOF 7
