REMARK  8 active torsions:
REMARK  status: ('A' for Active; 'I' for Inactive)
REMARK    1  A    between atoms: C2_2  and  C3_3 
REMARK    2  A    between atoms: C2_2  and  N4_31 
REMARK    3  A    between atoms: C3_3  and  C4_4 
REMARK    4  A    between atoms: C6_6  and  C7_7 
REMARK    5  A    between atoms: N2_13  and  C8_14 
REMARK    6  A    between atoms: C12_18  and  C13_19 
REMARK    7  A    between atoms: C19_25  and  N3_26 
REMARK    8  A    between atoms: N4_31  and  C21_33 
ROOT
HETATM    1  C4  UNL     1      -1.092  -1.798  -0.500  1.00  0.00     0.038 A 
HETATM    2  C5  UNL     1      -1.203  -3.159  -0.586  1.00  0.00     0.063 A 
HETATM    3  C6  UNL     1       0.052  -3.706  -0.382  1.00  0.00     0.134 A 
HETATM    4  N1  UNL     1       0.865  -2.702  -0.206  1.00  0.00    -0.289 N 
ATOM      5  H1  UNL     1       1.869  -2.779  -0.043  1.00  0.00     0.187 HD
HETATM    6  N2  UNL     1       0.167  -1.534  -0.274  1.00  0.00    -0.260 N 
ENDROOT
BRANCH   6   7
HETATM    7  C8  UNL     1       0.958  -0.359  -0.013  1.00  0.00     0.057 A 
HETATM    8  C9  UNL     1       0.616   0.389   1.080  1.00  0.00     0.031 A 
HETATM    9  C10 UNL     1       1.446   1.374   1.565  1.00  0.00     0.003 A 
HETATM   10  C11 UNL     1       2.654   1.592   0.906  1.00  0.00     0.007 A 
HETATM   11  C12 UNL     1       3.021   0.879  -0.189  1.00  0.00    -0.050 A 
HETATM   12  C20 UNL     1       2.161  -0.089  -0.633  1.00  0.00     0.039 A 
BRANCH  11  13
HETATM   13  C13 UNL     1       4.360   0.975  -0.845  1.00  0.00     0.049 C 
HETATM   14  C14 UNL     1       4.803  -0.505  -1.043  1.00  0.00     0.011 C 
HETATM   15  C15 UNL     1       6.288  -0.619  -1.268  1.00  0.00     0.001 C 
HETATM   16  C16 UNL     1       6.935   0.656  -1.677  1.00  0.00     0.006 C 
HETATM   17  C17 UNL     1       6.675   1.767  -0.692  1.00  0.00     0.013 C 
HETATM   18  C18 UNL     1       7.858   2.019   0.206  1.00  0.00     0.012 C 
HETATM   19  C19 UNL     1       5.399   1.585   0.074  1.00  0.00     0.195 C 
BRANCH  19  20
HETATM   20  N3  UNL     1       5.656   0.748   1.223  1.00  0.00    -0.074 N 
ATOM     21  H33 UNL     1       4.795   0.533   1.726  1.00  0.00     0.274 HD
ATOM     22  H32 UNL     1       5.917  -0.197   0.943  1.00  0.00     0.274 HD
ATOM     23  H31 UNL     1       6.355   1.159   1.842  1.00  0.00     0.274 HD
ENDBRANCH  19  20
ENDBRANCH  11  13
ENDBRANCH   6   7
BRANCH   1  24
HETATM   24  C3  UNL     1      -2.185  -0.810  -0.700  1.00  0.00     0.083 C 
BRANCH  24  25
HETATM   25  C2  UNL     1      -3.100  -0.894   0.579  1.00  0.00     0.078 C 
HETATM   26  C1  UNL     1      -3.704  -2.246   0.674  1.00  0.00     0.032 C 
BRANCH  25  27
HETATM   27  N4  UNL     1      -3.939   0.254   0.578  1.00  0.00    -0.413 N 
ATOM     28  H4  UNL     1      -4.010   0.857   1.398  1.00  0.00     0.154 HD
BRANCH  27  29
HETATM   29  C21 UNL     1      -4.665   0.528  -0.588  1.00  0.00     0.080 C 
HETATM   30  C22 UNL     1      -5.723  -0.422  -0.907  1.00  0.00     0.025 C 
HETATM   31  C23 UNL     1      -6.846   0.204  -1.757  1.00  0.00     0.002 C 
HETATM   32  C24 UNL     1      -7.366   1.492  -1.211  1.00  0.00     0.001 C 
HETATM   33  C25 UNL     1      -6.550   1.955  -0.000  1.00  0.00     0.006 C 
HETATM   34  C26 UNL     1      -5.122   1.992  -0.474  1.00  0.00     0.004 C 
HETATM   35  C27 UNL     1      -4.265   2.742   0.516  1.00  0.00     0.012 C 
ENDBRANCH  27  29
ENDBRANCH  25  27
ENDBRANCH  24  25
ENDBRANCH   1  24
BRANCH   3  36
HETATM   36  C7  UNL     1       0.403  -5.174  -0.220  1.00  0.00     0.434 C 
HETATM   37  F1  UNL     1      -0.264  -5.926  -1.165  1.00  0.00    -0.165 F 
HETATM   38  F2  UNL     1      -0.037  -5.546   1.100  1.00  0.00    -0.165 F 
HETATM   39  F3  UNL     1       1.769  -5.280  -0.227  1.00  0.00    -0.165 F 
ENDBRANCH   3  36
TORSDOF 8
