REMARK  8 active torsions:
REMARK  status: ('A' for Active; 'I' for Inactive)
REMARK    1  A    between atoms: C7_7  and  C8_8 
REMARK    2  A    between atoms: C8_8  and  C9_9 
REMARK    3  A    between atoms: C13_13  and  N1_14 
REMARK    4  A    between atoms: N1_14  and  C14_16 
REMARK    5  A    between atoms: C14_16  and  C15_17 
REMARK    6  A    between atoms: C18_20  and  N2_21 
REMARK       I    between atoms: N2_21  and  C19_23 
REMARK    7  A    between atoms: C19_23  and  O2_25 
REMARK    8  A    between atoms: O2_25  and  C20_26 
ROOT
HETATM    1  N1  UNL     1      -1.019   0.079  -0.530  1.00  0.00    -0.411 N 
ATOM      2  H1  UNL     1      -1.253   1.023  -0.222  1.00  0.00     0.153 HD
ENDROOT
BRANCH   1   3
HETATM    3  C13 UNL     1      -1.939  -1.007  -0.383  1.00  0.00     0.151 C 
HETATM    4  C12 UNL     1      -2.855  -0.793   0.805  1.00  0.00     0.052 C 
HETATM    5  C8  UNL     1      -4.094  -1.029  -0.077  1.00  0.00     0.060 C 
HETATM    6  C26 UNL     1      -3.179  -0.943  -1.272  1.00  0.00     0.275 C 
HETATM    7  F1  UNL     1      -3.286   0.161  -2.069  1.00  0.00    -0.203 F 
HETATM    8  F2  UNL     1      -3.231  -2.080  -2.100  1.00  0.00    -0.203 F 
BRANCH   5   9
HETATM    9  C7  UNL     1      -5.084   0.036   0.090  1.00  0.00    -0.042 A 
HETATM   10  C6  UNL     1      -4.636   1.333   0.015  1.00  0.00     0.014 A 
HETATM   11  C4  UNL     1      -5.521   2.404   0.162  1.00  0.00    -0.061 A 
HETATM   12  C3  UNL     1      -6.858   2.168   0.386  1.00  0.00     0.013 A 
HETATM   13  C5  UNL     1      -5.060   3.817   0.082  1.00  0.00     0.048 C 
HETATM   14  C2  UNL     1      -7.338   0.885   0.467  1.00  0.00    -0.061 A 
HETATM   15  C1  UNL     1      -8.771   0.574   0.710  1.00  0.00     0.048 C 
HETATM   16  C27 UNL     1      -6.431  -0.134   0.316  1.00  0.00     0.014 A 
ENDBRANCH   5   9
BRANCH   5  17
HETATM   17  C9  UNL     1      -4.522  -2.453   0.106  1.00  0.00    -0.004 C 
HETATM   18  C10 UNL     1      -5.062  -2.771   1.481  1.00  0.00     0.011 C 
HETATM   19  C11 UNL     1      -5.432  -2.938  -1.011  1.00  0.00     0.011 C 
ENDBRANCH   5  17
ENDBRANCH   1   3
BRANCH   1  20
HETATM   20  C14 UNL     1       0.234  -0.220  -1.125  1.00  0.00     0.118 C 
BRANCH  20  21
HETATM   21  C15 UNL     1       1.158  -1.086  -0.300  1.00  0.00     0.003 C 
HETATM   22  C16 UNL     1       2.406  -1.258  -1.147  1.00  0.00     0.008 C 
HETATM   23  C17 UNL     1       3.305  -0.046  -1.001  1.00  0.00     0.026 C 
HETATM   24  C18 UNL     1       3.881  -0.174   0.422  1.00  0.00     0.086 C 
HETATM   25  C24 UNL     1       2.764  -0.008   1.361  1.00  0.00     0.026 C 
HETATM   26  C25 UNL     1       1.443  -0.576   1.056  1.00  0.00     0.008 C 
BRANCH  24  27
HETATM   27  N2  UNL     1       4.893   0.852   0.620  1.00  0.00    -0.332 N 
HETATM   28  C19 UNL     1       6.239   0.552   0.233  1.00  0.00     0.361 C 
HETATM   29  O1  UNL     1       6.507  -0.586  -0.278  1.00  0.00    -0.238 OA
ATOM     30  H2  UNL     1       4.651   1.758   1.022  1.00  0.00     0.165 HD
BRANCH  28  31
HETATM   31  O2  UNL     1       7.275   1.450   0.387  1.00  0.00    -0.294 OA
BRANCH  31  32
HETATM   32  C20 UNL     1       8.596   1.158  -0.014  1.00  0.00     0.061 C 
HETATM   33  C21 UNL     1       9.475   2.368   0.318  1.00  0.00     0.046 C 
HETATM   34  C22 UNL     1       9.196  -0.024   0.677  1.00  0.00     0.046 C 
HETATM   35  C23 UNL     1       8.648   0.981  -1.533  1.00  0.00     0.046 C 
ENDBRANCH  31  32
ENDBRANCH  28  31
ENDBRANCH  24  27
ENDBRANCH  20  21
ENDBRANCH   1  20
TORSDOF 8
