REMARK  5 active torsions:
REMARK  status: ('A' for Active; 'I' for Inactive)
REMARK    1  A    between atoms: C5_5  and  C6_6 
REMARK       I    between atoms: C6_6  and  N1_8 
REMARK    2  A    between atoms: N1_8  and  C7_10 
REMARK    3  A    between atoms: C7_10  and  C8_11 
REMARK    4  A    between atoms: C8_11  and  O2_12 
REMARK    5  A    between atoms: C12_21  and  C13_22 
ROOT
HETATM    1  C8  UNL     1       0.040   0.046  -0.361  1.00  0.00     0.090 C 
HETATM    2  C9  UNL     1       0.481   1.399  -0.914  1.00  0.00     0.048 C 
HETATM    3  C10 UNL     1      -0.061   2.520  -0.084  1.00  0.00     0.081 C 
HETATM    4  C11 UNL     1      -1.508   2.295   0.128  1.00  0.00     0.099 A 
HETATM    5  N2  UNL     1      -2.440   3.201   0.539  1.00  0.00    -0.287 N 
ATOM      6  H2  UNL     1      -2.270   4.181   0.763  1.00  0.00     0.188 HD
HETATM    7  N3  UNL     1      -3.589   2.586   0.594  1.00  0.00    -0.287 N 
ATOM      8  H3  UNL     1      -4.471   3.016   0.872  1.00  0.00     0.188 HD
HETATM    9  C12 UNL     1      -3.437   1.301   0.229  1.00  0.00     0.103 A 
HETATM   10  N4  UNL     1      -2.146   1.142  -0.054  1.00  0.00    -0.321 N 
HETATM   11  C20 UNL     1      -1.480  -0.087  -0.500  1.00  0.00     0.171 C 
ENDROOT
BRANCH   1  12
HETATM   12  C7  UNL     1       0.666  -0.994  -1.225  1.00  0.00     0.162 C 
BRANCH  12  13
HETATM   13  N1  UNL     1       2.089  -0.928  -1.258  1.00  0.00    -0.358 N 
HETATM   14  C6  UNL     1       2.921  -1.183  -0.157  1.00  0.00     0.221 C 
HETATM   15  O1  UNL     1       2.511  -1.503   0.947  1.00  0.00    -0.273 OA
ATOM     16  H1  UNL     1       2.533  -0.679  -2.142  1.00  0.00     0.162 HD
BRANCH  14  17
HETATM   17  C5  UNL     1       4.410  -1.050  -0.362  1.00  0.00     0.078 C 
HETATM   18  C4  UNL     1       5.083  -1.385   0.936  1.00  0.00     0.014 C 
HETATM   19  C3  UNL     1       6.595  -1.319   0.817  1.00  0.00     0.005 C 
HETATM   20  C2  UNL     1       7.001  -0.370  -0.298  1.00  0.00    -0.019 C 
HETATM   21  C1  UNL     1       8.435   0.057  -0.159  1.00  0.00     0.010 C 
HETATM   22  C22 UNL     1       6.047   0.790  -0.297  1.00  0.00     0.005 C 
HETATM   23  C21 UNL     1       4.726   0.327  -0.866  1.00  0.00     0.014 C 
ENDBRANCH  14  17
ENDBRANCH  12  13
ENDBRANCH   1  12
BRANCH   1  24
HETATM   24  O2  UNL     1       0.373   0.006   0.945  1.00  0.00    -0.386 OA
ATOM     25  H2  UNL     1      -0.026   0.669   1.496  1.00  0.00     0.210 HD
ENDBRANCH   1  24
BRANCH   9  26
HETATM   26  C13 UNL     1      -4.578   0.349   0.194  1.00  0.00     0.055 C 
HETATM   27  C14 UNL     1      -5.593   0.925  -0.764  1.00  0.00     0.012 C 
HETATM   28  C15 UNL     1      -6.674  -0.031  -1.135  1.00  0.00     0.001 C 
HETATM   29  C16 UNL     1      -6.451  -1.428  -0.636  1.00  0.00     0.000 C 
HETATM   30  C17 UNL     1      -6.524  -1.563   0.851  1.00  0.00     0.000 C 
HETATM   31  C18 UNL     1      -6.571  -0.238   1.570  1.00  0.00     0.001 C 
HETATM   32  C19 UNL     1      -5.139   0.292   1.616  1.00  0.00     0.012 C 
ENDBRANCH   9  26
TORSDOF 5
