REMARK  13 active torsions:
REMARK  status: ('A' for Active; 'I' for Inactive)
REMARK    1  A    between atoms: C4_4  and  C5_5 
REMARK    2  A    between atoms: C5_5  and  C6_6 
REMARK    3  A    between atoms: C6_6  and  C7_7 
REMARK    4  A    between atoms: C7_7  and  C8_8 
REMARK    5  A    between atoms: C8_8  and  C9_9 
REMARK    6  A    between atoms: C9_9  and  C10_10 
REMARK    7  A    between atoms: C10_10  and  C11_11 
REMARK    8  A    between atoms: C11_11  and  C12_12 
REMARK    9  A    between atoms: C12_12  and  C13_13 
REMARK   10  A    between atoms: C13_13  and  C14_14 
REMARK   11  A    between atoms: C14_14  and  C15_15 
REMARK   12  A    between atoms: C15_15  and  C16_16 
REMARK   13  A    between atoms: C16_16  and  C17_17 
ROOT
HETATM    1  C11 UNL     1       1.310  -0.028   1.386  1.00  0.00     0.000 C 
ENDROOT
BRANCH   1   2
HETATM    2  C10 UNL     1       0.184  -1.033   1.360  1.00  0.00     0.000 C 
BRANCH   2   3
HETATM    3  C9  UNL     1      -0.928  -0.473   0.521  1.00  0.00     0.000 C 
BRANCH   3   4
HETATM    4  C8  UNL     1      -2.113  -1.401   0.426  1.00  0.00     0.000 C 
BRANCH   4   5
HETATM    5  C7  UNL     1      -3.146  -0.680  -0.459  1.00  0.00     0.000 C 
BRANCH   5   6
HETATM    6  C6  UNL     1      -4.377  -1.512  -0.627  1.00  0.00     0.005 C 
BRANCH   6   7
HETATM    7  C5  UNL     1      -5.404  -0.854  -1.502  1.00  0.00     0.038 C 
BRANCH   7   8
HETATM    8  C4  UNL     1      -5.833   0.437  -0.934  1.00  0.00    -0.058 A 
HETATM    9  C3  UNL     1      -6.869   0.509  -0.016  1.00  0.00     0.007 A 
HETATM   10  C2  UNL     1      -7.290   1.700   0.507  1.00  0.00     0.001 A 
HETATM   11  C1  UNL     1      -6.665   2.870   0.110  1.00  0.00     0.000 A 
HETATM   12  C21 UNL     1      -5.633   2.841  -0.800  1.00  0.00     0.001 A 
HETATM   13  C20 UNL     1      -5.241   1.623  -1.300  1.00  0.00     0.007 A 
ENDBRANCH   7   8
ENDBRANCH   6   7
ENDBRANCH   5   6
ENDBRANCH   4   5
ENDBRANCH   3   4
ENDBRANCH   2   3
ENDBRANCH   1   2
BRANCH   1  14
HETATM   14  C12 UNL     1       2.479  -0.495   2.205  1.00  0.00     0.000 C 
BRANCH  14  15
HETATM   15  C13 UNL     1       3.091  -1.766   1.716  1.00  0.00     0.000 C 
BRANCH  15  16
HETATM   16  C14 UNL     1       3.594  -1.636   0.315  1.00  0.00     0.000 C 
BRANCH  16  17
HETATM   17  C15 UNL     1       4.646  -0.577   0.158  1.00  0.00     0.006 C 
BRANCH  17  18
HETATM   18  C16 UNL     1       5.118  -0.498  -1.292  1.00  0.00     0.058 C 
BRANCH  18  19
HETATM   19  C17 UNL     1       6.158   0.550  -1.443  1.00  0.00     0.025 A 
HETATM   20  C18 UNL     1       6.001   1.870  -1.736  1.00  0.00     0.113 A 
HETATM   21  N1  UNL     1       7.210   2.456  -1.777  1.00  0.00    -0.360 N 
HETATM   22  C19 UNL     1       8.102   1.495  -1.510  1.00  0.00     0.180 A 
ATOM     23  H1  UNL     1       7.408   3.437  -1.973  1.00  0.00     0.166 HD
HETATM   24  N2  UNL     1       7.496   0.323  -1.302  1.00  0.00    -0.355 N 
ATOM     25  H2  UNL     1       7.945  -0.566  -1.081  1.00  0.00     0.166 HD
ENDBRANCH  18  19
ENDBRANCH  17  18
ENDBRANCH  16  17
ENDBRANCH  15  16
ENDBRANCH  14  15
ENDBRANCH   1  14
TORSDOF 13
