REMARK  13 active torsions:
REMARK  status: ('A' for Active; 'I' for Inactive)
REMARK    1  A    between atoms: C4_4  and  C5_5 
REMARK    2  A    between atoms: C5_5  and  C6_6 
REMARK    3  A    between atoms: C6_6  and  C7_7 
REMARK    4  A    between atoms: C7_7  and  N1_8 
REMARK    5  A    between atoms: N1_8  and  C8_11 
REMARK    6  A    between atoms: C8_11  and  C9_12 
REMARK    7  A    between atoms: C9_12  and  C10_13 
REMARK    8  A    between atoms: C10_13  and  C11_14 
REMARK    9  A    between atoms: C11_14  and  C12_15 
REMARK   10  A    between atoms: C12_15  and  C13_16 
REMARK   11  A    between atoms: C13_16  and  C14_17 
REMARK   12  A    between atoms: C14_17  and  N2_18 
REMARK   13  A    between atoms: N2_18  and  C15_20 
ROOT
HETATM    1  C8  UNL     1      -2.262  -2.021  -1.450  1.00  0.00     0.232 C 
ENDROOT
BRANCH   1   2
HETATM    2  N1  UNL     1      -3.518  -2.662  -1.194  1.00  0.00    -0.075 N 
ATOM      3  H12 UNL     1      -3.524  -3.612  -1.565  1.00  0.00     0.277 HD
ATOM      4  H11 UNL     1      -4.258  -2.255  -1.766  1.00  0.00     0.277 HD
BRANCH   2   5
HETATM    5  C7  UNL     1      -3.879  -2.651   0.193  1.00  0.00     0.232 C 
BRANCH   5   6
HETATM    6  C6  UNL     1      -4.184  -1.218   0.600  1.00  0.00     0.032 C 
BRANCH   6   7
HETATM    7  C5  UNL     1      -5.313  -0.728  -0.267  1.00  0.00     0.040 C 
BRANCH   7   8
HETATM    8  C4  UNL     1      -5.714   0.667   0.027  1.00  0.00    -0.058 A 
HETATM    9  C3  UNL     1      -5.137   1.741  -0.606  1.00  0.00     0.007 A 
HETATM   10  C2  UNL     1      -5.522   3.039  -0.327  1.00  0.00     0.001 A 
HETATM   11  C1  UNL     1      -6.509   3.283   0.608  1.00  0.00     0.000 A 
HETATM   12  C21 UNL     1      -7.103   2.218   1.257  1.00  0.00     0.001 A 
HETATM   13  C20 UNL     1      -6.694   0.923   0.955  1.00  0.00     0.007 A 
ENDBRANCH   7   8
ENDBRANCH   6   7
ENDBRANCH   5   6
ENDBRANCH   2   5
ENDBRANCH   1   2
BRANCH   1  14
HETATM   14  C9  UNL     1      -1.149  -2.853  -0.878  1.00  0.00     0.027 C 
BRANCH  14  15
HETATM   15  C10 UNL     1       0.193  -2.206  -1.159  1.00  0.00     0.002 C 
BRANCH  15  16
HETATM   16  C11 UNL     1       0.318  -0.870  -0.536  1.00  0.00     0.000 C 
BRANCH  16  17
HETATM   17  C12 UNL     1       1.648  -0.227  -0.840  1.00  0.00     0.002 C 
BRANCH  17  18
HETATM   18  C13 UNL     1       2.761  -1.073  -0.315  1.00  0.00     0.019 C 
BRANCH  18  19
HETATM   19  C14 UNL     1       4.143  -0.482  -0.581  1.00  0.00     0.114 C 
BRANCH  19  20
HETATM   20  N2  UNL     1       4.252   0.767   0.068  1.00  0.00    -0.417 N 
ATOM     21  H2  UNL     1       3.493   1.158   0.626  1.00  0.00     0.153 HD
BRANCH  20  22
HETATM   22  C15 UNL     1       5.500   1.449  -0.110  1.00  0.00     0.076 C 
HETATM   23  C16 UNL     1       5.480   2.659   0.804  1.00  0.00     0.024 C 
HETATM   24  C17 UNL     1       6.768   2.588   1.601  1.00  0.00     0.002 C 
HETATM   25  C18 UNL     1       7.036   1.079   1.645  1.00  0.00     0.002 C 
HETATM   26  C19 UNL     1       6.717   0.678   0.238  1.00  0.00     0.024 C 
ENDBRANCH  20  22
ENDBRANCH  19  20
ENDBRANCH  18  19
ENDBRANCH  17  18
ENDBRANCH  16  17
ENDBRANCH  15  16
ENDBRANCH  14  15
ENDBRANCH   1  14
TORSDOF 13
