REMARK  3 active torsions:
REMARK  status: ('A' for Active; 'I' for Inactive)
REMARK    1  A    between atoms: C2_2  and  C3_4 
REMARK    2  A    between atoms: C4_5  and  C5_6 
REMARK       I    between atoms: C5_6  and  N1_8 
REMARK    3  A    between atoms: C6_10  and  C8_12 
ROOT
HETATM    1  C5  UNL     1      -0.554  -0.191  -1.289  1.00  0.00     0.301 C 
HETATM    2  O2  UNL     1      -0.799   0.583  -2.279  1.00  0.00    -0.258 OA
HETATM    3  N1  UNL     1      -1.527  -0.976  -0.654  1.00  0.00    -0.314 N 
ATOM      4  H1  UNL     1      -1.656  -1.941  -0.959  1.00  0.00     0.169 HD
HETATM    5  C6  UNL     1      -2.249  -0.533   0.281  1.00  0.00     0.086 C 
HETATM    6  C7  UNL     1      -3.255  -1.492   0.872  1.00  0.00     0.076 C 
ENDROOT
BRANCH   1   7
HETATM    7  C4  UNL     1       0.803  -0.286  -0.768  1.00  0.00     0.003 C 
HETATM    8  C3  UNL     1       1.932  -0.347  -0.345  1.00  0.00    -0.019 C 
BRANCH   8   9
HETATM    9  C2  UNL     1       3.266  -0.422   0.162  1.00  0.00     0.199 C 
HETATM   10  C1  UNL     1       4.081   0.790   0.396  1.00  0.00     0.106 C 
HETATM   11  O1  UNL     1       3.735  -1.557   0.406  1.00  0.00    -0.284 OA
ENDBRANCH   8   9
ENDBRANCH   1   7
BRANCH   5  12
HETATM   12  C8  UNL     1      -2.152   0.801   0.784  1.00  0.00     0.222 C 
HETATM   13  O3  UNL     1      -2.912   1.158   1.719  1.00  0.00    -0.643 OA
HETATM   14  O4  UNL     1      -1.264   1.707   0.290  1.00  0.00    -0.643 OA
ENDBRANCH   5  12
TORSDOF 3
