REMARK  4 active torsions:
REMARK  status: ('A' for Active; 'I' for Inactive)
REMARK    1  A    between atoms: C11_13  and  C12_14 
REMARK    2  A    between atoms: C12_14  and  C13_16 
REMARK    3  A    between atoms: C13_16  and  N3_19 
REMARK    4  A    between atoms: N3_19  and  N4_20 
ROOT
HETATM    1  C13 UNL     1      -3.390  -0.883   0.220  1.00  0.00     0.260 C 
HETATM    2  C14 UNL     1      -4.308  -0.893   1.283  1.00  0.00     0.139 C 
HETATM    3  N2  UNL     1      -5.052  -0.887   2.170  1.00  0.00    -0.188 NA
ENDROOT
BRANCH   1   4
HETATM    4  C12 UNL     1      -2.201   0.021   0.125  1.00  0.00     0.238 C 
HETATM    5  O1  UNL     1      -2.762   1.102  -0.171  1.00  0.00    -0.283 OA
BRANCH   4   6
HETATM    6  C11 UNL     1      -0.837  -0.246   0.296  1.00  0.00     0.051 A 
HETATM    7  C4  UNL     1       0.222   0.661  -0.273  1.00  0.00    -0.010 A 
HETATM    8  C2  UNL     1       0.074   1.958  -0.308  1.00  0.00    -0.076 C 
HETATM    9  C5  UNL     1       1.599   0.108  -0.451  1.00  0.00    -0.028 A 
HETATM   10  C1  UNL     1       1.340   2.817  -0.521  1.00  0.00     0.044 C 
HETATM   11  C3  UNL     1      -1.033   2.902  -0.116  1.00  0.00     0.044 C 
HETATM   12  C6  UNL     1       2.650   0.779  -1.209  1.00  0.00     0.051 C 
HETATM   13  C7  UNL     1       1.838  -1.152  -0.070  1.00  0.00     0.012 A 
HETATM   14  C8  UNL     1       3.208  -1.727  -0.235  1.00  0.00     0.068 C 
HETATM   15  N1  UNL     1       0.852  -1.968   0.473  1.00  0.00    -0.362 N 
HETATM   16  C9  UNL     1      -0.498  -1.497   0.655  1.00  0.00     0.020 A 
ATOM     17  H1  UNL     1       1.089  -2.921   0.749  1.00  0.00     0.165 HD
HETATM   18  C10 UNL     1      -1.416  -2.353   1.384  1.00  0.00     0.069 C 
ENDBRANCH   4   6
ENDBRANCH   1   4
BRANCH   1  19
HETATM   19  N3  UNL     1      -3.629  -1.607  -0.757  1.00  0.00    -0.317 NA
BRANCH  19  20
HETATM   20  N4  UNL     1      -3.858  -2.361  -1.721  1.00  0.00    -0.279 N 
ATOM     21  H42 UNL     1      -3.473  -2.652  -0.822  1.00  0.00     0.191 HD
ATOM     22  H41 UNL     1      -4.055  -2.957  -2.525  1.00  0.00     0.191 HD
ENDBRANCH  19  20
ENDBRANCH   1  19
TORSDOF 4
