REMARK  7 active torsions:
REMARK  status: ('A' for Active; 'I' for Inactive)
REMARK    1  A    between atoms: C2_2  and  C3_3 
REMARK    2  A    between atoms: C3_3  and  C4_4 
REMARK    3  A    between atoms: C4_4  and  C5_5 
REMARK    4  A    between atoms: C5_5  and  C6_6 
REMARK    5  A    between atoms: C6_6  and  N1_7 
REMARK    6  A    between atoms: N1_7  and  C7_10 
REMARK    7  A    between atoms: C7_10  and  C8_11 
ROOT
HETATM    1  N1  UNL     1      -0.468  -0.393  -1.602  1.00  0.00    -0.075 N 
ATOM      2  H11 UNL     1      -1.162  -0.986  -2.057  1.00  0.00     0.277 HD
ATOM      3  H12 UNL     1      -0.126   0.111  -2.420  1.00  0.00     0.277 HD
ENDROOT
BRANCH   1   4
HETATM    4  C6  UNL     1       0.560  -1.167  -1.009  1.00  0.00     0.232 C 
BRANCH   4   5
HETATM    5  C5  UNL     1       1.757  -0.300  -0.691  1.00  0.00     0.028 C 
BRANCH   5   6
HETATM    6  C4  UNL     1       2.775  -1.242  -0.057  1.00  0.00     0.005 C 
BRANCH   6   7
HETATM    7  C3  UNL     1       4.048  -0.533   0.267  1.00  0.00     0.026 C 
BRANCH   7   8
HETATM    8  C2  UNL     1       3.885   0.626   1.182  1.00  0.00    -0.037 C 
HETATM    9  C1  UNL     1       4.260   1.859   0.818  1.00  0.00     0.007 C 
ENDBRANCH   7   8
ENDBRANCH   6   7
ENDBRANCH   5   6
ENDBRANCH   4   5
ENDBRANCH   1   4
BRANCH   1  10
HETATM   10  C7  UNL     1      -1.078   0.492  -0.667  1.00  0.00     0.237 C 
BRANCH  10  11
HETATM   11  C8  UNL     1      -1.897  -0.246   0.377  1.00  0.00     0.011 C 
HETATM   12  C9  UNL     1      -2.489   0.752   1.313  1.00  0.00     0.006 C 
HETATM   13  C10 UNL     1      -3.966   0.786   1.021  1.00  0.00     0.000 C 
HETATM   14  C11 UNL     1      -4.133   0.149  -0.348  1.00  0.00     0.000 C 
HETATM   15  C12 UNL     1      -3.051  -0.909  -0.355  1.00  0.00     0.006 C 
ENDBRANCH  10  11
ENDBRANCH   1  10
TORSDOF 7
