REMARK  8 active torsions:
REMARK  status: ('A' for Active; 'I' for Inactive)
REMARK    1  A    between atoms: C2_2  and  C3_3 
REMARK    2  A    between atoms: C3_3  and  C4_4 
REMARK    3  A    between atoms: C4_4  and  C5_5 
REMARK    4  A    between atoms: C5_5  and  N1_6 
REMARK    5  A    between atoms: N1_6  and  C6_8 
REMARK    6  A    between atoms: C6_8  and  C7_9 
REMARK    7  A    between atoms: C7_9  and  C8_10 
REMARK    8  A    between atoms: C8_10  and  C9_11 
ROOT
HETATM    1  N1  UNL     1       1.348  -1.686   0.638  1.00  0.00    -0.421 N 
ATOM      2  H1  UNL     1       2.017  -2.104  -0.009  1.00  0.00     0.153 HD
ENDROOT
BRANCH   1   3
HETATM    3  C5  UNL     1       1.750  -0.807   1.682  1.00  0.00     0.114 C 
BRANCH   3   4
HETATM    4  C4  UNL     1       3.241  -0.619   1.685  1.00  0.00     0.023 C 
BRANCH   4   5
HETATM    5  C3  UNL     1       3.780  -0.042   0.401  1.00  0.00     0.028 C 
BRANCH   5   6
HETATM    6  C2  UNL     1       3.170   1.281   0.164  1.00  0.00    -0.037 C 
HETATM    7  C1  UNL     1       3.855   2.403   0.074  1.00  0.00     0.007 C 
ENDBRANCH   5   6
ENDBRANCH   4   5
ENDBRANCH   3   4
ENDBRANCH   1   3
BRANCH   1   8
HETATM    8  C6  UNL     1      -0.069  -1.946   0.555  1.00  0.00     0.113 C 
BRANCH   8   9
HETATM    9  C7  UNL     1      -0.751  -0.696   0.130  1.00  0.00     0.020 C 
BRANCH   9  10
HETATM   10  C8  UNL     1      -2.255  -0.851  -0.001  1.00  0.00     0.006 C 
BRANCH  10  11
HETATM   11  C9  UNL     1      -2.768   0.506  -0.435  1.00  0.00    -0.014 C 
HETATM   12  C10 UNL     1      -4.257   0.598  -0.633  1.00  0.00     0.005 C 
HETATM   13  C11 UNL     1      -3.957   1.212  -2.007  1.00  0.00     0.001 C 
HETATM   14  C12 UNL     1      -2.506   0.723  -1.896  1.00  0.00     0.005 C 
ENDBRANCH  10  11
ENDBRANCH   9  10
ENDBRANCH   8   9
ENDBRANCH   1   8
TORSDOF 8
