REMARK  5 active torsions:
REMARK  status: ('A' for Active; 'I' for Inactive)
REMARK    1  A    between atoms: C7_8  and  N1_9 
REMARK    2  A    between atoms: N2_11  and  C8_13 
REMARK    3  A    between atoms: C10_20  and  C11_21 
REMARK    4  A    between atoms: N6_24  and  C13_25 
REMARK    5  A    between atoms: C19_36  and  N8_37 
ROOT
HETATM    1  C8  UNL     1       0.400  -0.030   0.370  1.00  0.00     0.152 A 
HETATM    2  N3  UNL     1      -0.199  -1.097   0.980  1.00  0.00    -0.291 N 
ATOM      3  H3  UNL     1      -1.205  -1.266   1.000  1.00  0.00     0.172 HD
HETATM    4  C9  UNL     1       0.713  -1.885   1.544  1.00  0.00     0.326 A 
HETATM    5  O1  UNL     1       0.494  -2.949   2.183  1.00  0.00    -0.247 OA
HETATM    6  N4  UNL     1       1.912  -1.302   1.286  1.00  0.00    -0.304 N 
ATOM      7  H4  UNL     1       2.807  -1.679   1.596  1.00  0.00     0.171 HD
HETATM    8  C10 UNL     1       1.781  -0.175   0.577  1.00  0.00     0.101 A 
ENDROOT
BRANCH   1   9
HETATM    9  N2  UNL     1      -0.199   0.981  -0.361  1.00  0.00    -0.282 N 
HETATM   10  N1  UNL     1      -1.297   1.393  -0.585  1.00  0.00    -0.290 N 
ATOM     11  H1  UNL     1      -1.327   2.200  -1.208  1.00  0.00     0.187 HD
ATOM     12  H2  UNL     1       0.502   1.536  -0.852  1.00  0.00     0.188 HD
BRANCH  10  13
HETATM   13  C7  UNL     1      -2.559   0.953  -0.135  1.00  0.00     0.123 A 
HETATM   14  S1  UNL     1      -3.387   1.407   1.299  1.00  0.00    -0.070 SA
HETATM   15  C6  UNL     1      -4.809   0.486   1.111  1.00  0.00     0.017 A 
HETATM   16  C5  UNL     1      -4.594  -0.158  -0.080  1.00  0.00    -0.004 A 
HETATM   17  C20 UNL     1      -6.062   0.299   1.907  1.00  0.00     0.215 C 
HETATM   18  C4  UNL     1      -5.755  -1.062  -0.469  1.00  0.00     0.079 C 
HETATM   19  C19 UNL     1      -3.444   0.082  -0.716  1.00  0.00     0.145 A 
HETATM   20  C2  UNL     1      -6.988  -0.195  -0.179  1.00  0.00     0.058 C 
HETATM   21  C1  UNL     1      -6.926   1.045  -1.052  1.00  0.00     0.046 C 
HETATM   22  C3  UNL     1      -8.184  -0.996  -0.662  1.00  0.00     0.046 C 
HETATM   23  O7  UNL     1      -7.164   0.074   1.146  1.00  0.00    -0.376 OA
BRANCH  19  24
HETATM   24  N8  UNL     1      -3.082  -0.535  -1.984  1.00  0.00    -0.112 N 
HETATM   25  O5  UNL     1      -2.763  -1.734  -1.965  1.00  0.00    -0.532 OA
HETATM   26  O6  UNL     1      -3.098   0.203  -3.141  1.00  0.00    -0.532 OA
ENDBRANCH  19  24
ENDBRANCH  10  13
ENDBRANCH   1   9
BRANCH   8  27
HETATM   27  C11 UNL     1       2.875   0.655   0.043  1.00  0.00     0.104 A 
HETATM   28  C12 UNL     1       4.023   0.013  -0.421  1.00  0.00     0.142 A 
HETATM   29  N5  UNL     1       3.997  -1.407  -0.490  1.00  0.00    -0.081 NA
HETATM   30  N6  UNL     1       5.071   0.736  -0.836  1.00  0.00    -0.259 N 
HETATM   31  C17 UNL     1       4.983   2.114  -0.795  1.00  0.00     0.332 A 
HETATM   32  O3  UNL     1       5.964   2.839  -1.187  1.00  0.00    -0.246 OA
HETATM   33  N7  UNL     1       3.904   2.728  -0.359  1.00  0.00    -0.274 N 
HETATM   34  C18 UNL     1       2.812   2.041   0.076  1.00  0.00     0.265 A 
ATOM     35  H7  UNL     1       3.885   3.748  -0.347  1.00  0.00     0.173 HD
HETATM   36  O4  UNL     1       1.809   2.660   0.488  1.00  0.00    -0.267 OA
BRANCH  30  37
HETATM   37  C13 UNL     1       6.264   0.184  -1.349  1.00  0.00     0.233 C 
HETATM   38  C14 UNL     1       6.869  -1.042  -0.816  1.00  0.00     0.056 C 
HETATM   39  C15 UNL     1       7.261  -0.633   0.591  1.00  0.00     0.031 C 
HETATM   40  C16 UNL     1       7.612   0.819   0.349  1.00  0.00     0.170 C 
HETATM   41  O2  UNL     1       7.303   1.110  -0.983  1.00  0.00    -0.366 OA
ENDBRANCH  30  37
ENDBRANCH   8  27
TORSDOF 5
