REMARK  12 active torsions:
REMARK  status: ('A' for Active; 'I' for Inactive)
REMARK    1  A    between atoms: O1_2  and  C2_3 
REMARK    2  A    between atoms: C7_9  and  O2_10 
REMARK    3  A    between atoms: N1_12  and  N2_13 
REMARK    4  A    between atoms: N3_16  and  C10_17 
REMARK    5  A    between atoms: C10_17  and  S3_19 
REMARK    6  A    between atoms: S3_19  and  S4_20 
REMARK    7  A    between atoms: S4_20  and  C11_21 
REMARK    8  A    between atoms: C11_21  and  C12_23 
REMARK    9  A    between atoms: C12_23  and  C13_24 
REMARK   10  A    between atoms: C13_24  and  N4_25 
REMARK   11  A    between atoms: C13_24  and  C14_29 
REMARK   12  A    between atoms: C17_34  and  O6_35 
ROOT
HETATM    1  N2  UNL     1      -1.202   0.359  -0.133  1.00  0.00    -0.314 N 
HETATM    2  C8  UNL     1      -0.561   1.487  -0.737  1.00  0.00     0.163 C 
HETATM    3  C9  UNL     1       0.819   1.765  -0.183  1.00  0.00     0.145 C 
HETATM    4  N3  UNL     1       1.495   0.529   0.162  1.00  0.00    -0.363 N 
HETATM    5  C15 UNL     1       0.928  -0.704  -0.332  1.00  0.00     0.145 C 
HETATM    6  C16 UNL     1      -0.464  -0.816   0.252  1.00  0.00     0.163 C 
ENDROOT
BRANCH   1   7
HETATM    7  N1  UNL     1      -2.597   0.328   0.122  1.00  0.00    -0.212 N 
HETATM    8  C7  UNL     1      -3.545  -0.111  -0.702  1.00  0.00     0.174 A 
HETATM    9  C6  UNL     1      -4.797   0.011  -0.112  1.00  0.00     0.044 A 
HETATM   10  C2  UNL     1      -6.163  -0.320  -0.580  1.00  0.00     0.160 C 
HETATM   11  C5  UNL     1      -4.587   0.556   1.137  1.00  0.00     0.066 A 
HETATM   12  C3  UNL     1      -6.996  -0.981   0.506  1.00  0.00     0.047 C 
HETATM   13  C4  UNL     1      -7.406   0.018   1.567  1.00  0.00     0.082 C 
HETATM   14  S1  UNL     1      -5.968   0.886   2.251  1.00  0.00    -0.125 SA
HETATM   15  C17 UNL     1      -3.224   0.736   1.243  1.00  0.00     0.181 A 
BRANCH   8  16
HETATM   16  O2  UNL     1      -3.267  -0.621  -1.983  1.00  0.00    -0.344 OA
ATOM     17  H2  UNL     1      -2.411  -0.704  -2.386  1.00  0.00     0.219 HD
ENDBRANCH   8  16
BRANCH  10  18
HETATM   18  O1  UNL     1      -6.859   0.753  -1.066  1.00  0.00    -0.386 OA
HETATM   19  C1  UNL     1      -7.241   0.620  -2.394  1.00  0.00     0.202 C 
ENDBRANCH  10  18
BRANCH  15  20
HETATM   20  O6  UNL     1      -2.537   1.261   2.334  1.00  0.00    -0.344 OA
ATOM     21  H6  UNL     1      -1.598   1.385   2.407  1.00  0.00     0.219 HD
ENDBRANCH  15  20
ENDBRANCH   1   7
BRANCH   4  22
HETATM   22  C10 UNL     1       2.665   0.494   0.948  1.00  0.00     0.147 C 
HETATM   23  S2  UNL     1       3.273   1.908   1.486  1.00  0.00    -0.052 SA
BRANCH  22  24
HETATM   24  S3  UNL     1       3.415  -1.077   1.313  1.00  0.00    -0.020 SA
BRANCH  24  25
HETATM   25  S4  UNL     1       5.157  -0.855   2.508  1.00  0.00    -0.012 SA
BRANCH  25  26
HETATM   26  C11 UNL     1       6.617  -0.661   1.498  1.00  0.00     0.199 C 
HETATM   27  O3  UNL     1       7.710  -0.521   1.993  1.00  0.00    -0.285 OA
BRANCH  26  28
HETATM   28  C12 UNL     1       6.458  -0.677   0.026  1.00  0.00     0.135 C 
BRANCH  28  29
HETATM   29  C13 UNL     1       7.807  -0.500  -0.608  1.00  0.00     0.291 C 
BRANCH  29  30
HETATM   30  N4  UNL     1       8.388   0.749  -0.205  1.00  0.00    -0.065 N 
ATOM     31  H43 UNL     1       7.770   1.536  -0.400  1.00  0.00     0.275 HD
ATOM     32  H42 UNL     1       8.430   0.839   0.810  1.00  0.00     0.275 HD
ATOM     33  H41 UNL     1       9.305   0.869  -0.636  1.00  0.00     0.275 HD
ENDBRANCH  29  30
BRANCH  29  34
HETATM   34  C14 UNL     1       8.745  -1.590  -0.234  1.00  0.00     0.204 C 
HETATM   35  O4  UNL     1       8.443  -2.786  -0.489  1.00  0.00    -0.646 OA
HETATM   36  O5  UNL     1       9.963  -1.367   0.395  1.00  0.00    -0.646 OA
ENDBRANCH  29  34
ENDBRANCH  28  29
ENDBRANCH  26  28
ENDBRANCH  25  26
ENDBRANCH  24  25
ENDBRANCH  22  24
ENDBRANCH   4  22
TORSDOF 12
