REMARK  10 active torsions:
REMARK  status: ('A' for Active; 'I' for Inactive)
REMARK    1  A    between atoms: C2_2  and  C3_3 
REMARK    2  A    between atoms: C4_5  and  N1_6 
REMARK    3  A    between atoms: C5_8  and  C6_9 
REMARK    4  A    between atoms: C6_9  and  C8_12 
REMARK    5  A    between atoms: C8_12  and  C9_14 
REMARK    6  A    between atoms: C9_14  and  S1_17 
REMARK    7  A    between atoms: S1_17  and  C11_18 
REMARK    8  A    between atoms: C16_24  and  N4_25 
REMARK    9  A    between atoms: N4_25  and  N5_26 
REMARK   10  A    between atoms: C17_29  and  N6_30 
ROOT
HETATM    1  C6  UNL     1       0.298   0.987  -0.646  1.00  0.00     0.202 C 
HETATM    2  C7  UNL     1      -0.019   2.252   0.043  1.00  0.00     0.077 C 
HETATM    3  N2  UNL     1      -0.260   3.262   0.580  1.00  0.00    -0.196 NA
ENDROOT
BRANCH   1   4
HETATM    4  C5  UNL     1       1.756   0.772  -0.677  1.00  0.00     0.090 C 
HETATM    5  N1  UNL     1       2.387   0.127   0.271  1.00  0.00    -0.346 N 
ATOM      6  H1  UNL     1       1.893  -0.256   1.077  1.00  0.00     0.167 HD
BRANCH   5   7
HETATM    7  C4  UNL     1       3.813  -0.016   0.123  1.00  0.00     0.194 A 
HETATM    8  O1  UNL     1       4.755   0.808   0.479  1.00  0.00    -0.288 OA
HETATM    9  C3  UNL     1       5.951   0.353   0.187  1.00  0.00     0.114 A 
HETATM   10  C17 UNL     1       5.745  -0.890  -0.417  1.00  0.00     0.183 A 
HETATM   11  C16 UNL     1       4.378  -1.129  -0.460  1.00  0.00     0.217 A 
BRANCH   9  12
HETATM   12  C2  UNL     1       7.247   0.967   0.420  1.00  0.00     0.030 C 
HETATM   13  C1  UNL     1       7.317   2.140   1.007  1.00  0.00     0.014 C 
ENDBRANCH   9  12
BRANCH  10  14
HETATM   14  N6  UNL     1       6.772  -1.742  -0.897  1.00  0.00    -0.109 N 
HETATM   15  O4  UNL     1       7.482  -2.372  -0.091  1.00  0.00    -0.532 OA
HETATM   16  O5  UNL     1       6.993  -1.880  -2.253  1.00  0.00    -0.532 OA
ENDBRANCH  10  14
BRANCH  11  17
HETATM   17  N4  UNL     1       3.736  -2.232  -0.971  1.00  0.00    -0.326 NA
BRANCH  17  18
HETATM   18  N5  UNL     1       3.216  -3.136  -1.380  1.00  0.00    -0.280 N 
ATOM     19  H52 UNL     1       3.785  -2.602  -0.723  1.00  0.00     0.191 HD
ATOM     20  H51 UNL     1       2.740  -3.954  -1.759  1.00  0.00     0.191 HD
ENDBRANCH  17  18
ENDBRANCH  11  17
ENDBRANCH   5   7
ENDBRANCH   1   4
BRANCH   1  21
HETATM   21  C8  UNL     1      -0.409  -0.154  -0.037  1.00  0.00     0.176 C 
HETATM   22  O2  UNL     1       0.190  -1.109   0.375  1.00  0.00    -0.294 OA
BRANCH  21  23
HETATM   23  C9  UNL     1      -1.921  -0.065   0.043  1.00  0.00     0.227 C 
HETATM   24  C10 UNL     1      -2.397   0.065  -1.337  1.00  0.00     0.082 C 
HETATM   25  N3  UNL     1      -2.751   0.191  -2.455  1.00  0.00    -0.196 NA
BRANCH  23  26
HETATM   26  S1  UNL     1      -2.597  -1.530   0.825  1.00  0.00    -0.110 SA
BRANCH  26  27
HETATM   27  C11 UNL     1      -4.361  -1.324   1.126  1.00  0.00     0.184 C 
HETATM   28  C12 UNL     1      -5.112  -1.342  -0.125  1.00  0.00     0.043 C 
HETATM   29  C13 UNL     1      -5.951  -0.142  -0.457  1.00  0.00     0.005 C 
HETATM   30  C14 UNL     1      -6.611   0.267   0.867  1.00  0.00     0.026 C 
HETATM   31  C15 UNL     1      -5.481   0.646   1.758  1.00  0.00     0.169 C 
HETATM   32  O3  UNL     1      -4.479  -0.224   1.932  1.00  0.00    -0.376 OA
ENDBRANCH  26  27
ENDBRANCH  23  26
ENDBRANCH  21  23
ENDBRANCH   1  21
TORSDOF 10
