REMARK  8 active torsions:
REMARK  status: ('A' for Active; 'I' for Inactive)
REMARK    1  A    between atoms: C2_2  and  C3_3 
REMARK    2  A    between atoms: C3_3  and  C4_4 
REMARK    3  A    between atoms: C5_6  and  S1_7 
REMARK    4  A    between atoms: S1_7  and  C6_8 
REMARK    5  A    between atoms: C7_13  and  N2_14 
REMARK    6  A    between atoms: C12_22  and  C13_23 
REMARK    7  A    between atoms: C13_23  and  C14_25 
REMARK    8  A    between atoms: C14_25  and  C15_26 
ROOT
HETATM    1  C4  UNL     1       1.622   1.627   0.960  1.00  0.00     0.086 A 
HETATM    2  O1  UNL     1       0.309   1.595   0.920  1.00  0.00    -0.289 OA
HETATM    3  C5  UNL     1      -0.135   0.436   0.531  1.00  0.00     0.193 A 
HETATM    4  N3  UNL     1       0.941  -0.330   0.305  1.00  0.00    -0.326 N 
ATOM      5  H3  UNL     1       0.926  -1.299  -0.013  1.00  0.00     0.168 HD
HETATM    6  C12 UNL     1       2.065   0.407   0.573  1.00  0.00     0.111 A 
ENDROOT
BRANCH   3   7
HETATM    7  S1  UNL     1      -1.874   0.029   0.358  1.00  0.00    -0.035 SA
BRANCH   7   8
HETATM    8  C6  UNL     1      -2.472  -1.341   1.092  1.00  0.00     0.102 A 
HETATM    9  S2  UNL     1      -1.480  -2.373   2.005  1.00  0.00    -0.024 SA
HETATM   10  S3  UNL     1      -2.948  -3.736   2.517  1.00  0.00     0.027 SA
HETATM   11  N1  UNL     1      -4.100  -2.878   1.675  1.00  0.00    -0.305 N 
HETATM   12  C7  UNL     1      -3.755  -1.781   1.054  1.00  0.00     0.135 A 
ATOM     13  H1  UNL     1      -5.066  -3.205   1.644  1.00  0.00     0.176 HD
BRANCH  12  14
HETATM   14  N2  UNL     1      -4.762  -1.023   0.314  1.00  0.00    -0.361 N 
HETATM   15  C8  UNL     1      -5.054   0.332   0.672  1.00  0.00     0.150 C 
HETATM   16  C9  UNL     1      -6.562   0.421   0.889  1.00  0.00     0.187 C 
HETATM   17  O2  UNL     1      -7.284  -0.145  -0.132  1.00  0.00    -0.388 OA
HETATM   18  C10 UNL     1      -6.538  -0.594  -1.194  1.00  0.00     0.187 C 
HETATM   19  C11 UNL     1      -5.488  -1.611  -0.792  1.00  0.00     0.150 C 
ENDBRANCH  12  14
ENDBRANCH   7   8
ENDBRANCH   3   7
BRANCH   1  20
HETATM   20  C3  UNL     1       2.370   2.842   1.367  1.00  0.00     0.067 C 
BRANCH  20  21
HETATM   21  C2  UNL     1       2.867   3.661   0.208  1.00  0.00     0.002 C 
HETATM   22  C1  UNL     1       1.655   4.105  -0.606  1.00  0.00     0.005 C 
ENDBRANCH  20  21
ENDBRANCH   1  20
BRANCH   6  23
HETATM   23  C13 UNL     1       3.431  -0.067   0.469  1.00  0.00     0.178 C 
HETATM   24  O3  UNL     1       4.372   0.696   0.751  1.00  0.00    -0.291 OA
BRANCH  23  25
HETATM   25  C14 UNL     1       3.705  -1.443   0.033  1.00  0.00     0.089 C 
BRANCH  25  26
HETATM   26  C15 UNL     1       5.181  -1.758  -0.012  1.00  0.00    -0.015 C 
HETATM   27  C16 UNL     1       5.339  -3.180  -0.467  1.00  0.00     0.010 C 
HETATM   28  C17 UNL     1       5.891  -0.871  -1.005  1.00  0.00     0.010 C 
ENDBRANCH  25  26
ENDBRANCH  23  25
ENDBRANCH   6  23
TORSDOF 8
