REMARK  1 active torsions:
REMARK  status: ('A' for Active; 'I' for Inactive)
REMARK       I    between atoms: N1_2  and  C2_4 
REMARK       I    between atoms: C2_4  and  N3_10 
REMARK       I    between atoms: N2_5  and  C3_7 
REMARK    1  A    between atoms: C7_13  and  N4_15 
ROOT
HETATM    1  C1  UNL     1       0.211   2.480  -0.071  1.00  0.00     0.149 C 
HETATM    2  N1  UNL     1       0.565   1.276  -0.789  1.00  0.00    -0.360 N 
ATOM      3  H1  UNL     1       0.866   1.343  -1.761  1.00  0.00     0.162 HD
HETATM    4  C2  UNL     1       0.501   0.005  -0.166  1.00  0.00     0.285 C 
HETATM    5  N2  UNL     1       1.322  -0.235   0.819  1.00  0.00    -0.293 N 
ATOM      6  H2  UNL     1       1.277  -1.151   1.266  1.00  0.00     0.171 HD
HETATM    7  C3  UNL     1       2.261   0.684   1.301  1.00  0.00     0.220 C 
HETATM    8  C4  UNL     1       3.436   1.132   0.520  1.00  0.00     0.117 C 
HETATM    9  O1  UNL     1       2.121   1.170   2.455  1.00  0.00    -0.274 OA
HETATM   10  N3  UNL     1      -0.406  -1.005  -0.567  1.00  0.00     0.029 N 
HETATM   11  C5  UNL     1      -0.621  -1.131  -2.000  1.00  0.00     0.286 C 
HETATM   12  C6  UNL     1      -0.470  -2.185   0.249  1.00  0.00     0.320 A 
HETATM   13  C7  UNL     1      -1.603  -1.254   0.210  1.00  0.00     0.317 A 
HETATM   14  C8  UNL     1      -1.880  -0.273   1.296  1.00  0.00     0.082 C 
ENDROOT
BRANCH  13  15
HETATM   15  N4  UNL     1      -2.793  -1.739  -0.474  1.00  0.00    -0.042 N 
ATOM     16  H43 UNL     1      -3.021  -1.099  -1.235  1.00  0.00     0.277 HD
ATOM     17  H42 UNL     1      -2.554  -2.584  -0.992  1.00  0.00     0.277 HD
ATOM     18  H41 UNL     1      -3.636  -1.914   0.073  1.00  0.00     0.277 HD
ENDBRANCH  13  15
TORSDOF 1
