REMARK  10 active torsions:
REMARK  status: ('A' for Active; 'I' for Inactive)
REMARK    1  A    between atoms: C4_8  and  C5_9 
REMARK    2  A    between atoms: C5_9  and  C6_10 
REMARK    3  A    between atoms: C5_9  and  N4_23 
REMARK    4  A    between atoms: C6_10  and  C7_11 
REMARK       I    between atoms: C7_11  and  N3_13 
REMARK    5  A    between atoms: N3_13  and  C8_15 
REMARK    6  A    between atoms: C8_15  and  C9_16 
REMARK    7  A    between atoms: C9_16  and  C10_18 
REMARK    8  A    between atoms: C10_18  and  O2_21 
REMARK    9  A    between atoms: N4_23  and  C13_25 
REMARK   10  A    between atoms: C13_25  and  C14_26 
ROOT
HETATM    1  C5  UNL     1      -2.243  -0.557  -0.280  1.00  0.00     0.044 C 
ENDROOT
BRANCH   1   2
HETATM    2  C4  UNL     1      -2.651  -1.093  -1.570  1.00  0.00     0.091 A 
HETATM    3  N1  UNL     1      -2.199  -2.146  -2.265  1.00  0.00    -0.294 N 
HETATM    4  C1  UNL     1      -1.190  -3.105  -1.859  1.00  0.00     0.178 C 
HETATM    5  N2  UNL     1      -2.847  -2.252  -3.451  1.00  0.00    -0.308 N 
HETATM    6  C2  UNL     1      -3.735  -1.283  -3.572  1.00  0.00     0.129 A 
ATOM      7  H2  UNL     1      -2.674  -2.976  -4.149  1.00  0.00     0.186 HD
HETATM    8  C3  UNL     1      -3.638  -0.545  -2.417  1.00  0.00     0.058 A 
HETATM    9 BR1  UNL     1      -4.683   0.996  -2.016  1.00  0.00    -0.047 Br
ENDBRANCH   1   2
BRANCH   1  10
HETATM   10  C6  UNL     1      -1.116  -1.008   0.523  1.00  0.00     0.161 C 
BRANCH  10  11
HETATM   11  C7  UNL     1       0.229  -0.731  -0.056  1.00  0.00     0.223 C 
HETATM   12  O1  UNL     1       0.286  -0.009  -1.054  1.00  0.00    -0.273 OA
HETATM   13  N3  UNL     1       1.372  -1.277   0.523  1.00  0.00    -0.359 N 
ATOM     14  H3  UNL     1       1.185  -1.864   1.336  1.00  0.00     0.162 HD
BRANCH  13  15
HETATM   15  C8  UNL     1       2.745  -1.169   0.194  1.00  0.00     0.145 C 
BRANCH  15  16
HETATM   16  C9  UNL     1       3.446   0.119   0.278  1.00  0.00     0.133 C 
HETATM   17 CL1  UNL     1       2.803   1.365  -0.776  1.00  0.00    -0.120 Cl
BRANCH  16  18
HETATM   18  C10 UNL     1       4.935   0.021  -0.014  1.00  0.00     0.069 C 
HETATM   19  C11 UNL     1       5.647  -0.892   0.941  1.00  0.00     0.047 C 
HETATM   20  C12 UNL     1       5.583   1.386   0.103  1.00  0.00     0.047 C 
BRANCH  18  21
HETATM   21  O2  UNL     1       5.182  -0.437  -1.308  1.00  0.00    -0.389 OA
ATOM     22  H2  UNL     1       6.112  -0.498  -1.490  1.00  0.00     0.210 HD
ENDBRANCH  18  21
ENDBRANCH  16  18
ENDBRANCH  15  16
ENDBRANCH  13  15
ENDBRANCH  10  11
ENDBRANCH   1  10
BRANCH   1  23
HETATM   23  N4  UNL     1      -2.972   0.478   0.113  1.00  0.00    -0.385 N 
ATOM     24  H4  UNL     1      -3.731   0.818  -0.477  1.00  0.00     0.159 HD
BRANCH  23  25
HETATM   25  C13 UNL     1      -2.695   1.128   1.376  1.00  0.00     0.184 C 
BRANCH  25  26
HETATM   26  C14 UNL     1      -3.614   2.269   1.609  1.00  0.00     0.070 A 
HETATM   27  C15 UNL     1      -4.855   2.208   2.255  1.00  0.00     0.036 A 
HETATM   28  C16 UNL     1      -5.386   3.475   2.264  1.00  0.00     0.027 A 
HETATM   29  C17 UNL     1      -4.463   4.270   1.627  1.00  0.00     0.142 A 
HETATM   30  O3  UNL     1      -3.468   3.528   1.273  1.00  0.00    -0.325 OA
ENDBRANCH  25  26
ENDBRANCH  23  25
ENDBRANCH   1  23
TORSDOF 10
