REMARK  9 active torsions:
REMARK  status: ('A' for Active; 'I' for Inactive)
REMARK    1  A    between atoms: C2_2  and  C3_3 
REMARK       I    between atoms: C3_3  and  N1_5 
REMARK    2  A    between atoms: N1_5  and  C4_7 
REMARK    3  A    between atoms: C7_12  and  N3_13 
REMARK       I    between atoms: N3_13  and  C8_15 
REMARK    4  A    between atoms: C8_15  and  C9_17 
REMARK    5  A    between atoms: C9_17  and  C10_18 
REMARK    6  A    between atoms: C10_18  and  S1_19 
REMARK    7  A    between atoms: S1_19  and  C11_22 
REMARK    8  A    between atoms: C14_25  and  O5_26 
REMARK    9  A    between atoms: O5_26  and  C15_27 
ROOT
HETATM    1  N3  UNL     1      -0.574  -1.564  -0.738  1.00  0.00    -0.320 N 
ATOM      2  H3  UNL     1       0.091  -2.337  -0.765  1.00  0.00     0.169 HD
HETATM    3  C8  UNL     1      -0.327  -0.345  -1.472  1.00  0.00     0.223 C 
HETATM    4  O2  UNL     1      -1.172   0.573  -1.407  1.00  0.00    -0.273 OA
ENDROOT
BRANCH   3   5
HETATM    5  C9  UNL     1       0.890  -0.193  -2.276  1.00  0.00     0.118 C 
BRANCH   5   6
HETATM    6  C10 UNL     1       1.153   1.214  -2.653  1.00  0.00     0.155 C 
BRANCH   6   7
HETATM    7  S1  UNL     1       1.532   2.218  -1.276  1.00  0.00     0.176 S 
HETATM    8  O3  UNL     1       1.861   3.619  -1.789  1.00  0.00    -0.223 OA
HETATM    9  O4  UNL     1       0.457   2.358  -0.281  1.00  0.00    -0.223 OA
BRANCH   7  10
HETATM   10  C11 UNL     1       2.970   1.571  -0.472  1.00  0.00     0.059 A 
HETATM   11  C12 UNL     1       4.220   2.005  -0.850  1.00  0.00     0.026 A 
HETATM   12  C13 UNL     1       5.364   1.499  -0.220  1.00  0.00     0.038 A 
HETATM   13  C14 UNL     1       5.236   0.571   0.773  1.00  0.00     0.075 A 
HETATM   14  C16 UNL     1       3.970   0.116   1.173  1.00  0.00     0.038 A 
HETATM   15  C17 UNL     1       2.880   0.634   0.534  1.00  0.00     0.026 A 
BRANCH  13  16
HETATM   16  O5  UNL     1       6.330   0.059   1.406  1.00  0.00    -0.290 OA
BRANCH  16  17
HETATM   17  C15 UNL     1       7.657   0.371   1.166  1.00  0.00     0.505 C 
HETATM   18  F1  UNL     1       8.314  -0.841   0.916  1.00  0.00    -0.184 F 
HETATM   19  F2  UNL     1       8.166   0.908   2.356  1.00  0.00    -0.184 F 
ENDBRANCH  16  17
ENDBRANCH  13  16
ENDBRANCH   7  10
ENDBRANCH   6   7
ENDBRANCH   5   6
ENDBRANCH   3   5
BRANCH   1  20
HETATM   20  C7  UNL     1      -1.775  -1.654   0.026  1.00  0.00     0.102 A 
HETATM   21  C5  UNL     1      -2.227  -2.689   0.795  1.00  0.00     0.041 A 
HETATM   22  N2  UNL     1      -3.369  -2.540   1.409  1.00  0.00    -0.338 N 
HETATM   23  C6  UNL     1      -1.392  -3.958   0.905  1.00  0.00     0.071 C 
HETATM   24  C4  UNL     1      -4.034  -1.394   1.256  1.00  0.00     0.153 A 
ATOM     25  H2  UNL     1      -3.746  -3.285   1.994  1.00  0.00     0.168 HD
HETATM   26  S2  UNL     1      -3.021  -0.498   0.218  1.00  0.00    -0.034 SA
BRANCH  24  27
HETATM   27  N1  UNL     1      -5.194  -1.061   1.792  1.00  0.00    -0.307 N 
HETATM   28  C3  UNL     1      -5.685   0.229   1.465  1.00  0.00     0.223 C 
HETATM   29  O1  UNL     1      -5.314   1.231   2.123  1.00  0.00    -0.273 OA
ATOM     30  H1  UNL     1      -5.707  -1.694   2.405  1.00  0.00     0.171 HD
BRANCH  28  31
HETATM   31  C2  UNL     1      -6.641   0.450   0.353  1.00  0.00     0.099 C 
HETATM   32  C1  UNL     1      -6.999   1.913   0.223  1.00  0.00     0.014 C 
ENDBRANCH  28  31
ENDBRANCH  24  27
ENDBRANCH   1  20
TORSDOF 9
