REMARK  10 active torsions:
REMARK  status: ('A' for Active; 'I' for Inactive)
REMARK    1  A    between atoms: C2_2  and  C3_3 
REMARK    2  A    between atoms: C3_3  and  C4_4 
REMARK    3  A    between atoms: C4_4  and  C5_5 
REMARK    4  A    between atoms: C5_5  and  C6_6 
REMARK    5  A    between atoms: C6_6  and  C7_7 
REMARK    6  A    between atoms: C7_7  and  C8_8 
REMARK    7  A    between atoms: C8_8  and  C9_9 
REMARK    8  A    between atoms: C9_9  and  C10_10 
REMARK    9  A    between atoms: C10_10  and  C11_11 
REMARK   10  A    between atoms: C11_11  and  N1_12 
ROOT
HETATM    1  C9  UNL     1      -2.471  -0.706  -0.075  1.00  0.00    -0.039 A 
HETATM    2  C12 UNL     1      -3.009  -1.362   1.195  1.00  0.00     0.010 A 
HETATM    3  C13 UNL     1      -3.485  -1.836  -0.123  1.00  0.00     0.010 A 
ENDROOT
BRANCH   1   4
HETATM    4  C8  UNL     1      -1.088  -1.154  -0.441  1.00  0.00     0.009 C 
BRANCH   4   5
HETATM    5  C7  UNL     1       0.005  -0.301   0.126  1.00  0.00     0.001 C 
BRANCH   5   6
HETATM    6  C6  UNL     1       1.313  -0.903  -0.347  1.00  0.00     0.000 C 
BRANCH   6   7
HETATM    7  C5  UNL     1       2.505  -0.130   0.159  1.00  0.00     0.000 C 
BRANCH   7   8
HETATM    8  C4  UNL     1       3.756  -0.805  -0.363  1.00  0.00     0.004 C 
BRANCH   8   9
HETATM    9  C3  UNL     1       4.993  -0.063   0.120  1.00  0.00     0.026 C 
BRANCH   9  10
HETATM   10  C2  UNL     1       4.891   1.328  -0.407  1.00  0.00    -0.037 C 
HETATM   11  C1  UNL     1       4.856   2.372   0.406  1.00  0.00     0.007 C 
ENDBRANCH   9  10
ENDBRANCH   8   9
ENDBRANCH   7   8
ENDBRANCH   6   7
ENDBRANCH   5   6
ENDBRANCH   4   5
ENDBRANCH   1   4
BRANCH   1  12
HETATM   12  C10 UNL     1      -2.973   0.637  -0.447  1.00  0.00     0.036 C 
BRANCH  12  13
HETATM   13  C11 UNL     1      -4.363   0.888   0.010  1.00  0.00     0.230 C 
BRANCH  13  14
HETATM   14  N1  UNL     1      -4.829   2.236  -0.375  1.00  0.00    -0.079 N 
ATOM     15  H13 UNL     1      -4.192   2.959  -0.042  1.00  0.00     0.274 HD
ATOM     16  H12 UNL     1      -4.734   2.390  -1.379  1.00  0.00     0.274 HD
ATOM     17  H11 UNL     1      -5.784   2.408  -0.061  1.00  0.00     0.274 HD
ENDBRANCH  13  14
ENDBRANCH  12  13
ENDBRANCH   1  12
TORSDOF 10
