REMARK  4 active torsions:
REMARK  status: ('A' for Active; 'I' for Inactive)
REMARK    1  A    between atoms: C1_4  and  C2_5 
REMARK    2  A    between atoms: C2_5  and  C3_6 
REMARK    3  A    between atoms: C3_6  and  C4_8 
REMARK    4  A    between atoms: C6_12  and  C7_13 
ROOT
HETATM    1  C4  UNL     1      -0.175  -0.342   0.232  1.00  0.00     0.153 A 
HETATM    2  N2  UNL     1       0.090  -1.648   0.269  1.00  0.00    -0.347 N 
ATOM      3  H2  UNL     1      -0.599  -2.400   0.273  1.00  0.00     0.167 HD
HETATM    4  C5  UNL     1       1.446  -1.800   0.301  1.00  0.00     0.124 A 
HETATM    5  C6  UNL     1       2.013  -0.544   0.282  1.00  0.00     0.115 A 
HETATM    6  N4  UNL     1       0.985   0.323   0.240  1.00  0.00    -0.334 N 
ATOM      7  H4  UNL     1       1.077   1.339   0.218  1.00  0.00     0.168 HD
ENDROOT
BRANCH   1   8
HETATM    8  C3  UNL     1      -1.498   0.312   0.190  1.00  0.00     0.197 C 
HETATM    9  O1  UNL     1      -1.586   1.562   0.158  1.00  0.00    -0.289 OA
BRANCH   8  10
HETATM   10  C2  UNL     1      -2.734  -0.494   0.184  1.00  0.00     0.131 C 
BRANCH  10  11
HETATM   11  C1  UNL     1      -3.902   0.423   0.138  1.00  0.00     0.060 C 
HETATM   12  N1  UNL     1      -4.016   1.293  -0.791  1.00  0.00    -0.411 N 
ATOM     13  H12 UNL     1      -3.287   1.345  -1.502  1.00  0.00     0.155 HD
ATOM     14  H11 UNL     1      -4.818   1.923  -0.823  1.00  0.00     0.155 HD
ENDBRANCH  10  11
ENDBRANCH   8  10
ENDBRANCH   1   8
BRANCH   5  15
HETATM   15  C7  UNL     1       3.442  -0.249   0.304  1.00  0.00     0.282 C 
HETATM   16  N3  UNL     1       3.918   1.091   0.281  1.00  0.00    -0.056 NA
HETATM   17  O2  UNL     1       4.272  -1.189   0.343  1.00  0.00    -0.269 OA
ENDBRANCH   5  15
TORSDOF 4
