REMARK  2 active torsions:
REMARK  status: ('A' for Active; 'I' for Inactive)
REMARK    1  A    between atoms: C2_2  and  C3_3 
REMARK    2  A    between atoms: C5_5  and  C6_6 
ROOT
HETATM    1  C3  UNL     1      -0.134  -0.714   0.192  1.00  0.00     0.017 A 
HETATM    2  C4  UNL     1       0.051  -0.066  -1.167  1.00  0.00     0.019 A 
HETATM    3  C5  UNL     1      -0.182   0.766   0.136  1.00  0.00     0.032 A 
ENDROOT
BRANCH   3   4
HETATM    4  C6  UNL     1      -1.533   1.382   0.254  1.00  0.00     0.058 C 
HETATM    5  N1  UNL     1      -2.529   0.953  -0.408  1.00  0.00    -0.411 N 
ATOM      6  H12 UNL     1      -2.382   0.162  -1.035  1.00  0.00     0.155 HD
ATOM      7  H11 UNL     1      -3.454   1.375  -0.327  1.00  0.00     0.155 HD
ENDBRANCH   3   4
BRANCH   1   8
HETATM    8  C2  UNL     1       1.072  -1.435   0.683  1.00  0.00    -0.032 C 
HETATM    9  C1  UNL     1       2.162  -0.817   1.098  1.00  0.00     0.007 C 
ENDBRANCH   1   8
TORSDOF 2
