REMARK  1 active torsions:
REMARK  status: ('A' for Active; 'I' for Inactive)
REMARK    1  A    between atoms: C2_2  and  C3_3 
ROOT
HETATM    1  C3  UNL     1       0.107  -0.066   0.489  1.00  0.00     0.048 A 
HETATM    2  C4  UNL     1      -0.566   0.079  -0.715  1.00  0.00     0.049 A 
HETATM    3  C5  UNL     1      -1.924  -0.006  -0.502  1.00  0.00     0.109 A 
HETATM    4  N1  UNL     1      -2.058  -0.202   0.822  1.00  0.00    -0.311 N 
ATOM      5  H1  UNL     1      -2.946  -0.309   1.312  1.00  0.00     0.186 HD
HETATM    6  N2  UNL     1      -0.860  -0.235   1.396  1.00  0.00    -0.301 N 
ATOM      7  H2  UNL     1      -0.700  -0.371   2.394  1.00  0.00     0.187 HD
ENDROOT
BRANCH   1   8
HETATM    8  C2  UNL     1       1.552  -0.028   0.637  1.00  0.00     0.021 C 
HETATM    9  C1  UNL     1       2.335   0.154  -0.413  1.00  0.00     0.013 C 
ENDBRANCH   1   8
TORSDOF 1
