REMARK  2 active torsions:
REMARK  status: ('A' for Active; 'I' for Inactive)
REMARK    1  A    between atoms: C2_2  and  C3_3 
REMARK    2  A    between atoms: C3_3  and  C4_4 
ROOT
HETATM    1  C4  UNL     1       0.686  -0.797  -0.045  1.00  0.00     0.103 A 
HETATM    2  C5  UNL     1       1.361  -0.132  -1.184  1.00  0.00     0.145 A 
HETATM    3  N1  UNL     1       2.068   0.961  -0.594  1.00  0.00    -0.384 N 
ATOM      4  H1  UNL     1       2.659   1.595  -1.131  1.00  0.00     0.160 HD
HETATM    5  C6  UNL     1       1.895   1.071   0.652  1.00  0.00     0.171 A 
HETATM    6  N2  UNL     1       1.022   0.036   1.081  1.00  0.00    -0.380 N 
ATOM      7  H2  UNL     1       0.686  -0.096   2.035  1.00  0.00     0.160 HD
ENDROOT
BRANCH   1   8
HETATM    8  C3  UNL     1      -0.801  -0.958  -0.196  1.00  0.00     0.053 C 
BRANCH   8   9
HETATM    9  C2  UNL     1      -1.521   0.307  -0.350  1.00  0.00    -0.035 C 
HETATM   10  C1  UNL     1      -2.452   0.674   0.516  1.00  0.00     0.007 C 
ENDBRANCH   8   9
ENDBRANCH   1   8
TORSDOF 2
