REMARK  2 active torsions:
REMARK  status: ('A' for Active; 'I' for Inactive)
REMARK    1  A    between atoms: C1_2  and  C2_3 
REMARK    2  A    between atoms: C2_3  and  N1_4 
ROOT
HETATM    1  N1  UNL     1       1.275  -0.887   0.173  1.00  0.00    -0.379 N 
ATOM      2  H1  UNL     1       1.519  -1.856  -0.030  1.00  0.00     0.160 HD
HETATM    3  C3  UNL     1       0.032  -0.562   0.270  1.00  0.00     0.072 C 
HETATM    4  C4  UNL     1      -0.900  -1.647   0.073  1.00  0.00     0.076 C 
HETATM    5  C5  UNL     1      -2.258  -1.298  -0.384  1.00  0.00     0.007 C 
HETATM    6  C6  UNL     1      -2.205   0.040  -1.072  1.00  0.00     0.002 C 
HETATM    7  C7  UNL     1      -2.617   1.057  -0.011  1.00  0.00     0.020 C 
HETATM    8  C8  UNL     1      -1.394   1.610   0.605  1.00  0.00     0.121 C 
HETATM    9  N2  UNL     1      -0.220   0.789   0.551  1.00  0.00    -0.380 N 
ATOM     10  H2  UNL     1       0.631   1.309   0.767  1.00  0.00     0.160 HD
ENDROOT
BRANCH   1  11
HETATM   11  C2  UNL     1       2.338   0.087   0.345  1.00  0.00     0.132 C 
BRANCH  11  12
HETATM   12  C1  UNL     1       3.649  -0.645   0.057  1.00  0.00     0.105 C 
HETATM   13  S1  UNL     1       5.028   0.512   0.253  1.00  0.00    -0.096 SA
ENDBRANCH  11  12
ENDBRANCH   1  11
TORSDOF 2
