REMARK  2 active torsions:
REMARK  status: ('A' for Active; 'I' for Inactive)
REMARK    1  A    between atoms: O1_1  and  C1_3 
REMARK    2  A    between atoms: C1_3  and  C2_4 
ROOT
HETATM    1  C2  UNL     1      -1.608   0.258   0.314  1.00  0.00     0.210 C 
HETATM    2  C3  UNL     1      -1.185  -1.078   0.927  1.00  0.00     0.037 C 
HETATM    3  C4  UNL     1       0.083  -1.453   0.149  1.00  0.00     0.041 C 
HETATM    4  C5  UNL     1       0.527  -0.064  -0.316  1.00  0.00     0.126 C 
HETATM    5  C6  UNL     1       1.054   0.717   0.843  1.00  0.00     0.039 C 
HETATM    6  C7  UNL     1       2.462   1.099   0.437  1.00  0.00     0.002 C 
HETATM    7  C8  UNL     1       2.858  -0.041  -0.481  1.00  0.00     0.002 C 
HETATM    8  C9  UNL     1       1.602  -0.143  -1.355  1.00  0.00     0.039 C 
HETATM    9  N1  UNL     1      -0.720   0.471  -0.815  1.00  0.00    -0.060 N 
ATOM     10  H11 UNL     1      -0.674   1.432  -1.155  1.00  0.00     0.278 HD
ATOM     11  H12 UNL     1      -1.039   0.073  -1.698  1.00  0.00     0.278 HD
ENDROOT
BRANCH   1  12
HETATM   12  C1  UNL     1      -3.055   0.109  -0.162  1.00  0.00     0.197 C 
BRANCH  12  13
HETATM   13  O1  UNL     1      -3.464   1.245  -0.829  1.00  0.00    -0.399 OA
ATOM     14  H1  UNL     1      -4.362   1.153  -1.124  1.00  0.00     0.209 HD
ENDBRANCH  12  13
ENDBRANCH   1  12
TORSDOF 2
