REMARK  5 active torsions:
REMARK  status: ('A' for Active; 'I' for Inactive)
REMARK    1  A    between atoms: C3_5  and  N2_6 
REMARK    2  A    between atoms: N2_6  and  N3_8 
REMARK    3  A    between atoms: C6_15  and  C7_16 
REMARK    4  A    between atoms: C8_17  and  O1_18 
REMARK    5  A    between atoms: C8_17  and  O2_20 
ROOT
HETATM    1  C1  UNL     1       0.154  -2.645   0.167  1.00  0.00     0.044 C 
HETATM    2  C2  UNL     1      -0.230  -1.397   0.102  1.00  0.00     0.053 A 
HETATM    3  N1  UNL     1      -1.574  -1.138   0.089  1.00  0.00    -0.190 N 
ATOM      4  H1  UNL     1      -2.215  -1.930   0.136  1.00  0.00     0.184 HD
HETATM    5  C3  UNL     1      -2.093   0.080   0.019  1.00  0.00     0.699 A 
HETATM    6  N4  UNL     1      -1.234   1.092  -0.041  1.00  0.00    -0.179 N 
ATOM      7  H4  UNL     1      -1.598   2.043  -0.097  1.00  0.00     0.185 HD
HETATM    8  C5  UNL     1       0.122   0.904  -0.031  1.00  0.00     0.132 A 
HETATM    9 CL1  UNL     1       1.104   2.343  -0.129  1.00  0.00    -0.063 Cl
HETATM   10  C6  UNL     1       0.696  -0.337   0.041  1.00  0.00     0.034 A 
ENDROOT
BRANCH  10  11
HETATM   11  C7  UNL     1       1.973  -0.615   0.064  1.00  0.00     0.080 C 
HETATM   12  C8  UNL     1       3.192   0.094   0.029  1.00  0.00     0.178 C 
BRANCH  12  13
HETATM   13  O1  UNL     1       4.290  -0.680   0.073  1.00  0.00    -0.341 OA
ATOM     14  H1  UNL     1       5.111  -0.203   0.049  1.00  0.00     0.220 HD
ENDBRANCH  12  13
BRANCH  12  15
HETATM   15  O2  UNL     1       3.564   1.392  -0.038  1.00  0.00    -0.336 OA
HETATM   16  C9  UNL     1       4.898   1.862  -0.056  1.00  0.00     0.212 C 
ENDBRANCH  12  15
ENDBRANCH  10  11
BRANCH   5  17
HETATM   17  N2  UNL     1      -3.503   0.291   0.033  1.00  0.00    -0.135 N 
HETATM   18  C4  UNL     1      -4.266   0.157  -1.176  1.00  0.00     0.197 C 
BRANCH  17  19
HETATM   19  N3  UNL     1      -4.155   0.638   1.214  1.00  0.00    -0.329 N 
ATOM     20  H32 UNL     1      -3.613   0.733   2.073  1.00  0.00     0.177 HD
ATOM     21  H31 UNL     1      -5.164   0.789   1.224  1.00  0.00     0.177 HD
ENDBRANCH  17  19
ENDBRANCH   5  17
TORSDOF 5
