REMARK  6 active torsions:
REMARK  status: ('A' for Active; 'I' for Inactive)
REMARK    1  A    between atoms: O1_2  and  C2_3 
REMARK    2  A    between atoms: C5_6  and  C6_7 
REMARK    3  A    between atoms: C9_11  and  C10_12 
REMARK    4  A    between atoms: C10_12  and  C11_14 
REMARK    5  A    between atoms: C18_24  and  O4_26 
REMARK    6  A    between atoms: C24_31  and  O5_32 
ROOT
HETATM    1  C6  UNL     1      -1.129   0.476   0.253  1.00  0.00     0.170 C 
HETATM    2  O2  UNL     1       0.198   0.075  -0.033  1.00  0.00    -0.338 OA
HETATM    3  C7  UNL     1       1.371   0.807   0.146  1.00  0.00     0.097 A 
HETATM    4  C8  UNL     1       2.510  -0.003   0.100  1.00  0.00     0.057 A 
HETATM    5  C9  UNL     1       3.754   0.553   0.257  1.00  0.00     0.052 A 
HETATM    6  C15 UNL     1       3.849   1.943   0.464  1.00  0.00     0.132 A 
HETATM    7  F1  UNL     1       5.061   2.522   0.623  1.00  0.00    -0.205 F 
HETATM    8  C16 UNL     1       2.712   2.703   0.503  1.00  0.00     0.075 A 
HETATM    9  C17 UNL     1       1.448   2.166   0.347  1.00  0.00     0.067 A 
HETATM   10  N1  UNL     1       0.408   3.125   0.422  1.00  0.00    -0.356 N 
ATOM     11  H1  UNL     1       0.729   4.090   0.495  1.00  0.00     0.162 HD
HETATM   12  C18 UNL     1      -1.030   2.972   0.413  1.00  0.00     0.136 C 
HETATM   13  C19 UNL     1      -1.624   4.233  -0.154  1.00  0.00     0.071 C 
HETATM   14  C21 UNL     1      -1.473   1.789  -0.420  1.00  0.00     0.071 C 
HETATM   15  C22 UNL     1      -2.997   1.867  -0.509  1.00  0.00     0.018 C 
ENDROOT
BRANCH   1  16
HETATM   16  C5  UNL     1      -2.028  -0.558  -0.333  1.00  0.00    -0.026 A 
HETATM   17  C4  UNL     1      -1.777  -1.013  -1.599  1.00  0.00     0.012 A 
HETATM   18  C3  UNL     1      -2.585  -1.969  -2.178  1.00  0.00     0.040 A 
HETATM   19  C2  UNL     1      -3.651  -2.461  -1.463  1.00  0.00     0.101 A 
HETATM   20  C24 UNL     1      -3.894  -1.992  -0.182  1.00  0.00     0.102 A 
HETATM   21  C23 UNL     1      -3.091  -1.044   0.390  1.00  0.00     0.049 A 
BRANCH  19  22
HETATM   22  O1  UNL     1      -4.476  -3.414  -2.009  1.00  0.00    -0.353 OA
HETATM   23  C1  UNL     1      -4.338  -3.965  -3.284  1.00  0.00     0.210 C 
ENDBRANCH  19  22
BRANCH  20  24
HETATM   24  O5  UNL     1      -4.971  -2.505   0.511  1.00  0.00    -0.353 OA
HETATM   25  C25 UNL     1      -5.293  -2.084   1.824  1.00  0.00     0.210 C 
ENDBRANCH  20  24
ENDBRANCH   1  16
BRANCH  12  26
HETATM   26  O4  UNL     1      -1.443   2.727   1.716  1.00  0.00    -0.366 OA
HETATM   27  C20 UNL     1      -1.113   3.757   2.591  1.00  0.00     0.204 C 
ENDBRANCH  12  26
BRANCH   5  28
HETATM   28  C10 UNL     1       4.966  -0.221   0.219  1.00  0.00     0.170 C 
HETATM   29  O3  UNL     1       6.077   0.366   0.355  1.00  0.00    -0.291 OA
BRANCH  28  30
HETATM   30  C11 UNL     1       4.978  -1.674   0.027  1.00  0.00     0.015 C 
HETATM   31  C12 UNL     1       4.232  -2.412   1.114  1.00  0.00     0.023 C 
HETATM   32  C13 UNL     1       6.406  -2.219   0.067  1.00  0.00     0.023 C 
HETATM   33  C14 UNL     1       4.407  -2.084  -1.310  1.00  0.00     0.023 C 
ENDBRANCH  28  30
ENDBRANCH   5  28
TORSDOF 6
