REMARK  14 active torsions:
REMARK  status: ('A' for Active; 'I' for Inactive)
REMARK    1  A    between atoms: C2_2  and  N1_3 
REMARK    2  A    between atoms: N1_3  and  C3_4 
REMARK    3  A    between atoms: N1_3  and  S3_41 
REMARK    4  A    between atoms: C6_7  and  C7_8 
REMARK       I    between atoms: C7_8  and  N2_10 
REMARK    5  A    between atoms: N2_10  and  C8_12 
REMARK    6  A    between atoms: C9_17  and  C10_18 
REMARK    7  A    between atoms: C10_18  and  C11_19 
REMARK    8  A    between atoms: C11_19  and  C12_20 
REMARK    9  A    between atoms: C12_20  and  C13_21 
REMARK   10  A    between atoms: C13_21  and  C14_22 
REMARK   11  A    between atoms: C16_26  and  N6_27 
REMARK       I    between atoms: N6_27  and  C17_29 
REMARK   12  A    between atoms: C17_29  and  C18_31 
REMARK   13  A    between atoms: C18_31  and  C19_32 
REMARK   14  A    between atoms: C19_32  and  C20_33 
ROOT
HETATM    1  C8  UNL     1      -1.876  -2.169   0.937  1.00  0.00     0.168 A 
HETATM    2  N3  UNL     1      -0.980  -2.353   1.914  1.00  0.00    -0.279 N 
ATOM      3  H3  UNL     1      -1.169  -3.005   2.676  1.00  0.00     0.189 HD
HETATM    4  N4  UNL     1       0.105  -1.704   1.876  1.00  0.00    -0.296 N 
ATOM      5  H4  UNL     1       0.795  -1.837   2.616  1.00  0.00     0.187 HD
HETATM    6  C9  UNL     1       0.361  -0.856   0.894  1.00  0.00     0.069 A 
HETATM    7  S2  UNL     1      -1.088  -1.016  -0.044  1.00  0.00    -0.038 SA
ENDROOT
BRANCH   6   8
HETATM    8  C10 UNL     1       1.548   0.005   0.642  1.00  0.00     0.066 C 
BRANCH   8   9
HETATM    9  C11 UNL     1       2.534  -0.714  -0.227  1.00  0.00     0.007 C 
BRANCH   9  10
HETATM   10  C12 UNL     1       2.994  -1.971   0.459  1.00  0.00     0.006 C 
BRANCH  10  11
HETATM   11  C13 UNL     1       4.006  -2.705  -0.336  1.00  0.00     0.048 C 
BRANCH  11  12
HETATM   12  C14 UNL     1       5.276  -1.933  -0.478  1.00  0.00     0.001 A 
HETATM   13  C15 UNL     1       5.727  -0.800   0.133  1.00  0.00     0.104 A 
HETATM   14  N5  UNL     1       6.890  -0.325  -0.202  1.00  0.00    -0.345 N 
HETATM   15  C16 UNL     1       7.600  -0.962  -1.130  1.00  0.00     0.151 A 
ATOM     16  H5  UNL     1       7.252   0.521   0.239  1.00  0.00     0.167 HD
HETATM   17  S1  UNL     1       6.601  -2.276  -1.548  1.00  0.00    -0.057 SA
BRANCH  15  18
HETATM   18  N6  UNL     1       8.787  -0.638  -1.597  1.00  0.00    -0.307 N 
HETATM   19  C17 UNL     1       9.440   0.500  -1.106  1.00  0.00     0.224 C 
HETATM   20  O2  UNL     1       9.294   1.574  -1.772  1.00  0.00    -0.273 OA
ATOM     21  H6  UNL     1       9.230  -1.213  -2.314  1.00  0.00     0.171 HD
BRANCH  19  22
HETATM   22  C18 UNL     1      10.269   0.524   0.114  1.00  0.00     0.112 C 
BRANCH  22  23
HETATM   23  C19 UNL     1      10.954   1.822   0.352  1.00  0.00     0.109 C 
BRANCH  23  24
HETATM   24  C20 UNL     1      11.897   2.240  -0.693  1.00  0.00     0.231 C 
HETATM   25  N7  UNL     1      12.563   3.475  -0.723  1.00  0.00    -0.062 NA
HETATM   26  O3  UNL     1      12.136   1.437  -1.643  1.00  0.00    -0.277 OA
ENDBRANCH  23  24
ENDBRANCH  22  23
ENDBRANCH  19  22
ENDBRANCH  15  18
ENDBRANCH  11  12
ENDBRANCH  10  11
ENDBRANCH   9  10
ENDBRANCH   8   9
ENDBRANCH   6   8
BRANCH   1  27
HETATM   27  N2  UNL     1      -3.048  -2.751   0.811  1.00  0.00    -0.302 N 
HETATM   28  C7  UNL     1      -3.806  -2.372  -0.327  1.00  0.00     0.257 C 
HETATM   29  O1  UNL     1      -3.469  -2.783  -1.455  1.00  0.00    -0.267 OA
ATOM     30  H2  UNL     1      -3.391  -3.432   1.489  1.00  0.00     0.171 HD
BRANCH  28  31
HETATM   31  C6  UNL     1      -4.965  -1.510  -0.164  1.00  0.00     0.033 A 
HETATM   32  C5  UNL     1      -5.314  -1.072   1.084  1.00  0.00     0.019 A 
HETATM   33  C4  UNL     1      -6.409  -0.259   1.227  1.00  0.00     0.032 A 
HETATM   34  C3  UNL     1      -7.182   0.140   0.155  1.00  0.00     0.050 A 
HETATM   35  C22 UNL     1      -6.842  -0.293  -1.102  1.00  0.00    -0.034 A 
HETATM   36  C21 UNL     1      -5.730  -1.119  -1.256  1.00  0.00     0.026 A 
HETATM   37  C23 UNL     1      -7.653   0.104  -2.281  1.00  0.00     0.050 C 
BRANCH  34  38
HETATM   38  N1  UNL     1      -8.285   0.989   0.407  1.00  0.00    -0.276 N 
BRANCH  38  39
HETATM   39  C2  UNL     1      -9.558   0.337   0.669  1.00  0.00     0.137 C 
HETATM   40  C1  UNL     1      -9.786   0.049   2.116  1.00  0.00     0.028 C 
ENDBRANCH  38  39
BRANCH  38  41
HETATM   41  S3  UNL     1      -8.076   2.674   0.392  1.00  0.00     0.229 S 
HETATM   42  C24 UNL     1      -7.543   3.348  -1.137  1.00  0.00     0.186 C 
HETATM   43  O4  UNL     1      -7.021   3.011   1.437  1.00  0.00    -0.206 OA
HETATM   44  O5  UNL     1      -9.348   3.334   0.846  1.00  0.00    -0.206 OA
ENDBRANCH  38  41
ENDBRANCH  34  38
ENDBRANCH  28  31
ENDBRANCH   1  27
TORSDOF 14
