REMARK  16 active torsions:
REMARK  status: ('A' for Active; 'I' for Inactive)
REMARK    1  A    between atoms: C2_2  and  C3_3 
REMARK    2  A    between atoms: C3_3  and  C4_4 
REMARK    3  A    between atoms: C4_4  and  O1_5 
REMARK    4  A    between atoms: O1_5  and  C5_6 
REMARK       I    between atoms: C5_6  and  N1_8 
REMARK       I    between atoms: N2_11  and  C8_12 
REMARK    5  A    between atoms: C8_12  and  C9_14 
REMARK    6  A    between atoms: C9_14  and  C10_15 
REMARK    7  A    between atoms: C9_14  and  N3_19 
REMARK    8  A    between atoms: C10_15  and  C11_16 
REMARK       I    between atoms: N3_19  and  C14_21 
REMARK    9  A    between atoms: C14_21  and  C15_23 
REMARK   10  A    between atoms: C15_23  and  C16_24 
REMARK   11  A    between atoms: C15_23  and  N4_33 
REMARK   12  A    between atoms: C16_24  and  C17_25 
REMARK   13  A    between atoms: C17_25  and  C18_26 
REMARK   14  A    between atoms: C18_26  and  O6_28 
REMARK   15  A    between atoms: O6_28  and  C19_29 
REMARK       I    between atoms: N4_33  and  C23_35 
REMARK   16  A    between atoms: C23_35  and  C24_37 
ROOT
HETATM    1  N3  UNL     1      -0.302   0.240  -0.645  1.00  0.00    -0.346 N 
ATOM      2  H3  UNL     1      -0.478   1.180  -1.000  1.00  0.00     0.163 HD
HETATM    3  C14 UNL     1      -1.378  -0.493  -0.155  1.00  0.00     0.241 C 
HETATM    4  O4  UNL     1      -1.160  -1.673   0.292  1.00  0.00    -0.271 OA
ENDROOT
BRANCH   3   5
HETATM    5  C15 UNL     1      -2.811  -0.007  -0.108  1.00  0.00     0.177 C 
BRANCH   5   6
HETATM    6  C16 UNL     1      -2.934   1.183  -0.956  1.00  0.00     0.044 C 
BRANCH   6   7
HETATM    7  C17 UNL     1      -4.262   1.826  -1.088  1.00  0.00     0.113 C 
BRANCH   7   8
HETATM    8  C18 UNL     1      -4.880   2.313   0.147  1.00  0.00     0.259 C 
HETATM    9  O5  UNL     1      -4.324   2.176   1.259  1.00  0.00    -0.265 OA
BRANCH   8  10
HETATM   10  O6  UNL     1      -6.108   2.946   0.126  1.00  0.00    -0.311 OA
BRANCH  10  11
HETATM   11  C19 UNL     1      -6.681   3.393   1.314  1.00  0.00     0.060 C 
HETATM   12  C20 UNL     1      -5.750   4.379   1.983  1.00  0.00     0.045 C 
HETATM   13  C21 UNL     1      -7.959   4.144   0.888  1.00  0.00     0.045 C 
HETATM   14  C22 UNL     1      -7.057   2.310   2.265  1.00  0.00     0.045 C 
ENDBRANCH  10  11
ENDBRANCH   8  10
ENDBRANCH   7   8
ENDBRANCH   6   7
ENDBRANCH   5   6
BRANCH   5  15
HETATM   15  N4  UNL     1      -3.618  -1.138  -0.397  1.00  0.00    -0.346 N 
HETATM   16  C23 UNL     1      -4.180  -2.052   0.527  1.00  0.00     0.240 C 
HETATM   17  O7  UNL     1      -3.957  -1.889   1.742  1.00  0.00    -0.271 OA
ATOM     18  H4  UNL     1      -3.816  -1.312  -1.382  1.00  0.00     0.163 HD
BRANCH  16  19
HETATM   19  C24 UNL     1      -5.021  -3.196   0.104  1.00  0.00     0.169 C 
HETATM   20  C25 UNL     1      -6.498  -2.835   0.177  1.00  0.00     0.034 C 
HETATM   21  C26 UNL     1      -7.255  -3.634   1.186  1.00  0.00     0.004 C 
HETATM   22  C27 UNL     1      -6.509  -3.833   2.470  1.00  0.00     0.019 C 
HETATM   23  C28 UNL     1      -5.121  -4.376   2.229  1.00  0.00     0.114 C 
HETATM   24  N5  UNL     1      -4.737  -4.366   0.864  1.00  0.00    -0.409 N 
ATOM     25  H5  UNL     1      -4.273  -5.170   0.441  1.00  0.00     0.154 HD
ENDBRANCH  16  19
ENDBRANCH   5  15
ENDBRANCH   3   5
BRANCH   1  26
HETATM   26  C9  UNL     1       1.075  -0.270  -0.677  1.00  0.00     0.177 C 
BRANCH  26  27
HETATM   27  C8  UNL     1       1.999   0.720  -0.062  1.00  0.00     0.242 C 
HETATM   28  N2  UNL     1       3.343   0.477   0.293  1.00  0.00    -0.347 N 
HETATM   29  C7  UNL     1       3.920  -0.839   0.151  1.00  0.00     0.146 C 
HETATM   30  C29 UNL     1       4.157   1.578   0.799  1.00  0.00     0.146 C 
HETATM   31  C6  UNL     1       5.186  -0.756  -0.635  1.00  0.00     0.148 C 
HETATM   32  N1  UNL     1       6.021   0.294  -0.135  1.00  0.00    -0.325 N 
HETATM   33  C5  UNL     1       7.305   0.483  -0.727  1.00  0.00     0.362 C 
HETATM   34  C30 UNL     1       5.600   1.146   0.942  1.00  0.00     0.148 C 
HETATM   35  O2  UNL     1       7.684  -0.300  -1.663  1.00  0.00    -0.238 OA
HETATM   36  O3  UNL     1       1.507   1.888   0.154  1.00  0.00    -0.271 OA
BRANCH  33  37
HETATM   37  O1  UNL     1       8.178   1.475  -0.350  1.00  0.00    -0.304 OA
BRANCH  37  38
HETATM   38  C4  UNL     1       9.433   1.646  -0.936  1.00  0.00     0.180 C 
BRANCH  38  39
HETATM   39  C3  UNL     1      10.403   0.532  -0.757  1.00  0.00     0.026 C 
BRANCH  39  40
HETATM   40  C2  UNL     1      10.726   0.269   0.703  1.00  0.00    -0.002 C 
HETATM   41  C1  UNL     1      11.329   1.542   1.283  1.00  0.00     0.005 C 
ENDBRANCH  39  40
ENDBRANCH  38  39
ENDBRANCH  37  38
ENDBRANCH  33  37
ENDBRANCH  26  27
BRANCH  26  42
HETATM   42  C10 UNL     1       1.462  -0.285  -2.164  1.00  0.00     0.038 C 
BRANCH  42  43
HETATM   43  C11 UNL     1       0.660  -1.246  -2.974  1.00  0.00    -0.020 C 
HETATM   44  C12 UNL     1       0.836  -2.681  -2.497  1.00  0.00     0.009 C 
HETATM   45  C13 UNL     1       1.125  -1.182  -4.411  1.00  0.00     0.009 C 
ENDBRANCH  42  43
ENDBRANCH  26  42
ENDBRANCH   1  26
TORSDOF 16
