REMARK  3 active torsions:
REMARK  status: ('A' for Active; 'I' for Inactive)
REMARK    1  A    between atoms: C3_3  and  O1_4 
REMARK    2  A    between atoms: C12_17  and  O5_18 
REMARK    3  A    between atoms: C13_20  and  O6_21 
ROOT
HETATM    1  C1  UNL     1       3.219   0.361   1.785  1.00  0.00     0.016 C 
HETATM    2  C2  UNL     1       2.764  -0.562   0.725  1.00  0.00     0.046 C 
HETATM    3  C3  UNL     1       4.066  -0.776  -0.079  1.00  0.00     0.124 C 
HETATM    4  C4  UNL     1       3.548  -1.309  -1.344  1.00  0.00     0.035 C 
HETATM    5  C5  UNL     1       2.341  -0.372  -1.541  1.00  0.00     0.042 C 
HETATM    6  C6  UNL     1       1.640  -0.381  -0.152  1.00  0.00     0.075 C 
HETATM    7  O2  UNL     1       0.913  -1.564  -0.226  1.00  0.00    -0.373 OA
HETATM    8  C7  UNL     1      -0.375  -1.670  -0.005  1.00  0.00     0.136 C 
HETATM    9  C8  UNL     1      -1.139  -1.637  -1.322  1.00  0.00     0.065 C 
HETATM   10  C9  UNL     1      -1.940  -0.407  -1.521  1.00  0.00     0.138 C 
HETATM   11  O3  UNL     1      -3.325  -0.637  -1.484  1.00  0.00    -0.361 OA
HETATM   12  C10 UNL     1      -3.760  -1.553  -0.608  1.00  0.00     0.339 C 
HETATM   13  O4  UNL     1      -3.045  -1.849   0.486  1.00  0.00    -0.358 OA
HETATM   14  C11 UNL     1      -2.451  -0.826   1.184  1.00  0.00     0.166 C 
HETATM   15  C12 UNL     1      -3.198   0.483   1.088  1.00  0.00     0.177 C 
HETATM   16  C13 UNL     1      -2.890   1.337  -0.065  1.00  0.00     0.161 C 
HETATM   17  C14 UNL     1      -1.630   0.789  -0.716  1.00  0.00     0.020 C 
HETATM   18  C15 UNL     1      -0.948   1.873  -1.512  1.00  0.00     0.016 C 
HETATM   19  C16 UNL     1       0.430   1.252  -1.591  1.00  0.00     0.013 C 
HETATM   20  C17 UNL     1       0.745   0.777  -0.155  1.00  0.00    -0.007 C 
HETATM   21  C18 UNL     1       1.303   2.067   0.448  1.00  0.00     0.019 C 
HETATM   22  C19 UNL     1      -0.629   0.620   0.408  1.00  0.00     0.023 C 
HETATM   23  C20 UNL     1      -0.968  -0.711   1.014  1.00  0.00     0.016 C 
HETATM   24  C21 UNL     1      -0.338  -0.988   2.349  1.00  0.00     0.021 C 
ENDROOT
BRANCH   3  25
HETATM   25  O1  UNL     1       4.731   0.428  -0.248  1.00  0.00    -0.395 OA
ATOM     26  H1  UNL     1       5.532   0.296  -0.742  1.00  0.00     0.210 HD
ENDBRANCH   3  25
BRANCH  16  27
HETATM   27  O6  UNL     1      -2.563   2.643   0.341  1.00  0.00    -0.392 OA
ATOM     28  H6  UNL     1      -2.364   3.196  -0.405  1.00  0.00     0.210 HD
ENDBRANCH  16  27
BRANCH  15  29
HETATM   29  O5  UNL     1      -3.076   1.213   2.280  1.00  0.00    -0.390 OA
ATOM     30  H5  UNL     1      -3.546   2.036   2.220  1.00  0.00     0.210 HD
ENDBRANCH  15  29
TORSDOF 3
