REMARK  6 active torsions:
REMARK  status: ('A' for Active; 'I' for Inactive)
REMARK    1  A    between atoms: N1_16  and  C16_17 
REMARK    2  A    between atoms: C16_17  and  C17_18 
REMARK    3  A    between atoms: C17_18  and  N2_19 
REMARK    4  A    between atoms: N2_19  and  C18_20 
REMARK    5  A    between atoms: N2_19  and  C20_22 
REMARK    6  A    between atoms: C20_22  and  C21_23 
ROOT
HETATM    1  C1  UNL     1      -7.237  -0.388  -0.685  1.00  0.00     0.013 C 
HETATM    2  C2  UNL     1      -6.083  -0.205  -0.361  1.00  0.00    -0.107 C 
HETATM    3  C3  UNL     1      -4.628   0.022   0.017  1.00  0.00     0.026 C 
HETATM    4  C4  UNL     1      -4.611   1.265   0.686  1.00  0.00     0.030 C 
HETATM    5  C5  UNL     1      -4.240  -1.289   0.610  1.00  0.00     0.023 C 
HETATM    6  C6  UNL     1      -3.196  -2.047   1.313  1.00  0.00     0.006 C 
HETATM    7  C7  UNL     1      -1.872  -2.300   0.225  1.00  0.00     0.035 C 
HETATM    8  C8  UNL     1      -2.352  -1.033  -0.370  1.00  0.00    -0.073 C 
HETATM    9  C9  UNL     1      -3.391  -1.156  -1.192  1.00  0.00    -0.017 C 
HETATM   10  C10 UNL     1      -3.990   0.144  -1.577  1.00  0.00     0.028 C 
HETATM   11  C11 UNL     1      -3.306   1.310  -1.767  1.00  0.00     0.010 C 
HETATM   12  C12 UNL     1      -1.770   1.301  -1.964  1.00  0.00     0.006 C 
HETATM   13  C13 UNL     1      -1.197   1.285  -0.532  1.00  0.00     0.001 C 
HETATM   14  C14 UNL     1       0.173   1.889  -0.499  1.00  0.00     0.036 C 
HETATM   15  C15 UNL     1       1.352   1.019  -0.509  1.00  0.00     0.273 C 
HETATM   16  N1  UNL     1       1.157  -0.244   0.113  1.00  0.00     0.091 N 
HETATM   17  C23 UNL     1      -0.006  -0.830  -0.565  1.00  0.00     0.286 C 
HETATM   18  C24 UNL     1      -1.280  -0.106   0.046  1.00  0.00     0.009 C 
HETATM   19  C25 UNL     1      -0.994   0.063   1.452  1.00  0.00     0.022 C 
ENDROOT
BRANCH  16  20
HETATM   20  C16 UNL     1       2.195  -1.204   0.012  1.00  0.00     0.302 C 
BRANCH  20  21
HETATM   21  C17 UNL     1       3.466  -0.973   0.722  1.00  0.00     0.302 C 
BRANCH  21  22
HETATM   22  N2  UNL     1       4.232   0.170   0.380  1.00  0.00     0.090 N 
BRANCH  22  23
HETATM   23  C18 UNL     1       4.816   0.125  -0.920  1.00  0.00     0.268 C 
HETATM   24  C19 UNL     1       5.595   1.400  -1.205  1.00  0.00     0.037 C 
ENDBRANCH  22  23
BRANCH  22  25
HETATM   25  C20 UNL     1       5.151   0.533   1.428  1.00  0.00     0.286 C 
BRANCH  25  26
HETATM   26  C21 UNL     1       6.254  -0.493   1.595  1.00  0.00     0.154 C 
HETATM   27  C22 UNL     1       7.179  -0.111   2.657  1.00  0.00     0.060 C 
HETATM   28  N3  UNL     1       7.921   0.179   3.518  1.00  0.00    -0.197 NA
ENDBRANCH  25  26
ENDBRANCH  22  25
ENDBRANCH  21  22
ENDBRANCH  20  21
ENDBRANCH  16  20
TORSDOF 6
