REMARK  8 active torsions:
REMARK  status: ('A' for Active; 'I' for Inactive)
REMARK    1  A    between atoms: C2_2  and  C3_3 
REMARK    2  A    between atoms: C3_3  and  N1_4 
REMARK    3  A    between atoms: N1_4  and  C4_5 
REMARK    4  A    between atoms: N1_4  and  C6_7 
REMARK    5  A    between atoms: C6_7  and  C7_8 
REMARK    6  A    between atoms: N2_13  and  C12_14 
REMARK    7  A    between atoms: C12_14  and  O1_15 
REMARK    8  A    between atoms: C12_14  and  C13_17 
ROOT
HETATM    1  C12 UNL     1       0.010   1.048   0.127  1.00  0.00     0.156 C 
ENDROOT
BRANCH   1   2
HETATM    2  N2  UNL     1      -0.818   0.548   1.133  1.00  0.00    -0.354 N 
HETATM    3  C7  UNL     1      -2.172   1.137   1.319  1.00  0.00     0.114 C 
HETATM    4  C8  UNL     1      -2.259   1.378   2.840  1.00  0.00     0.027 C 
HETATM    5  C9  UNL     1      -2.356   0.046   3.508  1.00  0.00     0.004 C 
HETATM    6  C10 UNL     1      -1.198  -0.799   3.197  1.00  0.00     0.020 C 
HETATM    7  C11 UNL     1      -0.364  -0.483   2.013  1.00  0.00     0.125 C 
BRANCH   3   8
HETATM    8  C6  UNL     1      -3.263   0.200   0.933  1.00  0.00     0.297 C 
BRANCH   8   9
HETATM    9  N1  UNL     1      -3.384  -0.094  -0.479  1.00  0.00     0.090 N 
BRANCH   9  10
HETATM   10  C3  UNL     1      -3.863   0.984  -1.251  1.00  0.00     0.272 C 
BRANCH  10  11
HETATM   11  C2  UNL     1      -5.238   1.489  -1.017  1.00  0.00     0.026 C 
HETATM   12  C1  UNL     1      -6.369   0.558  -1.219  1.00  0.00     0.007 C 
ENDBRANCH  10  11
ENDBRANCH   9  10
BRANCH   9  13
HETATM   13  C4  UNL     1      -3.971  -1.386  -0.713  1.00  0.00     0.268 C 
HETATM   14  C5  UNL     1      -3.589  -1.858  -2.101  1.00  0.00     0.037 C 
ENDBRANCH   9  13
ENDBRANCH   8   9
ENDBRANCH   3   8
ENDBRANCH   1   2
BRANCH   1  15
HETATM   15  O1  UNL     1      -0.451   2.030  -0.598  1.00  0.00    -0.345 OA
ATOM     16  H1  UNL     1       0.113   2.370  -1.283  1.00  0.00     0.219 HD
ENDBRANCH   1  15
BRANCH   1  17
HETATM   17  C13 UNL     1       1.357   0.656  -0.280  1.00  0.00     0.056 A 
HETATM   18  C14 UNL     1       2.225  -0.293   0.157  1.00  0.00     0.031 A 
HETATM   19  C15 UNL     1       3.442  -0.389  -0.437  1.00  0.00    -0.044 A 
HETATM   20  C16 UNL     1       3.710   0.488  -1.447  1.00  0.00    -0.010 A 
HETATM   21  C22 UNL     1       4.391  -1.456   0.106  1.00  0.00     0.040 C 
HETATM   22  S1  UNL     1       2.283   1.412  -1.545  1.00  0.00    -0.090 SA
HETATM   23  C17 UNL     1       4.834   0.816  -2.399  1.00  0.00     0.046 C 
HETATM   24  C18 UNL     1       5.754  -0.329  -2.525  1.00  0.00     0.005 C 
HETATM   25  C19 UNL     1       6.731  -0.526  -1.435  1.00  0.00     0.000 C 
HETATM   26  C20 UNL     1       6.400   0.060  -0.108  1.00  0.00     0.000 C 
HETATM   27  C21 UNL     1       5.584  -0.821   0.777  1.00  0.00     0.005 C 
ENDBRANCH   1  17
TORSDOF 8
