REMARK  7 active torsions:
REMARK  status: ('A' for Active; 'I' for Inactive)
REMARK    1  A    between atoms: C7_8  and  C8_9 
REMARK    2  A    between atoms: C8_9  and  C9_10 
REMARK    3  A    between atoms: C9_10  and  C10_11 
REMARK    4  A    between atoms: C10_11  and  S1_12 
REMARK    5  A    between atoms: S1_12  and  C11_15 
REMARK    6  A    between atoms: C12_16  and  O3_17 
REMARK    7  A    between atoms: N3_23  and  C14_24 
ROOT
HETATM    1  N1  UNL     1      -4.150   2.408   0.335  1.00  0.00    -0.197 NA
HETATM    2  C1  UNL     1      -3.896   1.490  -0.339  1.00  0.00     0.064 C 
HETATM    3  C2  UNL     1      -3.569   0.366  -1.191  1.00  0.00     0.097 C 
HETATM    4  C3  UNL     1      -4.783  -0.445  -1.580  1.00  0.00     0.019 C 
HETATM    5  C4  UNL     1      -5.399  -1.176  -0.446  1.00  0.00     0.001 C 
HETATM    6  C5  UNL     1      -4.710  -1.071   0.856  1.00  0.00     0.000 C 
HETATM    7  C6  UNL     1      -3.237  -0.969   0.826  1.00  0.00     0.006 C 
HETATM    8  C7  UNL     1      -2.630  -0.560  -0.463  1.00  0.00     0.003 C 
ENDROOT
BRANCH   8   9
HETATM    9  C8  UNL     1      -1.354   0.249  -0.185  1.00  0.00     0.007 C 
BRANCH   9  10
HETATM   10  C9  UNL     1      -0.340  -0.571   0.540  1.00  0.00     0.016 C 
BRANCH  10  11
HETATM   11  C10 UNL     1       0.936   0.128   0.864  1.00  0.00     0.147 C 
BRANCH  11  12
HETATM   12  S1  UNL     1       1.836   0.731  -0.514  1.00  0.00     0.196 S 
HETATM   13  O1  UNL     1       2.220  -0.389  -1.441  1.00  0.00    -0.221 OA
HETATM   14  O2  UNL     1       1.108   1.771  -1.310  1.00  0.00    -0.221 OA
BRANCH  12  15
HETATM   15  C11 UNL     1       3.293   1.503   0.119  1.00  0.00     0.192 A 
HETATM   16  C12 UNL     1       3.344   2.836   0.465  1.00  0.00     0.184 A 
HETATM   17  N2  UNL     1       4.603   3.043   0.897  1.00  0.00    -0.286 N 
HETATM   18  C13 UNL     1       5.293   1.885   0.818  1.00  0.00     0.336 A 
ATOM     19  H2  UNL     1       4.975   3.932   1.230  1.00  0.00     0.172 HD
HETATM   20  O4  UNL     1       6.515   1.692   1.139  1.00  0.00    -0.246 OA
HETATM   21  N3  UNL     1       4.485   0.938   0.338  1.00  0.00    -0.229 N 
BRANCH  16  22
HETATM   22  O3  UNL     1       2.324   3.778   0.391  1.00  0.00    -0.344 OA
ATOM     23  H3  UNL     1       2.359   4.697   0.630  1.00  0.00     0.219 HD
ENDBRANCH  16  22
BRANCH  21  24
HETATM   24  C14 UNL     1       4.783  -0.456   0.082  1.00  0.00     0.160 A 
HETATM   25  N4  UNL     1       4.696  -1.478   0.920  1.00  0.00    -0.345 N 
HETATM   26  C15 UNL     1       5.007  -2.668   0.518  1.00  0.00     0.097 A 
ATOM     27  H4  UNL     1       4.385  -1.327   1.880  1.00  0.00     0.167 HD
HETATM   28  C16 UNL     1       5.419  -2.814  -0.784  1.00  0.00     0.070 A 
HETATM   29  S2  UNL     1       5.331  -1.205  -1.352  1.00  0.00    -0.064 SA
ENDBRANCH  21  24
ENDBRANCH  12  15
ENDBRANCH  11  12
ENDBRANCH  10  11
ENDBRANCH   9  10
ENDBRANCH   8   9
TORSDOF 7
