REMARK  7 active torsions:
REMARK  status: ('A' for Active; 'I' for Inactive)
REMARK    1  A    between atoms: C2_2  and  C3_4 
REMARK    2  A    between atoms: C3_4  and  C4_5 
REMARK    3  A    between atoms: C5_6  and  N1_7 
REMARK    4  A    between atoms: N1_7  and  C6_9 
REMARK    5  A    between atoms: C9_14  and  C10_15 
REMARK    6  A    between atoms: N3_18  and  N4_19 
REMARK    7  A    between atoms: C13_20  and  O1_21 
ROOT
HETATM    1  C4  UNL     1      -2.039  -0.903   1.203  1.00  0.00     0.062 A 
HETATM    2  C5  UNL     1      -2.618   0.141   0.729  1.00  0.00     0.115 A 
HETATM    3  N2  UNL     1      -1.840   1.174   0.075  1.00  0.00    -0.327 N 
ATOM      4  H2  UNL     1      -2.345   1.984  -0.284  1.00  0.00     0.169 HD
HETATM    5  C8  UNL     1      -0.445   1.149  -0.104  1.00  0.00     0.129 A 
HETATM    6  C9  UNL     1       0.261   2.065  -0.702  1.00  0.00     0.028 C 
HETATM    7  N3  UNL     1       0.218  -0.012   0.420  1.00  0.00    -0.193 N 
HETATM    8  C20 UNL     1      -0.561  -0.994   1.048  1.00  0.00     0.279 A 
HETATM    9  O2  UNL     1       0.076  -2.004   1.496  1.00  0.00    -0.265 OA
ENDROOT
BRANCH   7  10
HETATM   10  N4  UNL     1       1.622  -0.137   0.295  1.00  0.00    -0.194 N 
HETATM   11  C13 UNL     1       2.271  -0.564  -0.803  1.00  0.00     0.188 A 
HETATM   12  C14 UNL     1       3.621  -0.517  -0.463  1.00  0.00     0.067 A 
HETATM   13  N5  UNL     1       3.765  -0.072   0.808  1.00  0.00    -0.322 N 
HETATM   14  C19 UNL     1       4.870  -0.835  -1.180  1.00  0.00     0.062 C 
HETATM   15  C15 UNL     1       2.516   0.156   1.258  1.00  0.00     0.203 A 
HETATM   16  C16 UNL     1       5.045   0.083   1.441  1.00  0.00     0.131 C 
HETATM   17  S1  UNL     1       2.085   0.706   2.742  1.00  0.00    -0.038 SA
HETATM   18  C17 UNL     1       6.045  -0.959   1.042  1.00  0.00     0.021 C 
HETATM   19  C18 UNL     1       5.785  -1.606  -0.266  1.00  0.00     0.008 C 
BRANCH  11  20
HETATM   20  O1  UNL     1       1.743  -0.967  -2.018  1.00  0.00    -0.343 OA
ATOM     21  H1  UNL     1       2.201  -1.269  -2.794  1.00  0.00     0.219 HD
ENDBRANCH  11  20
ENDBRANCH   7  10
BRANCH   6  22
HETATM   22  C10 UNL     1      -0.295   3.286  -1.299  1.00  0.00     0.012 A 
HETATM   23  C11 UNL     1      -1.441   3.138  -2.303  1.00  0.00     0.009 A 
HETATM   24  C12 UNL     1      -0.050   3.595  -2.739  1.00  0.00     0.009 A 
ENDBRANCH   6  22
BRANCH   1  25
HETATM   25  C3  UNL     1      -2.604  -2.064   1.903  1.00  0.00     0.117 C 
BRANCH  25  26
HETATM   26  C2  UNL     1      -3.892  -2.011   2.529  1.00  0.00     0.089 C 
HETATM   27  C1  UNL     1      -4.943  -2.671   2.080  1.00  0.00     0.052 C 
HETATM   28  F1  UNL     1      -4.047  -1.296   3.703  1.00  0.00    -0.211 F 
ENDBRANCH  25  26
ENDBRANCH   1  25
BRANCH   2  29
HETATM   29  N1  UNL     1      -4.020   0.345   0.812  1.00  0.00    -0.376 N 
ATOM     30  H1  UNL     1      -4.484   0.395   1.719  1.00  0.00     0.161 HD
BRANCH  29  31
HETATM   31  C6  UNL     1      -4.788   0.483  -0.426  1.00  0.00     0.116 C 
HETATM   32  C7  UNL     1      -4.851  -0.757  -1.246  1.00  0.00     0.026 C 
ENDBRANCH  29  31
ENDBRANCH   2  29
TORSDOF 7
