REMARK  7 active torsions:
REMARK  status: ('A' for Active; 'I' for Inactive)
REMARK    1  A    between atoms: C2_2  and  C4_4 
REMARK    2  A    between atoms: C4_4  and  C5_5 
REMARK    3  A    between atoms: C4_4  and  O3_25 
REMARK    4  A    between atoms: C5_5  and  C6_6 
REMARK    5  A    between atoms: C6_6  and  C8_14 
REMARK       I    between atoms: N1_7  and  C7_9 
REMARK       I    between atoms: C8_14  and  N4_16 
REMARK    6  A    between atoms: N4_16  and  C9_18 
REMARK    7  A    between atoms: O3_25  and  C15_26 
REMARK       I    between atoms: C15_26  and  N5_28 
ROOT
HETATM    1  C6  UNL     1      -2.210  -1.142  -0.357  1.00  0.00     0.082 C 
HETATM    2  N1  UNL     1      -2.793  -2.218  -0.455  1.00  0.00    -0.330 N 
ATOM      3  H1  UNL     1      -2.292  -2.845   0.175  1.00  0.00     0.168 HD
HETATM    4  C7  UNL     1      -3.768  -2.972  -0.987  1.00  0.00     0.186 C 
HETATM    5  N2  UNL     1      -4.832  -2.577  -1.630  1.00  0.00    -0.374 N 
ATOM      6  H21 UNL     1      -5.573  -3.150  -2.034  1.00  0.00     0.158 HD
ATOM      7  H22 UNL     1      -4.906  -1.564  -1.719  1.00  0.00     0.158 HD
HETATM    8  N3  UNL     1      -3.663  -4.411  -0.861  1.00  0.00    -0.064 NA
ENDROOT
BRANCH   1   9
HETATM    9  C5  UNL     1      -1.022  -1.048   0.588  1.00  0.00     0.096 C 
BRANCH   9  10
HETATM   10  C4  UNL     1       0.264  -1.007  -0.168  1.00  0.00     0.142 C 
BRANCH  10  11
HETATM   11  C2  UNL     1       0.474  -2.280  -1.022  1.00  0.00     0.007 C 
HETATM   12  C1  UNL     1       0.545  -3.466  -0.108  1.00  0.00     0.012 C 
HETATM   13  C3  UNL     1       1.770  -2.144  -1.777  1.00  0.00     0.012 C 
ENDBRANCH  10  11
BRANCH  10  14
HETATM   14  O3  UNL     1       1.352  -1.083   0.768  1.00  0.00    -0.298 OA
BRANCH  14  15
HETATM   15  C15 UNL     1       2.430  -0.256   0.804  1.00  0.00     0.363 C 
HETATM   16  O4  UNL     1       2.492   0.658  -0.050  1.00  0.00    -0.238 OA
HETATM   17  N5  UNL     1       3.481  -0.381   1.758  1.00  0.00    -0.325 N 
HETATM   18  C16 UNL     1       4.590   0.521   1.701  1.00  0.00     0.147 C 
HETATM   19  C19 UNL     1       3.459  -1.392   2.795  1.00  0.00     0.147 C 
HETATM   20  C17 UNL     1       4.853   1.072   3.071  1.00  0.00     0.133 C 
HETATM   21  N6  UNL     1       4.888   0.120   4.126  1.00  0.00    -0.418 N 
HETATM   22  C18 UNL     1       3.887  -0.884   4.139  1.00  0.00     0.133 C 
ATOM     23  H6  UNL     1       5.608   0.158   4.848  1.00  0.00     0.153 HD
ENDBRANCH  14  15
ENDBRANCH  10  14
ENDBRANCH   9  10
ENDBRANCH   1   9
BRANCH   1  24
HETATM   24  C8  UNL     1      -2.547   0.018  -1.173  1.00  0.00     0.264 C 
HETATM   25  O1  UNL     1      -3.446  -0.124  -2.071  1.00  0.00    -0.266 OA
HETATM   26  N4  UNL     1      -1.959   1.299  -1.047  1.00  0.00    -0.348 N 
ATOM     27  H4  UNL     1      -1.244   1.464  -0.338  1.00  0.00     0.163 HD
BRANCH  26  28
HETATM   28  C9  UNL     1      -2.363   2.355  -1.907  1.00  0.00     0.119 C 
HETATM   29  C10 UNL     1      -3.433   3.242  -1.194  1.00  0.00     0.035 C 
HETATM   30  C11 UNL     1      -2.648   3.708  -0.022  1.00  0.00     0.011 C 
HETATM   31  C14 UNL     1      -3.450   4.362  -2.219  1.00  0.00     0.175 C 
HETATM   32  C12 UNL     1      -1.302   4.022  -0.669  1.00  0.00     0.034 C 
HETATM   33  C13 UNL     1      -1.389   3.483  -2.087  1.00  0.00     0.144 C 
HETATM   34  O2  UNL     1      -2.180   4.403  -2.787  1.00  0.00    -0.383 OA
ENDBRANCH  26  28
ENDBRANCH   1  24
TORSDOF 7
