REMARK  6 active torsions:
REMARK  status: ('A' for Active; 'I' for Inactive)
REMARK    1  A    between atoms: C5_7  and  N2_8 
REMARK    2  A    between atoms: N2_8  and  C6_10 
REMARK    3  A    between atoms: C6_10  and  C7_11 
REMARK    4  A    between atoms: C10_14  and  C11_15 
REMARK    5  A    between atoms: C11_15  and  C12_16 
REMARK    6  A    between atoms: C12_16  and  N3_17 
ROOT
HETATM    1  C7  UNL     1      -0.492   0.341  -0.645  1.00  0.00    -0.040 A 
HETATM    2  C8  UNL     1      -0.929  -0.877  -0.211  1.00  0.00     0.009 A 
HETATM    3  C9  UNL     1      -2.194  -1.010   0.341  1.00  0.00     0.007 A 
HETATM    4  C10 UNL     1      -3.044   0.086   0.465  1.00  0.00    -0.057 A 
HETATM    5  C13 UNL     1      -2.572   1.300   0.016  1.00  0.00     0.007 A 
HETATM    6  C14 UNL     1      -1.323   1.439  -0.530  1.00  0.00     0.009 A 
ENDROOT
BRANCH   1   7
HETATM    7  C6  UNL     1       0.848   0.574  -1.249  1.00  0.00     0.176 C 
BRANCH   7   8
HETATM    8  N2  UNL     1       1.637  -0.616  -1.328  1.00  0.00    -0.222 N 
ATOM      9  H2  UNL     1       1.291  -1.414  -1.861  1.00  0.00     0.178 HD
BRANCH   8  10
HETATM   10  C5  UNL     1       2.794  -0.696  -0.728  1.00  0.00     0.678 A 
HETATM   11  N1  UNL     1       3.536  -1.816  -0.803  1.00  0.00    -0.202 N 
HETATM   12  C4  UNL     1       4.734  -1.957  -0.207  1.00  0.00     0.108 A 
ATOM     13  H1  UNL     1       3.170  -2.601  -1.341  1.00  0.00     0.183 HD
HETATM   14  C3  UNL     1       5.248  -0.908   0.527  1.00  0.00     0.042 A 
HETATM   15  C2  UNL     1       4.491   0.244   0.608  1.00  0.00     0.024 A 
HETATM   16  C1  UNL     1       5.024   1.385   1.391  1.00  0.00     0.068 C 
HETATM   17  N4  UNL     1       3.301   0.324  -0.011  1.00  0.00    -0.196 N 
ATOM     18  H4  UNL     1       2.763   1.187   0.065  1.00  0.00     0.184 HD
ENDBRANCH   8  10
ENDBRANCH   7   8
ENDBRANCH   1   7
BRANCH   4  19
HETATM   19  C11 UNL     1      -4.397  -0.075   1.059  1.00  0.00     0.065 C 
BRANCH  19  20
HETATM   20  C12 UNL     1      -5.424  -0.400  -0.001  1.00  0.00     0.234 C 
BRANCH  20  21
HETATM   21  N3  UNL     1      -5.495   0.669  -1.000  1.00  0.00    -0.079 N 
ATOM     22  H33 UNL     1      -5.671   1.577  -0.570  1.00  0.00     0.274 HD
ATOM     23  H32 UNL     1      -4.581   0.866  -1.408  1.00  0.00     0.274 HD
ATOM     24  H31 UNL     1      -6.188   0.450  -1.715  1.00  0.00     0.274 HD
ENDBRANCH  20  21
ENDBRANCH  19  20
ENDBRANCH   4  19
TORSDOF 6
