REMARK  4 active torsions:
REMARK  status: ('A' for Active; 'I' for Inactive)
REMARK    1  A    between atoms: C2_2  and  C3_3 
REMARK    2  A    between atoms: C3_3  and  C6_6 
REMARK    3  A    between atoms: C11_13  and  O3_14 
REMARK    4  A    between atoms: O3_14  and  C12_15 
ROOT
HETATM    1  C6  UNL     1      -1.214  -0.027  -0.286  1.00  0.00     0.049 C 
HETATM    2  C7  UNL     1      -1.701   1.286   0.260  1.00  0.00     0.015 C 
HETATM    3  C8  UNL     1      -0.735   2.389   0.438  1.00  0.00     0.074 C 
HETATM    4  C9  UNL     1       0.041   2.741  -0.807  1.00  0.00     0.226 C 
HETATM    5  C10 UNL     1      -0.039   4.211  -1.158  1.00  0.00     0.085 C 
HETATM    6  O1  UNL     1       1.361   2.386  -0.672  1.00  0.00    -0.195 OA
HETATM    7  O2  UNL     1       1.403   1.465   0.287  1.00  0.00    -0.189 OA
HETATM    8  C11 UNL     1       1.326   0.214  -0.326  1.00  0.00     0.265 C 
HETATM    9  C14 UNL     1       2.408   0.212  -1.345  1.00  0.00     0.044 C 
HETATM   10  C15 UNL     1       2.523  -0.831  -2.159  1.00  0.00    -0.018 C 
HETATM   11  C16 UNL     1       1.527  -1.938  -1.977  1.00  0.00     0.109 C 
HETATM   12  C17 UNL     1       0.170  -1.290  -1.823  1.00  0.00     0.174 C 
HETATM   13  O5  UNL     1      -0.747  -1.828  -2.367  1.00  0.00    -0.294 OA
HETATM   14  C18 UNL     1       0.049  -0.040  -1.020  1.00  0.00     0.223 C 
HETATM   15  O6  UNL     1       0.009   0.936  -2.029  1.00  0.00    -0.212 OA
HETATM   16  O7  UNL     1      -0.619   2.004  -1.818  1.00  0.00    -0.197 OA
ENDROOT
BRANCH   1  17
HETATM   17  C3  UNL     1      -1.537  -1.013   0.765  1.00  0.00    -0.024 C 
HETATM   18  C4  UNL     1      -1.013  -0.729   2.147  1.00  0.00     0.019 C 
HETATM   19  C5  UNL     1      -1.379  -2.472   0.512  1.00  0.00     0.019 C 
BRANCH  17  20
HETATM   20  C2  UNL     1      -3.054  -0.895   0.901  1.00  0.00    -0.028 C 
HETATM   21  C1  UNL     1      -3.838  -1.263  -0.095  1.00  0.00     0.007 C 
ENDBRANCH  17  20
ENDBRANCH   1  17
BRANCH   8  22
HETATM   22  O3  UNL     1       1.693  -0.736   0.640  1.00  0.00    -0.273 OA
BRANCH  22  23
HETATM   23  C12 UNL     1       2.955  -0.668   1.211  1.00  0.00     0.257 C 
HETATM   24  C13 UNL     1       3.439  -1.619   2.236  1.00  0.00     0.126 C 
HETATM   25  O4  UNL     1       3.722   0.241   0.845  1.00  0.00    -0.266 OA
ENDBRANCH  22  23
ENDBRANCH   8  22
TORSDOF 4
