REMARK  7 active torsions:
REMARK  status: ('A' for Active; 'I' for Inactive)
REMARK    1  A    between atoms: C3_3  and  C4_4 
REMARK    2  A    between atoms: C4_4  and  N1_5 
REMARK    3  A    between atoms: N1_5  and  C5_7 
REMARK    4  A    between atoms: C6_10  and  N3_11 
REMARK    5  A    between atoms: N3_11  and  C7_13 
REMARK    6  A    between atoms: C7_13  and  C8_14 
REMARK    7  A    between atoms: N7_24  and  C12_26 
ROOT
HETATM    1  C5  UNL     1       1.564  -0.553  -0.230  1.00  0.00     0.707 A 
HETATM    2  N2  UNL     1       1.379   0.779  -0.268  1.00  0.00    -0.022 N 
ATOM      3  H2  UNL     1       2.193   1.393  -0.230  1.00  0.00     0.203 HD
HETATM    4  C6  UNL     1       0.152   1.326  -0.355  1.00  0.00     0.707 A 
HETATM    5  N6  UNL     1      -0.906   0.497  -0.406  1.00  0.00    -0.021 N 
ATOM      6  H6  UNL     1      -1.844   0.893  -0.473  1.00  0.00     0.203 HD
HETATM    7  C11 UNL     1      -0.760  -0.845  -0.371  1.00  0.00     0.707 A 
HETATM    8  N7  UNL     1      -1.786  -1.593  -0.420  1.00  0.00    -0.218 N 
ATOM      9  H7  UNL     1      -1.627  -2.600  -0.389  1.00  0.00     0.178 HD
HETATM   10  N8  UNL     1       0.485  -1.346  -0.283  1.00  0.00    -0.021 N 
ATOM     11  H8  UNL     1       0.611  -2.358  -0.256  1.00  0.00     0.203 HD
ENDROOT
BRANCH   1  12
HETATM   12  N1  UNL     1       2.753  -1.052  -0.146  1.00  0.00    -0.219 N 
ATOM     13  H1  UNL     1       3.556  -0.425  -0.108  1.00  0.00     0.178 HD
BRANCH  12  14
HETATM   14  C4  UNL     1       2.967  -2.470  -0.105  1.00  0.00     0.195 C 
BRANCH  14  15
HETATM   15  C3  UNL     1       4.391  -2.739   0.278  1.00  0.00     0.029 A 
HETATM   16  C2  UNL     1       4.793  -4.054   0.377  1.00  0.00     0.044 A 
HETATM   17  C1  UNL     1       6.111  -4.305   0.732  1.00  0.00     0.091 A 
HETATM   18  N10 UNL     1       6.970  -3.299   0.973  1.00  0.00    -0.362 N 
HETATM   19  C16 UNL     1       6.526  -2.031   0.863  1.00  0.00     0.180 A 
ATOM     20  H10 UNL     1       7.937  -3.491   1.234  1.00  0.00     0.165 HD
HETATM   21  N9  UNL     1       5.248  -1.743   0.519  1.00  0.00    -0.354 N 
ATOM     22  H9  UNL     1       4.942  -0.773   0.445  1.00  0.00     0.166 HD
ENDBRANCH  14  15
ENDBRANCH  12  14
ENDBRANCH   1  12
BRANCH   4  23
HETATM   23  N3  UNL     1       0.003   2.628  -0.390  1.00  0.00    -0.218 N 
ATOM     24  H3  UNL     1       0.812   3.248  -0.352  1.00  0.00     0.178 HD
BRANCH  23  25
HETATM   25  C7  UNL     1      -1.336   3.162  -0.484  1.00  0.00     0.214 C 
BRANCH  25  26
HETATM   26  C8  UNL     1      -1.220   4.650  -0.400  1.00  0.00     0.099 A 
HETATM   27  N4  UNL     1      -1.065   5.457  -1.445  1.00  0.00    -0.353 N 
HETATM   28  C9  UNL     1      -1.004   6.717  -0.932  1.00  0.00     0.106 A 
ATOM     29  H4  UNL     1      -1.004   5.188  -2.427  1.00  0.00     0.166 HD
HETATM   30  C10 UNL     1      -1.124   6.660   0.434  1.00  0.00     0.106 A 
HETATM   31  N5  UNL     1      -1.258   5.360   0.745  1.00  0.00    -0.353 N 
ATOM     32  H5  UNL     1      -1.369   4.977   1.684  1.00  0.00     0.166 HD
ENDBRANCH  25  26
ENDBRANCH  23  25
ENDBRANCH   4  23
BRANCH   8  33
HETATM   33  C12 UNL     1      -3.140  -1.153  -0.514  1.00  0.00     0.125 C 
HETATM   34  C13 UNL     1      -4.105  -2.257  -0.843  1.00  0.00     0.054 C 
HETATM   35  C14 UNL     1      -4.786  -2.521   0.462  1.00  0.00     0.169 C 
HETATM   36  O1  UNL     1      -4.325  -1.634   1.399  1.00  0.00    -0.389 OA
HETATM   37  C15 UNL     1      -3.689  -0.590   0.772  1.00  0.00     0.193 C 
ENDBRANCH   8  33
TORSDOF 7
