REMARK  10 active torsions:
REMARK  status: ('A' for Active; 'I' for Inactive)
REMARK    1  A    between atoms: C2_2  and  C4_4 
REMARK    2  A    between atoms: C4_4  and  N1_5 
REMARK    3  A    between atoms: N1_5  and  C5_7 
REMARK    4  A    between atoms: C6_10  and  O1_11 
REMARK    5  A    between atoms: O1_11  and  C7_12 
REMARK    6  A    between atoms: C7_12  and  C8_13 
REMARK    7  A    between atoms: C8_13  and  O2_16 
REMARK    8  A    between atoms: C12_22  and  C13_23 
REMARK    9  A    between atoms: C14_24  and  N4_25 
REMARK   10  A    between atoms: N4_25  and  C15_27 
ROOT
HETATM    1  C5  UNL     1       2.265   1.169   0.349  1.00  0.00     0.138 A 
HETATM    2  N2  UNL     1       3.336   0.334   0.247  1.00  0.00    -0.306 N 
ATOM      3  H2  UNL     1       4.255   0.775   0.211  1.00  0.00     0.171 HD
HETATM    4  C6  UNL     1       3.312  -0.985   0.190  1.00  0.00     0.226 A 
HETATM    5  N3  UNL     1       2.099  -1.567   0.236  1.00  0.00    -0.314 N 
ATOM      6  H3  UNL     1       2.022  -2.583   0.195  1.00  0.00     0.170 HD
HETATM    7  C11 UNL     1       0.972  -0.804   0.337  1.00  0.00     0.110 A 
HETATM    8  S1  UNL     1      -0.695  -1.122   0.408  1.00  0.00    -0.051 SA
HETATM    9  C12 UNL     1      -1.297   0.471   0.509  1.00  0.00     0.092 A 
HETATM   10  N6  UNL     1      -0.159   1.165   0.484  1.00  0.00    -0.344 N 
ATOM     11  H6  UNL     1      -0.193   2.183   0.533  1.00  0.00     0.167 HD
HETATM   12  C23 UNL     1       0.992   0.571   0.398  1.00  0.00     0.112 A 
ENDROOT
BRANCH   9  13
HETATM   13  C13 UNL     1      -2.674   0.983   0.561  1.00  0.00     0.066 A 
HETATM   14  C14 UNL     1      -3.761   0.214   0.297  1.00  0.00     0.044 A 
HETATM   15  C19 UNL     1      -5.001   0.834   0.500  1.00  0.00     0.033 A 
HETATM   16  C20 UNL     1      -5.143   2.131   0.934  1.00  0.00     0.048 A 
HETATM   17  C21 UNL     1      -4.040   2.871   1.185  1.00  0.00     0.155 A 
HETATM   18  F1  UNL     1      -4.127   4.152   1.612  1.00  0.00    -0.203 F 
HETATM   19  C22 UNL     1      -2.815   2.308   1.003  1.00  0.00     0.170 A 
HETATM   20  F2  UNL     1      -1.730   3.052   1.264  1.00  0.00    -0.202 F 
BRANCH  14  21
HETATM   21  N4  UNL     1      -3.703  -1.082  -0.215  1.00  0.00    -0.383 N 
ATOM     22  H4  UNL     1      -2.774  -1.416  -0.473  1.00  0.00     0.160 HD
BRANCH  21  23
HETATM   23  C15 UNL     1      -4.783  -2.011  -0.427  1.00  0.00     0.109 C 
HETATM   24  C16 UNL     1      -5.764  -1.649  -1.480  1.00  0.00     0.054 C 
HETATM   25  C17 UNL     1      -7.064  -2.251  -0.998  1.00  0.00     0.234 C 
HETATM   26  N5  UNL     1      -6.918  -2.551   0.386  1.00  0.00    -0.073 N 
HETATM   27  C18 UNL     1      -5.579  -2.321   0.815  1.00  0.00     0.257 C 
ATOM     28  H52 UNL     1      -7.590  -2.038   0.956  1.00  0.00     0.277 HD
ATOM     29  H51 UNL     1      -7.226  -3.499   0.601  1.00  0.00     0.277 HD
ENDBRANCH  21  23
ENDBRANCH  14  21
ENDBRANCH   9  13
BRANCH   1  30
HETATM   30  N1  UNL     1       2.551   2.380   0.378  1.00  0.00    -0.354 N 
ATOM     31  H1  UNL     1       3.552   2.565   0.320  1.00  0.00     0.166 HD
BRANCH  30  32
HETATM   32  C4  UNL     1       1.776   3.529   0.474  1.00  0.00     0.066 C 
BRANCH  32  33
HETATM   33  C2  UNL     1       1.191   4.081  -0.798  1.00  0.00     0.016 C 
HETATM   34  C1  UNL     1       2.389   4.408  -1.703  1.00  0.00     0.015 C 
HETATM   35  C3  UNL     1       0.583   5.444  -0.446  1.00  0.00     0.015 C 
ENDBRANCH  32  33
ENDBRANCH  30  32
ENDBRANCH   1  30
BRANCH   4  36
HETATM   36  O1  UNL     1       4.460  -1.746   0.087  1.00  0.00    -0.319 OA
BRANCH  36  37
HETATM   37  C7  UNL     1       4.486  -3.137   0.024  1.00  0.00     0.215 C 
BRANCH  37  38
HETATM   38  C8  UNL     1       5.919  -3.611  -0.083  1.00  0.00     0.072 C 
HETATM   39  C9  UNL     1       6.574  -3.104  -1.356  1.00  0.00     0.047 C 
HETATM   40  C10 UNL     1       6.758  -3.176   1.072  1.00  0.00     0.047 C 
BRANCH  38  41
HETATM   41  O2  UNL     1       5.942  -5.009  -0.147  1.00  0.00    -0.388 OA
ATOM     42  H2  UNL     1       6.842  -5.307  -0.214  1.00  0.00     0.210 HD
ENDBRANCH  38  41
ENDBRANCH  37  38
ENDBRANCH  36  37
ENDBRANCH   4  36
TORSDOF 10
