REMARK  5 active torsions:
REMARK  status: ('A' for Active; 'I' for Inactive)
REMARK       I    between atoms: C1_2  and  N2_4 
REMARK       I    between atoms: N2_4  and  C2_6 
REMARK       I    between atoms: C2_6  and  N3_8 
REMARK    1  A    between atoms: N3_8  and  N4_10 
REMARK       I    between atoms: N4_10  and  C3_12 
REMARK    2  A    between atoms: C3_12  and  C4_14 
REMARK    3  A    between atoms: C4_14  and  N5_15 
REMARK    4  A    between atoms: C4_14  and  C5_19 
REMARK    5  A    between atoms: C5_19  and  C6_20 
ROOT
HETATM    1  N4  UNL     1       1.493  -0.845  -0.181  1.00  0.00    -0.264 N 
ATOM      2  H4  UNL     1       1.043  -1.470  -0.850  1.00  0.00     0.190 HD
HETATM    3  C3  UNL     1       0.699  -0.079   0.672  1.00  0.00     0.267 C 
HETATM    4  O3  UNL     1       1.197   0.706   1.528  1.00  0.00    -0.269 OA
ENDROOT
BRANCH   3   5
HETATM    5  C4  UNL     1      -0.775  -0.166   0.590  1.00  0.00     0.280 C 
BRANCH   5   6
HETATM    6  N5  UNL     1      -1.265  -1.025  -0.436  1.00  0.00    -0.066 N 
ATOM      7  H53 UNL     1      -0.876  -0.755  -1.339  1.00  0.00     0.275 HD
ATOM      8  H52 UNL     1      -0.860  -1.956  -0.341  1.00  0.00     0.275 HD
ATOM      9  H51 UNL     1      -2.282  -1.085  -0.493  1.00  0.00     0.275 HD
ENDBRANCH   5   6
BRANCH   5  10
HETATM   10  C5  UNL     1      -1.411   1.197   0.394  1.00  0.00     0.081 C 
BRANCH  10  11
HETATM   11  C6  UNL     1      -2.878   0.990   0.315  1.00  0.00    -0.056 A 
HETATM   12  C7  UNL     1      -3.686   1.012   1.432  1.00  0.00     0.007 A 
HETATM   13  C8  UNL     1      -5.049   0.816   1.346  1.00  0.00     0.001 A 
HETATM   14  C9  UNL     1      -5.650   0.589   0.117  1.00  0.00     0.000 A 
HETATM   15  C10 UNL     1      -4.855   0.562  -1.025  1.00  0.00     0.001 A 
HETATM   16  C11 UNL     1      -3.498   0.759  -0.920  1.00  0.00     0.007 A 
ENDBRANCH  10  11
ENDBRANCH   5  10
ENDBRANCH   3   5
BRANCH   1  17
HETATM   17  N3  UNL     1       2.914  -0.778  -0.143  1.00  0.00    -0.249 N 
HETATM   18  C2  UNL     1       3.630  -0.549  -1.321  1.00  0.00     0.342 C 
HETATM   19  N2  UNL     1       5.016  -0.441  -1.500  1.00  0.00    -0.262 N 
HETATM   20  O2  UNL     1       2.931  -0.413  -2.407  1.00  0.00    -0.245 OA
HETATM   21  C1  UNL     1       6.052  -0.534  -0.578  1.00  0.00     0.336 C 
ATOM     22  H2  UNL     1       5.312  -0.266  -2.460  1.00  0.00     0.175 HD
HETATM   23  N1  UNL     1       5.881  -0.763   0.791  1.00  0.00    -0.040 NA
HETATM   24  O1  UNL     1       7.275  -0.408  -0.955  1.00  0.00    -0.251 OA
ATOM     25  H3  UNL     1       3.408  -0.897   0.741  1.00  0.00     0.192 HD
ENDBRANCH   1  17
TORSDOF 5
