REMARK  6 active torsions:
REMARK  status: ('A' for Active; 'I' for Inactive)
REMARK    1  A    between atoms: C2_2  and  O1_3 
REMARK    2  A    between atoms: O1_3  and  C3_4 
REMARK    3  A    between atoms: C5_7  and  O3_8 
REMARK    4  A    between atoms: C6_10  and  O4_11 
REMARK    5  A    between atoms: C6_10  and  C7_13 
REMARK    6  A    between atoms: C11_17  and  O5_18 
ROOT
HETATM    1  C3  UNL     1       1.216   0.091  -0.280  1.00  0.00     0.291 C 
HETATM    2  O2  UNL     1       0.740  -0.863  -1.182  1.00  0.00    -0.356 OA
HETATM    3  C4  UNL     1       0.450  -1.986  -0.412  1.00  0.00     0.206 C 
HETATM    4  C5  UNL     1      -0.919  -1.738   0.186  1.00  0.00     0.179 C 
HETATM    5  C6  UNL     1      -1.027  -0.351   0.769  1.00  0.00     0.122 C 
HETATM    6  C11 UNL     1       0.354   0.170   0.956  1.00  0.00     0.211 C 
ENDROOT
BRANCH   5   7
HETATM    7  O4  UNL     1      -1.538  -0.539   2.086  1.00  0.00    -0.384 OA
ATOM      8  H4  UNL     1      -1.606   0.335   2.453  1.00  0.00     0.210 HD
ENDBRANCH   5   7
BRANCH   5   9
HETATM    9  C7  UNL     1      -2.012   0.526   0.111  1.00  0.00    -0.015 C 
HETATM   10  C8  UNL     1      -2.001   1.882   0.835  1.00  0.00     0.018 C 
HETATM   11  C9  UNL     1      -1.843   0.837  -1.327  1.00  0.00     0.018 C 
HETATM   12  C10 UNL     1      -3.408  -0.030   0.312  1.00  0.00     0.018 C 
ENDBRANCH   5   9
BRANCH   4  13
HETATM   13  O3  UNL     1      -1.850  -2.055  -0.764  1.00  0.00    -0.390 OA
ATOM     14  H3  UNL     1      -2.709  -1.899  -0.389  1.00  0.00     0.210 HD
ENDBRANCH   4  13
BRANCH   6  15
HETATM   15  O5  UNL     1       0.484   1.423   1.484  1.00  0.00    -0.387 OA
ATOM     16  H5  UNL     1      -0.059   1.473   2.262  1.00  0.00     0.210 HD
ENDBRANCH   6  15
BRANCH   1  17
HETATM   17  O1  UNL     1       2.497  -0.333   0.082  1.00  0.00    -0.359 OA
BRANCH  17  18
HETATM   18  C2  UNL     1       3.476   0.582  -0.284  1.00  0.00     0.166 C 
HETATM   19  C1  UNL     1       4.806   0.009   0.161  1.00  0.00     0.033 C 
ENDBRANCH  17  18
ENDBRANCH   1  17
TORSDOF 6
