REMARK  5 active torsions:
REMARK  status: ('A' for Active; 'I' for Inactive)
REMARK    1  A    between atoms: C2_2  and  C4_4 
REMARK    2  A    between atoms: C4_4  and  N1_6 
REMARK    3  A    between atoms: N1_6  and  N2_8 
REMARK    4  A    between atoms: N2_8  and  C5_10 
REMARK    5  A    between atoms: C5_10  and  C6_12 
ROOT
HETATM    1  C5  UNL     1       1.878   0.444  -0.358  1.00  0.00     0.162 C 
HETATM    2  S2  UNL     1       1.195   1.522  -1.370  1.00  0.00    -0.055 SA
ENDROOT
BRANCH   1   3
HETATM    3  N2  UNL     1       1.143  -0.174   0.695  1.00  0.00    -0.286 N 
ATOM      4  H2  UNL     1       1.590  -0.846   1.318  1.00  0.00     0.188 HD
BRANCH   3   5
HETATM    5  N1  UNL     1      -0.200   0.161   0.854  1.00  0.00    -0.292 N 
ATOM      6  H1  UNL     1      -0.478   0.912   1.485  1.00  0.00     0.187 HD
BRANCH   5   7
HETATM    7  C4  UNL     1      -1.171  -0.562   0.122  1.00  0.00     0.095 C 
HETATM    8  S1  UNL     1      -0.729  -1.764  -0.887  1.00  0.00    -0.064 SA
BRANCH   7   9
HETATM    9  C2  UNL     1      -2.595  -0.181   0.312  1.00  0.00     0.040 C 
HETATM   10  C1  UNL     1      -2.811   1.271  -0.083  1.00  0.00     0.017 C 
HETATM   11  C3  UNL     1      -3.537  -1.025  -0.484  1.00  0.00     0.017 C 
ENDBRANCH   7   9
ENDBRANCH   5   7
ENDBRANCH   3   5
ENDBRANCH   1   3
BRANCH   1  12
HETATM   12  C6  UNL     1       3.294   0.102  -0.539  1.00  0.00     0.177 A 
HETATM   13  N3  UNL     1       3.806  -0.768  -1.419  1.00  0.00    -0.266 N 
HETATM   14  N4  UNL     1       5.109  -0.793  -1.271  1.00  0.00    -0.226 N 
ATOM     15  H3  UNL     1       3.272  -1.319  -2.091  1.00  0.00     0.190 HD
HETATM   16  N5  UNL     1       5.450   0.042  -0.315  1.00  0.00    -0.226 N 
ATOM     17  H4  UNL     1       5.755  -1.369  -1.812  1.00  0.00     0.210 HD
HETATM   18  N6  UNL     1       4.343   0.592   0.135  1.00  0.00    -0.266 N 
ATOM     19  H5  UNL     1       6.396   0.229   0.016  1.00  0.00     0.210 HD
ATOM     20  H6  UNL     1       4.291   1.285   0.882  1.00  0.00     0.190 HD
ENDBRANCH   1  12
TORSDOF 5
