REMARK  14 active torsions:
REMARK  status: ('A' for Active; 'I' for Inactive)
REMARK    1  A    between atoms: C2_2  and  C3_3 
REMARK    2  A    between atoms: C3_3  and  C4_4 
REMARK    3  A    between atoms: C4_4  and  C5_5 
REMARK    4  A    between atoms: C5_5  and  N1_6 
REMARK    5  A    between atoms: C5_5  and  C6_10 
REMARK    6  A    between atoms: C6_10  and  O2_12 
REMARK    7  A    between atoms: O2_12  and  C7_13 
REMARK    8  A    between atoms: C8_14  and  O3_15 
REMARK    9  A    between atoms: O3_15  and  C9_16 
REMARK   10  A    between atoms: C9_16  and  C10_18 
REMARK   11  A    between atoms: C10_18  and  C11_19 
REMARK   12  A    between atoms: C25_33  and  C26_34 
REMARK   13  A    between atoms: C26_34  and  O5_35 
REMARK   14  A    between atoms: O5_35  and  C27_36 
ROOT
HETATM    1  C7  UNL     1      -0.258  -0.392   0.357  1.00  0.00     0.175 C 
HETATM    2  C8  UNL     1      -1.299   0.246  -0.573  1.00  0.00     0.185 C 
HETATM    3  C14 UNL     1      -2.687  -0.063  -0.234  1.00  0.00     0.010 C 
HETATM    4  C15 UNL     1      -3.361  -0.984   0.383  1.00  0.00    -0.084 C 
HETATM    5  C16 UNL     1      -4.813  -0.722   0.392  1.00  0.00     0.043 C 
HETATM    6  C17 UNL     1      -3.024  -2.247   1.072  1.00  0.00     0.042 C 
HETATM    7  C18 UNL     1      -2.335  -3.106   0.063  1.00  0.00     0.019 C 
HETATM    8  C19 UNL     1      -2.422  -4.554   0.414  1.00  0.00     0.010 C 
HETATM    9  C20 UNL     1      -2.004  -5.439  -0.748  1.00  0.00     0.009 C 
HETATM   10  C21 UNL     1      -1.091  -4.757  -1.713  1.00  0.00     0.004 C 
HETATM   11  C22 UNL     1      -1.818  -4.452  -3.013  1.00  0.00     0.014 C 
HETATM   12  C23 UNL     1      -0.388  -3.565  -1.159  1.00  0.00    -0.019 C 
HETATM   13  C24 UNL     1      -0.971  -2.719  -0.275  1.00  0.00    -0.070 C 
HETATM   14  C25 UNL     1       0.132  -1.745  -0.051  1.00  0.00     0.071 C 
ENDROOT
BRANCH   1  15
HETATM   15  O2  UNL     1       0.869   0.492   0.203  1.00  0.00    -0.311 OA
BRANCH  15  16
HETATM   16  C6  UNL     1       1.388   1.343   1.101  1.00  0.00     0.290 C 
HETATM   17  O1  UNL     1       0.866   1.433   2.239  1.00  0.00    -0.263 OA
BRANCH  16  18
HETATM   18  C5  UNL     1       2.598   2.214   0.802  1.00  0.00     0.282 C 
BRANCH  18  19
HETATM   19  C4  UNL     1       3.639   1.345   0.225  1.00  0.00     0.043 C 
BRANCH  19  20
HETATM   20  C3  UNL     1       4.865   1.936  -0.337  1.00  0.00     0.002 C 
BRANCH  20  21
HETATM   21  C2  UNL     1       5.690   2.711   0.637  1.00  0.00    -0.004 C 
HETATM   22  C1  UNL     1       6.962   3.243  -0.045  1.00  0.00     0.005 C 
ENDBRANCH  20  21
ENDBRANCH  19  20
ENDBRANCH  18  19
BRANCH  18  23
HETATM   23  N1  UNL     1       2.934   3.026   1.908  1.00  0.00    -0.066 N 
ATOM     24  H13 UNL     1       3.320   2.437   2.646  1.00  0.00     0.275 HD
ATOM     25  H12 UNL     1       3.745   3.596   1.666  1.00  0.00     0.275 HD
ATOM     26  H11 UNL     1       2.213   3.627   2.307  1.00  0.00     0.275 HD
ENDBRANCH  18  23
ENDBRANCH  16  18
ENDBRANCH  15  16
ENDBRANCH   1  15
BRANCH   2  27
HETATM   27  O3  UNL     1      -1.165   1.662  -0.314  1.00  0.00    -0.309 OA
BRANCH  27  28
HETATM   28  C9  UNL     1      -0.777   2.583  -1.237  1.00  0.00     0.259 C 
HETATM   29  O4  UNL     1      -0.503   2.213  -2.400  1.00  0.00    -0.265 OA
BRANCH  28  30
HETATM   30  C10 UNL     1      -0.694   4.020  -0.811  1.00  0.00     0.115 C 
BRANCH  30  31
HETATM   31  C11 UNL     1      -1.884   4.706  -1.490  1.00  0.00    -0.013 C 
HETATM   32  C12 UNL     1      -1.747   4.569  -2.977  1.00  0.00     0.010 C 
HETATM   33  C13 UNL     1      -1.983   6.144  -1.023  1.00  0.00     0.010 C 
ENDBRANCH  30  31
ENDBRANCH  28  30
ENDBRANCH  27  28
ENDBRANCH   2  27
BRANCH  14  34
HETATM   34  C26 UNL     1       1.074  -2.393   0.933  1.00  0.00     0.190 C 
BRANCH  34  35
HETATM   35  O5  UNL     1       0.756  -2.688   2.169  1.00  0.00    -0.321 OA
BRANCH  35  36
HETATM   36  C27 UNL     1       0.372  -2.524   3.385  1.00  0.00     0.254 C 
HETATM   37  C28 UNL     1       0.248  -3.649   4.374  1.00  0.00     0.126 C 
HETATM   38  O6  UNL     1       0.079  -1.361   3.785  1.00  0.00    -0.266 OA
ENDBRANCH  35  36
ENDBRANCH  34  35
ENDBRANCH  14  34
TORSDOF 14
