REMARK  6 active torsions:
REMARK  status: ('A' for Active; 'I' for Inactive)
REMARK    1  A    between atoms: C5_6  and  C6_7 
REMARK    2  A    between atoms: C9_14  and  C10_15 
REMARK    3  A    between atoms: C10_15  and  N3_16 
REMARK    4  A    between atoms: N3_16  and  C11_18 
REMARK    5  A    between atoms: C11_18  and  C13_20 
REMARK    6  A    between atoms: N7_26  and  C14_27 
ROOT
HETATM    1  N3  UNL     1      -1.085   0.992   0.325  1.00  0.00    -0.407 N 
ATOM      2  H3  UNL     1      -1.657   1.488  -0.359  1.00  0.00     0.154 HD
ENDROOT
BRANCH   1   3
HETATM    3  C10 UNL     1       0.259   0.608   0.061  1.00  0.00     0.158 C 
BRANCH   3   4
HETATM    4  C9  UNL     1       0.816   0.962  -1.233  1.00  0.00     0.012 A 
HETATM    5  C6  UNL     1       2.122   0.625  -1.592  1.00  0.00     0.072 A 
HETATM    6  N1  UNL     1       2.281   1.111  -2.835  1.00  0.00    -0.299 N 
HETATM    7  N2  UNL     1       1.180   1.710  -3.247  1.00  0.00    -0.304 N 
ATOM      8  H1  UNL     1       3.136   1.028  -3.385  1.00  0.00     0.187 HD
HETATM    9  C7  UNL     1       0.233   1.638  -2.266  1.00  0.00     0.032 A 
ATOM     10  H2  UNL     1       1.056   2.157  -4.156  1.00  0.00     0.186 HD
HETATM   11  C8  UNL     1      -1.129   2.216  -2.397  1.00  0.00     0.070 C 
BRANCH   5  12
HETATM   12  C5  UNL     1       3.122  -0.097  -0.813  1.00  0.00     0.053 A 
HETATM   13  C4  UNL     1       3.263  -1.469  -0.842  1.00  0.00     0.131 A 
HETATM   14  C3  UNL     1       4.209  -2.148  -0.105  1.00  0.00     0.050 A 
HETATM   15  F1  UNL     1       2.425  -2.170  -1.638  1.00  0.00    -0.205 F 
HETATM   16  C2  UNL     1       5.070  -1.438   0.711  1.00  0.00    -0.057 A 
HETATM   17  C1  UNL     1       6.082  -2.192   1.496  1.00  0.00     0.048 C 
HETATM   18  C20 UNL     1       4.960  -0.067   0.767  1.00  0.00     0.031 A 
HETATM   19  C19 UNL     1       4.001   0.580   0.016  1.00  0.00     0.050 A 
HETATM   20 CL1  UNL     1       3.847   2.335   0.075  1.00  0.00    -0.083 Cl
ENDBRANCH   5  12
ENDBRANCH   3   4
ENDBRANCH   1   3
BRANCH   1  21
HETATM   21  C11 UNL     1      -1.572   0.634   1.610  1.00  0.00     0.144 C 
HETATM   22  C12 UNL     1      -0.790   1.315   2.736  1.00  0.00     0.040 C 
BRANCH  21  23
HETATM   23  C13 UNL     1      -3.014   0.762   1.830  1.00  0.00     0.140 A 
HETATM   24  N4  UNL     1      -3.527   1.523   2.854  1.00  0.00    -0.273 N 
HETATM   25  N5  UNL     1      -4.825   1.434   2.812  1.00  0.00    -0.224 N 
ATOM     26  H4  UNL     1      -2.985   2.063   3.529  1.00  0.00     0.189 HD
HETATM   27  N6  UNL     1      -5.134   0.643   1.798  1.00  0.00     0.002 NA
ATOM     28  H5  UNL     1      -5.483   1.890   3.444  1.00  0.00     0.205 HD
HETATM   29  N7  UNL     1      -4.034   0.224   1.188  1.00  0.00    -0.222 N 
BRANCH  29  30
HETATM   30  C14 UNL     1      -4.018  -0.641   0.087  1.00  0.00     0.076 A 
HETATM   31  C15 UNL     1      -3.471  -1.907   0.160  1.00  0.00     0.050 A 
HETATM   32  C16 UNL     1      -3.492  -2.729  -0.943  1.00  0.00     0.090 A 
HETATM   33  N8  UNL     1      -4.042  -2.305  -2.087  1.00  0.00    -0.374 N 
HETATM   34  C17 UNL     1      -4.575  -1.078  -2.166  1.00  0.00     0.109 A 
ATOM     35  H8  UNL     1      -4.056  -2.918  -2.902  1.00  0.00     0.164 HD
HETATM   36  C18 UNL     1      -4.576  -0.229  -1.096  1.00  0.00     0.054 A 
HETATM   37 BR1  UNL     1      -5.365   1.516  -1.302  1.00  0.00    -0.047 Br
ENDBRANCH  29  30
ENDBRANCH  21  23
ENDBRANCH   1  21
TORSDOF 6
