REMARK  7 active torsions:
REMARK  status: ('A' for Active; 'I' for Inactive)
REMARK    1  A    between atoms: C7_8  and  C8_9 
REMARK    2  A    between atoms: C8_9  and  O1_10 
REMARK    3  A    between atoms: O1_10  and  C9_11 
REMARK    4  A    between atoms: C14_18  and  C15_19 
REMARK    5  A    between atoms: C15_19  and  N3_23 
REMARK    6  A    between atoms: N4_26  and  C18_27 
REMARK    7  A    between atoms: C22_34  and  C23_35 
ROOT
HETATM    1  N1  UNL     1      -6.599   3.428   1.331  1.00  0.00    -0.197 NA
HETATM    2  C1  UNL     1      -6.043   2.445   1.037  1.00  0.00     0.064 C 
HETATM    3  C2  UNL     1      -5.309   1.183   0.680  1.00  0.00     0.099 C 
HETATM    4  C3  UNL     1      -6.354   0.101   0.564  1.00  0.00     0.020 C 
HETATM    5  C4  UNL     1      -6.973  -0.003  -0.782  1.00  0.00     0.001 C 
HETATM    6  C5  UNL     1      -6.770   1.255  -1.554  1.00  0.00     0.001 C 
HETATM    7  C6  UNL     1      -5.362   1.696  -1.702  1.00  0.00     0.008 C 
HETATM    8  C7  UNL     1      -4.468   1.397  -0.506  1.00  0.00     0.028 C 
ENDROOT
BRANCH   8   9
HETATM    9  C8  UNL     1      -3.498   0.343  -0.936  1.00  0.00     0.181 C 
BRANCH   9  10
HETATM   10  O1  UNL     1      -2.489  -0.087  -0.217  1.00  0.00    -0.350 OA
BRANCH  10  11
HETATM   11  C9  UNL     1      -2.006  -0.703   0.855  1.00  0.00     0.084 A 
HETATM   12  C10 UNL     1      -2.763  -1.281   1.862  1.00  0.00     0.064 A 
HETATM   13  C11 UNL     1      -2.167  -1.893   2.919  1.00  0.00     0.075 A 
HETATM   14 CL1  UNL     1      -3.120  -2.631   4.203  1.00  0.00    -0.081 Cl
HETATM   15  C12 UNL     1      -0.775  -1.966   3.034  1.00  0.00     0.139 A 
HETATM   16  F1  UNL     1      -0.194  -2.577   4.089  1.00  0.00    -0.204 F 
HETATM   17  C13 UNL     1      -0.020  -1.398   2.044  1.00  0.00     0.062 A 
HETATM   18  C14 UNL     1      -0.601  -0.769   0.960  1.00  0.00     0.044 A 
BRANCH  18  19
HETATM   19  C15 UNL     1       0.248  -0.177  -0.067  1.00  0.00     0.110 C 
HETATM   20  N2  UNL     1      -0.301   0.402  -1.057  1.00  0.00    -0.385 N 
ATOM     21  H22 UNL     1      -1.319   0.440  -1.113  1.00  0.00     0.157 HD
ATOM     22  H21 UNL     1       0.293   0.816  -1.775  1.00  0.00     0.157 HD
BRANCH  19  23
HETATM   23  N3  UNL     1       1.669  -0.230   0.011  1.00  0.00    -0.364 N 
HETATM   24  C16 UNL     1       2.326  -1.294  -0.694  1.00  0.00     0.144 C 
HETATM   25  C17 UNL     1       3.738  -0.933  -1.091  1.00  0.00     0.143 C 
HETATM   26  N4  UNL     1       4.420  -0.123  -0.087  1.00  0.00    -0.376 N 
HETATM   27  C24 UNL     1       3.745   1.093   0.315  1.00  0.00     0.143 C 
HETATM   28  C25 UNL     1       2.363   0.777   0.776  1.00  0.00     0.144 C 
BRANCH  26  29
HETATM   29  C18 UNL     1       5.675  -0.550   0.462  1.00  0.00     0.070 A 
HETATM   30  C19 UNL     1       5.681  -1.368   1.591  1.00  0.00     0.076 A 
HETATM   31 CL2  UNL     1       4.196  -1.886   2.312  1.00  0.00    -0.080 Cl
HETATM   32  C20 UNL     1       6.855  -1.810   2.178  1.00  0.00     0.113 A 
HETATM   33  N5  UNL     1       8.019  -1.456   1.668  1.00  0.00    -0.372 N 
HETATM   34  C21 UNL     1       8.053  -0.677   0.593  1.00  0.00     0.106 A 
ATOM     35  H5  UNL     1       8.887  -1.778   2.096  1.00  0.00     0.164 HD
HETATM   36  C22 UNL     1       6.902  -0.194  -0.052  1.00  0.00     0.072 A 
BRANCH  36  37
HETATM   37  C23 UNL     1       7.093   0.633  -1.200  1.00  0.00     0.268 C 
HETATM   38  N6  UNL     1       6.122   1.220  -2.007  1.00  0.00    -0.057 NA
HETATM   39  O2  UNL     1       8.304   0.892  -1.565  1.00  0.00    -0.271 OA
ENDBRANCH  36  37
ENDBRANCH  26  29
ENDBRANCH  19  23
ENDBRANCH  18  19
ENDBRANCH  10  11
ENDBRANCH   9  10
ENDBRANCH   8   9
TORSDOF 7
