REMARK  14 active torsions:
REMARK  status: ('A' for Active; 'I' for Inactive)
REMARK    1  A    between atoms: C2_2  and  C3_3 
REMARK    2  A    between atoms: C8_8  and  C9_9 
REMARK    3  A    between atoms: C8_8  and  C27_39 
REMARK       I    between atoms: C9_9  and  N1_11 
REMARK    4  A    between atoms: N1_11  and  C10_13 
REMARK    5  A    between atoms: C10_13  and  C11_14 
REMARK    6  A    between atoms: C14_17  and  S1_18 
REMARK    7  A    between atoms: S1_18  and  N2_21 
REMARK    8  A    between atoms: N2_21  and  C15_23 
REMARK    9  A    between atoms: C15_23  and  C16_24 
REMARK   10  A    between atoms: C16_24  and  C17_25 
REMARK   11  A    between atoms: C17_25  and  C18_26 
REMARK   12  A    between atoms: C18_26  and  N3_27 
REMARK   13  A    between atoms: C23_33  and  C24_34 
REMARK   14  A    between atoms: C24_34  and  O4_35 
ROOT
HETATM    1  C11 UNL     1       2.651  -0.517  -3.733  1.00  0.00    -0.040 A 
HETATM    2  C12 UNL     1       3.276   0.290  -2.805  1.00  0.00     0.010 A 
HETATM    3  C13 UNL     1       3.103   1.660  -2.827  1.00  0.00     0.026 A 
HETATM    4  C14 UNL     1       2.307   2.286  -3.763  1.00  0.00     0.079 A 
HETATM    5  C25 UNL     1       1.679   1.487  -4.694  1.00  0.00     0.026 A 
HETATM    6  C26 UNL     1       1.856   0.113  -4.668  1.00  0.00     0.010 A 
ENDROOT
BRANCH   1   7
HETATM    7  C10 UNL     1       2.826  -1.998  -3.713  1.00  0.00     0.161 C 
BRANCH   7   8
HETATM    8  N1  UNL     1       1.644  -2.709  -3.297  1.00  0.00    -0.356 N 
HETATM    9  C9  UNL     1       1.249  -2.760  -1.982  1.00  0.00     0.227 C 
HETATM   10  O1  UNL     1       2.007  -2.138  -1.149  1.00  0.00    -0.273 OA
ATOM     11  H1  UNL     1       1.083  -3.189  -4.000  1.00  0.00     0.162 HD
BRANCH   9  12
HETATM   12  C8  UNL     1       0.058  -3.439  -1.388  1.00  0.00     0.048 C 
HETATM   13  C3  UNL     1       0.348  -3.567   0.068  1.00  0.00     0.003 C 
HETATM   14  C4  UNL     1      -0.052  -4.819   0.766  1.00  0.00     0.006 C 
HETATM   15  C5  UNL     1       0.307  -6.085   0.049  1.00  0.00     0.000 C 
HETATM   16  C6  UNL     1       1.033  -5.737  -1.223  1.00  0.00     0.001 C 
HETATM   17  C7  UNL     1       0.091  -4.833  -2.003  1.00  0.00     0.020 C 
BRANCH  13  18
HETATM   18  C2  UNL     1       0.031  -2.370   0.912  1.00  0.00     0.001 C 
HETATM   19  C1  UNL     1       0.782  -2.419   2.251  1.00  0.00     0.005 C 
ENDBRANCH  13  18
BRANCH  12  20
HETATM   20  C27 UNL     1      -1.157  -2.651  -1.735  1.00  0.00     0.004 C 
HETATM   21  C28 UNL     1      -1.359  -2.524  -3.212  1.00  0.00     0.006 C 
HETATM   22  C29 UNL     1      -2.725  -1.952  -3.571  1.00  0.00     0.000 C 
HETATM   23  C30 UNL     1      -3.860  -2.793  -3.117  1.00  0.00     0.000 C 
HETATM   24  C31 UNL     1      -3.438  -3.736  -2.018  1.00  0.00     0.000 C 
HETATM   25  C32 UNL     1      -2.449  -3.007  -1.130  1.00  0.00     0.006 C 
ENDBRANCH  12  20
ENDBRANCH   9  12
ENDBRANCH   7   8
ENDBRANCH   1   7
BRANCH   4  26
HETATM   26  S1  UNL     1       2.121   4.036  -3.744  1.00  0.00     0.258 S 
HETATM   27  O2  UNL     1       3.403   4.698  -3.288  1.00  0.00    -0.201 OA
HETATM   28  O3  UNL     1       1.788   4.464  -5.149  1.00  0.00    -0.201 OA
BRANCH  26  29
HETATM   29  N2  UNL     1       0.795   4.466  -2.716  1.00  0.00    -0.315 N 
ATOM     30  H2  UNL     1      -0.052   4.954  -3.008  1.00  0.00     0.172 HD
BRANCH  29  31
HETATM   31  C15 UNL     1       1.088   4.021  -1.389  1.00  0.00     0.132 C 
BRANCH  31  32
HETATM   32  C16 UNL     1       0.004   4.339  -0.401  1.00  0.00     0.022 C 
BRANCH  32  33
HETATM   33  C17 UNL     1       0.355   3.851   0.986  1.00  0.00     0.032 C 
BRANCH  33  34
HETATM   34  C18 UNL     1      -0.747   4.181   1.980  1.00  0.00     0.273 C 
BRANCH  34  35
HETATM   35  N3  UNL     1      -0.414   3.719   3.286  1.00  0.00     0.098 N 
HETATM   36  C19 UNL     1      -0.396   2.270   3.366  1.00  0.00     0.303 C 
HETATM   37  C20 UNL     1      -0.597   1.786   4.783  1.00  0.00     0.302 C 
HETATM   38  N4  UNL     1       0.034   2.628   5.752  1.00  0.00     0.088 N 
HETATM   39  C21 UNL     1      -0.216   2.129   7.088  1.00  0.00     0.310 C 
HETATM   40  C22 UNL     1      -0.273   4.022   5.629  1.00  0.00     0.309 C 
HETATM   41  C23 UNL     1      -1.126   4.283   4.377  1.00  0.00     0.274 C 
BRANCH  41  42
HETATM   42  C24 UNL     1      -1.363   5.748   4.281  1.00  0.00     0.201 C 
BRANCH  42  43
HETATM   43  O4  UNL     1      -0.216   6.502   4.196  1.00  0.00    -0.399 OA
ATOM     44  H4  UNL     1      -0.367   7.438   4.135  1.00  0.00     0.209 HD
ENDBRANCH  42  43
ENDBRANCH  41  42
ENDBRANCH  34  35
ENDBRANCH  33  34
ENDBRANCH  32  33
ENDBRANCH  31  32
ENDBRANCH  29  31
ENDBRANCH  26  29
ENDBRANCH   4  26
TORSDOF 14
