REMARK  8 active torsions:
REMARK  status: ('A' for Active; 'I' for Inactive)
REMARK    1  A    between atoms: C4_9  and  S1_10 
REMARK    2  A    between atoms: S1_10  and  N3_13 
REMARK    3  A    between atoms: C7_16  and  C8_17 
REMARK    4  A    between atoms: C8_17  and  N4_20 
REMARK       I    between atoms: N4_20  and  C11_22 
REMARK    5  A    between atoms: C11_22  and  C12_24 
REMARK    6  A    between atoms: C13_25  and  C14_26 
REMARK    7  A    between atoms: C14_26  and  C15_27 
REMARK    8  A    between atoms: C15_27  and  C17_29 
ROOT
HETATM    1  N3  UNL     1       4.402  -0.746   0.588  1.00  0.00    -0.205 NA
HETATM    2  C5  UNL     1       3.494   0.358   0.818  1.00  0.00     0.108 C 
HETATM    3  C6  UNL     1       2.176   0.052   0.166  1.00  0.00     0.022 C 
HETATM    4  C7  UNL     1       1.556  -1.136   0.814  1.00  0.00     0.015 C 
HETATM    5  C20 UNL     1       2.495  -1.813   1.744  1.00  0.00     0.022 C 
HETATM    6  C21 UNL     1       3.916  -1.930   1.221  1.00  0.00     0.108 C 
ENDROOT
BRANCH   4   7
HETATM    7  C8  UNL     1       0.216  -0.814   1.449  1.00  0.00     0.029 C 
HETATM    8  C9  UNL     1      -0.398  -2.025   2.093  1.00  0.00     0.038 C 
HETATM    9  C10 UNL     1       0.336   0.270   2.493  1.00  0.00     0.038 C 
BRANCH   7  10
HETATM   10  N4  UNL     1      -0.631  -0.340   0.381  1.00  0.00    -0.349 N 
HETATM   11  C11 UNL     1      -1.958   0.049   0.653  1.00  0.00     0.241 C 
HETATM   12  O4  UNL     1      -2.399  -0.015   1.811  1.00  0.00    -0.269 OA
ATOM     13  H4  UNL     1      -0.269  -0.286  -0.571  1.00  0.00     0.163 HD
BRANCH  11  14
HETATM   14  C12 UNL     1      -2.839   0.531  -0.403  1.00  0.00     0.070 C 
HETATM   15  C13 UNL     1      -4.081   0.902  -0.186  1.00  0.00    -0.021 C 
BRANCH  15  16
HETATM   16  C14 UNL     1      -4.949   1.384  -1.266  1.00  0.00     0.031 C 
BRANCH  16  17
HETATM   17  C15 UNL     1      -6.184   0.536  -1.441  1.00  0.00    -0.012 C 
HETATM   18  C16 UNL     1      -7.024   1.074  -2.549  1.00  0.00     0.010 C 
BRANCH  17  19
HETATM   19  C17 UNL     1      -6.942   0.395  -0.141  1.00  0.00    -0.019 C 
HETATM   20  C18 UNL     1      -7.405   1.698   0.429  1.00  0.00     0.010 C 
HETATM   21  C19 UNL     1      -8.174  -0.463  -0.374  1.00  0.00     0.010 C 
ENDBRANCH  17  19
ENDBRANCH  16  17
ENDBRANCH  15  16
ENDBRANCH  11  14
ENDBRANCH   7  10
ENDBRANCH   4   7
BRANCH   1  22
HETATM   22  S1  UNL     1       5.981  -0.281   1.074  1.00  0.00     0.261 S 
HETATM   23  O2  UNL     1       5.877   1.048   1.805  1.00  0.00    -0.204 OA
HETATM   24  O3  UNL     1       6.417  -1.303   2.117  1.00  0.00    -0.204 OA
BRANCH  22  25
HETATM   25  C4  UNL     1       7.121  -0.191  -0.222  1.00  0.00     0.170 A 
HETATM   26  C2  UNL     1       7.059   0.606  -1.321  1.00  0.00     0.049 A 
HETATM   27  C1  UNL     1       6.027   1.598  -1.716  1.00  0.00     0.071 C 
HETATM   28  N1  UNL     1       8.174   0.330  -2.059  1.00  0.00    -0.310 N 
HETATM   29  C3  UNL     1       8.911  -0.613  -1.435  1.00  0.00     0.325 A 
ATOM     30  H1  UNL     1       8.414   0.770  -2.947  1.00  0.00     0.170 HD
HETATM   31  O1  UNL     1       9.993  -1.072  -1.870  1.00  0.00    -0.247 OA
HETATM   32  N2  UNL     1       8.250  -0.923  -0.307  1.00  0.00    -0.296 N 
ATOM     33  H2  UNL     1       8.557  -1.610   0.382  1.00  0.00     0.171 HD
ENDBRANCH  22  25
ENDBRANCH   1  22
TORSDOF 8
