REMARK  10 active torsions:
REMARK  status: ('A' for Active; 'I' for Inactive)
REMARK    1  A    between atoms: C6_6  and  N1_7 
REMARK    2  A    between atoms: N1_7  and  C7_9 
REMARK    3  A    between atoms: C7_9  and  C8_10 
REMARK    4  A    between atoms: C8_10  and  N2_11 
REMARK    5  A    between atoms: N2_11  and  C9_12 
REMARK    6  A    between atoms: N2_11  and  C11_14 
REMARK    7  A    between atoms: C13_18  and  N4_19 
REMARK    8  A    between atoms: N4_19  and  C14_21 
REMARK    9  A    between atoms: C14_21  and  C15_22 
REMARK   10  A    between atoms: C20_33  and  C21_34 
ROOT
HETATM    1  C1  UNL     1      -1.501  -5.504  -0.329  1.00  0.00     0.018 C 
HETATM    2  C2  UNL     1      -1.626  -4.300  -0.180  1.00  0.00    -0.077 C 
HETATM    3  C3  UNL     1      -1.761  -2.862  -0.029  1.00  0.00     0.029 A 
HETATM    4  C4  UNL     1      -0.582  -2.171   0.174  1.00  0.00     0.039 A 
HETATM    5  C5  UNL     1      -0.646  -0.786   0.302  1.00  0.00     0.037 A 
HETATM    6  C6  UNL     1       0.514  -0.061   0.509  1.00  0.00     0.133 A 
HETATM    7  N3  UNL     1       0.365   1.300   0.625  1.00  0.00    -0.176 N 
ATOM      8  H3  UNL     1       1.204   1.859   0.778  1.00  0.00     0.186 HD
HETATM    9  C13 UNL     1      -0.798   1.937   0.551  1.00  0.00     0.680 A 
HETATM   10  N7  UNL     1      -1.911   1.220   0.351  1.00  0.00    -0.191 N 
ATOM     11  H7  UNL     1      -2.814   1.690   0.292  1.00  0.00     0.184 HD
HETATM   12  C18 UNL     1      -1.843  -0.118   0.228  1.00  0.00     0.064 A 
HETATM   13  C19 UNL     1      -3.013  -0.856   0.021  1.00  0.00     0.044 A 
HETATM   14  C20 UNL     1      -2.970  -2.222  -0.106  1.00  0.00    -0.005 A 
ENDROOT
BRANCH  14  15
HETATM   15  C21 UNL     1      -4.177  -2.988  -0.291  1.00  0.00    -0.024 A 
HETATM   16  C22 UNL     1      -5.026  -2.619  -1.324  1.00  0.00     0.012 A 
HETATM   17  C23 UNL     1      -6.192  -3.330  -1.503  1.00  0.00     0.001 A 
HETATM   18  C24 UNL     1      -6.507  -4.391  -0.668  1.00  0.00     0.000 A 
HETATM   19  C25 UNL     1      -5.649  -4.727   0.339  1.00  0.00     0.001 A 
HETATM   20  C26 UNL     1      -4.468  -4.040   0.555  1.00  0.00     0.012 A 
ENDBRANCH  14  15
BRANCH   6  21
HETATM   21  N1  UNL     1       1.628  -0.503   0.608  1.00  0.00    -0.353 N 
ATOM     22  H1  UNL     1       2.181   0.342   0.751  1.00  0.00     0.166 HD
BRANCH  21  23
HETATM   23  C7  UNL     1       2.582  -1.478   0.640  1.00  0.00     0.082 C 
BRANCH  23  24
HETATM   24  C8  UNL     1       3.974  -1.009   1.043  1.00  0.00     0.161 C 
BRANCH  24  25
HETATM   25  N2  UNL     1       4.490  -0.010   0.148  1.00  0.00    -0.409 N 
BRANCH  25  26
HETATM   26  C9  UNL     1       5.773   0.481   0.493  1.00  0.00     0.112 C 
HETATM   27  C10 UNL     1       6.900  -0.490   0.354  1.00  0.00     0.026 C 
ENDBRANCH  25  26
BRANCH  25  28
HETATM   28  C11 UNL     1       4.246  -0.273  -1.230  1.00  0.00     0.112 C 
HETATM   29  C12 UNL     1       4.836   0.851  -2.054  1.00  0.00     0.026 C 
ENDBRANCH  25  28
ENDBRANCH  24  25
ENDBRANCH  23  24
ENDBRANCH  21  23
ENDBRANCH   6  21
BRANCH   9  30
HETATM   30  N4  UNL     1      -0.840   3.225   0.672  1.00  0.00    -0.219 N 
ATOM     31  H4  UNL     1       0.025   3.743   0.824  1.00  0.00     0.178 HD
BRANCH  30  32
HETATM   32  C14 UNL     1      -2.078   3.933   0.596  1.00  0.00     0.214 C 
BRANCH  32  33
HETATM   33  C15 UNL     1      -1.839   5.400   0.488  1.00  0.00     0.099 A 
HETATM   34  N5  UNL     1      -1.743   6.280   1.524  1.00  0.00    -0.353 N 
HETATM   35  C16 UNL     1      -1.524   7.499   1.014  1.00  0.00     0.106 A 
ATOM     36  H5  UNL     1      -1.824   6.051   2.515  1.00  0.00     0.166 HD
HETATM   37  C17 UNL     1      -1.484   7.376  -0.366  1.00  0.00     0.106 A 
HETATM   38  N6  UNL     1      -1.680   6.079  -0.657  1.00  0.00    -0.353 N 
ATOM     39  H6  UNL     1      -1.704   5.677  -1.594  1.00  0.00     0.166 HD
ENDBRANCH  32  33
ENDBRANCH  30  32
ENDBRANCH   9  30
TORSDOF 10
