REMARK  4 active torsions:
REMARK  status: ('A' for Active; 'I' for Inactive)
REMARK    1  A    between atoms: C2_2  and  O1_3 
REMARK    2  A    between atoms: O1_3  and  C3_4 
REMARK    3  A    between atoms: C3_4  and  C4_6 
REMARK    4  A    between atoms: C10_13  and  C11_14 
ROOT
HETATM    1  C4  UNL     1       2.637  -0.411  -1.005  1.00  0.00     0.144 C 
HETATM    2  C5  UNL     1       2.096   1.026  -0.936  1.00  0.00     0.292 C 
HETATM    3  N1  UNL     1       0.695   0.925  -1.197  1.00  0.00     0.122 N 
HETATM    4  C6  UNL     1       0.171   2.214  -1.568  1.00  0.00     0.313 C 
HETATM    5  C7  UNL     1      -0.062   0.234  -0.210  1.00  0.00     0.320 C 
HETATM    6  C8  UNL     1      -0.832  -0.925  -0.800  1.00  0.00     0.073 C 
HETATM    7  C9  UNL     1      -2.187  -0.524  -1.322  1.00  0.00     0.010 C 
HETATM    8  C10 UNL     1      -2.971   0.312  -0.379  1.00  0.00    -0.007 C 
HETATM    9  C15 UNL     1      -2.235   0.372   0.937  1.00  0.00     0.010 C 
HETATM   10  C16 UNL     1      -0.936   1.135   0.637  1.00  0.00     0.073 C 
HETATM   11  N2  UNL     1       0.900  -0.364   0.731  1.00  0.00    -0.033 N 
ATOM     12  H21 UNL     1       0.427  -0.885   1.469  1.00  0.00     0.280 HD
ATOM     13  H22 UNL     1       1.353   0.347   1.306  1.00  0.00     0.280 HD
HETATM   14  C17 UNL     1       1.869  -1.184   0.040  1.00  0.00     0.200 C 
HETATM   15  C18 UNL     1       2.828  -1.713   1.083  1.00  0.00     0.041 C 
ENDROOT
BRANCH   1  16
HETATM   16  C3  UNL     1       4.087  -0.454  -0.838  1.00  0.00     0.266 C 
HETATM   17  O2  UNL     1       4.788  -0.946  -1.757  1.00  0.00    -0.265 OA
BRANCH  16  18
HETATM   18  O1  UNL     1       4.766   0.016   0.277  1.00  0.00    -0.321 OA
BRANCH  18  19
HETATM   19  C2  UNL     1       6.198  -0.066   0.357  1.00  0.00     0.174 C 
HETATM   20  C1  UNL     1       6.712   0.496   1.639  1.00  0.00     0.034 C 
ENDBRANCH  18  19
ENDBRANCH  16  18
ENDBRANCH   1  16
BRANCH   8  21
HETATM   21  C11 UNL     1      -4.406  -0.094  -0.225  1.00  0.00    -0.048 C 
HETATM   22  C12 UNL     1      -5.104   0.825   0.758  1.00  0.00     0.015 C 
HETATM   23  C13 UNL     1      -4.527  -1.502   0.342  1.00  0.00     0.015 C 
HETATM   24  C14 UNL     1      -5.175  -0.059  -1.505  1.00  0.00     0.015 C 
ENDBRANCH   8  21
TORSDOF 4
