REMARK  5 active torsions:
REMARK  status: ('A' for Active; 'I' for Inactive)
REMARK    1  A    between atoms: C3_3  and  O1_4 
REMARK    2  A    between atoms: C6_8  and  N1_9 
REMARK       I    between atoms: N1_9  and  C7_11 
REMARK    3  A    between atoms: C7_11  and  C8_13 
REMARK    4  A    between atoms: C13_18  and  N2_19 
REMARK       I    between atoms: N2_19  and  C14_21 
REMARK    5  A    between atoms: C14_21  and  C15_23 
ROOT
HETATM    1  C8  UNL     1       1.139  -0.971  -1.089  1.00  0.00     0.100 C 
HETATM    2  C9  UNL     1       1.816  -2.300  -0.929  1.00  0.00     0.016 C 
HETATM    3  C10 UNL     1       2.834  -2.399  -2.073  1.00  0.00     0.001 C 
HETATM    4  C11 UNL     1       3.872  -1.332  -1.875  1.00  0.00     0.002 C 
HETATM    5  C12 UNL     1       3.333   0.023  -1.645  1.00  0.00     0.026 C 
HETATM    6  C13 UNL     1       2.140   0.102  -0.743  1.00  0.00     0.097 C 
ENDROOT
BRANCH   1   7
HETATM    7  C7  UNL     1      -0.083  -0.879  -0.290  1.00  0.00     0.224 C 
HETATM    8  N1  UNL     1      -0.912   0.265  -0.258  1.00  0.00    -0.356 N 
ATOM      9  H1  UNL     1      -0.653   1.076  -0.819  1.00  0.00     0.162 HD
HETATM   10  O2  UNL     1      -0.414  -1.878   0.410  1.00  0.00    -0.273 OA
BRANCH   8  11
HETATM   11  C6  UNL     1      -2.111   0.325   0.540  1.00  0.00     0.090 C 
HETATM   12  C2  UNL     1      -3.364   0.483  -0.283  1.00  0.00     0.033 C 
HETATM   13  C1  UNL     1      -3.889  -0.869  -0.672  1.00  0.00     0.014 C 
HETATM   14  C3  UNL     1      -4.329   1.070   0.734  1.00  0.00     0.124 C 
HETATM   15  C4  UNL     1      -3.486   2.059   1.486  1.00  0.00     0.034 C 
HETATM   16  C5  UNL     1      -2.105   1.489   1.488  1.00  0.00     0.028 C 
BRANCH  14  17
HETATM   17  O1  UNL     1      -5.393   1.721   0.135  1.00  0.00    -0.395 OA
ATOM     18  H1  UNL     1      -5.996   2.088   0.771  1.00  0.00     0.210 HD
ENDBRANCH  14  17
ENDBRANCH   8  11
ENDBRANCH   1   7
BRANCH   6  19
HETATM   19  N2  UNL     1       2.585   0.047   0.614  1.00  0.00    -0.355 N 
HETATM   20  C14 UNL     1       2.359   1.150   1.477  1.00  0.00     0.227 C 
HETATM   21  O3  UNL     1       1.766   2.187   1.058  1.00  0.00    -0.273 OA
ATOM     22  H2  UNL     1       3.064  -0.784   0.961  1.00  0.00     0.162 HD
BRANCH  20  23
HETATM   23  C15 UNL     1       2.790   1.174   2.899  1.00  0.00     0.187 C 
HETATM   24 BR1  UNL     1       3.674  -0.462   3.392  1.00  0.00    -0.087 Br
ENDBRANCH  20  23
ENDBRANCH   6  19
TORSDOF 5
