REMARK  5 active torsions:
REMARK  status: ('A' for Active; 'I' for Inactive)
REMARK    1  A    between atoms: C4_6  and  C5_7 
REMARK       I    between atoms: C5_7  and  N2_9 
REMARK    2  A    between atoms: N2_9  and  C6_11 
REMARK    3  A    between atoms: C13_18  and  C14_19 
REMARK    4  A    between atoms: C18_25  and  C19_26 
REMARK    5  A    between atoms: C19_26  and  N3_27 
ROOT
HETATM    1  C5  UNL     1       0.710   1.415   0.419  1.00  0.00     0.240 C 
HETATM    2  O1  UNL     1       0.469   2.451   1.080  1.00  0.00    -0.271 OA
HETATM    3  N2  UNL     1      -0.390   0.666  -0.095  1.00  0.00    -0.354 N 
ATOM      4  H2  UNL     1      -0.207  -0.180  -0.635  1.00  0.00     0.162 HD
ENDROOT
BRANCH   1   5
HETATM    5  C4  UNL     1       2.121   1.004   0.194  1.00  0.00     0.169 C 
HETATM    6  N1  UNL     1       3.011   1.919   0.810  1.00  0.00    -0.409 N 
HETATM    7  C3  UNL     1       4.333   1.456   1.069  1.00  0.00     0.119 C 
ATOM      8  H1  UNL     1       2.719   2.865   1.056  1.00  0.00     0.154 HD
HETATM    9  C2  UNL     1       4.602   0.168   0.287  1.00  0.00     0.004 C 
HETATM   10  C1  UNL     1       6.035  -0.207   0.283  1.00  0.00     0.012 C 
HETATM   11  C18 UNL     1       3.676  -0.848   0.890  1.00  0.00     0.018 C 
HETATM   12  C17 UNL     1       2.282  -0.427   0.545  1.00  0.00     0.041 C 
BRANCH  11  13
HETATM   13  C19 UNL     1       3.923  -2.249   0.412  1.00  0.00     0.234 C 
BRANCH  13  14
HETATM   14  N3  UNL     1       3.772  -2.403  -1.006  1.00  0.00    -0.079 N 
ATOM     15  H33 UNL     1       2.856  -2.074  -1.310  1.00  0.00     0.274 HD
ATOM     16  H32 UNL     1       4.364  -1.741  -1.507  1.00  0.00     0.274 HD
ATOM     17  H31 UNL     1       3.940  -3.355  -1.331  1.00  0.00     0.274 HD
ENDBRANCH  13  14
ENDBRANCH  11  13
ENDBRANCH   1   5
BRANCH   3  18
HETATM   18  C6  UNL     1      -1.743   1.072   0.129  1.00  0.00     0.092 C 
HETATM   19  C7  UNL     1      -2.546   0.065   0.909  1.00  0.00     0.010 C 
HETATM   20  C8  UNL     1      -3.832   0.767   1.339  1.00  0.00     0.011 C 
HETATM   21  C16 UNL     1      -2.922  -1.148   0.116  1.00  0.00     0.027 C 
HETATM   22  C9  UNL     1      -4.593   1.169   0.120  1.00  0.00    -0.012 C 
HETATM   23  C10 UNL     1      -3.767   2.110  -0.741  1.00  0.00     0.011 C 
HETATM   24  C15 UNL     1      -4.934  -0.036  -0.729  1.00  0.00     0.025 C 
HETATM   25  C11 UNL     1      -2.470   1.421  -1.160  1.00  0.00     0.010 C 
HETATM   26  C12 UNL     1      -2.742   0.160  -1.927  1.00  0.00     0.027 C 
HETATM   27  C13 UNL     1      -3.670  -0.728  -1.130  1.00  0.00     0.049 C 
BRANCH  27  28
HETATM   28  C14 UNL     1      -3.942  -1.929  -1.934  1.00  0.00     0.181 C 
HETATM   29  O2  UNL     1      -5.131  -2.183  -2.256  1.00  0.00    -0.647 OA
HETATM   30  O3  UNL     1      -2.956  -2.789  -2.351  1.00  0.00    -0.647 OA
ENDBRANCH  27  28
ENDBRANCH   3  18
TORSDOF 5
