REMARK  1 active torsions:
REMARK  status: ('A' for Active; 'I' for Inactive)
REMARK    1  A    between atoms: C2_2  and  C3_3 
ROOT
HETATM    1  C3  UNL     1       0.261   0.194   0.048  1.00  0.00     0.099 C 
HETATM    2  C4  UNL     1       1.283  -0.761  -0.457  1.00  0.00     0.096 C 
HETATM    3  N1  UNL     1       2.601  -0.607  -0.137  1.00  0.00    -0.308 N 
ATOM      4  H1  UNL     1       3.163  -1.185  -0.762  1.00  0.00     0.186 HD
HETATM    5  N2  UNL     1       3.322  -0.037   0.613  1.00  0.00    -0.265 N 
ATOM      6  H2  UNL     1       4.332  -0.172   0.558  1.00  0.00     0.196 HD
HETATM    7  S1  UNL     1       2.644   1.032   1.808  1.00  0.00     0.036 SA
HETATM    8  S2  UNL     1       0.566   0.527   1.816  1.00  0.00    -0.064 SA
ENDROOT
BRANCH   1   9
HETATM    9  C2  UNL     1      -1.129  -0.330  -0.180  1.00  0.00     0.017 C 
HETATM   10  C1  UNL     1      -2.196   0.593   0.310  1.00  0.00     0.006 C 
ENDBRANCH   1   9
TORSDOF 1
