REMARK  8 active torsions:
REMARK  status: ('A' for Active; 'I' for Inactive)
REMARK    1  A    between atoms: C2_2  and  C3_3 
REMARK    2  A    between atoms: C3_3  and  C4_4 
REMARK    3  A    between atoms: C4_4  and  N1_5 
REMARK    4  A    between atoms: N1_5  and  C5_7 
REMARK    5  A    between atoms: C6_10  and  N3_11 
REMARK    6  A    between atoms: N4_14  and  C7_15 
REMARK    7  A    between atoms: C7_15  and  C8_16 
REMARK    8  A    between atoms: C8_16  and  N5_17 
ROOT
HETATM    1  C5  UNL     1      -0.127   0.293   0.143  1.00  0.00     0.707 A 
HETATM    2  N2  UNL     1      -0.272  -1.021  -0.009  1.00  0.00    -0.020 N 
ATOM      3  H2  UNL     1       0.464  -1.718   0.101  1.00  0.00     0.203 HD
HETATM    4  C6  UNL     1      -1.564  -1.278  -0.335  1.00  0.00     0.707 A 
HETATM    5  N4  UNL     1      -2.187  -0.110  -0.376  1.00  0.00    -0.108 N 
HETATM    6  N6  UNL     1      -1.337   0.832  -0.092  1.00  0.00    -0.115 N 
ATOM      7  H6  UNL     1      -1.554   1.828  -0.053  1.00  0.00     0.206 HD
ENDROOT
BRANCH   1   8
HETATM    8  N1  UNL     1       0.901   1.004   0.449  1.00  0.00    -0.224 N 
ATOM      9  H1  UNL     1       0.783   2.015   0.514  1.00  0.00     0.177 HD
BRANCH   8  10
HETATM   10  C4  UNL     1       2.210   0.455   0.706  1.00  0.00     0.138 C 
BRANCH  10  11
HETATM   11  C3  UNL     1       2.981   0.422  -0.577  1.00  0.00     0.020 C 
BRANCH  11  12
HETATM   12  C2  UNL     1       4.366  -0.132  -0.435  1.00  0.00    -0.003 C 
HETATM   13  C1  UNL     1       5.236   0.627   0.504  1.00  0.00     0.005 C 
ENDBRANCH  11  12
ENDBRANCH  10  11
ENDBRANCH   8  10
ENDBRANCH   1   8
BRANCH   4  14
HETATM   14  N3  UNL     1      -2.030  -2.476  -0.553  1.00  0.00    -0.233 N 
ATOM     15  H32 UNL     1      -1.550  -3.376  -0.521  1.00  0.00     0.174 HD
ATOM     16  H31 UNL     1      -3.001  -2.669  -0.798  1.00  0.00     0.174 HD
ENDBRANCH   4  14
BRANCH   5  17
HETATM   17  C7  UNL     1      -3.585   0.076  -0.687  1.00  0.00     0.196 C 
BRANCH  17  18
HETATM   18  C8  UNL     1      -4.344   0.007   0.626  1.00  0.00     0.252 C 
BRANCH  18  19
HETATM   19  N5  UNL     1      -5.755   0.187   0.380  1.00  0.00    -0.078 N 
ATOM     20  H53 UNL     1      -5.950   1.047  -0.132  1.00  0.00     0.274 HD
ATOM     21  H52 UNL     1      -6.113  -0.476  -0.307  1.00  0.00     0.274 HD
ATOM     22  H51 UNL     1      -6.265   0.141   1.262  1.00  0.00     0.274 HD
ENDBRANCH  18  19
ENDBRANCH  17  18
ENDBRANCH   5  17
TORSDOF 8
