REMARK  10 active torsions:
REMARK  status: ('A' for Active; 'I' for Inactive)
REMARK    1  A    between atoms: C2_2  and  C3_3 
REMARK    2  A    between atoms: C3_3  and  C4_4 
REMARK    3  A    between atoms: C4_4  and  C5_5 
REMARK    4  A    between atoms: C5_5  and  C6_6 
REMARK    5  A    between atoms: C6_6  and  C7_7 
REMARK    6  A    between atoms: C7_7  and  N1_8 
REMARK    7  A    between atoms: C7_7  and  C15_21 
REMARK    8  A    between atoms: N1_8  and  N2_10 
REMARK    9  A    between atoms: C8_12  and  C9_13 
REMARK   10  A    between atoms: C12_16  and  O1_17 
ROOT
HETATM    1  C7  UNL     1      -1.359  -0.483  -0.286  1.00  0.00     0.135 C 
ENDROOT
BRANCH   1   2
HETATM    2  C6  UNL     1      -1.731   0.486  -1.341  1.00  0.00     0.058 C 
BRANCH   2   3
HETATM    3  C5  UNL     1      -2.494   1.687  -0.914  1.00  0.00    -0.024 C 
BRANCH   3   4
HETATM    4  C4  UNL     1      -2.911   1.970   0.284  1.00  0.00    -0.004 C 
BRANCH   4   5
HETATM    5  C3  UNL     1      -3.642   3.058   0.868  1.00  0.00    -0.001 C 
BRANCH   5   6
HETATM    6  C2  UNL     1      -4.133   4.214   0.162  1.00  0.00    -0.010 C 
HETATM    7  C1  UNL     1      -4.120   4.645  -1.062  1.00  0.00     0.011 C 
ENDBRANCH   5   6
ENDBRANCH   4   5
ENDBRANCH   3   4
ENDBRANCH   2   3
ENDBRANCH   1   2
BRANCH   1   8
HETATM    8  N1  UNL     1      -0.478   0.069   0.735  1.00  0.00    -0.327 N 
ATOM      9  H1  UNL     1      -0.256   1.058   0.620  1.00  0.00     0.181 HD
BRANCH   8  10
HETATM   10  N2  UNL     1       0.084  -0.512   1.795  1.00  0.00    -0.315 N 
HETATM   11  C8  UNL     1       1.167  -0.834   2.284  1.00  0.00     0.118 C 
ATOM     12  H2  UNL     1      -0.656  -0.794   2.438  1.00  0.00     0.185 HD
BRANCH  11  13
HETATM   13  C9  UNL     1       2.463  -0.602   1.667  1.00  0.00    -0.019 A 
HETATM   14  C10 UNL     1       3.607  -0.999   2.376  1.00  0.00     0.015 A 
HETATM   15  C11 UNL     1       4.858  -0.819   1.852  1.00  0.00     0.037 A 
HETATM   16  C12 UNL     1       5.025  -0.245   0.619  1.00  0.00     0.065 A 
HETATM   17  C13 UNL     1       3.905   0.144  -0.075  1.00  0.00     0.037 A 
HETATM   18  C14 UNL     1       2.607  -0.024   0.429  1.00  0.00     0.015 A 
BRANCH  16  19
HETATM   19  O1  UNL     1       6.286  -0.059   0.082  1.00  0.00    -0.361 OA
ATOM     20  H1  UNL     1       6.402   0.339  -0.773  1.00  0.00     0.217 HD
ENDBRANCH  16  19
ENDBRANCH  11  13
ENDBRANCH   8  10
ENDBRANCH   1   8
BRANCH   1  21
HETATM   21  C15 UNL     1      -0.748  -1.714  -0.839  1.00  0.00    -0.034 A 
HETATM   22  C16 UNL     1      -0.558  -2.785   0.008  1.00  0.00     0.009 A 
HETATM   23  C17 UNL     1       0.025  -3.968  -0.416  1.00  0.00     0.001 A 
HETATM   24  C18 UNL     1       0.409  -4.030  -1.735  1.00  0.00     0.000 A 
HETATM   25  C19 UNL     1       0.223  -2.970  -2.585  1.00  0.00     0.001 A 
HETATM   26  C20 UNL     1      -0.351  -1.805  -2.162  1.00  0.00     0.009 A 
ENDBRANCH   1  21
TORSDOF 10
