REMARK  3 active torsions:
REMARK  status: ('A' for Active; 'I' for Inactive)
REMARK    1  A    between atoms: N1_2  and  C3_4 
REMARK    2  A    between atoms: C9_10  and  O1_11 
REMARK    3  A    between atoms: O1_11  and  C10_12 
ROOT
HETATM    1  C3  UNL     1      -0.314   0.362  -0.536  1.00  0.00     0.251 C 
HETATM    2  C4  UNL     1      -1.693   0.082  -0.055  1.00  0.00     0.038 C 
HETATM    3  C5  UNL     1      -2.147  -1.319  -0.121  1.00  0.00     0.002 C 
HETATM    4  C6  UNL     1      -1.392  -2.226  -1.022  1.00  0.00     0.000 C 
HETATM    5  C7  UNL     1      -0.143  -2.682  -0.276  1.00  0.00     0.002 C 
HETATM    6  C8  UNL     1       0.976  -1.770  -0.746  1.00  0.00     0.035 C 
HETATM    7  C9  UNL     1       0.774  -0.463   0.051  1.00  0.00     0.166 C 
ENDROOT
BRANCH   7   8
HETATM    8  O1  UNL     1       2.027   0.171   0.112  1.00  0.00    -0.299 OA
BRANCH   8   9
HETATM    9  C10 UNL     1       2.685   0.306   1.331  1.00  0.00     0.373 C 
HETATM   10  N2  UNL     1       3.943   0.938   1.445  1.00  0.00    -0.032 NA
HETATM   11  O2  UNL     1       2.127  -0.154   2.345  1.00  0.00    -0.242 OA
ENDBRANCH   8   9
ENDBRANCH   7   8
BRANCH   1  12
HETATM   12  N1  UNL     1      -0.027   1.774  -0.341  1.00  0.00     0.087 N 
HETATM   13  C1  UNL     1      -0.968   2.523  -1.186  1.00  0.00     0.310 C 
HETATM   14  C2  UNL     1      -0.281   2.231   1.013  1.00  0.00     0.310 C 
ENDBRANCH   1  12
TORSDOF 3
