REMARK  5 active torsions:
REMARK  status: ('A' for Active; 'I' for Inactive)
REMARK    1  A    between atoms: C2_2  and  C3_3 
REMARK       I    between atoms: N1_7  and  C7_8 
REMARK    2  A    between atoms: C7_8  and  C8_10 
REMARK    3  A    between atoms: C9_11  and  C10_12 
REMARK    4  A    between atoms: C11_13  and  C12_14 
REMARK    5  A    between atoms: C12_14  and  O2_15 
ROOT
HETATM    1  C3  UNL     1      -2.799  -0.130  -0.695  1.00  0.00     0.116 C 
HETATM    2  C4  UNL     1      -2.617   1.087   0.205  1.00  0.00     0.037 A 
HETATM    3  C5  UNL     1      -1.844   2.273  -0.064  1.00  0.00     0.035 A 
HETATM    4  C6  UNL     1      -1.406   1.146  -0.818  1.00  0.00     0.095 A 
HETATM    5  N1  UNL     1      -1.370  -0.236  -0.479  1.00  0.00    -0.328 N 
HETATM    6  C7  UNL     1      -0.484  -1.251  -0.117  1.00  0.00     0.300 C 
HETATM    7  O1  UNL     1      -0.853  -2.451   0.124  1.00  0.00    -0.258 OA
ENDROOT
BRANCH   6   8
HETATM    8  C8  UNL     1       0.945  -1.034   0.021  1.00  0.00     0.009 C 
HETATM    9  C9  UNL     1       2.130  -0.835   0.130  1.00  0.00    -0.005 C 
BRANCH   9  10
HETATM   10  C10 UNL     1       3.516  -0.582   0.244  1.00  0.00    -0.012 C 
HETATM   11  C11 UNL     1       4.708  -0.344   0.337  1.00  0.00    -0.067 C 
BRANCH  11  12
HETATM   12  C12 UNL     1       6.136  -0.035   0.438  1.00  0.00     0.258 C 
BRANCH  12  13
HETATM   13  O2  UNL     1       6.505   0.931  -0.518  1.00  0.00    -0.389 OA
ATOM     14  H2  UNL     1       7.431   1.131  -0.452  1.00  0.00     0.210 HD
ENDBRANCH  12  13
ENDBRANCH  11  12
ENDBRANCH   9  10
ENDBRANCH   6   8
BRANCH   1  15
HETATM   15  C2  UNL     1      -3.511  -1.244  -0.055  1.00  0.00    -0.012 C 
HETATM   16  C1  UNL     1      -4.403  -1.111   0.902  1.00  0.00     0.009 C 
ENDBRANCH   1  15
TORSDOF 5
