REMARK  2 active torsions:
REMARK  status: ('A' for Active; 'I' for Inactive)
REMARK    1  A    between atoms: C2_2  and  N1_4 
REMARK       I    between atoms: N1_4  and  C5_6 
REMARK       I    between atoms: C5_6  and  N3_10 
REMARK    2  A    between atoms: C6_12  and  N4_13 
ROOT
HETATM    1  N1  UNL     1      -0.916   1.026   0.189  1.00  0.00    -0.218 N 
HETATM    2  C4  UNL     1      -1.442   0.225   1.285  1.00  0.00     0.169 C 
HETATM    3  C5  UNL     1       0.488   1.238   0.157  1.00  0.00     0.674 C 
HETATM    4  N2  UNL     1       0.951   2.398   0.461  1.00  0.00    -0.235 N 
ATOM      5  H21 UNL     1       1.959   2.550   0.438  1.00  0.00     0.174 HD
ATOM      6  H22 UNL     1       0.302   3.142   0.718  1.00  0.00     0.174 HD
HETATM    7  N3  UNL     1       1.398   0.194  -0.203  1.00  0.00    -0.188 N 
ATOM      8  H3  UNL     1       1.887   0.242  -1.097  1.00  0.00     0.185 HD
HETATM    9  C6  UNL     1       1.609  -0.802   0.580  1.00  0.00     0.195 C 
ENDROOT
BRANCH   1  10
HETATM   10  C2  UNL     1      -1.801   1.587  -0.835  1.00  0.00     0.093 C 
HETATM   11  C1  UNL     1      -2.522   0.449  -1.532  1.00  0.00     0.032 C 
HETATM   12  C3  UNL     1      -2.844   2.486  -0.241  1.00  0.00     0.032 C 
ENDBRANCH   1  10
BRANCH   9  13
HETATM   13  N4  UNL     1       2.499  -1.851   0.259  1.00  0.00    -0.385 N 
HETATM   14  C7  UNL     1       2.341  -2.652  -0.933  1.00  0.00     0.149 C 
HETATM   15  C8  UNL     1       3.603  -2.141   1.139  1.00  0.00     0.149 C 
ENDBRANCH   9  13
TORSDOF 2
