REMARK  3 active torsions:
REMARK  status: ('A' for Active; 'I' for Inactive)
REMARK    1  A    between atoms: C4_4  and  C5_5 
REMARK    2  A    between atoms: C5_5  and  N1_6 
REMARK    3  A    between atoms: C9_10  and  N2_12 
ROOT
HETATM    1  C1  UNL     1      -1.845  -1.178  -1.451  1.00  0.00     0.018 C 
HETATM    2  C2  UNL     1      -1.660  -0.835   0.006  1.00  0.00    -0.007 A 
HETATM    3  C3  UNL     1      -2.270  -1.797   0.963  1.00  0.00     0.018 C 
HETATM    4  C4  UNL     1      -0.319  -0.241   0.446  1.00  0.00     0.058 A 
HETATM    5  C9  UNL     1      -1.491   0.604   0.307  1.00  0.00     0.133 A 
HETATM    6  C10 UNL     1      -2.148   1.072   1.614  1.00  0.00     0.047 C 
ENDROOT
BRANCH   4   7
HETATM    7  C5  UNL     1       0.746  -0.377  -0.604  1.00  0.00     0.243 C 
BRANCH   7   8
HETATM    8  N1  UNL     1       2.011   0.171  -0.217  1.00  0.00    -0.078 N 
HETATM    9  C6  UNL     1       3.095  -0.792  -0.353  1.00  0.00     0.271 C 
HETATM   10  C7  UNL     1       2.320   1.242  -1.177  1.00  0.00     0.271 C 
HETATM   11  C8  UNL     1       2.024   0.729   1.114  1.00  0.00     0.271 C 
ENDBRANCH   7   8
ENDBRANCH   4   7
BRANCH   5  12
HETATM   12  N2  UNL     1      -1.676   1.547  -0.767  1.00  0.00    -0.070 N 
ATOM     13  H23 UNL     1      -1.064   1.294  -1.543  1.00  0.00     0.275 HD
ATOM     14  H22 UNL     1      -2.594   1.399  -1.187  1.00  0.00     0.275 HD
ATOM     15  H21 UNL     1      -1.560   2.539  -0.560  1.00  0.00     0.275 HD
ENDBRANCH   5  12
TORSDOF 3
