REMARK  6 active torsions:
REMARK  status: ('A' for Active; 'I' for Inactive)
REMARK    1  A    between atoms: C2_2  and  C3_3 
REMARK    2  A    between atoms: C11_11  and  O1_12 
REMARK    3  A    between atoms: C12_14  and  C13_15 
REMARK    4  A    between atoms: C13_15  and  C15_17 
REMARK    5  A    between atoms: N1_18  and  N2_20 
REMARK       I    between atoms: N2_20  and  C16_22 
REMARK    6  A    between atoms: C16_22  and  C17_24 
ROOT
HETATM    1  C3  UNL     1      -4.325   0.970   0.499  1.00  0.00    -0.040 C 
HETATM    2  C4  UNL     1      -4.476   2.508   0.534  1.00  0.00     0.015 C 
HETATM    3  C5  UNL     1      -5.462   0.483  -0.407  1.00  0.00     0.010 C 
HETATM    4  C6  UNL     1      -4.776  -0.165  -1.625  1.00  0.00     0.011 C 
HETATM    5  C7  UNL     1      -3.506  -0.659  -1.012  1.00  0.00    -0.033 C 
HETATM    6  C8  UNL     1      -3.819  -1.809  -0.150  1.00  0.00     0.016 C 
HETATM    7  C9  UNL     1      -3.179   0.640  -0.259  1.00  0.00     0.005 C 
HETATM    8  C10 UNL     1      -1.825   0.337   0.216  1.00  0.00     0.044 C 
HETATM    9  C11 UNL     1      -1.196   0.099  -1.142  1.00  0.00     0.067 C 
HETATM   10  C12 UNL     1       0.009  -0.688  -1.235  1.00  0.00     0.029 C 
HETATM   11  C22 UNL     1      -0.494  -2.123  -1.013  1.00  0.00     0.009 C 
HETATM   12  C23 UNL     1      -1.657  -2.070  -2.010  1.00  0.00     0.009 C 
HETATM   13  C24 UNL     1      -2.293  -0.741  -1.838  1.00  0.00     0.029 C 
ENDROOT
BRANCH  10  14
HETATM   14  C13 UNL     1       1.233  -0.360  -0.536  1.00  0.00     0.028 C 
HETATM   15  C14 UNL     1       1.713   1.029  -0.983  1.00  0.00     0.016 C 
BRANCH  14  16
HETATM   16  C15 UNL     1       1.318  -0.427   0.905  1.00  0.00     0.085 C 
HETATM   17  N1  UNL     1       2.460  -0.519   1.498  1.00  0.00    -0.313 N 
ATOM     18  H1  UNL     1       2.456  -0.562   2.517  1.00  0.00     0.185 HD
BRANCH  17  19
HETATM   19  N2  UNL     1       3.685  -0.564   0.867  1.00  0.00    -0.270 N 
HETATM   20  C16 UNL     1       4.763   0.242   1.283  1.00  0.00     0.240 C 
HETATM   21  O2  UNL     1       4.604   1.023   2.255  1.00  0.00    -0.271 OA
ATOM     22  H2  UNL     1       3.814  -1.198   0.078  1.00  0.00     0.190 HD
BRANCH  20  23
HETATM   23  C17 UNL     1       6.097   0.218   0.623  1.00  0.00     0.079 C 
HETATM   24  C18 UNL     1       6.736  -1.133   0.670  1.00  0.00     0.014 C 
HETATM   25  C19 UNL     1       8.205  -0.912   0.935  1.00  0.00     0.001 C 
HETATM   26  C20 UNL     1       8.376   0.506   1.379  1.00  0.00     0.001 C 
HETATM   27  C21 UNL     1       7.042   1.195   1.239  1.00  0.00     0.014 C 
ENDBRANCH  20  23
ENDBRANCH  17  19
ENDBRANCH  14  16
ENDBRANCH  10  14
BRANCH   9  28
HETATM   28  O1  UNL     1      -1.091   1.354  -1.752  1.00  0.00    -0.389 OA
ATOM     29  H1  UNL     1      -0.697   1.205  -2.603  1.00  0.00     0.210 HD
ENDBRANCH   9  28
BRANCH   1  30
HETATM   30  C2  UNL     1      -4.465   0.534   1.909  1.00  0.00     0.005 C 
HETATM   31  C1  UNL     1      -5.839   0.942   2.463  1.00  0.00     0.006 C 
ENDBRANCH   1  30
TORSDOF 6
