REMARK  6 active torsions:
REMARK  status: ('A' for Active; 'I' for Inactive)
REMARK    1  A    between atoms: C2_5  and  N2_6 
REMARK    2  A    between atoms: N2_6  and  S1_8 
REMARK    3  A    between atoms: S1_8  and  N3_10 
REMARK    4  A    between atoms: S1_8  and  C8_20 
REMARK    5  A    between atoms: N3_10  and  C3_12 
REMARK    6  A    between atoms: C13_25  and  C14_26 
ROOT
HETATM    1  S1  UNL     1      -0.710   0.831  -0.162  1.00  0.00     0.154 S 
HETATM    2  O2  UNL     1      -1.053   0.246  -1.708  1.00  0.00    -0.222 OA
ENDROOT
BRANCH   1   3
HETATM    3  N2  UNL     1       0.933   0.751  -0.526  1.00  0.00    -0.230 N 
HETATM    4 BR1  UNL     1       2.106   2.056   0.111  1.00  0.00     0.061 Br
BRANCH   3   5
HETATM    5  C2  UNL     1       1.680  -0.425  -0.931  1.00  0.00     0.208 C 
HETATM    6  N1  UNL     1       2.588  -0.030  -1.965  1.00  0.00    -0.338 N 
HETATM    7  C1  UNL     1       3.933  -0.180  -1.527  1.00  0.00     0.224 C 
ATOM      8  H1  UNL     1       2.310   0.311  -2.885  1.00  0.00     0.164 HD
HETATM    9  O1  UNL     1       4.958  -0.073  -2.272  1.00  0.00    -0.273 OA
HETATM   10  C13 UNL     1       3.950  -0.479  -0.073  1.00  0.00     0.091 C 
HETATM   11  C12 UNL     1       2.542  -0.893   0.206  1.00  0.00     0.063 C 
BRANCH  10  12
HETATM   12  C14 UNL     1       4.908  -1.630   0.145  1.00  0.00     0.099 C 
HETATM   13 BR3  UNL     1       5.016  -2.113   2.011  1.00  0.00    -0.096 Br
ENDBRANCH  10  12
ENDBRANCH   3   5
ENDBRANCH   1   3
BRANCH   1  14
HETATM   14  N3  UNL     1      -2.352   0.423   0.317  1.00  0.00    -0.281 N 
ATOM     15  H3  UNL     1      -2.909   1.249   0.537  1.00  0.00     0.179 HD
BRANCH  14  16
HETATM   16  C3  UNL     1      -3.014  -0.662   0.455  1.00  0.00     0.131 A 
HETATM   17  N4  UNL     1      -2.521  -1.885   0.231  1.00  0.00    -0.351 N 
HETATM   18  C4  UNL     1      -3.297  -2.998   0.405  1.00  0.00     0.090 A 
ATOM     19  H4  UNL     1      -1.553  -1.989  -0.074  1.00  0.00     0.166 HD
HETATM   20  C5  UNL     1      -4.611  -2.891   0.817  1.00  0.00     0.018 A 
HETATM   21  C6  UNL     1      -5.131  -1.646   1.051  1.00  0.00     0.024 A 
HETATM   22  C7  UNL     1      -4.310  -0.551   0.862  1.00  0.00     0.055 A 
HETATM   23 BR2  UNL     1      -5.011   1.191   1.181  1.00  0.00    -0.047 Br
ENDBRANCH  14  16
ENDBRANCH   1  14
BRANCH   1  24
HETATM   24  C8  UNL     1      -0.928   2.847   0.032  1.00  0.00     0.059 A 
HETATM   25  C9  UNL     1      -1.155   3.654   1.015  1.00  0.00     0.023 A 
HETATM   26  C10 UNL     1      -1.123   4.821   0.106  1.00  0.00     0.003 A 
HETATM   27  C11 UNL     1      -0.891   3.958  -0.869  1.00  0.00     0.023 A 
ENDBRANCH   1  24
TORSDOF 6
