REMARK  6 active torsions:
REMARK  status: ('A' for Active; 'I' for Inactive)
REMARK       I    between atoms: N3_4  and  C2_6 
REMARK    1  A    between atoms: C2_6  and  C3_8 
REMARK    2  A    between atoms: C7_12  and  C8_14 
REMARK    3  A    between atoms: C8_14  and  C9_15 
REMARK    4  A    between atoms: N4_17  and  C10_18 
REMARK    5  A    between atoms: C11_20  and  N5_21 
REMARK       I    between atoms: N5_21  and  C12_23 
REMARK       I    between atoms: C12_23  and  N6_25 
REMARK    6  A    between atoms: N6_25  and  C13_27 
ROOT
HETATM    1  C3  UNL     1      -1.801  -0.188   0.015  1.00  0.00     0.188 C 
HETATM    2  C4  UNL     1      -0.643  -0.724   0.756  1.00  0.00     0.047 A 
HETATM    3  C5  UNL     1      -0.266  -2.120   0.510  1.00  0.00     0.022 A 
HETATM    4  C6  UNL     1      -1.299  -2.896  -0.273  1.00  0.00     0.074 C 
HETATM    5  C7  UNL     1      -2.662  -2.482   0.246  1.00  0.00     0.181 C 
HETATM    6  F1  UNL     1      -2.518  -2.340   1.654  1.00  0.00    -0.219 F 
HETATM    7  N4  UNL     1      -2.887  -1.146  -0.243  1.00  0.00    -0.309 N 
HETATM    8  C11 UNL     1       0.561  -1.059  -0.076  1.00  0.00     0.098 A 
ENDROOT
BRANCH   8   9
HETATM    9  N5  UNL     1       1.829  -0.683   0.503  1.00  0.00    -0.337 N 
HETATM   10  C12 UNL     1       2.946  -0.259  -0.252  1.00  0.00     0.322 C 
HETATM   11  O3  UNL     1       2.919  -0.178  -1.502  1.00  0.00    -0.247 OA
HETATM   12  N6  UNL     1       4.138   0.084   0.434  1.00  0.00    -0.295 N 
ATOM     13  H6  UNL     1       4.755  -0.647   0.789  1.00  0.00     0.172 HD
ATOM     14  H5  UNL     1       1.924  -0.726   1.518  1.00  0.00     0.164 HD
BRANCH  12  15
HETATM   15  C13 UNL     1       4.436   1.325   0.606  1.00  0.00     0.108 A 
HETATM   16  C14 UNL     1       3.601   2.318   0.128  1.00  0.00     0.049 A 
HETATM   17  C15 UNL     1       3.927   3.642   0.317  1.00  0.00     0.005 A 
HETATM   18  C16 UNL     1       5.091   3.937   0.987  1.00  0.00     0.017 A 
HETATM   19  C17 UNL     1       5.933   2.944   1.470  1.00  0.00     0.089 A 
HETATM   20  N7  UNL     1       5.568   1.670   1.259  1.00  0.00    -0.352 N 
ATOM     21  H7  UNL     1       6.173   0.927   1.608  1.00  0.00     0.166 HD
ENDBRANCH  12  15
ENDBRANCH   8   9
BRANCH   1  22
HETATM   22  C2  UNL     1      -1.451   0.413  -1.290  1.00  0.00     0.247 C 
HETATM   23  N3  UNL     1      -0.483   1.436  -1.323  1.00  0.00    -0.302 N 
HETATM   24  C1  UNL     1      -0.785   2.676  -1.143  1.00  0.00     0.203 C 
ATOM     25  H3  UNL     1       0.491   1.187  -1.495  1.00  0.00     0.171 HD
HETATM   26  N1  UNL     1      -2.109   3.083  -0.902  1.00  0.00    -0.066 NA
HETATM   27  N2  UNL     1       0.258   3.626  -1.196  1.00  0.00    -0.066 NA
HETATM   28  O1  UNL     1      -1.977   0.049  -2.348  1.00  0.00    -0.271 OA
ENDBRANCH   1  22
BRANCH   7  29
HETATM   29  C10 UNL     1      -4.046  -0.693  -0.923  1.00  0.00     0.354 C 
HETATM   30  O2  UNL     1      -5.030  -1.388  -1.217  1.00  0.00    -0.283 OA
ENDBRANCH   7  29
BRANCH   5  31
HETATM   31  C8  UNL     1      -3.763  -3.423  -0.027  1.00  0.00     0.077 C 
BRANCH  31  32
HETATM   32  C9  UNL     1      -3.493  -4.764   0.608  1.00  0.00     0.090 C 
HETATM   33 BR1  UNL     1      -5.015  -5.917   0.221  1.00  0.00    -0.096 Br
ENDBRANCH  31  32
ENDBRANCH   5  31
TORSDOF 6
