REMARK  1 active torsions:
REMARK  status: ('A' for Active; 'I' for Inactive)
REMARK    1  A    between atoms: N1_2  and  C2_5 
ROOT
HETATM    1  C2  UNL     1      -0.500  -0.372  -0.270  1.00  0.00     0.133 C 
HETATM    2  C3  UNL     1       0.816  -0.534  -0.977  1.00  0.00     0.044 C 
HETATM    3  C4  UNL     1       1.693   0.364  -0.080  1.00  0.00    -0.011 C 
HETATM    4  C5  UNL     1       2.740  -0.460   0.632  1.00  0.00     0.010 C 
HETATM    5  C6  UNL     1       0.640   0.833   0.874  1.00  0.00     0.002 C 
HETATM    6  C7  UNL     1      -0.058  -0.499   1.194  1.00  0.00     0.045 C 
HETATM    7  C8  UNL     1      -0.564   1.096  -0.004  1.00  0.00    -0.010 C 
HETATM    8  C9  UNL     1      -1.760   1.579   0.788  1.00  0.00     0.018 C 
HETATM    9  C10 UNL     1      -0.333   1.998  -1.181  1.00  0.00     0.018 C 
ENDROOT
BRANCH   1  10
HETATM   10  N1  UNL     1      -1.610  -1.084  -0.687  1.00  0.00    -0.069 N 
HETATM   11  C1  UNL     1      -1.386  -2.508  -0.543  1.00  0.00     0.267 C 
ATOM     12  H12 UNL     1      -1.882  -0.838  -1.639  1.00  0.00     0.277 HD
ATOM     13  H11 UNL     1      -2.456  -0.783  -0.204  1.00  0.00     0.277 HD
ENDBRANCH   1  10
TORSDOF 1
