REMARK  4 active torsions:
REMARK  status: ('A' for Active; 'I' for Inactive)
REMARK    1  A    between atoms: O1_2  and  C2_3 
REMARK    2  A    between atoms: C2_3  and  O3_5 
REMARK    3  A    between atoms: O3_5  and  N1_6 
REMARK    4  A    between atoms: N1_6  and  C3_7 
ROOT
HETATM    1  O3  UNL     1       0.779   0.234  -0.486  1.00  0.00    -0.182 OA
ENDROOT
BRANCH   1   2
HETATM    2  C2  UNL     1       2.109   0.036  -0.099  1.00  0.00     0.424 C 
HETATM    3  O2  UNL     1       2.370  -0.387   1.066  1.00  0.00    -0.228 OA
BRANCH   2   4
HETATM    4  O1  UNL     1       3.169   0.285  -0.943  1.00  0.00    -0.302 OA
HETATM    5  C1  UNL     1       4.491   0.063  -0.487  1.00  0.00     0.215 C 
ENDBRANCH   2   4
ENDBRANCH   1   2
BRANCH   1   6
HETATM    6  N1  UNL     1      -0.180  -0.049   0.443  1.00  0.00    -0.080 NA
BRANCH   6   7
HETATM    7  C3  UNL     1      -1.515   0.050  -0.048  1.00  0.00     0.047 C 
HETATM    8  C4  UNL     1      -1.790  -0.899  -1.209  1.00  0.00     0.035 C 
HETATM    9  C5  UNL     1      -2.447  -0.396   1.079  1.00  0.00     0.035 C 
HETATM   10  C6  UNL     1      -1.911   1.440  -0.448  1.00  0.00     0.035 C 
ENDBRANCH   6   7
ENDBRANCH   1   6
TORSDOF 4
