REMARK  7 active torsions:
REMARK  status: ('A' for Active; 'I' for Inactive)
REMARK    1  A    between atoms: C2_3  and  O2_5 
REMARK    2  A    between atoms: O2_5  and  C3_6 
REMARK    3  A    between atoms: C3_6  and  C4_7 
REMARK    4  A    between atoms: C3_6  and  N2_13 
REMARK    5  A    between atoms: C4_7  and  C5_8 
REMARK    6  A    between atoms: C14_18  and  O3_19 
REMARK    7  A    between atoms: C15_21  and  O4_22 
ROOT
HETATM    1  C1  UNL     1      -0.343   4.712   0.737  1.00  0.00     0.235 C 
HETATM    2  N1  UNL     1      -0.358   3.602  -0.039  1.00  0.00    -0.370 NA
HETATM    3  C2  UNL     1      -0.373   2.481  -0.841  1.00  0.00     0.440 C 
HETATM    4  O1  UNL     1      -0.265   2.515  -2.101  1.00  0.00    -0.221 OA
ENDROOT
BRANCH   3   5
HETATM    5  O2  UNL     1      -0.512   1.223  -0.206  1.00  0.00    -0.267 OA
BRANCH   5   6
HETATM    6  C3  UNL     1      -0.293   0.043  -1.104  1.00  0.00     0.232 C 
BRANCH   6   7
HETATM    7  C4  UNL     1      -1.493  -0.736  -1.114  1.00  0.00     0.059 C 
BRANCH   7   8
HETATM    8  C5  UNL     1      -2.171  -1.393  -0.020  1.00  0.00    -0.010 C 
HETATM    9  C6  UNL     1      -3.418  -2.073  -0.617  1.00  0.00     0.005 C 
HETATM   10  C7  UNL     1      -4.500  -1.795   0.371  1.00  0.00     0.000 C 
HETATM   11  C8  UNL     1      -4.109  -0.481   1.014  1.00  0.00     0.000 C 
HETATM   12  C9  UNL     1      -2.594  -0.640   1.181  1.00  0.00     0.005 C 
ENDBRANCH   7   8
ENDBRANCH   6   7
BRANCH   6  13
HETATM   13  N2  UNL     1       0.937  -0.336  -0.635  1.00  0.00    -0.376 N 
HETATM   14  C10 UNL     1       1.499   0.332   0.523  1.00  0.00     0.084 C 
HETATM   15  C11 UNL     1       1.777  -0.800   1.485  1.00  0.00     0.027 C 
HETATM   16  C16 UNL     1       2.818   1.006   0.165  1.00  0.00     0.059 C 
HETATM   17  C12 UNL     1       1.602  -2.065   0.670  1.00  0.00     0.030 C 
HETATM   18  C13 UNL     1       1.706  -1.461  -0.752  1.00  0.00     0.113 C 
HETATM   19  C14 UNL     1       3.193  -1.220  -0.949  1.00  0.00     0.169 C 
HETATM   20  C15 UNL     1       3.583   0.225  -0.857  1.00  0.00     0.150 C 
BRANCH  19  21
HETATM   21  O3  UNL     1       3.893  -1.968   0.038  1.00  0.00    -0.391 OA
ATOM     22  H3  UNL     1       4.823  -1.817  -0.085  1.00  0.00     0.210 HD
ENDBRANCH  19  21
BRANCH  20  23
HETATM   23  O4  UNL     1       4.938   0.257  -0.491  1.00  0.00    -0.393 OA
ATOM     24  H4  UNL     1       5.185   1.172  -0.433  1.00  0.00     0.210 HD
ENDBRANCH  20  23
ENDBRANCH   6  13
ENDBRANCH   5   6
ENDBRANCH   3   5
TORSDOF 6
