REMARK  9 active torsions:
REMARK  status: ('A' for Active; 'I' for Inactive)
REMARK    1  A    between atoms: C2_2  and  C3_3 
REMARK    2  A    between atoms: C3_3  and  C4_4 
REMARK    3  A    between atoms: C4_4  and  C5_5 
REMARK    4  A    between atoms: C7_7  and  O1_8 
REMARK    5  A    between atoms: C8_10  and  O2_11 
REMARK    6  A    between atoms: C9_13  and  C10_14 
REMARK    7  A    between atoms: C10_14  and  S1_15 
REMARK    8  A    between atoms: S1_15  and  C11_16 
REMARK    9  A    between atoms: C17_22  and  O3_23 
ROOT
HETATM    1  C5  UNL     1      -2.379  -0.717   0.245  1.00  0.00     0.017 C 
HETATM    2  C6  UNL     1      -2.590  -1.852  -0.694  1.00  0.00     0.041 C 
HETATM    3  C7  UNL     1      -1.587  -1.950  -1.785  1.00  0.00     0.147 C 
HETATM    4  C8  UNL     1      -0.155  -1.797  -1.369  1.00  0.00     0.154 C 
HETATM    5  C9  UNL     1       0.100  -0.884  -0.229  1.00  0.00     0.056 C 
HETATM    6  C17 UNL     1      -1.059  -0.043   0.211  1.00  0.00     0.129 C 
ENDROOT
BRANCH   5   7
HETATM    7  C10 UNL     1       1.202   0.110  -0.682  1.00  0.00     0.089 C 
BRANCH   7   8
HETATM    8  S1  UNL     1       2.742  -0.693  -1.104  1.00  0.00    -0.129 SA
BRANCH   8   9
HETATM    9  C11 UNL     1       4.139  -0.006  -0.249  1.00  0.00     0.000 A 
HETATM   10  C12 UNL     1       5.375  -0.606  -0.390  1.00  0.00     0.018 A 
HETATM   11  C13 UNL     1       6.539  -0.117   0.183  1.00  0.00     0.001 A 
HETATM   12  C14 UNL     1       6.440   1.050   0.944  1.00  0.00     0.000 A 
HETATM   13  C15 UNL     1       5.226   1.680   1.109  1.00  0.00     0.001 A 
HETATM   14  C16 UNL     1       4.079   1.141   0.508  1.00  0.00     0.018 A 
ENDBRANCH   8   9
ENDBRANCH   7   8
ENDBRANCH   5   7
BRANCH   4  15
HETATM   15  O2  UNL     1       0.492  -3.012  -1.127  1.00  0.00    -0.393 OA
ATOM     16  H2  UNL     1       1.400  -2.915  -0.863  1.00  0.00     0.210 HD
ENDBRANCH   4  15
BRANCH   6  17
HETATM   17  O3  UNL     1      -0.727   0.358   1.537  1.00  0.00    -0.395 OA
ATOM     18  H3  UNL     1       0.119   0.790   1.515  1.00  0.00     0.210 HD
ENDBRANCH   6  17
BRANCH   3  19
HETATM   19  O1  UNL     1      -1.891  -1.102  -2.877  1.00  0.00    -0.393 OA
ATOM     20  H1  UNL     1      -1.249  -1.165  -3.575  1.00  0.00     0.210 HD
ENDBRANCH   3  19
BRANCH   1  21
HETATM   21  C4  UNL     1      -3.507   0.312   0.140  1.00  0.00     0.011 C 
BRANCH  21  22
HETATM   22  C3  UNL     1      -3.276   1.451   1.099  1.00  0.00     0.027 C 
BRANCH  22  23
HETATM   23  C2  UNL     1      -4.405   2.415   1.005  1.00  0.00    -0.037 C 
HETATM   24  C1  UNL     1      -5.111   2.657   2.107  1.00  0.00     0.007 C 
ENDBRANCH  22  23
ENDBRANCH  21  22
ENDBRANCH   1  21
TORSDOF 9
