REMARK  4 active torsions:
REMARK  status: ('A' for Active; 'I' for Inactive)
REMARK    1  A    between atoms: C5_8  and  C6_9 
REMARK    2  A    between atoms: C6_9  and  C7_10 
REMARK    3  A    between atoms: C7_10  and  C8_11 
REMARK    4  A    between atoms: C10_14  and  O3_15 
ROOT
HETATM    1  C8  UNL     1       0.583  -0.137   0.578  1.00  0.00     0.135 C 
HETATM    2  O2  UNL     1       0.704   0.530   1.772  1.00  0.00    -0.382 OA
HETATM    3  C9  UNL     1       0.012  -0.206   2.717  1.00  0.00     0.207 C 
HETATM    4  C10 UNL     1      -1.303  -0.463   1.962  1.00  0.00     0.091 C 
HETATM    5  C11 UNL     1      -2.183   0.718   2.220  1.00  0.00     0.041 C 
HETATM    6  C12 UNL     1      -3.269   0.708   1.161  1.00  0.00     0.011 C 
HETATM    7  C13 UNL     1      -2.554   1.076  -0.131  1.00  0.00     0.029 C 
HETATM    8  C14 UNL     1      -3.575   1.067  -1.230  1.00  0.00     0.088 C 
HETATM    9  C15 UNL     1      -3.212   1.917  -2.406  1.00  0.00     0.021 C 
HETATM   10  C16 UNL     1      -3.593  -0.378  -1.629  1.00  0.00     0.263 C 
HETATM   11  O4  UNL     1      -4.525  -0.990  -2.210  1.00  0.00    -0.265 OA
HETATM   12  O5  UNL     1      -2.392  -0.920  -1.241  1.00  0.00    -0.314 OA
HETATM   13  C17 UNL     1      -1.605   0.007  -0.498  1.00  0.00     0.150 C 
HETATM   14  C18 UNL     1      -0.847  -0.647   0.578  1.00  0.00     0.042 C 
HETATM   15  C19 UNL     1      -0.882  -2.160   0.292  1.00  0.00     0.024 C 
ENDROOT
BRANCH   1  16
HETATM   16  C7  UNL     1       1.584  -1.204   0.426  1.00  0.00     0.037 C 
BRANCH  16  17
HETATM   17  C6  UNL     1       3.034  -0.843   0.424  1.00  0.00     0.046 C 
BRANCH  17  18
HETATM   18  C5  UNL     1       3.508   0.021  -0.649  1.00  0.00    -0.003 A 
HETATM   19  C2  UNL     1       3.526   1.375  -0.786  1.00  0.00     0.037 A 
HETATM   20  C1  UNL     1       3.135   2.450   0.149  1.00  0.00     0.071 C 
HETATM   21  N1  UNL     1       4.041   1.647  -2.018  1.00  0.00    -0.265 N 
HETATM   22  O1  UNL     1       4.319   0.537  -2.589  1.00  0.00    -0.242 OA
ATOM     23  H1  UNL     1       4.181   2.576  -2.416  1.00  0.00     0.194 HD
HETATM   24  C3  UNL     1       4.035  -0.487  -1.847  1.00  0.00     0.080 A 
HETATM   25  C4  UNL     1       4.245  -1.902  -2.238  1.00  0.00     0.079 C 
ENDBRANCH  17  18
ENDBRANCH  16  17
ENDBRANCH   1  16
BRANCH   4  26
HETATM   26  O3  UNL     1      -1.862  -1.597   2.552  1.00  0.00    -0.387 OA
ATOM     27  H3  UNL     1      -2.674  -1.756   2.086  1.00  0.00     0.210 HD
ENDBRANCH   4  26
TORSDOF 4
