REMARK  2 active torsions:
REMARK  status: ('A' for Active; 'I' for Inactive)
REMARK    1  A    between atoms: C2_4  and  N2_6 
REMARK       I    between atoms: C4_8  and  N4_10 
REMARK    2  A    between atoms: N4_10  and  N5_12 
ROOT
HETATM    1  N2  UNL     1      -1.844  -0.278  -1.184  1.00  0.00    -0.320 N 
ATOM      2  H2  UNL     1      -2.294  -0.224  -2.098  1.00  0.00     0.169 HD
HETATM    3  C4  UNL     1      -0.546  -0.147  -1.060  1.00  0.00     0.208 C 
HETATM    4  N3  UNL     1       0.166   0.069  -2.263  1.00  0.00    -0.062 NA
HETATM    5  N4  UNL     1       0.090  -0.221   0.206  1.00  0.00    -0.274 N 
ATOM      6  H4  UNL     1      -0.382   0.182   1.016  1.00  0.00     0.189 HD
ENDROOT
BRANCH   1   7
HETATM    7  C2  UNL     1      -2.597  -0.495  -0.015  1.00  0.00     0.074 C 
HETATM    8  N1  UNL     1      -3.122   0.498   0.595  1.00  0.00    -0.384 N 
HETATM    9  C1  UNL     1      -2.967   1.844   0.120  1.00  0.00     0.147 C 
ATOM     10  H1  UNL     1      -3.665   0.330   1.442  1.00  0.00     0.160 HD
HETATM   11  C3  UNL     1      -2.790  -1.855   0.518  1.00  0.00     0.089 C 
ENDBRANCH   1   7
BRANCH   5  12
HETATM   12  N5  UNL     1       1.318  -0.815   0.384  1.00  0.00    -0.307 N 
HETATM   13  C5  UNL     1       2.441  -0.237   0.498  1.00  0.00    -0.004 C 
HETATM   14  C6  UNL     1       3.642  -1.098   0.684  1.00  0.00     0.064 C 
HETATM   15  C7  UNL     1       2.672   1.224   0.463  1.00  0.00     0.064 C 
ATOM     16  H5  UNL     1       1.326  -1.834   0.429  1.00  0.00     0.186 HD
ENDBRANCH   5  12
TORSDOF 2
