REMARK  10 active torsions:
REMARK  status: ('A' for Active; 'I' for Inactive)
REMARK    1  A    between atoms: O1_1  and  N1_3 
REMARK    2  A    between atoms: C2_7  and  N3_8 
REMARK    3  A    between atoms: N3_8  and  C3_10 
REMARK    4  A    between atoms: C3_10  and  C4_11 
REMARK    5  A    between atoms: C4_11  and  C5_12 
REMARK    6  A    between atoms: C5_12  and  N4_13 
REMARK    7  A    between atoms: C9_21  and  N7_22 
REMARK    8  A    between atoms: N7_22  and  C10_24 
REMARK    9  A    between atoms: C10_24  and  C11_25 
REMARK   10  A    between atoms: C11_25  and  C12_26 
ROOT
HETATM    1  N1  UNL     1      -1.286  -0.468   2.064  1.00  0.00    -0.047 N 
HETATM    2  C1  UNL     1      -0.031  -0.633   2.514  1.00  0.00     0.249 A 
HETATM    3  N2  UNL     1       0.985   0.129   2.026  1.00  0.00    -0.184 N 
ATOM      4  H2  UNL     1       1.930  -0.015   2.383  1.00  0.00     0.185 HD
HETATM    5  C2  UNL     1       0.777   1.063   1.090  1.00  0.00     0.693 A 
HETATM    6  N6  UNL     1      -0.498   1.235   0.630  1.00  0.00    -0.020 N 
ATOM      7  H6  UNL     1      -0.698   1.936  -0.083  1.00  0.00     0.203 HD
HETATM    8  C9  UNL     1      -1.474   0.479   1.121  1.00  0.00     0.720 A 
ENDROOT
BRANCH   5   9
HETATM    9  N3  UNL     1       1.691   1.797   0.605  1.00  0.00    -0.225 N 
ATOM     10  H3  UNL     1       1.427   2.481  -0.104  1.00  0.00     0.177 HD
BRANCH   9  11
HETATM   11  C3  UNL     1       3.078   1.729   0.990  1.00  0.00     0.139 C 
BRANCH  11  12
HETATM   12  C4  UNL     1       3.747   0.614   0.222  1.00  0.00     0.042 C 
BRANCH  12  13
HETATM   13  C5  UNL     1       5.212   0.484   0.579  1.00  0.00     0.150 C 
BRANCH  13  14
HETATM   14  N4  UNL     1       5.731  -0.625  -0.233  1.00  0.00    -0.304 N 
HETATM   15  C6  UNL     1       6.258  -0.479  -1.460  1.00  0.00     0.111 A 
HETATM   16  C7  UNL     1       6.625  -1.762  -1.875  1.00  0.00     0.037 A 
HETATM   17  C8  UNL     1       6.300  -2.642  -0.872  1.00  0.00     0.108 A 
HETATM   18  N5  UNL     1       5.757  -1.912   0.114  1.00  0.00    -0.310 N 
ATOM     19  H5  UNL     1       5.415  -2.286   0.999  1.00  0.00     0.186 HD
ENDBRANCH  13  14
ENDBRANCH  12  13
ENDBRANCH  11  12
ENDBRANCH   9  11
ENDBRANCH   5   9
BRANCH   8  20
HETATM   20  N7  UNL     1      -2.680   0.650   0.677  1.00  0.00    -0.223 N 
ATOM     21  H7  UNL     1      -3.430   0.070   1.052  1.00  0.00     0.177 HD
BRANCH  20  22
HETATM   22  C10 UNL     1      -2.998   1.637  -0.334  1.00  0.00     0.142 C 
BRANCH  22  23
HETATM   23  C11 UNL     1      -4.507   1.720  -0.494  1.00  0.00     0.058 C 
BRANCH  23  24
HETATM   24  C12 UNL     1      -5.019   0.388  -0.908  1.00  0.00    -0.057 A 
HETATM   25  C13 UNL     1      -5.138   0.022  -2.224  1.00  0.00     0.007 A 
HETATM   26  C14 UNL     1      -5.619  -1.229  -2.602  1.00  0.00     0.001 A 
HETATM   27  C15 UNL     1      -5.989  -2.132  -1.615  1.00  0.00     0.000 A 
HETATM   28  C16 UNL     1      -5.881  -1.796  -0.293  1.00  0.00     0.001 A 
HETATM   29  C17 UNL     1      -5.400  -0.548   0.054  1.00  0.00     0.007 A 
ENDBRANCH  23  24
ENDBRANCH  22  23
ENDBRANCH  20  22
ENDBRANCH   8  20
BRANCH   1  30
HETATM   30  O1  UNL     1      -2.344  -1.223   2.536  1.00  0.00    -0.269 OA
ATOM     31  H1  UNL     1      -3.231  -1.106   2.218  1.00  0.00     0.246 HD
ENDBRANCH   1  30
TORSDOF 10
