REMARK  7 active torsions:
REMARK  status: ('A' for Active; 'I' for Inactive)
REMARK    1  A    between atoms: C5_12  and  C6_13 
REMARK    2  A    between atoms: C6_13  and  N4_14 
REMARK    3  A    between atoms: N4_14  and  C7_15 
REMARK    4  A    between atoms: C7_15  and  C8_16 
REMARK    5  A    between atoms: C8_16  and  N5_17 
REMARK       I    between atoms: N5_17  and  C9_19 
REMARK    6  A    between atoms: C9_19  and  C10_21 
REMARK    7  A    between atoms: C10_21  and  N6_24 
ROOT
HETATM    1  C1  UNL     1      -6.718   1.095   0.495  1.00  0.00     0.163 C 
HETATM    2  N1  UNL     1      -5.789   0.399  -0.362  1.00  0.00    -0.288 N 
HETATM    3  C2  UNL     1      -6.101  -0.158  -1.534  1.00  0.00     0.330 A 
HETATM    4  O1  UNL     1      -7.317  -0.056  -1.904  1.00  0.00    -0.246 OA
HETATM    5  N2  UNL     1      -5.236  -0.802  -2.331  1.00  0.00    -0.273 N 
ATOM      6  H2  UNL     1      -5.545  -1.203  -3.216  1.00  0.00     0.173 HD
HETATM    7  C3  UNL     1      -3.950  -0.909  -1.940  1.00  0.00     0.280 A 
HETATM    8  O2  UNL     1      -3.059  -1.484  -2.596  1.00  0.00    -0.265 OA
HETATM    9  C4  UNL     1      -3.572  -0.351  -0.734  1.00  0.00     0.147 A 
HETATM   10  N3  UNL     1      -2.413  -0.273  -0.054  1.00  0.00    -0.333 N 
ATOM     11  H3  UNL     1      -1.522  -0.661  -0.362  1.00  0.00     0.168 HD
HETATM   12  C5  UNL     1      -2.612   0.394   1.091  1.00  0.00     0.136 A 
HETATM   13  N7  UNL     1      -3.889   0.741   1.147  1.00  0.00    -0.324 N 
ATOM     14  H7  UNL     1      -4.331   1.259   1.906  1.00  0.00     0.169 HD
HETATM   15  C13 UNL     1      -4.506   0.297   0.037  1.00  0.00     0.145 A 
ENDROOT
BRANCH  12  16
HETATM   16  C6  UNL     1      -1.578   0.682   2.111  1.00  0.00     0.230 C 
BRANCH  16  17
HETATM   17  N4  UNL     1      -0.453   0.371   2.032  1.00  0.00    -0.425 NA
BRANCH  17  18
HETATM   18  C7  UNL     1       0.763  -0.050   1.785  1.00  0.00     0.198 C 
BRANCH  18  19
HETATM   19  C8  UNL     1       1.867   0.714   1.589  1.00  0.00     0.122 C 
BRANCH  19  20
HETATM   20  N5  UNL     1       3.121   0.142   1.331  1.00  0.00    -0.333 N 
HETATM   21  C9  UNL     1       3.839   0.400   0.157  1.00  0.00     0.257 C 
HETATM   22  O3  UNL     1       3.346   1.175  -0.711  1.00  0.00    -0.270 OA
ATOM     23  H5  UNL     1       3.526  -0.486   2.025  1.00  0.00     0.168 HD
BRANCH  21  24
HETATM   24  C10 UNL     1       5.169  -0.189  -0.144  1.00  0.00     0.196 C 
HETATM   25  C11 UNL     1       4.995  -1.702  -0.204  1.00  0.00     0.056 C 
HETATM   26  C12 UNL     1       6.165   0.090   0.961  1.00  0.00     0.056 C 
BRANCH  24  27
HETATM   27  N6  UNL     1       5.671   0.235  -1.430  1.00  0.00    -0.062 N 
ATOM     28  H63 UNL     1       5.001   0.035  -2.173  1.00  0.00     0.275 HD
ATOM     29  H62 UNL     1       5.692   1.252  -1.502  1.00  0.00     0.275 HD
ATOM     30  H61 UNL     1       6.584  -0.169  -1.637  1.00  0.00     0.275 HD
ENDBRANCH  24  27
ENDBRANCH  21  24
ENDBRANCH  19  20
ENDBRANCH  18  19
ENDBRANCH  17  18
ENDBRANCH  16  17
ENDBRANCH  12  16
TORSDOF 7
