REMARK  4 active torsions:
REMARK  status: ('A' for Active; 'I' for Inactive)
REMARK    1  A    between atoms: C2_2  and  C3_3 
REMARK    2  A    between atoms: C3_3  and  C4_4 
REMARK    3  A    between atoms: C4_4  and  S1_5 
REMARK    4  A    between atoms: C8_15  and  N3_16 
ROOT
HETATM    1  C3  UNL     1      -0.653   0.789   0.352  1.00  0.00     0.150 C 
HETATM    2  N1  UNL     1       0.407   1.071  -0.598  1.00  0.00    -0.360 N 
ATOM      3  H1  UNL     1       0.304   1.863  -1.232  1.00  0.00     0.161 HD
HETATM    4  C6  UNL     1       1.592   0.273  -0.673  1.00  0.00     0.151 A 
HETATM    5  C7  UNL     1       1.915  -0.491   0.429  1.00  0.00     0.198 A 
HETATM    6  N2  UNL     1       3.032  -1.242   0.357  1.00  0.00    -0.168 N 
ATOM      7  H2  UNL     1       3.294  -1.817   1.158  1.00  0.00     0.186 HD
HETATM    8  C8  UNL     1       3.820  -1.257  -0.749  1.00  0.00     0.680 A 
HETATM    9  N4  UNL     1       3.491  -0.506  -1.817  1.00  0.00    -0.154 N 
ATOM     10  H4  UNL     1       4.087  -0.522  -2.645  1.00  0.00     0.187 HD
HETATM   11  C9  UNL     1       2.387   0.267  -1.809  1.00  0.00     0.290 A 
HETATM   12  O3  UNL     1       2.084   0.970  -2.816  1.00  0.00    -0.265 OA
HETATM   13  O4  UNL     1       1.095  -0.458   1.548  1.00  0.00    -0.256 OA
HETATM   14  C10 UNL     1      -0.049   0.322   1.602  1.00  0.00     0.298 C 
HETATM   15  O5  UNL     1      -0.581   0.635   2.722  1.00  0.00    -0.262 OA
ENDROOT
BRANCH   1  16
HETATM   16  C2  UNL     1      -1.324   2.118   0.601  1.00  0.00     0.005 C 
HETATM   17  C1  UNL     1      -0.754   3.014   1.370  1.00  0.00     0.010 C 
ENDBRANCH   1  16
BRANCH   1  18
HETATM   18  C4  UNL     1      -1.597  -0.169  -0.283  1.00  0.00     0.185 C 
BRANCH  18  19
HETATM   19  S1  UNL     1      -3.036  -0.543   0.640  1.00  0.00     0.143 S 
HETATM   20  C5  UNL     1      -4.017  -1.710  -0.315  1.00  0.00     0.161 C 
HETATM   21  O1  UNL     1      -2.784  -1.164   1.957  1.00  0.00    -0.228 OA
HETATM   22  O2  UNL     1      -3.923   0.652   0.849  1.00  0.00    -0.228 OA
ENDBRANCH  18  19
ENDBRANCH   1  18
BRANCH   8  23
HETATM   23  N3  UNL     1       4.897  -1.996  -0.789  1.00  0.00    -0.234 N 
ATOM     24  H32 UNL     1       5.146  -2.565   0.020  1.00  0.00     0.174 HD
ATOM     25  H31 UNL     1       5.489  -2.007  -1.620  1.00  0.00     0.174 HD
ENDBRANCH   8  23
TORSDOF 4
