REMARK  5 active torsions:
REMARK  status: ('A' for Active; 'I' for Inactive)
REMARK    1  A    between atoms: N1_2  and  C2_5 
REMARK    2  A    between atoms: C6_9  and  C7_10 
REMARK    3  A    between atoms: C7_10  and  N2_11 
REMARK    4  A    between atoms: C11_17  and  N4_18 
REMARK    5  A    between atoms: C16_28  and  N7_29 
ROOT
HETATM    1  N2  UNL     1      -0.681  -1.497  -0.708  1.00  0.00     0.093 N 
HETATM    2  C8  UNL     1       0.161  -1.364  -1.888  1.00  0.00     0.279 C 
HETATM    3  C9  UNL     1       1.076  -0.166  -1.785  1.00  0.00     0.088 C 
HETATM    4  C10 UNL     1       2.002  -0.499  -0.647  1.00  0.00     0.040 A 
HETATM    5  N3  UNL     1       3.269  -0.049  -0.622  1.00  0.00    -0.195 N 
ATOM      6  H3  UNL     1       3.598   0.539  -1.387  1.00  0.00     0.184 HD
HETATM    7  C11 UNL     1       4.115  -0.348   0.376  1.00  0.00     0.682 A 
HETATM    8  N6  UNL     1       3.683  -1.118   1.381  1.00  0.00    -0.176 N 
ATOM      9  H6  UNL     1       4.312  -1.354   2.148  1.00  0.00     0.186 HD
HETATM   10  C16 UNL     1       2.398  -1.589   1.381  1.00  0.00     0.124 A 
HETATM   11  C17 UNL     1       1.534  -1.279   0.352  1.00  0.00     0.037 A 
HETATM   12  C18 UNL     1       0.171  -1.818   0.427  1.00  0.00     0.317 C 
ENDROOT
BRANCH   1  13
HETATM   13  C7  UNL     1      -1.413  -0.266  -0.461  1.00  0.00     0.277 C 
BRANCH  13  14
HETATM   14  C6  UNL     1      -2.525  -0.423   0.561  1.00  0.00     0.014 C 
HETATM   15  C5  UNL     1      -3.161   0.937   0.694  1.00  0.00     0.009 C 
HETATM   16  C4  UNL     1      -4.298   1.053  -0.278  1.00  0.00     0.039 C 
HETATM   17  C2  UNL     1      -5.396   0.147   0.247  1.00  0.00     0.121 C 
HETATM   18  C3  UNL     1      -5.813   0.531   1.671  1.00  0.00     0.046 C 
HETATM   19  C20 UNL     1      -4.910  -1.254   0.266  1.00  0.00     0.039 C 
HETATM   20  C19 UNL     1      -3.469  -1.491   0.058  1.00  0.00     0.009 C 
BRANCH  17  21
HETATM   21  N1  UNL     1      -6.566   0.342  -0.592  1.00  0.00    -0.070 N 
HETATM   22  C1  UNL     1      -6.924   1.748  -0.562  1.00  0.00     0.267 C 
ATOM     23  H12 UNL     1      -7.342  -0.265  -0.329  1.00  0.00     0.277 HD
ATOM     24  H11 UNL     1      -6.430  -0.007  -1.541  1.00  0.00     0.277 HD
ENDBRANCH  17  21
ENDBRANCH  13  14
ENDBRANCH   1  13
BRANCH  10  25
HETATM   25  N7  UNL     1       2.089  -2.315   2.387  1.00  0.00    -0.385 N 
ATOM     26  H72 UNL     1       2.728  -2.544   3.148  1.00  0.00     0.157 HD
ATOM     27  H71 UNL     1       1.131  -2.666   2.387  1.00  0.00     0.157 HD
ENDBRANCH  10  25
BRANCH   7  28
HETATM   28  N4  UNL     1       5.438   0.169   0.303  1.00  0.00    -0.214 N 
HETATM   29  C12 UNL     1       6.567  -0.552  -0.225  1.00  0.00     0.168 C 
HETATM   30  C13 UNL     1       7.411   0.278  -1.141  1.00  0.00     0.252 C 
HETATM   31  N5  UNL     1       6.926   1.607  -1.333  1.00  0.00    -0.072 N 
HETATM   32  C14 UNL     1       6.594   2.285  -0.108  1.00  0.00     0.252 C 
ATOM     33  H52 UNL     1       7.589   2.156  -1.880  1.00  0.00     0.277 HD
ATOM     34  H51 UNL     1       6.132   1.611  -1.973  1.00  0.00     0.277 HD
HETATM   35  C15 UNL     1       5.663   1.516   0.787  1.00  0.00     0.168 C 
ENDBRANCH   7  28
TORSDOF 5
