REMARK  15 active torsions:
REMARK  status: ('A' for Active; 'I' for Inactive)
REMARK    1  A    between atoms: N1_1  and  C1_4 
REMARK    2  A    between atoms: C3_12  and  N5_13 
REMARK    3  A    between atoms: C5_15  and  C6_16 
REMARK    4  A    between atoms: C6_16  and  O1_17 
REMARK    5  A    between atoms: C6_16  and  N6_19 
REMARK    6  A    between atoms: N6_19  and  C7_21 
REMARK    7  A    between atoms: C9_30  and  C10_31 
REMARK    8  A    between atoms: C11_33  and  C12_34 
REMARK    9  A    between atoms: C12_34  and  O3_35 
REMARK   10  A    between atoms: C12_34  and  C13_37 
REMARK   11  A    between atoms: C13_37  and  O4_38 
REMARK   12  A    between atoms: C14_40  and  O5_41 
REMARK   13  A    between atoms: C15_43  and  O6_44 
REMARK   14  A    between atoms: O6_44  and  C16_45 
REMARK   15  A    between atoms: C16_45  and  O7_46 
ROOT
HETATM    1  N5  UNL     1       0.287   0.287  -0.718  1.00  0.00    -0.136 N 
HETATM    2  C4  UNL     1       1.646   0.322  -0.564  1.00  0.00     0.146 A 
HETATM    3  C5  UNL     1       2.048  -0.775   0.154  1.00  0.00     0.076 A 
HETATM    4  N10 UNL     1       0.923  -1.454   0.420  1.00  0.00    -0.338 N 
ATOM      5  H10 UNL     1       0.883  -2.328   0.945  1.00  0.00     0.167 HD
HETATM    6  C9  UNL     1      -0.145  -0.826  -0.100  1.00  0.00     0.166 A 
ENDROOT
BRANCH   1   7
HETATM    7  C3  UNL     1      -0.517   1.240  -1.401  1.00  0.00     0.730 A 
HETATM    8  N4  UNL     1      -1.098   1.157  -2.616  1.00  0.00    -0.116 N 
HETATM    9  N3  UNL     1      -1.762   2.248  -2.900  1.00  0.00    -0.116 N 
ATOM     10  H4  UNL     1      -1.029   0.348  -3.233  1.00  0.00     0.206 HD
HETATM   11  C2  UNL     1      -1.629   3.092  -1.853  1.00  0.00     0.737 A 
ATOM     12  H3  UNL     1      -2.285   2.429  -3.757  1.00  0.00     0.206 HD
HETATM   13  N2  UNL     1      -2.092   4.327  -1.607  1.00  0.00    -0.020 N 
HETATM   14  N11 UNL     1      -0.860   2.459  -0.937  1.00  0.00     0.081 N 
HETATM   15  C1  UNL     1      -1.812   4.968  -0.462  1.00  0.00     0.694 A 
ATOM     16  H2  UNL     1      -2.671   4.790  -2.308  1.00  0.00     0.203 HD
HETATM   17  N12 UNL     1      -1.052   4.356   0.456  1.00  0.00    -0.140 N 
HETATM   18  C17 UNL     1      -0.594   3.123   0.202  1.00  0.00     0.376 A 
ATOM     19  H12 UNL     1      -0.826   4.822   1.335  1.00  0.00     0.189 HD
HETATM   20  O8  UNL     1       0.129   2.506   1.043  1.00  0.00    -0.244 OA
BRANCH  15  21
HETATM   21  N1  UNL     1      -2.276   6.175  -0.245  1.00  0.00    -0.234 N 
ATOM     22  H12 UNL     1      -2.855   6.641  -0.944  1.00  0.00     0.174 HD
ATOM     23  H11 UNL     1      -2.063   6.662   0.625  1.00  0.00     0.174 HD
ENDBRANCH  15  21
ENDBRANCH   1   7
BRANCH   6  24
HETATM   24  C10 UNL     1      -1.551  -1.231  -0.037  1.00  0.00     0.157 A 
HETATM   25  O2  UNL     1      -2.587  -0.635  -0.540  1.00  0.00    -0.302 OA
HETATM   26  C11 UNL     1      -3.689  -1.266  -0.299  1.00  0.00     0.120 A 
HETATM   27  C14 UNL     1      -3.375  -2.384   0.428  1.00  0.00     0.135 A 
HETATM   28  C15 UNL     1      -2.006  -2.365   0.599  1.00  0.00     0.144 A 
BRANCH  26  29
HETATM   29  C12 UNL     1      -5.072  -0.888  -0.716  1.00  0.00     0.201 C 
BRANCH  29  30
HETATM   30  O3  UNL     1      -5.925  -0.791   0.363  1.00  0.00    -0.387 OA
ATOM     31  H3  UNL     1      -6.805  -0.550   0.098  1.00  0.00     0.210 HD
ENDBRANCH  29  30
BRANCH  29  32
HETATM   32  C13 UNL     1      -5.072   0.409  -1.475  1.00  0.00     0.202 C 
BRANCH  32  33
HETATM   33  O4  UNL     1      -4.649   1.446  -0.641  1.00  0.00    -0.398 OA
ATOM     34  H4  UNL     1      -4.649   2.266  -1.121  1.00  0.00     0.209 HD
ENDBRANCH  32  33
ENDBRANCH  29  32
ENDBRANCH  26  29
BRANCH  27  35
HETATM   35  O5  UNL     1      -4.243  -3.346   0.903  1.00  0.00    -0.356 OA
ATOM     36  H5  UNL     1      -4.025  -4.121   1.407  1.00  0.00     0.218 HD
ENDBRANCH  27  35
BRANCH  28  37
HETATM   37  O6  UNL     1      -1.253  -3.322   1.287  1.00  0.00    -0.320 OA
BRANCH  37  38
HETATM   38  C16 UNL     1      -0.959  -3.278   2.649  1.00  0.00     0.342 C 
BRANCH  38  39
HETATM   39  O7  UNL     1      -2.091  -3.284   3.472  1.00  0.00    -0.377 OA
ATOM     40  H7  UNL     1      -1.891  -3.254   4.400  1.00  0.00     0.212 HD
ENDBRANCH  38  39
ENDBRANCH  37  38
ENDBRANCH  28  37
ENDBRANCH   6  24
BRANCH   3  41
HETATM   41  C6  UNL     1       3.423  -1.148   0.556  1.00  0.00     0.273 C 
BRANCH  41  42
HETATM   42  O1  UNL     1       3.632  -2.510   0.337  1.00  0.00    -0.371 OA
ATOM     43  H1  UNL     1       4.514  -2.749   0.595  1.00  0.00     0.212 HD
ENDBRANCH  41  42
BRANCH  41  44
HETATM   44  N6  UNL     1       4.424  -0.410  -0.206  1.00  0.00    -0.330 N 
ATOM     45  H6  UNL     1       4.130   0.262  -0.915  1.00  0.00     0.165 HD
BRANCH  44  46
HETATM   46  C7  UNL     1       5.812  -0.625   0.038  1.00  0.00     0.190 C 
HETATM   47  N7  UNL     1       6.287  -1.330   0.990  1.00  0.00    -0.346 N 
HETATM   48  C8  UNL     1       7.723  -1.297   0.893  1.00  0.00     0.259 C 
ATOM     49  H7  UNL     1       5.745  -1.829   1.695  1.00  0.00     0.163 HD
HETATM   50  N8  UNL     1       7.987  -0.815  -0.436  1.00  0.00    -0.119 NA
HETATM   51  N9  UNL     1       6.842  -0.063  -0.776  1.00  0.00    -0.274 N 
ATOM     52  H9  UNL     1       6.768   0.702  -1.446  1.00  0.00     0.185 HD
ENDBRANCH  44  46
ENDBRANCH  41  44
ENDBRANCH   3  41
TORSDOF 15
