REMARK  2 active torsions:
REMARK  status: ('A' for Active; 'I' for Inactive)
REMARK    1  A    between atoms: C7_7  and  N1_8 
REMARK    2  A    between atoms: N1_8  and  C8_10 
ROOT
HETATM    1  C1  UNL     1       4.561   0.939  -0.479  1.00  0.00     0.019 C 
HETATM    2  C2  UNL     1       3.456   0.539  -0.214  1.00  0.00    -0.060 C 
HETATM    3  C3  UNL     1       2.126   0.062   0.079  1.00  0.00     0.087 A 
HETATM    4  C4  UNL     1       2.029  -1.294   0.357  1.00  0.00     0.039 A 
HETATM    5  C5  UNL     1       0.762  -1.757   0.638  1.00  0.00     0.007 A 
HETATM    6  C6  UNL     1      -0.323  -0.903   0.637  1.00  0.00     0.048 A 
HETATM    7  C7  UNL     1      -0.183   0.439   0.355  1.00  0.00     0.101 A 
HETATM    8  N2  UNL     1       1.062   0.880   0.081  1.00  0.00    -0.336 N 
ATOM      9  H2  UNL     1       1.199   1.868  -0.132  1.00  0.00     0.168 HD
ENDROOT
BRANCH   7  10
HETATM   10  N1  UNL     1      -1.198   1.267   0.347  1.00  0.00    -0.377 N 
ATOM     11  H1  UNL     1      -1.031   2.250   0.130  1.00  0.00     0.161 HD
BRANCH  10  12
HETATM   12  C8  UNL     1      -2.540   0.836   0.634  1.00  0.00     0.116 C 
HETATM   13  C9  UNL     1      -3.115   0.101  -0.539  1.00  0.00     0.026 C 
ENDBRANCH  10  12
ENDBRANCH   7  10
TORSDOF 2
