REMARK  8 active torsions:
REMARK  status: ('A' for Active; 'I' for Inactive)
REMARK    1  A    between atoms: N1_1  and  C1_4 
REMARK    2  A    between atoms: C2_7  and  C3_8 
REMARK    3  A    between atoms: C5_14  and  N5_15 
REMARK    4  A    between atoms: N5_15  and  C6_17 
REMARK    5  A    between atoms: C6_17  and  C7_18 
REMARK    6  A    between atoms: C7_18  and  N6_19 
REMARK    7  A    between atoms: C8_25  and  N8_26 
REMARK    8  A    between atoms: N8_26  and  C9_28 
ROOT
HETATM    1  C3  UNL     1       3.292  -0.122   0.175  1.00  0.00     0.172 A 
HETATM    2  N3  UNL     1       3.817   1.074   0.462  1.00  0.00    -0.280 N 
ATOM      3  H3  UNL     1       4.810   1.271   0.585  1.00  0.00     0.188 HD
HETATM    4  N4  UNL     1       2.846   1.953   0.559  1.00  0.00    -0.279 N 
ATOM      5  H4  UNL     1       2.977   2.942   0.772  1.00  0.00     0.189 HD
HETATM    6  C4  UNL     1       1.662   1.371   0.340  1.00  0.00     0.189 A 
HETATM    7  C5  UNL     1       0.377   1.847   0.328  1.00  0.00     0.164 A 
HETATM    8  N7  UNL     1      -0.602   0.964   0.066  1.00  0.00    -0.172 N 
ATOM      9  H7  UNL     1      -1.571   1.282   0.049  1.00  0.00     0.186 HD
HETATM   10  C8  UNL     1      -0.327  -0.337  -0.175  1.00  0.00     0.695 A 
HETATM   11  N9  UNL     1       0.949  -0.747  -0.150  1.00  0.00    -0.122 N 
ATOM     12  H9  UNL     1       1.147  -1.731  -0.333  1.00  0.00     0.206 HD
HETATM   13  N10 UNL     1       1.963   0.065   0.101  1.00  0.00    -0.201 N 
ENDROOT
BRANCH   1  14
HETATM   14  C2  UNL     1       4.052  -1.344  -0.008  1.00  0.00     0.097 A 
HETATM   15  N2  UNL     1       3.557  -2.535  -0.292  1.00  0.00    -0.188 N 
HETATM   16  C1  UNL     1       4.265  -3.663  -0.461  1.00  0.00     0.676 A 
ATOM     17  H2  UNL     1       2.544  -2.604  -0.392  1.00  0.00     0.184 HD
HETATM   18  N11 UNL     1       5.601  -3.583  -0.331  1.00  0.00    -0.202 N 
HETATM   19  C15 UNL     1       6.226  -2.421  -0.043  1.00  0.00     0.108 A 
ATOM     20  H11 UNL     1       6.160  -4.427  -0.454  1.00  0.00     0.183 HD
HETATM   21  C14 UNL     1       5.442  -1.298   0.119  1.00  0.00     0.052 A 
BRANCH  16  22
HETATM   22  N1  UNL     1       3.671  -4.799  -0.741  1.00  0.00    -0.234 N 
ATOM     23  H12 UNL     1       2.658  -4.860  -0.840  1.00  0.00     0.174 HD
ATOM     24  H11 UNL     1       4.209  -5.656  -0.869  1.00  0.00     0.174 HD
ENDBRANCH  16  22
ENDBRANCH   1  14
BRANCH   7  25
HETATM   25  N5  UNL     1       0.125   3.059   0.553  1.00  0.00    -0.371 N 
ATOM     26  H5  UNL     1       0.929   3.657   0.743  1.00  0.00     0.161 HD
BRANCH  25  27
HETATM   27  C6  UNL     1      -1.148   3.697   0.574  1.00  0.00     0.148 C 
BRANCH  27  28
HETATM   28  C7  UNL     1      -0.999   5.197   0.424  1.00  0.00     0.249 C 
BRANCH  28  29
HETATM   29  N6  UNL     1      -2.286   5.828   0.447  1.00  0.00    -0.078 N 
ATOM     30  H63 UNL     1      -2.915   5.436  -0.254  1.00  0.00     0.274 HD
ATOM     31  H62 UNL     1      -2.817   5.580   1.282  1.00  0.00     0.274 HD
ATOM     32  H61 UNL     1      -2.186   6.838   0.346  1.00  0.00     0.274 HD
ENDBRANCH  28  29
ENDBRANCH  27  28
ENDBRANCH  25  27
ENDBRANCH   7  25
BRANCH  10  33
HETATM   33  N8  UNL     1      -1.250  -1.146  -0.417  1.00  0.00    -0.220 N 
ATOM     34  H8  UNL     1      -0.946  -2.105  -0.585  1.00  0.00     0.178 HD
BRANCH  33  35
HETATM   35  C9  UNL     1      -2.642  -0.944  -0.494  1.00  0.00     0.099 C 
HETATM   36  C10 UNL     1      -3.349  -0.832   0.825  1.00  0.00     0.026 C 
HETATM   37  C11 UNL     1      -4.800  -1.022   0.389  1.00  0.00     0.002 C 
HETATM   38  C12 UNL     1      -4.722  -2.007  -0.758  1.00  0.00     0.002 C 
HETATM   39  C13 UNL     1      -3.274  -2.218  -1.068  1.00  0.00     0.026 C 
ENDBRANCH  33  35
ENDBRANCH  10  33
TORSDOF 8
