REMARK  6 active torsions:
REMARK  status: ('A' for Active; 'I' for Inactive)
REMARK    1  A    between atoms: C2_2  and  N1_3 
REMARK    2  A    between atoms: C4_5  and  C5_6 
REMARK    3  A    between atoms: C5_6  and  C6_7 
REMARK    4  A    between atoms: C6_7  and  C7_8 
REMARK    5  A    between atoms: C11_20  and  C12_21 
REMARK    6  A    between atoms: C13_28  and  O3_29 
ROOT
HETATM    1  N1  UNL     1      -1.941   2.076  -0.896  1.00  0.00    -0.341 N 
HETATM    2  C3  UNL     1      -0.626   1.875  -0.908  1.00  0.00     0.105 A 
HETATM    3  C4  UNL     1      -0.351   0.602  -0.398  1.00  0.00    -0.004 A 
HETATM    4  C10 UNL     1      -1.548   0.013  -0.066  1.00  0.00     0.052 A 
HETATM    5  C11 UNL     1      -2.185  -1.113   0.449  1.00  0.00     0.095 A 
HETATM    6  N8  UNL     1      -3.516  -0.772   0.403  1.00  0.00    -0.296 N 
ATOM      7  H8  UNL     1      -4.274  -1.381   0.711  1.00  0.00     0.187 HD
HETATM    8  N9  UNL     1      -3.689   0.425  -0.083  1.00  0.00    -0.284 N 
ATOM      9  H9  UNL     1      -4.594   0.878  -0.207  1.00  0.00     0.188 HD
HETATM   10  C14 UNL     1      -2.516   0.972  -0.395  1.00  0.00     0.135 A 
ENDROOT
BRANCH   3  11
HETATM   11  C5  UNL     1       0.971   0.022  -0.252  1.00  0.00     0.017 C 
BRANCH  11  12
HETATM   12  C6  UNL     1       2.043   0.723  -0.621  1.00  0.00     0.050 C 
BRANCH  12  13
HETATM   13  C7  UNL     1       3.410   0.235  -0.517  1.00  0.00     0.112 A 
HETATM   14  N2  UNL     1       4.454   1.013  -0.916  1.00  0.00    -0.294 N 
HETATM   15  C8  UNL     1       5.729   0.635  -0.851  1.00  0.00     0.329 A 
ATOM     16  H2  UNL     1       4.247   1.940  -1.287  1.00  0.00     0.172 HD
HETATM   17  O1  UNL     1       6.686   1.344  -1.215  1.00  0.00    -0.246 OA
HETATM   18  N3  UNL     1       6.030  -0.593  -0.362  1.00  0.00    -0.260 N 
HETATM   19  C9  UNL     1       5.017  -1.377   0.038  1.00  0.00     0.329 A 
ATOM     20  H3  UNL     1       6.997  -0.911  -0.300  1.00  0.00     0.175 HD
HETATM   21  O2  UNL     1       5.271  -2.513   0.492  1.00  0.00    -0.246 OA
HETATM   22  N4  UNL     1       3.724  -0.966  -0.040  1.00  0.00    -0.294 N 
ATOM     23  H4  UNL     1       2.981  -1.590   0.273  1.00  0.00     0.172 HD
ENDBRANCH  12  13
ENDBRANCH  11  12
ENDBRANCH   3  11
BRANCH   1  24
HETATM   24  C2  UNL     1      -2.649   3.256  -1.336  1.00  0.00     0.125 C 
HETATM   25  C1  UNL     1      -2.825   4.244  -0.210  1.00  0.00     0.027 C 
ENDBRANCH   1  24
BRANCH   5  26
HETATM   26  C12 UNL     1      -1.638  -2.352   0.925  1.00  0.00     0.130 A 
HETATM   27  N5  UNL     1      -0.394  -2.765   1.007  1.00  0.00    -0.280 N 
HETATM   28  N6  UNL     1      -0.320  -4.003   1.516  1.00  0.00    -0.240 N 
ATOM     29  H5  UNL     1       0.414  -2.213   0.720  1.00  0.00     0.188 HD
HETATM   30  N7  UNL     1      -1.525  -4.432   1.782  1.00  0.00    -0.264 N 
ATOM     31  H6  UNL     1       0.541  -4.527   1.671  1.00  0.00     0.208 HD
HETATM   32  C13 UNL     1      -2.372  -3.416   1.421  1.00  0.00     0.187 A 
ATOM     33  H7  UNL     1      -1.783  -5.336   2.177  1.00  0.00     0.190 HD
BRANCH  32  34
HETATM   34  O3  UNL     1      -3.741  -3.497   1.553  1.00  0.00    -0.343 OA
ATOM     35  H3  UNL     1      -4.245  -4.227   1.893  1.00  0.00     0.219 HD
ENDBRANCH  32  34
ENDBRANCH   5  26
TORSDOF 6
