REMARK  16 active torsions:
REMARK  status: ('A' for Active; 'I' for Inactive)
REMARK    1  A    between atoms: C2_2  and  O1_3 
REMARK    2  A    between atoms: C2_2  and  C3_5 
REMARK    3  A    between atoms: C3_5  and  O2_6 
REMARK    4  A    between atoms: C3_5  and  C4_8 
REMARK    5  A    between atoms: C4_8  and  O3_9 
REMARK    6  A    between atoms: C4_8  and  N1_11 
REMARK    7  A    between atoms: N1_11  and  C5_12 
REMARK    8  A    between atoms: N1_11  and  N10_47 
REMARK    9  A    between atoms: C6_15  and  N3_16 
REMARK   10  A    between atoms: C8_22  and  N5_23 
REMARK   11  A    between atoms: N5_23  and  C10_26 
REMARK   12  A    between atoms: C10_26  and  C11_27 
REMARK   13  A    between atoms: C11_27  and  C12_28 
REMARK   14  A    between atoms: N7_31  and  C13_32 
REMARK   15  A    between atoms: C15_36  and  O6_37 
REMARK   16  A    between atoms: C16_39  and  O7_40 
ROOT
HETATM    1  N5  UNL     1      -4.116   1.003   0.089  1.00  0.00    -0.116 N 
HETATM    2  C9  UNL     1      -4.725   1.327   1.282  1.00  0.00     0.199 C 
HETATM    3  N6  UNL     1      -5.211   1.589   2.328  1.00  0.00    -0.171 NA
ENDROOT
BRANCH   1   4
HETATM    4  C8  UNL     1      -2.671   0.852   0.135  1.00  0.00     0.702 A 
HETATM    5  N4  UNL     1      -1.891   1.931   0.101  1.00  0.00    -0.184 N 
HETATM    6  C7  UNL     1      -0.641   1.470   0.147  1.00  0.00     0.126 A 
ATOM      7  H4  UNL     1      -2.188   2.906   0.050  1.00  0.00     0.184 HD
HETATM    8  C6  UNL     1       0.467   2.284   0.128  1.00  0.00     0.144 C 
HETATM    9  C17 UNL     1      -0.670   0.063   0.210  1.00  0.00     0.158 A 
HETATM   10  N2  UNL     1       1.765   1.927   0.023  1.00  0.00    -0.173 N 
HETATM   11  C5  UNL     1       2.276   0.697   0.114  1.00  0.00     0.711 C 
ATOM     12  H2  UNL     1       2.430   2.682  -0.145  1.00  0.00     0.186 HD
HETATM   13  N9  UNL     1       1.689  -0.498  -0.003  1.00  0.00    -0.152 N 
HETATM   14  C18 UNL     1       0.390  -0.802   0.274  1.00  0.00     0.290 C 
ATOM     15  H9  UNL     1       2.276  -1.264  -0.335  1.00  0.00     0.187 HD
HETATM   16  O8  UNL     1       0.132  -1.961   0.619  1.00  0.00    -0.265 OA
HETATM   17  N7  UNL     1      -1.966  -0.310   0.202  1.00  0.00    -0.125 N 
BRANCH   8  18
HETATM   18  N3  UNL     1       0.267   3.541   0.223  1.00  0.00    -0.383 N 
ATOM     19  H32 UNL     1       1.089   4.145   0.209  1.00  0.00     0.157 HD
ATOM     20  H31 UNL     1      -0.714   3.811   0.302  1.00  0.00     0.157 HD
ENDBRANCH   8  18
BRANCH  11  21
HETATM   21  N1  UNL     1       3.697   0.682   0.386  1.00  0.00    -0.031 N 
BRANCH  21  22
HETATM   22  C4  UNL     1       4.530   0.604  -0.749  1.00  0.00     0.296 C 
BRANCH  22  23
HETATM   23  C3  UNL     1       5.996   0.587  -0.601  1.00  0.00     0.197 C 
BRANCH  23  24
HETATM   24  C2  UNL     1       6.623  -0.708  -0.190  1.00  0.00     0.147 C 
HETATM   25  C1  UNL     1       8.128  -0.714  -0.494  1.00  0.00     0.042 C 
BRANCH  24  26
HETATM   26  O1  UNL     1       6.506  -0.952   1.169  1.00  0.00    -0.393 OA
ATOM     27  H1  UNL     1       5.575  -0.948   1.357  1.00  0.00     0.210 HD
ENDBRANCH  24  26
ENDBRANCH  23  24
BRANCH  23  28
HETATM   28  O2  UNL     1       6.520   1.706   0.034  1.00  0.00    -0.389 OA
ATOM     29  H2  UNL     1       6.122   2.528  -0.227  1.00  0.00     0.210 HD
ENDBRANCH  23  28
ENDBRANCH  22  23
BRANCH  22  30
HETATM   30  O3  UNL     1       4.223   1.742  -1.550  1.00  0.00    -0.371 OA
ATOM     31  H3  UNL     1       3.278   1.753  -1.645  1.00  0.00     0.212 HD
ENDBRANCH  22  30
ENDBRANCH  21  22
BRANCH  21  32
HETATM   32  N10 UNL     1       4.001   0.753   1.729  1.00  0.00    -0.019 N 
HETATM   33  O9  UNL     1       4.657   1.689   2.176  1.00  0.00    -0.516 OA
HETATM   34  O10 UNL     1       3.557  -0.218   2.575  1.00  0.00    -0.516 OA
ENDBRANCH  21  32
ENDBRANCH  11  21
BRANCH  17  35
HETATM   35  C13 UNL     1      -2.525  -1.589   0.232  1.00  0.00     0.133 C 
HETATM   36  N8  UNL     1      -2.188  -2.601  -0.730  1.00  0.00    -0.374 N 
HETATM   37  C14 UNL     1      -2.978  -3.724  -0.371  1.00  0.00     0.155 C 
ATOM     38  H8  UNL     1      -1.526  -2.528  -1.502  1.00  0.00     0.161 HD
HETATM   39  C15 UNL     1      -3.780  -3.424   0.847  1.00  0.00     0.172 C 
HETATM   40  C16 UNL     1      -3.109  -2.169   1.448  1.00  0.00     0.216 C 
BRANCH  39  41
HETATM   41  O6  UNL     1      -5.070  -3.098   0.440  1.00  0.00    -0.391 OA
ATOM     42  H6  UNL     1      -5.582  -2.907   1.217  1.00  0.00     0.210 HD
ENDBRANCH  39  41
BRANCH  40  43
HETATM   43  O7  UNL     1      -2.402  -2.559   2.512  1.00  0.00    -0.385 OA
ATOM     44  H7  UNL     1      -2.780  -2.934   3.299  1.00  0.00     0.210 HD
ENDBRANCH  40  43
ENDBRANCH  17  35
ENDBRANCH   1   4
BRANCH   1  45
HETATM   45  C10 UNL     1      -4.771   0.818  -1.148  1.00  0.00     0.170 C 
BRANCH  45  46
HETATM   46  C11 UNL     1      -5.349   1.993  -1.849  1.00  0.00     0.135 C 
BRANCH  46  47
HETATM   47  C12 UNL     1      -6.456   2.712  -1.261  1.00  0.00     0.174 C 
HETATM   48  O4  UNL     1      -7.137   2.328  -0.310  1.00  0.00    -0.648 OA
HETATM   49  O5  UNL     1      -6.810   3.967  -1.802  1.00  0.00    -0.648 OA
ENDBRANCH  46  47
ENDBRANCH  45  46
ENDBRANCH   1  45
TORSDOF 16
