REMARK  9 active torsions:
REMARK  status: ('A' for Active; 'I' for Inactive)
REMARK    1  A    between atoms: N1_2  and  C2_3 
REMARK    2  A    between atoms: N1_2  and  C4_7 
REMARK    3  A    between atoms: C2_3  and  C3_4 
REMARK    4  A    between atoms: C3_4  and  O1_5 
REMARK    5  A    between atoms: N3_11  and  C6_13 
REMARK    6  A    between atoms: C6_13  and  C7_14 
REMARK    7  A    between atoms: C7_14  and  N4_15 
REMARK    8  A    between atoms: C10_23  and  C11_24 
REMARK    9  A    between atoms: C12_25  and  N8_26 
ROOT
HETATM    1  C4  UNL     1      -1.302  -0.873  -0.460  1.00  0.00     0.686 A 
HETATM    2  N2  UNL     1      -0.092  -0.237  -0.670  1.00  0.00    -0.174 N 
ATOM      3  H2  UNL     1       0.663  -0.787  -1.080  1.00  0.00     0.186 HD
HETATM    4  C5  UNL     1       0.163   1.027  -0.381  1.00  0.00     0.147 A 
HETATM    5  N3  UNL     1       1.295   1.604  -0.583  1.00  0.00    -0.372 N 
ATOM      6  H3  UNL     1       1.417   2.586  -0.334  1.00  0.00     0.161 HD
HETATM    7  C9  UNL     1      -0.867   1.760   0.173  1.00  0.00     0.124 A 
HETATM    8  N7  UNL     1      -0.944   3.055   0.580  1.00  0.00    -0.329 N 
ATOM      9  H7  UNL     1      -0.187   3.737   0.533  1.00  0.00     0.168 HD
HETATM   10  C10 UNL     1      -2.190   3.293   1.059  1.00  0.00     0.165 A 
HETATM   11  N9  UNL     1      -2.874   2.138   0.943  1.00  0.00    -0.319 N 
ATOM     12  H9  UNL     1      -3.846   2.004   1.222  1.00  0.00     0.169 HD
HETATM   13  C13 UNL     1      -2.095   1.193   0.409  1.00  0.00     0.153 A 
HETATM   14  N10 UNL     1      -2.270  -0.131   0.076  1.00  0.00    -0.174 N 
ATOM     15  H10 UNL     1      -3.179  -0.562   0.247  1.00  0.00     0.186 HD
ENDROOT
BRANCH   5  16
HETATM   16  C6  UNL     1       2.395   0.866  -1.162  1.00  0.00     0.141 C 
BRANCH  16  17
HETATM   17  C7  UNL     1       3.057   0.001  -0.131  1.00  0.00     0.141 C 
BRANCH  17  18
HETATM   18  N4  UNL     1       4.154  -0.726  -0.739  1.00  0.00    -0.365 N 
HETATM   19  C8  UNL     1       5.154  -1.128  -0.042  1.00  0.00     0.197 C 
HETATM   20  N5  UNL     1       6.225  -1.838  -0.638  1.00  0.00    -0.067 NA
HETATM   21  N6  UNL     1       5.178  -0.852   1.347  1.00  0.00    -0.067 NA
ATOM     22  H4  UNL     1       4.131  -0.922  -1.740  1.00  0.00     0.161 HD
ENDBRANCH  17  18
ENDBRANCH  16  17
ENDBRANCH   5  16
BRANCH   1  23
HETATM   23  N1  UNL     1      -1.415  -2.215  -0.810  1.00  0.00    -0.199 N 
HETATM   24  C1  UNL     1      -0.130  -2.829  -1.328  1.00  0.00     0.174 C 
BRANCH  23  25
HETATM   25  C2  UNL     1      -2.466  -3.140  -0.797  1.00  0.00     0.107 C 
BRANCH  25  26
HETATM   26  C3  UNL     1      -3.831  -2.828  -0.364  1.00  0.00     0.209 C 
BRANCH  26  27
HETATM   27  O1  UNL     1      -4.589  -4.033  -0.505  1.00  0.00    -0.396 OA
ATOM     28  H1  UNL     1      -5.474  -3.831  -0.224  1.00  0.00     0.209 HD
ENDBRANCH  26  27
ENDBRANCH  25  26
ENDBRANCH  23  25
ENDBRANCH   1  23
BRANCH  10  29
HETATM   29  C11 UNL     1      -2.619   4.563   1.575  1.00  0.00    -0.007 C 
HETATM   30  C12 UNL     1      -2.970   5.632   2.024  1.00  0.00     0.012 C 
BRANCH  30  31
HETATM   31  N8  UNL     1      -3.350   6.874   2.548  1.00  0.00    -0.359 N 
ATOM     32  H82 UNL     1      -2.465   6.388   2.405  1.00  0.00     0.166 HD
ATOM     33  H81 UNL     1      -3.646   7.774   2.926  1.00  0.00     0.166 HD
ENDBRANCH  30  31
ENDBRANCH  10  29
TORSDOF 9
