REMARK  1 active torsions:
REMARK  status: ('A' for Active; 'I' for Inactive)
REMARK    1  A    between atoms: C4_4  and  N1_5 
ROOT
HETATM    1  C1  UNL     1      -2.166   0.817  -0.146  1.00  0.00     0.015 C 
HETATM    2  C2  UNL     1      -0.858   0.222  -0.126  1.00  0.00    -0.041 C 
HETATM    3  C3  UNL     1       0.381   1.050  -0.275  1.00  0.00     0.042 C 
HETATM    4  C4  UNL     1       1.423  -0.083  -0.353  1.00  0.00     0.188 C 
HETATM    5  C5  UNL     1       0.540  -1.229   0.016  1.00  0.00     0.017 C 
HETATM    6  C6  UNL     1      -0.603  -1.025  -0.987  1.00  0.00     0.015 C 
HETATM    7  C7  UNL     1      -0.456  -0.669   1.042  1.00  0.00     0.015 C 
ENDROOT
BRANCH   4   8
HETATM    8  N1  UNL     1       2.525   0.137   0.515  1.00  0.00    -0.075 N 
ATOM      9  H13 UNL     1       2.955   1.045   0.341  1.00  0.00     0.274 HD
ATOM     10  H12 UNL     1       2.214   0.285   1.475  1.00  0.00     0.274 HD
ATOM     11  H11 UNL     1       3.215  -0.613   0.463  1.00  0.00     0.274 HD
ENDBRANCH   4   8
TORSDOF 1
