REMARK  1 active torsions:
REMARK  status: ('A' for Active; 'I' for Inactive)
REMARK    1  A    between atoms: C8_8  and  N1_9 
ROOT
HETATM    1  C1  UNL     1      -2.416   0.778  -0.541  1.00  0.00     0.012 C 
HETATM    2  C2  UNL     1      -0.966   0.440  -0.507  1.00  0.00     0.012 C 
HETATM    3  C3  UNL     1      -0.174   1.219   0.502  1.00  0.00     0.006 C 
HETATM    4  C4  UNL     1       1.188   1.472  -0.072  1.00  0.00     0.000 C 
HETATM    5  C5  UNL     1       2.191   0.427   0.199  1.00  0.00     0.000 C 
HETATM    6  C6  UNL     1       1.708  -0.962   0.324  1.00  0.00     0.002 C 
HETATM    7  C7  UNL     1       0.652  -1.372  -0.641  1.00  0.00     0.033 C 
HETATM    8  C8  UNL     1      -0.748  -1.038  -0.198  1.00  0.00     0.187 C 
ENDROOT
BRANCH   8   9
HETATM    9  N1  UNL     1      -0.978  -1.346   1.178  1.00  0.00    -0.075 N 
ATOM     10  H13 UNL     1      -0.411  -0.756   1.787  1.00  0.00     0.274 HD
ATOM     11  H12 UNL     1      -1.906  -1.042   1.473  1.00  0.00     0.274 HD
ATOM     12  H11 UNL     1      -0.832  -2.334   1.385  1.00  0.00     0.274 HD
ENDBRANCH   8   9
TORSDOF 1
