REMARK  1 active torsions:
REMARK  status: ('A' for Active; 'I' for Inactive)
REMARK    1  A    between atoms: N1_1  and  C1_4 
ROOT
HETATM    1  C1  UNL     1      -0.930   0.353  -0.022  1.00  0.00     0.114 A 
HETATM    2  C2  UNL     1      -0.780  -1.019   0.000  1.00  0.00     0.135 A 
HETATM    3  N2  UNL     1       0.434  -1.614   0.031  1.00  0.00    -0.371 N 
ATOM      4  H2  UNL     1       0.500  -2.632   0.047  1.00  0.00     0.164 HD
HETATM    5  C3  UNL     1       1.556  -0.871   0.041  1.00  0.00     0.104 A 
HETATM    6  C4  UNL     1       1.408   0.502   0.018  1.00  0.00     0.106 A 
HETATM    7  N3  UNL     1       0.192   1.084  -0.012  1.00  0.00    -0.350 N 
ATOM      8  H3  UNL     1       0.125   2.102  -0.027  1.00  0.00     0.166 HD
ENDROOT
BRANCH   1   9
HETATM    9  N1  UNL     1      -2.099   0.923  -0.051  1.00  0.00    -0.384 N 
ATOM     10  H12 UNL     1      -2.954   0.366  -0.059  1.00  0.00     0.157 HD
ATOM     11  H11 UNL     1      -2.210   1.937  -0.067  1.00  0.00     0.157 HD
ENDBRANCH   1   9
TORSDOF 1
