REMARK  6 active torsions:
REMARK  status: ('A' for Active; 'I' for Inactive)
REMARK    1  A    between atoms: C3_3  and  C4_4 
REMARK    2  A    between atoms: C4_4  and  N1_5 
REMARK    3  A    between atoms: C7_10  and  N3_11 
REMARK    4  A    between atoms: N3_11  and  C8_13 
REMARK    5  A    between atoms: C8_13  and  C9_14 
REMARK    6  A    between atoms: C9_14  and  N4_15 
ROOT
HETATM    1  C1  UNL     1       7.470  -0.100   0.959  1.00  0.00     0.112 C 
HETATM    2  C2  UNL     1       6.301   0.699   0.607  1.00  0.00    -0.109 C 
HETATM    3  C3  UNL     1       5.324   1.350   0.289  1.00  0.00    -0.087 C 
ENDROOT
BRANCH   3   4
HETATM    4  C4  UNL     1       4.151   2.115  -0.120  1.00  0.00     0.225 C 
BRANCH   4   5
HETATM    5  N1  UNL     1       2.967   1.420   0.316  1.00  0.00    -0.316 N 
HETATM    6  C5  UNL     1       2.292   1.621   1.448  1.00  0.00     0.186 A 
HETATM    7  N2  UNL     1       1.218   0.789   1.507  1.00  0.00    -0.346 N 
HETATM    8  C6  UNL     1       1.185   0.036   0.409  1.00  0.00     0.123 A 
ATOM      9  H2  UNL     1       0.544   0.748   2.272  1.00  0.00     0.167 HD
HETATM   10  C7  UNL     1       0.353  -0.964  -0.051  1.00  0.00     0.151 A 
HETATM   11  C15 UNL     1       2.293   0.442  -0.335  1.00  0.00     0.155 A 
HETATM   12  N6  UNL     1       0.655  -1.523  -1.232  1.00  0.00    -0.174 N 
HETATM   13  C14 UNL     1       1.749  -1.107  -1.943  1.00  0.00     0.679 A 
ATOM     14  H6  UNL     1       0.064  -2.266  -1.605  1.00  0.00     0.186 HD
HETATM   15  N7  UNL     1       1.978  -1.683  -3.065  1.00  0.00    -0.234 N 
HETATM   16  N8  UNL     1       2.561  -0.134  -1.501  1.00  0.00    -0.174 N 
ATOM     17  H72 UNL     1       1.361  -2.422  -3.401  1.00  0.00     0.174 HD
ATOM     18  H71 UNL     1       2.793  -1.373  -3.595  1.00  0.00     0.174 HD
ATOM     19  H8  UNL     1       3.369   0.158  -2.051  1.00  0.00     0.186 HD
BRANCH  10  20
HETATM   20  N3  UNL     1      -0.666  -1.325   0.620  1.00  0.00    -0.352 N 
ATOM     21  H3  UNL     1      -0.791  -0.813   1.494  1.00  0.00     0.166 HD
BRANCH  20  22
HETATM   22  C8  UNL     1      -1.644  -2.291   0.382  1.00  0.00     0.092 C 
BRANCH  22  23
HETATM   23  C9  UNL     1      -3.039  -1.883   0.661  1.00  0.00     0.317 C 
BRANCH  23  24
HETATM   24  N4  UNL     1      -3.575  -0.803  -0.103  1.00  0.00     0.096 N 
HETATM   25  C10 UNL     1      -5.025  -0.735   0.051  1.00  0.00     0.300 C 
HETATM   26  C11 UNL     1      -5.620   0.456  -0.605  1.00  0.00     0.262 C 
HETATM   27  N5  UNL     1      -5.156   1.606   0.193  1.00  0.00    -0.072 N 
HETATM   28  C12 UNL     1      -3.753   1.697  -0.021  1.00  0.00     0.262 C 
ATOM     29  H52 UNL     1      -5.655   2.471  -0.014  1.00  0.00     0.277 HD
ATOM     30  H51 UNL     1      -5.413   1.546   1.178  1.00  0.00     0.277 HD
HETATM   31  C13 UNL     1      -2.946   0.463   0.038  1.00  0.00     0.300 C 
ENDBRANCH  23  24
ENDBRANCH  22  23
ENDBRANCH  20  22
ENDBRANCH  10  20
ENDBRANCH   4   5
ENDBRANCH   3   4
TORSDOF 6
