REMARK  7 active torsions:
REMARK  status: ('A' for Active; 'I' for Inactive)
REMARK    1  A    between atoms: N1_2  and  C2_4 
REMARK    2  A    between atoms: C2_4  and  C3_5 
REMARK    3  A    between atoms: C7_15  and  N5_16 
REMARK    4  A    between atoms: N5_16  and  N6_18 
REMARK    5  A    between atoms: N6_18  and  C8_20 
REMARK    6  A    between atoms: C8_20  and  C9_23 
REMARK    7  A    between atoms: N7_27  and  O1_28 
ROOT
HETATM    1  C3  UNL     1      -1.457  -0.229   0.371  1.00  0.00     0.126 A 
HETATM    2  C4  UNL     1      -1.366   0.072  -0.969  1.00  0.00     0.109 A 
HETATM    3  N2  UNL     1      -2.259   0.483  -1.915  1.00  0.00    -0.347 N 
ATOM      4  H2  UNL     1      -3.255   0.657  -1.782  1.00  0.00     0.167 HD
HETATM    5  C5  UNL     1      -1.563   0.612  -3.055  1.00  0.00     0.182 A 
HETATM    6  N3  UNL     1      -0.290   0.311  -2.894  1.00  0.00    -0.336 N 
ATOM      7  H3  UNL     1       0.436   0.332  -3.610  1.00  0.00     0.168 HD
HETATM    8  C6  UNL     1      -0.134  -0.033  -1.589  1.00  0.00     0.151 A 
HETATM    9  N4  UNL     1       0.953  -0.419  -0.911  1.00  0.00    -0.171 N 
ATOM     10  H4  UNL     1       1.852  -0.491  -1.387  1.00  0.00     0.186 HD
HETATM   11  C7  UNL     1       0.861  -0.710   0.386  1.00  0.00     0.725 A 
HETATM   12  N7  UNL     1      -0.310  -0.614   0.994  1.00  0.00    -0.047 N 
ENDROOT
BRANCH  11  13
HETATM   13  N5  UNL     1       1.946  -1.082   1.002  1.00  0.00    -0.131 N 
ATOM     14  H5  UNL     1       1.919  -1.314   1.995  1.00  0.00     0.205 HD
BRANCH  13  15
HETATM   15  N6  UNL     1       3.132  -1.160   0.302  1.00  0.00    -0.276 N 
ATOM     16  H6  UNL     1       3.160  -1.793  -0.497  1.00  0.00     0.184 HD
BRANCH  15  17
HETATM   17  C8  UNL     1       4.323  -0.433   0.598  1.00  0.00     0.298 C 
HETATM   18 CL1  UNL     1       5.583  -0.865  -0.575  1.00  0.00    -0.067 Cl
HETATM   19 CL2  UNL     1       4.900  -0.939   2.203  1.00  0.00    -0.067 Cl
BRANCH  17  20
HETATM   20  C9  UNL     1       4.165   1.067   0.552  1.00  0.00     0.443 C 
HETATM   21  F1  UNL     1       3.240   1.544   1.434  1.00  0.00    -0.166 F 
HETATM   22  F2  UNL     1       5.400   1.592   0.961  1.00  0.00    -0.166 F 
HETATM   23  F3  UNL     1       3.989   1.461  -0.737  1.00  0.00    -0.166 F 
ENDBRANCH  17  20
ENDBRANCH  15  17
ENDBRANCH  13  15
ENDBRANCH  11  13
BRANCH  12  24
HETATM   24  O1  UNL     1      -0.390  -0.916   2.328  1.00  0.00    -0.269 OA
ATOM     25  H1  UNL     1       0.411  -1.185   2.763  1.00  0.00     0.245 HD
ENDBRANCH  12  24
BRANCH   1  26
HETATM   26  C2  UNL     1      -2.708  -0.140   1.077  1.00  0.00     0.118 C 
BRANCH  26  27
HETATM   27  N1  UNL     1      -3.820   0.205   0.593  1.00  0.00    -0.401 N 
HETATM   28  C1  UNL     1      -5.063   0.293   1.294  1.00  0.00     0.145 C 
ATOM     29  H1  UNL     1      -3.834   0.445  -0.398  1.00  0.00     0.158 HD
ENDBRANCH  26  27
ENDBRANCH   1  26
TORSDOF 7
