REMARK  10 active torsions:
REMARK  status: ('A' for Active; 'I' for Inactive)
REMARK    1  A    between atoms: C2_2  and  C3_3 
REMARK    2  A    between atoms: C3_3  and  C4_4 
REMARK    3  A    between atoms: C4_4  and  C5_5 
REMARK    4  A    between atoms: C5_5  and  C6_6 
REMARK    5  A    between atoms: C6_6  and  C7_7 
REMARK    6  A    between atoms: C7_7  and  C8_8 
REMARK    7  A    between atoms: C8_8  and  C9_9 
REMARK       I    between atoms: C9_9  and  N1_11 
REMARK    8  A    between atoms: N1_11  and  C10_13 
REMARK    9  A    between atoms: C11_14  and  C12_15 
REMARK   10  A    between atoms: C12_15  and  O2_16 
ROOT
HETATM    1  C8  UNL     1      -0.765   1.471  -0.087  1.00  0.00     0.268 C 
HETATM    2  C14 UNL     1      -1.020   2.087   1.237  1.00  0.00     0.077 C 
HETATM    3  C15 UNL     1      -2.220   2.949   0.961  1.00  0.00     0.047 C 
HETATM    4  C16 UNL     1      -1.770   3.503  -0.398  1.00  0.00     0.314 C 
HETATM    5  N2  UNL     1      -0.517   2.776  -0.555  1.00  0.00     0.033 N 
HETATM    6  O3  UNL     1       0.236   3.048  -1.571  1.00  0.00    -0.063 OA
HETATM    7  C17 UNL     1       0.095   3.017   0.791  1.00  0.00     0.322 C 
ENDROOT
BRANCH   1   8
HETATM    8  C7  UNL     1       0.403   0.508   0.011  1.00  0.00     0.059 C 
BRANCH   8   9
HETATM    9  C6  UNL     1       0.927   0.045  -1.300  1.00  0.00     0.003 C 
BRANCH   9  10
HETATM   10  C5  UNL     1       2.074  -0.908  -1.083  1.00  0.00     0.000 C 
BRANCH  10  11
HETATM   11  C4  UNL     1       3.238  -0.335  -0.348  1.00  0.00     0.000 C 
BRANCH  11  12
HETATM   12  C3  UNL     1       4.316  -1.420  -0.217  1.00  0.00    -0.000 C 
BRANCH  12  13
HETATM   13  C2  UNL     1       5.516  -0.861   0.530  1.00  0.00    -0.005 C 
HETATM   14  C1  UNL     1       6.596  -1.898   0.678  1.00  0.00     0.005 C 
ENDBRANCH  12  13
ENDBRANCH  11  12
ENDBRANCH  10  11
ENDBRANCH   9  10
ENDBRANCH   8   9
ENDBRANCH   1   8
BRANCH   1  15
HETATM   15  C9  UNL     1      -1.853   0.770  -0.788  1.00  0.00     0.264 C 
HETATM   16  O1  UNL     1      -2.257   1.206  -1.883  1.00  0.00    -0.270 OA
HETATM   17  N1  UNL     1      -2.479  -0.400  -0.272  1.00  0.00    -0.350 N 
ATOM     18  H1  UNL     1      -2.178  -0.789   0.621  1.00  0.00     0.163 HD
BRANCH  17  19
HETATM   19  C10 UNL     1      -3.530  -1.027  -1.010  1.00  0.00     0.133 A 
HETATM   20  C11 UNL     1      -4.659  -1.708  -0.332  1.00  0.00     0.076 A 
HETATM   21  C13 UNL     1      -3.546  -2.520  -0.954  1.00  0.00     0.141 A 
HETATM   22 CL1  UNL     1      -3.908  -3.327  -2.496  1.00  0.00    -0.099 Cl
HETATM   23 CL2  UNL     1      -2.394  -3.313   0.141  1.00  0.00    -0.099 Cl
BRANCH  20  24
HETATM   24  C12 UNL     1      -4.719  -1.789   1.176  1.00  0.00     0.174 C 
BRANCH  24  25
HETATM   25  O2  UNL     1      -5.865  -2.470   1.539  1.00  0.00    -0.400 OA
ATOM     26  H2  UNL     1      -5.903  -2.521   2.487  1.00  0.00     0.209 HD
ENDBRANCH  24  25
ENDBRANCH  20  24
ENDBRANCH  17  19
ENDBRANCH   1  15
TORSDOF 10
