REMARK  15 active torsions:
REMARK  status: ('A' for Active; 'I' for Inactive)
REMARK    1  A    between atoms: C4_7  and  C5_8 
REMARK    2  A    between atoms: C5_8  and  C6_9 
REMARK    3  A    between atoms: C6_9  and  C7_10 
REMARK    4  A    between atoms: C7_10  and  C8_11 
REMARK    5  A    between atoms: C9_12  and  C10_13 
REMARK    6  A    between atoms: C10_13  and  N3_14 
REMARK    7  A    between atoms: N3_14  and  C12_16 
REMARK    8  A    between atoms: N3_14  and  N7_26 
REMARK    9  A    between atoms: C12_16  and  C13_17 
REMARK   10  A    between atoms: C13_17  and  N4_18 
REMARK   11  A    between atoms: N4_18  and  C14_20 
REMARK   12  A    between atoms: C14_20  and  N5_22 
REMARK   13  A    between atoms: N7_26  and  C16_28 
REMARK   14  A    between atoms: C16_28  and  C17_29 
REMARK   15  A    between atoms: C18_30  and  O1_31 
ROOT
HETATM    1  N5  UNL     1      -1.739   6.251  -0.296  1.00  0.00    -0.270 N 
ATOM      2  H5  UNL     1      -2.671   6.140  -0.696  1.00  0.00     0.180 HD
HETATM    3  C15 UNL     1      -1.134   7.507  -0.339  1.00  0.00     0.184 C 
HETATM    4  N6  UNL     1      -0.639   8.552  -0.360  1.00  0.00    -0.172 NA
ENDROOT
BRANCH   1   5
HETATM    5  C14 UNL     1      -1.113   5.136   0.277  1.00  0.00     0.180 C 
HETATM    6  S1  UNL     1       0.370   5.299   0.920  1.00  0.00    -0.040 SA
BRANCH   5   7
HETATM    7  N4  UNL     1      -1.811   3.874   0.277  1.00  0.00    -0.365 N 
ATOM      8  H4  UNL     1      -2.742   3.771  -0.126  1.00  0.00     0.161 HD
BRANCH   7   9
HETATM    9  C13 UNL     1      -1.114   2.766   0.881  1.00  0.00     0.152 C 
BRANCH   9  10
HETATM   10  C12 UNL     1      -1.833   1.464   0.843  1.00  0.00     0.285 C 
BRANCH  10  11
HETATM   11  N3  UNL     1      -2.122   0.939  -0.467  1.00  0.00     0.019 N 
HETATM   12  C11 UNL     1      -3.365   1.398  -1.038  1.00  0.00     0.303 C 
BRANCH  11  13
HETATM   13  C10 UNL     1      -1.089   1.176  -1.443  1.00  0.00     0.358 C 
BRANCH  13  14
HETATM   14  C9  UNL     1       0.043   0.309  -1.163  1.00  0.00    -0.076 C 
HETATM   15  C8  UNL     1       0.995  -0.430  -0.947  1.00  0.00    -0.105 C 
BRANCH  15  16
HETATM   16  C7  UNL     1       2.117  -1.335  -0.697  1.00  0.00     0.094 C 
BRANCH  16  17
HETATM   17  C6  UNL     1       3.301  -0.510  -0.243  1.00  0.00     0.020 C 
BRANCH  17  18
HETATM   18  C5  UNL     1       4.427  -1.516  -0.004  1.00  0.00     0.077 C 
BRANCH  18  19
HETATM   19  C4  UNL     1       5.675  -0.895   0.446  1.00  0.00     0.082 A 
HETATM   20  N1  UNL     1       6.669  -0.444  -0.370  1.00  0.00    -0.350 N 
HETATM   21  C1  UNL     1       6.706  -0.475  -1.809  1.00  0.00     0.156 C 
HETATM   22  C2  UNL     1       7.646   0.054   0.401  1.00  0.00     0.108 A 
HETATM   23  C3  UNL     1       7.253  -0.091   1.713  1.00  0.00     0.106 A 
HETATM   24  N2  UNL     1       6.034  -0.679   1.707  1.00  0.00    -0.354 N 
ATOM     25  H2  UNL     1       5.483  -0.916   2.532  1.00  0.00     0.166 HD
ENDBRANCH  18  19
ENDBRANCH  17  18
ENDBRANCH  16  17
ENDBRANCH  15  16
ENDBRANCH  13  14
ENDBRANCH  11  13
BRANCH  11  26
HETATM   26  N7  UNL     1      -2.285  -0.479  -0.273  1.00  0.00    -0.225 N 
ATOM     27  H7  UNL     1      -1.657  -1.186  -0.655  1.00  0.00     0.193 HD
BRANCH  26  28
HETATM   28  C16 UNL     1      -3.414  -0.766   0.507  1.00  0.00     0.146 C 
BRANCH  28  29
HETATM   29  C17 UNL     1      -3.754  -2.182   0.644  1.00  0.00     0.084 A 
HETATM   30  C18 UNL     1      -4.848  -2.527   1.489  1.00  0.00     0.093 A 
HETATM   31  C19 UNL     1      -5.282  -3.790   1.687  1.00  0.00     0.040 A 
HETATM   32  C20 UNL     1      -4.633  -4.807   1.036  1.00  0.00     0.020 A 
HETATM   33  C21 UNL     1      -3.589  -4.476   0.228  1.00  0.00     0.091 A 
HETATM   34  N8  UNL     1      -3.141  -3.193   0.021  1.00  0.00    -0.358 N 
HETATM   35  C22 UNL     1      -2.055  -3.085  -0.901  1.00  0.00     0.156 C 
BRANCH  30  36
HETATM   36  O1  UNL     1      -5.467  -1.455   2.123  1.00  0.00    -0.358 OA
ATOM     37  H1  UNL     1      -6.196  -1.685   2.686  1.00  0.00     0.217 HD
ENDBRANCH  30  36
ENDBRANCH  28  29
ENDBRANCH  26  28
ENDBRANCH  11  26
ENDBRANCH  10  11
ENDBRANCH   9  10
ENDBRANCH   7   9
ENDBRANCH   5   7
ENDBRANCH   1   5
TORSDOF 15
