REMARK  9 active torsions:
REMARK  status: ('A' for Active; 'I' for Inactive)
REMARK    1  A    between atoms: O1_2  and  C2_3 
REMARK    2  A    between atoms: C2_3  and  C3_5 
REMARK    3  A    between atoms: C3_5  and  N1_6 
REMARK    4  A    between atoms: N1_6  and  C4_9 
REMARK    5  A    between atoms: C4_9  and  C6_11 
REMARK    6  A    between atoms: C8_14  and  O4_15 
REMARK    7  A    between atoms: C9_17  and  N2_18 
REMARK    8  A    between atoms: N2_18  and  N3_19 
REMARK    9  A    between atoms: C12_26  and  C13_27 
ROOT
HETATM    1  C6  UNL     1       1.533   0.082  -1.446  1.00  0.00     0.113 C 
HETATM    2  C7  UNL     1       0.558  -0.902  -0.817  1.00  0.00     0.196 C 
HETATM    3  O3  UNL     1       0.916  -2.250  -1.111  1.00  0.00    -0.327 OA
HETATM    4  C8  UNL     1       0.152  -3.372  -1.168  1.00  0.00     0.219 C 
HETATM    5  C9  UNL     1      -1.057  -3.735  -0.469  1.00  0.00     0.175 C 
HETATM    6  C10 UNL     1      -2.161  -2.725  -0.313  1.00  0.00     0.166 C 
HETATM    7  S1  UNL     1      -3.720  -3.439   0.287  1.00  0.00    -0.090 SA
HETATM    8  S2  UNL     1      -5.061  -1.802   0.498  1.00  0.00    -0.096 SA
HETATM    9  C11 UNL     1      -4.124  -0.278   0.920  1.00  0.00     0.103 C 
HETATM   10  C12 UNL     1      -3.643   0.416  -0.310  1.00  0.00     0.115 C 
HETATM   11  C14 UNL     1      -2.498   1.388  -0.044  1.00  0.00     0.025 C 
HETATM   12  C15 UNL     1      -3.167   2.742   0.203  1.00  0.00     0.028 C 
HETATM   13  C16 UNL     1      -1.803   1.066   1.276  1.00  0.00     0.028 C 
HETATM   14  S3  UNL     1      -1.446   1.349  -1.461  1.00  0.00    -0.087 SA
HETATM   15  S4  UNL     1       0.575   1.711  -1.259  1.00  0.00    -0.088 SA
ENDROOT
BRANCH   1  16
HETATM   16  C4  UNL     1       2.772   0.281  -0.641  1.00  0.00     0.199 C 
HETATM   17  C5  UNL     1       3.101  -1.137  -0.048  1.00  0.00     0.041 C 
BRANCH  16  18
HETATM   18  N1  UNL     1       2.405   1.042   0.598  1.00  0.00    -0.061 N 
ATOM     19  H12 UNL     1       1.486   0.796   0.966  1.00  0.00     0.278 HD
ATOM     20  H11 UNL     1       2.212   2.028   0.424  1.00  0.00     0.278 HD
BRANCH  18  21
HETATM   21  C3  UNL     1       3.483   0.825   1.548  1.00  0.00     0.343 C 
BRANCH  21  22
HETATM   22  C2  UNL     1       4.799   1.385   1.288  1.00  0.00     0.284 C 
HETATM   23  O2  UNL     1       5.384   2.010   2.222  1.00  0.00    -0.263 OA
BRANCH  22  24
HETATM   24  O1  UNL     1       5.507   1.290   0.085  1.00  0.00    -0.325 OA
HETATM   25  C1  UNL     1       6.788   1.845  -0.028  1.00  0.00     0.213 C 
ENDBRANCH  22  24
ENDBRANCH  21  22
ENDBRANCH  18  21
ENDBRANCH  16  18
ENDBRANCH   1  16
BRANCH   4  26
HETATM   26  O4  UNL     1       0.607  -4.286  -2.028  1.00  0.00    -0.339 OA
ATOM     27  H4  UNL     1       0.073  -5.071  -2.068  1.00  0.00     0.220 HD
ENDBRANCH   4  26
BRANCH   5  28
HETATM   28  N2  UNL     1      -1.262  -4.894   0.034  1.00  0.00    -0.332 NA
BRANCH  28  29
HETATM   29  N3  UNL     1      -1.489  -6.025   0.373  1.00  0.00    -0.280 N 
ATOM     30  H32 UNL     1      -1.700  -6.167  -0.615  1.00  0.00     0.191 HD
ATOM     31  H31 UNL     1      -1.652  -6.949   0.774  1.00  0.00     0.191 HD
ENDBRANCH  28  29
ENDBRANCH   5  28
BRANCH  10  32
HETATM   32  C13 UNL     1      -4.792   1.070  -1.003  1.00  0.00     0.179 C 
HETATM   33  O5  UNL     1      -4.527   1.945  -1.855  1.00  0.00    -0.648 OA
HETATM   34  O6  UNL     1      -6.123   0.748  -0.736  1.00  0.00    -0.648 OA
ENDBRANCH  10  32
TORSDOF 9
