REMARK  5 active torsions:
REMARK  status: ('A' for Active; 'I' for Inactive)
REMARK    1  A    between atoms: C2_2  and  N1_3 
REMARK    2  A    between atoms: C2_2  and  O1_7 
REMARK    3  A    between atoms: C2_2  and  C3_9 
REMARK    4  A    between atoms: C3_9  and  N2_10 
REMARK    5  A    between atoms: C3_9  and  C4_14 
ROOT
HETATM    1  C3  UNL     1      -0.041   0.333  -0.640  1.00  0.00     0.297 C 
ENDROOT
BRANCH   1   2
HETATM    2  C2  UNL     1      -1.025  -0.461   0.188  1.00  0.00     0.252 C 
HETATM    3  C1  UNL     1      -2.398  -0.223  -0.405  1.00  0.00     0.081 C 
BRANCH   2   4
HETATM    4  N1  UNL     1      -0.706  -1.872   0.104  1.00  0.00    -0.045 N 
ATOM      5  H13 UNL     1      -1.421  -2.457   0.537  1.00  0.00     0.278 HD
ATOM      6  H12 UNL     1      -0.784  -2.230  -0.848  1.00  0.00     0.278 HD
ATOM      7  H11 UNL     1       0.219  -2.032   0.503  1.00  0.00     0.278 HD
ENDBRANCH   2   4
BRANCH   2   8
HETATM    8  O1  UNL     1      -1.044  -0.089   1.506  1.00  0.00    -0.363 OA
ATOM      9  H1  UNL     1      -0.183  -0.238   1.878  1.00  0.00     0.212 HD
ENDBRANCH   2   8
ENDBRANCH   1   2
BRANCH   1  10
HETATM   10  N2  UNL     1      -0.325   1.729  -0.631  1.00  0.00    -0.065 N 
ATOM     11  H23 UNL     1      -1.284   1.911  -0.926  1.00  0.00     0.275 HD
ATOM     12  H22 UNL     1      -0.376   2.087   0.323  1.00  0.00     0.275 HD
ATOM     13  H21 UNL     1       0.339   2.265  -1.190  1.00  0.00     0.275 HD
ENDBRANCH   1  10
BRANCH   1  14
HETATM   14  C4  UNL     1       1.358   0.153  -0.133  1.00  0.00     0.079 A 
HETATM   15  C5  UNL     1       1.921   0.769   0.964  1.00  0.00     0.137 A 
HETATM   16  N3  UNL     1       3.176   0.316   1.040  1.00  0.00    -0.296 N 
HETATM   17  N4  UNL     1       3.423  -0.534   0.066  1.00  0.00    -0.243 N 
ATOM     18  H3  UNL     1       3.850   0.591   1.755  1.00  0.00     0.187 HD
HETATM   19  N5  UNL     1       2.317  -0.636  -0.651  1.00  0.00    -0.287 N 
ATOM     20  H4  UNL     1       4.302  -1.022  -0.104  1.00  0.00     0.208 HD
ATOM     21  H5  UNL     1       2.207  -1.226  -1.476  1.00  0.00     0.188 HD
ENDBRANCH   1  14
TORSDOF 5
