REMARK  5 active torsions:
REMARK  status: ('A' for Active; 'I' for Inactive)
REMARK    1  A    between atoms: C2_2  and  C3_3 
REMARK    2  A    between atoms: C2_2  and  C4_5 
REMARK    3  A    between atoms: C4_5  and  N1_6 
REMARK    4  A    between atoms: C4_5  and  C6_13 
REMARK       I    between atoms: N1_6  and  C5_8 
REMARK    5  A    between atoms: C11_18  and  N4_19 
ROOT
HETATM    1  C4  UNL     1       0.698  -0.247   0.097  1.00  0.00     0.155 C 
ENDROOT
BRANCH   1   2
HETATM    2  C2  UNL     1       1.598  -1.305   0.580  1.00  0.00    -0.003 C 
HETATM    3  C1  UNL     1       1.497  -2.539   0.033  1.00  0.00     0.024 C 
BRANCH   2   4
HETATM    4  C3  UNL     1       2.591  -1.194   1.623  1.00  0.00     0.267 C 
HETATM    5  O1  UNL     1       3.263  -2.192   1.973  1.00  0.00    -0.302 OA
ENDBRANCH   2   4
ENDBRANCH   1   2
BRANCH   1   6
HETATM    6  N1  UNL     1       1.439   0.924  -0.346  1.00  0.00    -0.352 N 
HETATM    7  C5  UNL     1       2.388   0.917  -1.368  1.00  0.00     0.182 C 
HETATM    8  N2  UNL     1       3.375   1.735  -1.331  1.00  0.00    -0.374 N 
HETATM    9  N3  UNL     1       2.260   0.005  -2.444  1.00  0.00    -0.064 NA
ATOM     10  H22 UNL     1       3.467   2.392  -0.556  1.00  0.00     0.158 HD
ATOM     11  H21 UNL     1       4.069   1.730  -2.078  1.00  0.00     0.158 HD
ATOM     12  H1  UNL     1       1.252   1.810   0.123  1.00  0.00     0.163 HD
ENDBRANCH   1   6
BRANCH   1  13
HETATM   13  C6  UNL     1      -0.366   0.196   1.001  1.00  0.00    -0.004 A 
HETATM   14  C7  UNL     1      -0.200   0.435   2.336  1.00  0.00     0.012 A 
HETATM   15  C8  UNL     1      -1.233   0.833   3.194  1.00  0.00     0.001 A 
HETATM   16  C9  UNL     1      -2.497   1.000   2.689  1.00  0.00     0.002 A 
HETATM   17  C10 UNL     1      -2.708   0.772   1.358  1.00  0.00     0.030 A 
HETATM   18  C11 UNL     1      -1.661   0.375   0.514  1.00  0.00     0.038 A 
BRANCH  18  19
HETATM   19  N4  UNL     1      -1.911   0.180  -0.857  1.00  0.00    -0.389 N 
HETATM   20  C12 UNL     1      -1.467   1.135  -1.833  1.00  0.00     0.149 C 
HETATM   21  C13 UNL     1      -2.623  -0.990  -1.301  1.00  0.00     0.149 C 
ENDBRANCH  18  19
ENDBRANCH   1  13
TORSDOF 5
