REMARK  5 active torsions:
REMARK  status: ('A' for Active; 'I' for Inactive)
REMARK    1  A    between atoms: O1_2  and  C2_3 
REMARK    2  A    between atoms: C5_6  and  C6_7 
REMARK    3  A    between atoms: C7_8  and  C8_9 
REMARK    4  A    between atoms: C9_10  and  C10_11 
REMARK    5  A    between atoms: N2_13  and  N3_15 
REMARK       I    between atoms: N3_15  and  C11_17 
ROOT
HETATM    1  C8  UNL     1      -0.649  -1.820  -0.020  1.00  0.00     0.003 C 
HETATM    2  C9  UNL     1      -1.812  -2.529  -0.009  1.00  0.00     0.046 C 
ENDROOT
BRANCH   1   3
HETATM    3  C7  UNL     1       0.563  -2.565  -0.127  1.00  0.00     0.001 C 
HETATM    4  C6  UNL     1       1.784  -2.226  -0.165  1.00  0.00     0.011 C 
BRANCH   4   5
HETATM    5  C5  UNL     1       2.509  -0.981  -0.120  1.00  0.00    -0.036 A 
HETATM    6  C4  UNL     1       3.918  -1.027  -0.193  1.00  0.00     0.014 A 
HETATM    7  C3  UNL     1       4.714   0.093  -0.160  1.00  0.00     0.037 A 
HETATM    8  C2  UNL     1       4.138   1.334  -0.050  1.00  0.00     0.068 A 
HETATM    9  C13 UNL     1       2.770   1.415   0.023  1.00  0.00     0.037 A 
HETATM   10  C12 UNL     1       1.966   0.276  -0.011  1.00  0.00     0.014 A 
BRANCH   8  11
HETATM   11  O1  UNL     1       4.923   2.489  -0.014  1.00  0.00    -0.356 OA
HETATM   12  C1  UNL     1       4.287   3.749   0.099  1.00  0.00     0.210 C 
ENDBRANCH   8  11
ENDBRANCH   4   5
ENDBRANCH   1   3
BRANCH   2  13
HETATM   13  C10 UNL     1      -3.073  -1.831   0.097  1.00  0.00     0.130 C 
HETATM   14  N1  UNL     1      -4.292  -2.558   0.110  1.00  0.00    -0.081 NA
HETATM   15  N2  UNL     1      -3.084  -0.537   0.181  1.00  0.00    -0.284 N 
ATOM     16  H2  UNL     1      -2.208  -0.015   0.172  1.00  0.00     0.188 HD
BRANCH  15  17
HETATM   17  N3  UNL     1      -4.294   0.133   0.283  1.00  0.00    -0.253 N 
HETATM   18  C11 UNL     1      -4.429   1.514  -0.027  1.00  0.00     0.347 C 
HETATM   19  N4  UNL     1      -5.661   2.208   0.075  1.00  0.00    -0.038 NA
HETATM   20  O2  UNL     1      -3.401   2.147  -0.409  1.00  0.00    -0.249 OA
ATOM     21  H3  UNL     1      -5.117  -0.384   0.592  1.00  0.00     0.191 HD
ENDBRANCH  15  17
ENDBRANCH   2  13
TORSDOF 5
