REMARK  14 active torsions:
REMARK  status: ('A' for Active; 'I' for Inactive)
REMARK    1  A    between atoms: C2_2  and  O1_5 
REMARK    2  A    between atoms: O1_5  and  C3_6 
REMARK    3  A    between atoms: C5_8  and  O2_9 
REMARK    4  A    between atoms: C6_11  and  N1_12 
REMARK    5  A    between atoms: C8_14  and  C9_15 
REMARK    6  A    between atoms: C9_15  and  O3_16 
REMARK    7  A    between atoms: C9_15  and  C10_18 
REMARK    8  A    between atoms: C10_18  and  O4_19 
REMARK    9  A    between atoms: O4_19  and  C11_20 
REMARK   10  A    between atoms: C11_20  and  C12_21 
REMARK   11  A    between atoms: C20_29  and  C21_30 
REMARK   12  A    between atoms: C21_30  and  N2_31 
REMARK   13  A    between atoms: C23_36  and  O5_37 
REMARK   14  A    between atoms: C26_42  and  C27_43 
ROOT
HETATM    1  N1  UNL     1       2.452  -0.087   0.528  1.00  0.00    -0.310 N 
HETATM    2  C7  UNL     1       1.457  -0.260  -0.327  1.00  0.00     0.111 A 
HETATM    3  C8  UNL     1       0.428  -1.022   0.274  1.00  0.00     0.025 A 
HETATM    4  C23 UNL     1       0.917  -1.261   1.558  1.00  0.00     0.110 A 
HETATM    5  C24 UNL     1       2.157  -0.689   1.720  1.00  0.00     0.120 A 
HETATM    6 BR1  UNL     1       3.221  -0.716   3.300  1.00  0.00    -0.028 Br
ENDROOT
BRANCH   3   7
HETATM    7  C9  UNL     1      -0.694  -1.641  -0.439  1.00  0.00     0.190 C 
BRANCH   7   8
HETATM    8  O3  UNL     1      -0.614  -1.100  -1.792  1.00  0.00    -0.388 OA
ATOM      9  H3  UNL     1      -1.341  -1.501  -2.254  1.00  0.00     0.210 HD
ENDBRANCH   7   8
BRANCH   7  10
HETATM   10  C10 UNL     1      -2.102  -1.217  -0.005  1.00  0.00     0.091 C 
HETATM   11  C18 UNL     1      -2.930  -1.813  -1.213  1.00  0.00     0.041 C 
HETATM   12  C19 UNL     1      -4.158  -2.428  -0.653  1.00  0.00     0.009 C 
HETATM   13  C20 UNL     1      -3.670  -3.003   0.635  1.00  0.00     0.014 C 
HETATM   14  C22 UNL     1      -2.475  -2.193   1.085  1.00  0.00     0.047 C 
BRANCH  10  15
HETATM   15  O4  UNL     1      -2.396  -0.004   0.223  1.00  0.00    -0.377 OA
BRANCH  15  16
HETATM   16  C11 UNL     1      -2.680   1.142  -0.253  1.00  0.00     0.173 C 
BRANCH  16  17
HETATM   17  C12 UNL     1      -4.135   1.310  -0.755  1.00  0.00     0.009 C 
HETATM   18  C13 UNL     1      -5.002   1.077   0.499  1.00  0.00     0.007 C 
HETATM   19  C14 UNL     1      -5.202   2.367   1.251  1.00  0.00     0.000 C 
HETATM   20  C15 UNL     1      -6.062   3.320   0.428  1.00  0.00     0.000 C 
HETATM   21  C16 UNL     1      -5.911   2.960  -1.060  1.00  0.00     0.000 C 
HETATM   22  C17 UNL     1      -4.407   2.709  -1.263  1.00  0.00     0.007 C 
ENDBRANCH  16  17
ENDBRANCH  15  16
ENDBRANCH  10  15
BRANCH  13  23
HETATM   23  C21 UNL     1      -3.281  -4.466   0.476  1.00  0.00     0.234 C 
BRANCH  23  24
HETATM   24  N2  UNL     1      -4.352  -5.310   0.071  1.00  0.00    -0.079 N 
ATOM     25  H23 UNL     1      -5.142  -5.217   0.710  1.00  0.00     0.274 HD
ATOM     26  H22 UNL     1      -4.780  -4.959  -0.785  1.00  0.00     0.274 HD
ATOM     27  H21 UNL     1      -4.091  -6.290  -0.036  1.00  0.00     0.274 HD
ENDBRANCH  23  24
ENDBRANCH  13  23
ENDBRANCH   7  10
ENDBRANCH   3   7
BRANCH   4  28
HETATM   28  O5  UNL     1       0.276  -1.978   2.584  1.00  0.00    -0.357 OA
ATOM     29  H5  UNL     1       0.609  -2.141   3.459  1.00  0.00     0.217 HD
ENDBRANCH   4  28
BRANCH   1  30
HETATM   30  C6  UNL     1       3.775   0.476   0.355  1.00  0.00     0.073 A 
HETATM   31  C5  UNL     1       4.801  -0.497   0.303  1.00  0.00     0.095 A 
HETATM   32  C4  UNL     1       6.115  -0.122   0.179  1.00  0.00     0.076 A 
HETATM   33  C3  UNL     1       6.476   1.203   0.101  1.00  0.00     0.093 A 
HETATM   34  C26 UNL     1       5.454   2.117   0.150  1.00  0.00     0.083 A 
HETATM   35  C25 UNL     1       4.106   1.773   0.277  1.00  0.00     0.052 A 
BRANCH  31  36
HETATM   36  O2  UNL     1       4.519  -1.826   0.368  1.00  0.00    -0.358 OA
ATOM     37  H2  UNL     1       3.609  -2.086   0.454  1.00  0.00     0.217 HD
ENDBRANCH  31  36
BRANCH  33  38
HETATM   38  O1  UNL     1       7.801   1.599  -0.022  1.00  0.00    -0.283 OA
BRANCH  38  39
HETATM   39  C2  UNL     1       8.885   0.693  -0.084  1.00  0.00     0.355 C 
HETATM   40  C1  UNL     1      10.156   1.512  -0.213  1.00  0.00     0.126 C 
HETATM   41  F1  UNL     1       8.847  -0.153  -1.160  1.00  0.00    -0.176 F 
HETATM   42  F2  UNL     1       9.019  -0.018   1.098  1.00  0.00    -0.176 F 
ENDBRANCH  38  39
ENDBRANCH  33  38
BRANCH  34  43
HETATM   43  C27 UNL     1       5.791   3.566   0.055  1.00  0.00     0.420 C 
HETATM   44  F3  UNL     1       6.451   3.855  -1.127  1.00  0.00    -0.166 F 
HETATM   45  F4  UNL     1       6.684   3.814   1.092  1.00  0.00    -0.166 F 
HETATM   46  F5  UNL     1       4.699   4.364   0.231  1.00  0.00    -0.166 F 
ENDBRANCH  34  43
ENDBRANCH   1  30
TORSDOF 14
