REMARK  2 active torsions:
REMARK  status: ('A' for Active; 'I' for Inactive)
REMARK    1  A    between atoms: C3_3  and  S1_4 
REMARK    2  A    between atoms: S1_4  and  C4_5 
ROOT
HETATM    1  C1  UNL     1      -0.876   1.886  -0.084  1.00  0.00     0.015 C 
HETATM    2  C2  UNL     1      -0.669   0.424   0.147  1.00  0.00     0.057 C 
HETATM    3  C3  UNL     1       0.684  -0.029  -0.389  1.00  0.00     0.271 C 
HETATM    4  N2  UNL     1       0.511  -1.471  -0.315  1.00  0.00    -0.032 N 
ATOM      5  H21 UNL     1       0.652  -1.864   0.616  1.00  0.00     0.281 HD
ATOM      6  H22 UNL     1       1.249  -2.007  -0.773  1.00  0.00     0.281 HD
HETATM    7  C5  UNL     1      -0.823  -1.693  -0.865  1.00  0.00     0.352 A 
HETATM    8  O1  UNL     1      -1.907  -1.705   0.021  1.00  0.00    -0.347 OA
HETATM    9  C6  UNL     1      -1.589  -0.466  -0.631  1.00  0.00     0.187 A 
ENDROOT
BRANCH   3  10
HETATM   10  S1  UNL     1       1.987   0.601   0.661  1.00  0.00    -0.017 SA
BRANCH  10  11
HETATM   11  C4  UNL     1       3.486  -0.238   0.320  1.00  0.00     0.135 C 
HETATM   12  N1  UNL     1       4.595  -0.477   0.091  1.00  0.00    -0.184 NA
ENDBRANCH  10  11
ENDBRANCH   3  10
TORSDOF 2
