REMARK  5 active torsions:
REMARK  status: ('A' for Active; 'I' for Inactive)
REMARK    1  A    between atoms: C2_2  and  C3_4 
REMARK    2  A    between atoms: C6_7  and  C7_8 
REMARK    3  A    between atoms: C13_20  and  C14_21 
REMARK    4  A    between atoms: C13_20  and  C21_31 
REMARK    5  A    between atoms: C17_24  and  S1_25 
ROOT
HETATM    1  C7  UNL     1      -3.011   0.090   1.228  1.00  0.00     0.068 C 
HETATM    2  C8  UNL     1      -2.314   1.355   1.076  1.00  0.00     0.073 C 
HETATM    3  N1  UNL     1      -1.765   2.396   0.981  1.00  0.00    -0.196 NA
HETATM    4  C9  UNL     1      -4.479   0.449   1.594  1.00  0.00     0.029 C 
HETATM    5  C10 UNL     1      -4.430  -0.660   2.640  1.00  0.00     0.004 C 
HETATM    6  C11 UNL     1      -2.920  -0.380   2.653  1.00  0.00     0.029 C 
ENDROOT
BRANCH   1   7
HETATM    7  C6  UNL     1      -3.003  -0.850   0.139  1.00  0.00     0.013 C 
HETATM    8  C5  UNL     1      -1.899  -1.516  -0.488  1.00  0.00     0.015 C 
HETATM    9  C4  UNL     1      -0.804  -0.767  -1.179  1.00  0.00     0.001 C 
HETATM   10  C12 UNL     1      -1.242  -2.597   0.233  1.00  0.00     0.106 C 
HETATM   11  C3  UNL     1      -1.027   0.284  -1.938  1.00  0.00     0.061 C 
HETATM   12  C13 UNL     1       0.442  -1.457  -0.874  1.00  0.00     0.186 C 
HETATM   13  N3  UNL     1       0.110  -2.261   0.333  1.00  0.00    -0.351 N 
ATOM     14  H3  UNL     1       0.747  -2.517   1.088  1.00  0.00     0.162 HD
HETATM   15  N2  UNL     1      -1.760  -3.678   0.706  1.00  0.00    -0.385 N 
ATOM     16  H22 UNL     1      -2.747  -3.923   0.633  1.00  0.00     0.157 HD
ATOM     17  H21 UNL     1      -1.300  -4.435   1.211  1.00  0.00     0.157 HD
BRANCH  11  18
HETATM   18  C2  UNL     1      -0.268   1.187  -2.708  1.00  0.00     0.146 C 
HETATM   19  C1  UNL     1      -1.033   2.316  -3.439  1.00  0.00     0.096 C 
HETATM   20  O1  UNL     1       0.944   1.265  -2.931  1.00  0.00    -0.294 OA
ENDBRANCH  11  18
BRANCH  12  21
HETATM   21  C14 UNL     1       1.629  -0.669  -0.552  1.00  0.00    -0.016 A 
HETATM   22  C15 UNL     1       1.577   0.346   0.412  1.00  0.00     0.012 A 
HETATM   23  C16 UNL     1       2.685   1.088   0.764  1.00  0.00     0.024 A 
HETATM   24  C17 UNL     1       3.890   0.847   0.169  1.00  0.00     0.058 A 
HETATM   25  C19 UNL     1       3.969  -0.133  -0.770  1.00  0.00     0.024 A 
HETATM   26  C20 UNL     1       2.843  -0.896  -1.137  1.00  0.00     0.012 A 
BRANCH  24  27
HETATM   27  S1  UNL     1       5.335   1.767   0.585  1.00  0.00     0.171 S 
HETATM   28  C18 UNL     1       5.489   3.208  -0.455  1.00  0.00     0.167 C 
HETATM   29  O2  UNL     1       5.271   2.186   2.039  1.00  0.00    -0.223 OA
HETATM   30  O3  UNL     1       6.559   0.904   0.426  1.00  0.00    -0.223 OA
ENDBRANCH  24  27
ENDBRANCH  12  21
BRANCH  12  31
HETATM   31  C21 UNL     1       0.793  -2.525  -1.893  1.00  0.00     0.421 C 
HETATM   32  F1  UNL     1       0.998  -2.101  -3.153  1.00  0.00    -0.168 F 
HETATM   33  F2  UNL     1      -0.367  -3.375  -2.019  1.00  0.00    -0.168 F 
HETATM   34  F3  UNL     1       1.730  -3.406  -1.421  1.00  0.00    -0.168 F 
ENDBRANCH  12  31
ENDBRANCH   1   7
TORSDOF 5
