REMARK  7 active torsions:
REMARK  status: ('A' for Active; 'I' for Inactive)
REMARK    1  A    between atoms: C2_2  and  C4_4 
REMARK    2  A    between atoms: C4_4  and  O2_6 
REMARK    3  A    between atoms: O2_6  and  N1_7 
REMARK       I    between atoms: N1_7  and  C5_8 
REMARK    4  A    between atoms: C5_8  and  C6_10 
REMARK    5  A    between atoms: C7_11  and  O4_12 
REMARK    6  A    between atoms: O4_12  and  C8_13 
REMARK    7  A    between atoms: C11_21  and  O5_22 
ROOT
HETATM    1  C6  UNL     1      -1.591  -0.339  -0.197  1.00  0.00     0.135 A 
HETATM    2  C7  UNL     1      -2.996  -0.143  -0.207  1.00  0.00     0.114 A 
HETATM    3  C10 UNL     1      -3.533  -1.183  -1.031  1.00  0.00     0.128 A 
HETATM    4  N2  UNL     1      -2.526  -1.912  -1.453  1.00  0.00    -0.343 N 
ATOM      5  H2  UNL     1      -2.609  -2.727  -2.060  1.00  0.00     0.167 HD
HETATM    6  C11 UNL     1      -1.343  -1.416  -0.957  1.00  0.00     0.160 A 
ENDROOT
BRANCH   1   7
HETATM    7  C5  UNL     1      -0.651   0.528   0.583  1.00  0.00     0.361 C 
HETATM    8  N1  UNL     1       0.679   0.266   0.614  1.00  0.00    -0.227 NA
HETATM    9  O3  UNL     1      -1.237   1.477   1.168  1.00  0.00    -0.248 OA
BRANCH   8  10
HETATM   10  O2  UNL     1       1.947   0.017   0.644  1.00  0.00    -0.118 OA
BRANCH  10  11
HETATM   11  C4  UNL     1       2.888   0.038  -0.344  1.00  0.00     0.324 C 
HETATM   12  O1  UNL     1       2.506   0.334  -1.502  1.00  0.00    -0.256 OA
BRANCH  11  13
HETATM   13  C2  UNL     1       4.303  -0.266  -0.108  1.00  0.00     0.007 C 
HETATM   14  C1  UNL     1       5.145  -0.225  -1.110  1.00  0.00     0.025 C 
HETATM   15  C3  UNL     1       4.803  -0.609   1.245  1.00  0.00     0.054 C 
ENDBRANCH  11  13
ENDBRANCH  10  11
ENDBRANCH   8  10
ENDBRANCH   1   7
BRANCH   2  16
HETATM   16  O4  UNL     1      -3.656   0.793   0.401  1.00  0.00    -0.291 OA
BRANCH  16  17
HETATM   17  C8  UNL     1      -4.304   1.712   0.998  1.00  0.00     0.214 C 
HETATM   18 CL1  UNL     1      -4.390   1.881   2.798  1.00  0.00    -0.051 Cl
HETATM   19  C9  UNL     1      -5.001   2.660   0.360  1.00  0.00     0.312 C 
HETATM   20  F1  UNL     1      -5.064   2.709  -0.948  1.00  0.00    -0.169 F 
HETATM   21  F2  UNL     1      -5.612   3.621   1.109  1.00  0.00    -0.169 F 
ENDBRANCH  16  17
ENDBRANCH   2  16
BRANCH   6  22
HETATM   22  O5  UNL     1      -0.086  -2.007  -1.268  1.00  0.00    -0.345 OA
ATOM     23  H5  UNL     1       0.090  -2.770  -1.806  1.00  0.00     0.219 HD
ENDBRANCH   6  22
TORSDOF 7
