REMARK  7 active torsions:
REMARK  status: ('A' for Active; 'I' for Inactive)
REMARK       I    between atoms: N1_2  and  C2_4 
REMARK    1  A    between atoms: C2_4  and  C3_6 
REMARK    2  A    between atoms: C3_6  and  O2_7 
REMARK    3  A    between atoms: C3_6  and  C4_9 
REMARK    4  A    between atoms: C4_9  and  N2_10 
REMARK    5  A    between atoms: C4_9  and  C9_23 
REMARK    6  A    between atoms: N2_10  and  C5_12 
REMARK       I    between atoms: C9_23  and  N6_25 
REMARK    7  A    between atoms: N6_25  and  N7_27 
ROOT
HETATM    1  C4  UNL     1      -0.487   0.729  -0.295  1.00  0.00     0.231 C 
ENDROOT
BRANCH   1   2
HETATM    2  C3  UNL     1      -1.243  -0.420   0.312  1.00  0.00     0.242 C 
BRANCH   2   3
HETATM    3  C2  UNL     1      -2.334  -0.944  -0.531  1.00  0.00     0.248 C 
HETATM    4  N1  UNL     1      -3.646  -1.055  -0.016  1.00  0.00    -0.363 N 
HETATM    5  C1  UNL     1      -4.757  -1.564  -0.802  1.00  0.00     0.149 C 
ATOM      6  H1  UNL     1      -3.820  -0.766   0.947  1.00  0.00     0.162 HD
HETATM    7  O1  UNL     1      -2.141  -1.307  -1.725  1.00  0.00    -0.271 OA
ENDBRANCH   2   3
BRANCH   2   8
HETATM    8  O2  UNL     1      -1.713  -0.175   1.573  1.00  0.00    -0.384 OA
ATOM      9  H2  UNL     1      -1.010   0.163   2.116  1.00  0.00     0.210 HD
ENDBRANCH   2   8
ENDBRANCH   1   2
BRANCH   1  10
HETATM   10  N2  UNL     1       0.656   0.964   0.566  1.00  0.00    -0.209 N 
ATOM     11  H2  UNL     1       0.552   1.692   1.273  1.00  0.00     0.178 HD
BRANCH  10  12
HETATM   12  C5  UNL     1       1.768   0.362   0.533  1.00  0.00     0.687 A 
HETATM   13  N3  UNL     1       2.732   0.720   1.428  1.00  0.00    -0.141 N 
HETATM   14  C6  UNL     1       3.915   0.081   1.394  1.00  0.00     0.344 A 
ATOM     15  H3  UNL     1       2.559   1.458   2.110  1.00  0.00     0.189 HD
HETATM   16  O3  UNL     1       4.838   0.389   2.214  1.00  0.00    -0.246 OA
HETATM   17  N4  UNL     1       4.183  -0.898   0.513  1.00  0.00    -0.255 N 
HETATM   18  C7  UNL     1       5.471  -1.575   0.496  1.00  0.00     0.166 C 
HETATM   19  C8  UNL     1       3.195  -1.215  -0.352  1.00  0.00     0.344 A 
HETATM   20  O4  UNL     1       3.412  -2.117  -1.180  1.00  0.00    -0.246 OA
HETATM   21  N5  UNL     1       1.996  -0.610  -0.362  1.00  0.00    -0.141 N 
ATOM     22  H5  UNL     1       1.278  -0.883  -1.033  1.00  0.00     0.189 HD
ENDBRANCH  10  12
ENDBRANCH   1  10
BRANCH   1  23
HETATM   23  C9  UNL     1      -1.261   1.979  -0.369  1.00  0.00     0.262 C 
HETATM   24  O5  UNL     1      -0.821   2.960   0.327  1.00  0.00    -0.269 OA
HETATM   25  N6  UNL     1      -2.417   2.209  -1.112  1.00  0.00    -0.275 N 
ATOM     26  H6  UNL     1      -2.806   1.458  -1.682  1.00  0.00     0.189 HD
BRANCH  25  27
HETATM   27  N7  UNL     1      -3.047   3.449  -1.086  1.00  0.00    -0.343 N 
ATOM     28  H72 UNL     1      -2.645   4.189  -0.510  1.00  0.00     0.176 HD
ATOM     29  H71 UNL     1      -3.893   3.617  -1.630  1.00  0.00     0.176 HD
ENDBRANCH  25  27
ENDBRANCH   1  23
TORSDOF 7
