REMARK  9 active torsions:
REMARK  status: ('A' for Active; 'I' for Inactive)
REMARK    1  A    between atoms: N1_1  and  C1_4 
REMARK    2  A    between atoms: C2_7  and  N3_8 
REMARK    3  A    between atoms: N3_8  and  N4_10 
REMARK    4  A    between atoms: C3_15  and  N6_16 
REMARK    5  A    between atoms: N6_16  and  C4_18 
REMARK    6  A    between atoms: C4_18  and  C5_19 
REMARK    7  A    between atoms: C5_19  and  C6_20 
REMARK    8  A    between atoms: C6_20  and  C7_21 
REMARK       I    between atoms: C7_21  and  N7_23 
REMARK    9  A    between atoms: N7_23  and  C8_25 
ROOT
HETATM    1  C1  UNL     1      -4.522   1.815  -0.461  1.00  0.00     0.184 C 
HETATM    2  N2  UNL     1      -4.821   0.635   0.126  1.00  0.00    -0.170 N 
ATOM      3  H2  UNL     1      -5.792   0.552   0.428  1.00  0.00     0.186 HD
HETATM    4  C2  UNL     1      -4.074  -0.441   0.381  1.00  0.00     0.712 C 
HETATM    5  N5  UNL     1      -2.728  -0.516   0.180  1.00  0.00    -0.021 N 
ATOM      6  H5  UNL     1      -2.327  -1.446   0.299  1.00  0.00     0.203 HD
HETATM    7  C3  UNL     1      -1.853   0.435  -0.148  1.00  0.00     0.695 C 
HETATM    8  N12 UNL     1      -2.107   1.645  -0.659  1.00  0.00    -0.153 N 
ATOM      9  H12 UNL     1      -1.283   2.174  -0.943  1.00  0.00     0.187 HD
HETATM   10  C9  UNL     1      -3.299   2.282  -0.859  1.00  0.00     0.303 C 
HETATM   11  O2  UNL     1      -3.281   3.388  -1.456  1.00  0.00    -0.263 OA
ENDROOT
BRANCH   7  12
HETATM   12  N6  UNL     1      -0.630   0.176   0.044  1.00  0.00    -0.225 N 
ATOM     13  H6  UNL     1       0.085   0.866  -0.188  1.00  0.00     0.177 HD
BRANCH  12  14
HETATM   14  C4  UNL     1      -0.254  -1.105   0.595  1.00  0.00     0.138 C 
BRANCH  14  15
HETATM   15  C5  UNL     1       1.223  -1.132   0.942  1.00  0.00     0.029 C 
BRANCH  15  16
HETATM   16  C6  UNL     1       1.984  -0.875  -0.337  1.00  0.00     0.105 C 
BRANCH  16  17
HETATM   17  C7  UNL     1       3.428  -0.894  -0.035  1.00  0.00     0.235 C 
HETATM   18  O1  UNL     1       3.800  -1.102   1.139  1.00  0.00    -0.273 OA
HETATM   19  N7  UNL     1       4.349  -0.678  -1.065  1.00  0.00    -0.158 N 
ATOM     20  H7  UNL     1       4.176  -1.144  -1.956  1.00  0.00     0.187 HD
BRANCH  19  21
HETATM   21  C8  UNL     1       5.399   0.064  -0.975  1.00  0.00     0.710 A 
HETATM   22  N8  UNL     1       6.268   0.252  -1.986  1.00  0.00    -0.117 N 
HETATM   23  N9  UNL     1       7.223   1.069  -1.542  1.00  0.00     0.006 NA
ATOM     24  H8  UNL     1       6.207  -0.155  -2.919  1.00  0.00     0.202 HD
HETATM   25  N10 UNL     1       6.988   1.405  -0.286  1.00  0.00     0.006 NA
HETATM   26  N11 UNL     1       5.871   0.784   0.049  1.00  0.00    -0.117 N 
ATOM     27  H11 UNL     1       5.428   0.845   0.966  1.00  0.00     0.202 HD
ENDBRANCH  19  21
ENDBRANCH  16  17
ENDBRANCH  15  16
ENDBRANCH  14  15
ENDBRANCH  12  14
ENDBRANCH   7  12
BRANCH   4  28
HETATM   28  N3  UNL     1      -4.698  -1.444   0.843  1.00  0.00    -0.138 N 
ATOM     29  H3  UNL     1      -5.704  -1.349   0.980  1.00  0.00     0.205 HD
BRANCH  28  30
HETATM   30  N4  UNL     1      -4.119  -2.662   1.177  1.00  0.00    -0.331 N 
ATOM     31  H42 UNL     1      -3.112  -2.739   1.033  1.00  0.00     0.177 HD
ATOM     32  H41 UNL     1      -4.621  -3.469   1.549  1.00  0.00     0.177 HD
ENDBRANCH  28  30
ENDBRANCH   4  28
BRANCH   1  33
HETATM   33  N1  UNL     1      -5.517   2.608  -0.676  1.00  0.00    -0.381 N 
ATOM     34  H12 UNL     1      -6.429   2.260  -0.379  1.00  0.00     0.157 HD
ATOM     35  H11 UNL     1      -5.291   3.499  -1.119  1.00  0.00     0.157 HD
ENDBRANCH   1  33
TORSDOF 9
