REMARK  3 active torsions:
REMARK  status: ('A' for Active; 'I' for Inactive)
REMARK    1  A    between atoms: C4_4  and  C5_5 
REMARK    2  A    between atoms: N2_18  and  C13_19 
REMARK    3  A    between atoms: C13_19  and  C14_20 
ROOT
HETATM    1  C1  UNL     1      -1.479   4.795   1.771  1.00  0.00     0.017 C 
HETATM    2  C2  UNL     1      -0.935   3.706   1.799  1.00  0.00    -0.090 C 
HETATM    3  C3  UNL     1      -0.289   2.419   1.807  1.00  0.00     0.060 C 
HETATM    4  C4  UNL     1       0.003   1.771   0.697  1.00  0.00    -0.009 C 
ENDROOT
BRANCH   4   5
HETATM    5  C5  UNL     1       0.650   0.481   0.707  1.00  0.00     0.065 C 
HETATM    6  C6  UNL     1       1.966   0.595  -0.117  1.00  0.00     0.166 C 
HETATM    7  O1  UNL     1       3.010  -0.067   0.527  1.00  0.00    -0.347 OA
HETATM    8  C10 UNL     1       1.753  -0.209  -1.370  1.00  0.00     0.179 C 
HETATM    9  C7  UNL     1       3.647  -0.777  -0.496  1.00  0.00     0.158 C 
HETATM   10  C8  UNL     1       4.438   0.133  -1.382  1.00  0.00     0.078 C 
HETATM   11  C9  UNL     1       4.541  -1.857   0.058  1.00  0.00     0.078 C 
HETATM   12  O2  UNL     1       2.555  -1.310  -1.178  1.00  0.00    -0.346 OA
HETATM   13  C11 UNL     1       0.309  -0.540  -1.338  1.00  0.00     0.141 C 
HETATM   14  N1  UNL     1      -0.026  -1.881  -1.750  1.00  0.00    -0.334 N 
HETATM   15  C17 UNL     1       0.105  -0.706   0.160  1.00  0.00     0.124 C 
HETATM   16  C12 UNL     1      -1.020  -2.312  -0.835  1.00  0.00     0.319 C 
ATOM     17  H1  UNL     1       0.367  -2.406  -2.531  1.00  0.00     0.164 HD
HETATM   18  O3  UNL     1      -1.671  -3.411  -0.857  1.00  0.00    -0.247 OA
HETATM   19  N2  UNL     1      -1.180  -1.240   0.177  1.00  0.00    -0.326 N 
BRANCH  19  20
HETATM   20  C13 UNL     1      -2.433  -1.151   0.841  1.00  0.00     0.132 C 
BRANCH  20  21
HETATM   21  C14 UNL     1      -3.556  -0.465   0.144  1.00  0.00    -0.005 C 
HETATM   22  C15 UNL     1      -3.410   0.947  -0.238  1.00  0.00     0.011 C 
HETATM   23  C16 UNL     1      -4.824  -0.557   1.017  1.00  0.00     0.011 C 
ENDBRANCH  20  21
ENDBRANCH  19  20
ENDBRANCH   4   5
TORSDOF 3
