REMARK  8 active torsions:
REMARK  status: ('A' for Active; 'I' for Inactive)
REMARK    1  A    between atoms: C4_4  and  O1_5 
REMARK    2  A    between atoms: C5_7  and  O2_8 
REMARK    3  A    between atoms: C6_10  and  C7_11 
REMARK    4  A    between atoms: C7_11  and  O3_12 
REMARK    5  A    between atoms: N1_14  and  C8_15 
REMARK    6  A    between atoms: C8_15  and  C9_16 
REMARK    7  A    between atoms: N2_17  and  O4_19 
REMARK    8  A    between atoms: N3_21  and  O5_23 
ROOT
HETATM    1  C1  UNL     1       0.029  -0.712  -1.900  1.00  0.00     0.041 C 
HETATM    2  C2  UNL     1      -0.315  -1.135  -0.514  1.00  0.00     0.056 C 
HETATM    3  C3  UNL     1       0.252  -2.489  -0.241  1.00  0.00     0.041 C 
HETATM    4  C4  UNL     1      -1.830  -1.192  -0.310  1.00  0.00     0.176 C 
HETATM    5  C5  UNL     1      -2.111   0.318  -0.355  1.00  0.00     0.174 C 
HETATM    6  C6  UNL     1      -1.027   0.815   0.565  1.00  0.00     0.141 C 
HETATM    7  N1  UNL     1       0.067  -0.136   0.432  1.00  0.00    -0.344 N 
ENDROOT
BRANCH   7   8
HETATM    8  C8  UNL     1       1.294  -0.105   1.142  1.00  0.00     0.141 C 
HETATM    9  N3  UNL     1       1.285  -0.513   2.400  1.00  0.00    -0.252 N 
ATOM     10  H3  UNL     1       0.402  -0.830   2.800  1.00  0.00     0.196 HD
BRANCH   8  11
HETATM   11  C9  UNL     1       2.571   0.330   0.637  1.00  0.00     0.163 C 
HETATM   12  N2  UNL     1       2.731   0.750  -0.559  1.00  0.00    -0.277 N 
ATOM     13  H2  UNL     1       1.931   0.783  -1.190  1.00  0.00     0.193 HD
BRANCH  12  14
HETATM   14  O4  UNL     1       3.962   1.157  -1.008  1.00  0.00    -0.290 OA
ATOM     15  H4  UNL     1       4.081   1.469  -1.897  1.00  0.00     0.244 HD
ENDBRANCH  12  14
ENDBRANCH   8  11
BRANCH   9  16
HETATM   16  O5  UNL     1       2.392  -0.531   3.186  1.00  0.00    -0.288 OA
ATOM     17  H5  UNL     1       2.386  -0.824   4.090  1.00  0.00     0.244 HD
ENDBRANCH   9  16
ENDBRANCH   7   8
BRANCH   6  18
HETATM   18  C7  UNL     1      -0.688   2.217   0.219  1.00  0.00     0.192 C 
BRANCH  18  19
HETATM   19  O3  UNL     1       0.315   2.782   0.993  1.00  0.00    -0.399 OA
ATOM     20  H3  UNL     1       0.532   3.680   0.771  1.00  0.00     0.209 HD
ENDBRANCH  18  19
ENDBRANCH   6  18
BRANCH   4  21
HETATM   21  O1  UNL     1      -2.479  -1.879  -1.302  1.00  0.00    -0.390 OA
ATOM     22  H1  UNL     1      -3.420  -1.914  -1.175  1.00  0.00     0.210 HD
ENDBRANCH   4  21
BRANCH   5  23
HETATM   23  O2  UNL     1      -3.382   0.526   0.146  1.00  0.00    -0.391 OA
ATOM     24  H2  UNL     1      -3.556   1.460   0.118  1.00  0.00     0.210 HD
ENDBRANCH   5  23
TORSDOF 8
