REMARK  1 active torsions:
REMARK  status: ('A' for Active; 'I' for Inactive)
REMARK    1  A    between atoms: O1_1  and  N1_3 
ROOT
HETATM    1  N1  UNL     1      -0.477   0.824   0.654  1.00  0.00    -0.189 NA
HETATM    2  C1  UNL     1      -1.617   1.464   0.014  1.00  0.00     0.121 C 
HETATM    3  C2  UNL     1      -2.788   0.493   0.189  1.00  0.00     0.017 C 
HETATM    4  C3  UNL     1      -2.324  -0.832  -0.367  1.00  0.00     0.003 C 
HETATM    5  C4  UNL     1      -1.009  -0.714  -1.108  1.00  0.00     0.029 C 
HETATM    6  C5  UNL     1       0.090  -0.141  -0.263  1.00  0.00     0.062 C 
HETATM    7  C6  UNL     1       0.852  -1.235   0.422  1.00  0.00     0.031 C 
HETATM    8  C7  UNL     1       2.342  -1.119   0.274  1.00  0.00     0.029 C 
HETATM    9  C8  UNL     1       2.864   0.270   0.391  1.00  0.00     0.232 C 
HETATM   10  N2  UNL     1       1.992   1.284  -0.128  1.00  0.00    -0.073 N 
ATOM     11  H21 UNL     1       2.496   2.083  -0.512  1.00  0.00     0.277 HD
ATOM     12  H22 UNL     1       1.485   1.784   0.602  1.00  0.00     0.277 HD
HETATM   13  C9  UNL     1       1.104   0.646  -1.105  1.00  0.00     0.259 C 
ENDROOT
BRANCH   1  14
HETATM   14  O1  UNL     1      -0.760   0.323   1.858  1.00  0.00    -0.312 OA
ATOM     15  H1  UNL     1      -0.016  -0.095   2.276  1.00  0.00     0.237 HD
ENDBRANCH   1  14
TORSDOF 1
