REMARK  14 active torsions:
REMARK  status: ('A' for Active; 'I' for Inactive)
REMARK    1  A    between atoms: C3_3  and  N1_4 
REMARK    2  A    between atoms: C4_5  and  O1_6 
REMARK    3  A    between atoms: C5_8  and  C6_9 
REMARK    4  A    between atoms: C6_9  and  N2_10 
REMARK    5  A    between atoms: N2_10  and  N3_12 
REMARK       I    between atoms: N3_12  and  C7_14 
REMARK       I    between atoms: C7_14  and  N4_15 
REMARK       I    between atoms: C7_14  and  N6_32 
REMARK    6  A    between atoms: N4_15  and  N5_17 
REMARK    7  A    between atoms: N5_17  and  C8_19 
REMARK    8  A    between atoms: C8_19  and  C9_20 
REMARK    9  A    between atoms: C11_22  and  O2_23 
REMARK   10  A    between atoms: C12_25  and  O3_26 
REMARK   11  A    between atoms: C13_28  and  O4_29 
REMARK   12  A    between atoms: N6_32  and  N7_34 
REMARK   13  A    between atoms: N7_34  and  C16_36 
REMARK   14  A    between atoms: N10_44  and  N11_45 
ROOT
HETATM    1  C1  UNL     1      -3.032  -7.177   0.130  1.00  0.00     0.014 C 
HETATM    2  C2  UNL     1      -3.821  -6.419  -0.377  1.00  0.00    -0.097 C 
HETATM    3  C3  UNL     1      -4.782  -5.470  -0.986  1.00  0.00     0.228 C 
ENDROOT
BRANCH   3   4
HETATM    4  N1  UNL     1      -4.424  -4.125  -0.578  1.00  0.00    -0.265 N 
HETATM    5  C4  UNL     1      -3.570  -3.295  -1.246  1.00  0.00     0.178 A 
HETATM    6  C5  UNL     1      -3.486  -2.109  -0.549  1.00  0.00     0.128 A 
HETATM    7  N10 UNL     1      -4.277  -2.209   0.532  1.00  0.00    -0.206 N 
HETATM    8  C19 UNL     1      -4.838  -3.435   0.499  1.00  0.00     0.350 A 
HETATM    9  O5  UNL     1      -5.642  -3.845   1.385  1.00  0.00    -0.244 OA
BRANCH   5  10
HETATM   10  O1  UNL     1      -2.921  -3.640  -2.427  1.00  0.00    -0.344 OA
ATOM     11  H1  UNL     1      -2.327  -3.063  -2.892  1.00  0.00     0.219 HD
ENDBRANCH   5  10
BRANCH   6  12
HETATM   12  C6  UNL     1      -2.660  -0.962  -0.957  1.00  0.00     0.143 C 
BRANCH  12  13
HETATM   13  N2  UNL     1      -2.676   0.084  -0.211  1.00  0.00    -0.295 N 
ATOM     14  H2  UNL     1      -3.244   0.114   0.636  1.00  0.00     0.186 HD
BRANCH  13  15
HETATM   15  N3  UNL     1      -1.897   1.178  -0.588  1.00  0.00    -0.130 N 
HETATM   16  C7  UNL     1      -0.683   1.302  -0.212  1.00  0.00     0.726 C 
HETATM   17  N4  UNL     1      -0.118   0.291   0.613  1.00  0.00    -0.130 N 
HETATM   18  N6  UNL     1       0.081   2.425  -0.611  1.00  0.00    -0.127 N 
ATOM     19  H4  UNL     1      -0.332  -0.686   0.414  1.00  0.00     0.205 HD
ATOM     20  H6  UNL     1       0.590   2.399  -1.495  1.00  0.00     0.205 HD
ATOM     21  H3  UNL     1      -2.309   1.899  -1.181  1.00  0.00     0.205 HD
BRANCH  17  22
HETATM   22  N5  UNL     1       0.698   0.588   1.658  1.00  0.00    -0.297 N 
ATOM     23  H5  UNL     1       0.201   1.007   2.444  1.00  0.00     0.186 HD
BRANCH  22  24
HETATM   24  C8  UNL     1       1.928   0.460   1.869  1.00  0.00     0.119 C 
BRANCH  24  25
HETATM   25  C9  UNL     1       2.968  -0.079   1.026  1.00  0.00    -0.014 A 
HETATM   26  C10 UNL     1       2.770  -0.575  -0.236  1.00  0.00     0.052 A 
HETATM   27  C11 UNL     1       3.818  -1.085  -1.009  1.00  0.00     0.102 A 
HETATM   28  C12 UNL     1       5.096  -1.101  -0.511  1.00  0.00     0.132 A 
HETATM   29  C13 UNL     1       5.328  -0.612   0.746  1.00  0.00     0.104 A 
HETATM   30  C15 UNL     1       4.281  -0.117   1.483  1.00  0.00     0.052 A 
BRANCH  27  31
HETATM   31  O2  UNL     1       3.611  -1.587  -2.286  1.00  0.00    -0.358 OA
ATOM     32  H2  UNL     1       4.323  -1.933  -2.811  1.00  0.00     0.217 HD
ENDBRANCH  27  31
BRANCH  28  33
HETATM   33  O3  UNL     1       6.162  -1.608  -1.269  1.00  0.00    -0.356 OA
ATOM     34  H3  UNL     1       7.047  -1.619  -0.924  1.00  0.00     0.218 HD
ENDBRANCH  28  33
BRANCH  29  35
HETATM   35  O4  UNL     1       6.612  -0.628   1.244  1.00  0.00    -0.353 OA
HETATM   36  C14 UNL     1       6.892  -0.126   2.554  1.00  0.00     0.210 C 
ENDBRANCH  29  35
ENDBRANCH  24  25
ENDBRANCH  22  24
ENDBRANCH  17  22
BRANCH  18  37
HETATM   37  N7  UNL     1       0.148   3.568   0.188  1.00  0.00    -0.264 N 
ATOM     38  H7  UNL     1       0.455   3.510   1.159  1.00  0.00     0.189 HD
BRANCH  37  39
HETATM   39  C16 UNL     1      -0.193   4.716  -0.342  1.00  0.00     0.180 A 
HETATM   40  N8  UNL     1      -0.614   4.958  -1.588  1.00  0.00    -0.278 N 
HETATM   41  N9  UNL     1      -0.900   6.149  -1.916  1.00  0.00    -0.296 N 
ATOM     42  H8  UNL     1      -0.703   4.198  -2.262  1.00  0.00     0.189 HD
HETATM   43  C17 UNL     1      -0.782   7.131  -1.034  1.00  0.00     0.066 A 
ATOM     44  H9  UNL     1      -1.222   6.352  -2.862  1.00  0.00     0.187 HD
HETATM   45  C18 UNL     1      -1.068   8.594  -1.223  1.00  0.00     0.078 C 
HETATM   46  S1  UNL     1      -0.228   6.283   0.341  1.00  0.00    -0.037 SA
ENDBRANCH  37  39
ENDBRANCH  18  37
ENDBRANCH  13  15
ENDBRANCH  12  13
ENDBRANCH   6  12
BRANCH   7  47
HETATM   47  N11 UNL     1      -4.451  -1.202   1.479  1.00  0.00    -0.334 N 
ATOM     48 2H11 UNL     1      -4.027  -0.275   1.504  1.00  0.00     0.177 HD
ATOM     49 1H11 UNL     1      -5.052  -1.278   2.300  1.00  0.00     0.177 HD
ENDBRANCH   7  47
ENDBRANCH   3   4
TORSDOF 14
