REMARK  12 active torsions:
REMARK  status: ('A' for Active; 'I' for Inactive)
REMARK    1  A    between atoms: N1_2  and  C1_4 
REMARK    2  A    between atoms: C4_7  and  N2_8 
REMARK    3  A    between atoms: C8_14  and  O4_15 
REMARK    4  A    between atoms: C9_17  and  N4_18 
REMARK    5  A    between atoms: N4_18  and  C10_20 
REMARK    6  A    between atoms: C10_20  and  C11_21 
REMARK    7  A    between atoms: C11_21  and  S1_22 
REMARK    8  A    between atoms: S1_22  and  S2_23 
REMARK    9  A    between atoms: S2_23  and  C12_24 
REMARK   10  A    between atoms: C14_29  and  O5_30 
REMARK   11  A    between atoms: C15_32  and  C16_33 
REMARK   12  A    between atoms: C16_33  and  O6_34 
ROOT
HETATM    1  N4  UNL     1      -1.012   1.616   0.799  1.00  0.00    -0.385 N 
ATOM      2  H4  UNL     1      -0.867   2.437   1.387  1.00  0.00     0.159 HD
ENDROOT
BRANCH   1   3
HETATM    3  C9  UNL     1      -2.146   0.764   1.027  1.00  0.00     0.097 A 
HETATM    4  C1  UNL     1      -2.215  -0.034   2.104  1.00  0.00     0.132 A 
HETATM    5  C2  UNL     1      -3.320  -0.898   2.211  1.00  0.00     0.041 A 
HETATM    6  C3  UNL     1      -4.282  -0.904   1.238  1.00  0.00     0.036 A 
HETATM    7  C4  UNL     1      -4.230  -0.076   0.108  1.00  0.00     0.083 A 
HETATM    8  C8  UNL     1      -3.140   0.754   0.030  1.00  0.00     0.122 A 
BRANCH   4   9
HETATM    9  N1  UNL     1      -1.291  -0.059   3.194  1.00  0.00    -0.113 N 
HETATM   10  O1  UNL     1      -0.687   0.968   3.586  1.00  0.00    -0.532 OA
HETATM   11  O2  UNL     1      -1.106  -1.259   3.832  1.00  0.00    -0.532 OA
ENDBRANCH   4   9
BRANCH   7  12
HETATM   12  N2  UNL     1      -5.266  -0.123  -0.848  1.00  0.00    -0.289 N 
HETATM   13  C5  UNL     1      -6.148   1.016  -1.110  1.00  0.00     0.171 C 
HETATM   14  C6  UNL     1      -7.597   0.531  -1.144  1.00  0.00     0.191 C 
HETATM   15  O3  UNL     1      -7.637  -0.851  -0.983  1.00  0.00    -0.372 OA
HETATM   16  C7  UNL     1      -6.858  -1.431  -1.972  1.00  0.00     0.302 C 
HETATM   17  N3  UNL     1      -5.459  -1.325  -1.570  1.00  0.00    -0.112 NA
ENDBRANCH   7  12
BRANCH   8  18
HETATM   18  O4  UNL     1      -3.004   1.609  -1.055  1.00  0.00    -0.356 OA
ATOM     19  H4  UNL     1      -2.249   2.184  -1.109  1.00  0.00     0.218 HD
ENDBRANCH   8  18
ENDBRANCH   1   3
BRANCH   1  20
HETATM   20  C10 UNL     1      -0.086   1.318  -0.248  1.00  0.00     0.131 C 
BRANCH  20  21
HETATM   21  C11 UNL     1       0.766   0.106  -0.130  1.00  0.00     0.105 C 
BRANCH  21  22
HETATM   22  S1  UNL     1       1.910   0.199   1.242  1.00  0.00    -0.092 SA
BRANCH  22  23
HETATM   23  S2  UNL     1       3.367   1.746   0.931  1.00  0.00    -0.037 SA
BRANCH  23  24
HETATM   24  C12 UNL     1       4.759   0.962   0.068  1.00  0.00     0.396 C 
HETATM   25  N5  UNL     1       4.290   0.562  -1.225  1.00  0.00    -0.036 N 
HETATM   26  C13 UNL     1       5.109  -0.470  -1.827  1.00  0.00     0.270 C 
ATOM     27  H52 UNL     1       3.312   0.275  -1.186  1.00  0.00     0.281 HD
ATOM     28  H51 UNL     1       4.202   1.366  -1.846  1.00  0.00     0.281 HD
HETATM   29  C14 UNL     1       6.454  -0.510  -1.137  1.00  0.00     0.175 C 
HETATM   30  C15 UNL     1       6.197  -0.833   0.315  1.00  0.00     0.178 C 
HETATM   31  O7  UNL     1       5.168  -0.101   0.864  1.00  0.00    -0.341 OA
BRANCH  29  32
HETATM   32  O5  UNL     1       7.179  -1.569  -1.675  1.00  0.00    -0.391 OA
ATOM     33  H5  UNL     1       8.024  -1.594  -1.242  1.00  0.00     0.210 HD
ENDBRANCH  29  32
BRANCH  30  34
HETATM   34  C16 UNL     1       7.494  -0.687   1.075  1.00  0.00     0.198 C 
BRANCH  34  35
HETATM   35  O6  UNL     1       7.406  -1.098   2.384  1.00  0.00    -0.398 OA
ATOM     36  H6  UNL     1       8.222  -1.006   2.862  1.00  0.00     0.209 HD
ENDBRANCH  34  35
ENDBRANCH  30  34
ENDBRANCH  23  24
ENDBRANCH  22  23
ENDBRANCH  21  22
ENDBRANCH  20  21
ENDBRANCH   1  20
TORSDOF 12
