REMARK  8 active torsions:
REMARK  status: ('A' for Active; 'I' for Inactive)
REMARK    1  A    between atoms: N3_4  and  C2_6 
REMARK    2  A    between atoms: C2_6  and  C3_7 
REMARK    3  A    between atoms: C3_7  and  C4_8 
REMARK    4  A    between atoms: C4_8  and  N4_9 
REMARK       I    between atoms: C5_11  and  N6_13 
REMARK    5  A    between atoms: N6_13  and  C6_15 
REMARK    6  A    between atoms: N10_27  and  C10_29 
REMARK    7  A    between atoms: C10_29  and  C11_30 
REMARK    8  A    between atoms: C11_30  and  O3_31 
ROOT
HETATM    1  C6  UNL     1      -2.065   0.661   0.227  1.00  0.00     0.156 C 
HETATM    2  N7  UNL     1      -1.247   1.415   1.004  1.00  0.00    -0.291 N 
ATOM      3  H7  UNL     1      -0.413   0.941   1.352  1.00  0.00     0.172 HD
HETATM    4  C7  UNL     1      -1.380   2.689   1.377  1.00  0.00     0.329 C 
HETATM    5  O1  UNL     1      -0.499   3.058   2.195  1.00  0.00    -0.246 OA
HETATM    6  N8  UNL     1      -2.312   3.558   0.981  1.00  0.00    -0.260 N 
ATOM      7  H8  UNL     1      -2.112   4.540   1.171  1.00  0.00     0.175 HD
HETATM    8  C8  UNL     1      -3.498   3.304   0.355  1.00  0.00     0.329 C 
HETATM    9  O2  UNL     1      -4.265   4.279   0.290  1.00  0.00    -0.246 OA
HETATM   10  N9  UNL     1      -3.951   2.166  -0.198  1.00  0.00    -0.291 N 
ATOM     11  H9  UNL     1      -4.787   2.233  -0.778  1.00  0.00     0.172 HD
HETATM   12  C9  UNL     1      -3.390   0.924  -0.052  1.00  0.00     0.150 C 
HETATM   13  N10 UNL     1      -4.207  -0.031  -0.192  1.00  0.00    -0.371 N 
ATOM     14  H10 UNL     1      -5.160   0.268  -0.397  1.00  0.00     0.161 HD
ENDROOT
BRANCH   1  15
HETATM   15  N6  UNL     1      -1.611  -0.387  -0.314  1.00  0.00    -0.314 N 
HETATM   16  C5  UNL     1      -0.337  -0.932  -0.244  1.00  0.00     0.189 C 
HETATM   17  N4  UNL     1       0.639  -0.458  -0.931  1.00  0.00    -0.364 N 
HETATM   18  N5  UNL     1      -0.105  -2.035   0.602  1.00  0.00    -0.063 NA
ATOM     19  H4  UNL     1       0.447   0.341  -1.536  1.00  0.00     0.162 HD
ATOM     20  H6  UNL     1      -2.277  -0.907  -0.885  1.00  0.00     0.170 HD
BRANCH  17  21
HETATM   21  C4  UNL     1       1.973  -0.967  -0.910  1.00  0.00     0.124 C 
BRANCH  21  22
HETATM   22  C3  UNL     1       2.733  -0.585   0.339  1.00  0.00     0.039 C 
BRANCH  22  23
HETATM   23  C2  UNL     1       4.119  -1.193   0.214  1.00  0.00     0.123 C 
BRANCH  23  24
HETATM   24  N3  UNL     1       4.728  -0.638  -0.973  1.00  0.00    -0.367 N 
HETATM   25  C1  UNL     1       5.785   0.085  -0.891  1.00  0.00     0.196 C 
HETATM   26  N1  UNL     1       6.369   0.623  -2.082  1.00  0.00    -0.067 NA
HETATM   27  N2  UNL     1       6.338   0.325   0.392  1.00  0.00    -0.067 NA
ATOM     28  H3  UNL     1       4.313  -0.823  -1.886  1.00  0.00     0.161 HD
ENDBRANCH  23  24
ENDBRANCH  22  23
ENDBRANCH  21  22
ENDBRANCH  17  21
ENDBRANCH   1  15
BRANCH  13  29
HETATM   29  C10 UNL     1      -4.052  -1.431  -0.119  1.00  0.00     0.147 C 
BRANCH  29  30
HETATM   30  C11 UNL     1      -5.465  -2.038  -0.010  1.00  0.00     0.183 C 
BRANCH  30  31
HETATM   31  O3  UNL     1      -6.056  -1.529   1.145  1.00  0.00    -0.399 OA
ATOM     32  H3  UNL     1      -6.927  -1.903   1.212  1.00  0.00     0.209 HD
ENDBRANCH  30  31
ENDBRANCH  29  30
ENDBRANCH  13  29
TORSDOF 8
