REMARK  5 active torsions:
REMARK  status: ('A' for Active; 'I' for Inactive)
REMARK    1  A    between atoms: C3_7  and  C4_8 
REMARK    2  A    between atoms: C7_15  and  C8_16 
REMARK    3  A    between atoms: C8_16  and  C9_17 
REMARK    4  A    between atoms: C9_17  and  C10_18 
REMARK    5  A    between atoms: C22_30  and  C23_31 
ROOT
HETATM    1  C4  UNL     1       0.769  -1.071   0.735  1.00  0.00     0.060 C 
HETATM    2  C5  UNL     1       0.404  -2.253   0.122  1.00  0.00     0.260 C 
HETATM    3  O3  UNL     1       0.928  -3.296   0.614  1.00  0.00    -0.267 OA
HETATM    4  N2  UNL     1      -0.435  -2.472  -0.931  1.00  0.00    -0.288 N 
ATOM      5  H2  UNL     1      -0.177  -3.216  -1.580  1.00  0.00     0.172 HD
HETATM    6  C6  UNL     1      -1.578  -1.797  -1.198  1.00  0.00     0.267 C 
HETATM    7  O4  UNL     1      -2.357  -2.268  -2.056  1.00  0.00    -0.266 OA
HETATM    8  C7  UNL     1      -2.015  -0.607  -0.622  1.00  0.00     0.097 C 
HETATM    9  C16 UNL     1      -1.183   0.325  -0.019  1.00  0.00    -0.001 A 
HETATM   10  C17 UNL     1      -1.771   1.566  -0.096  1.00  0.00     0.014 A 
HETATM   11  C18 UNL     1      -1.088   2.633   0.448  1.00  0.00     0.001 A 
HETATM   12  C19 UNL     1       0.140   2.442   1.042  1.00  0.00     0.001 A 
HETATM   13  C20 UNL     1       0.745   1.180   1.124  1.00  0.00     0.013 A 
HETATM   14  C21 UNL     1       0.068   0.118   0.585  1.00  0.00    -0.007 A 
ENDROOT
BRANCH   1  15
HETATM   15  C3  UNL     1       1.944  -1.038   1.584  1.00  0.00     0.065 A 
HETATM   16  C2  UNL     1       1.756  -1.068   3.065  1.00  0.00     0.260 A 
HETATM   17  N1  UNL     1       3.034  -1.069   3.680  1.00  0.00    -0.289 N 
HETATM   18  O2  UNL     1       0.655  -1.089   3.678  1.00  0.00    -0.267 OA
HETATM   19  C1  UNL     1       3.954  -1.040   2.609  1.00  0.00     0.260 A 
ATOM     20  H1  UNL     1       3.243  -1.087   4.678  1.00  0.00     0.172 HD
HETATM   21  O1  UNL     1       5.192  -1.034   2.705  1.00  0.00    -0.267 OA
HETATM   22  C22 UNL     1       3.213  -1.021   1.310  1.00  0.00     0.061 A 
BRANCH  22  23
HETATM   23  C23 UNL     1       3.837  -0.993   0.006  1.00  0.00     0.009 A 
HETATM   24  C24 UNL     1       3.723  -1.813  -1.069  1.00  0.00     0.101 A 
HETATM   25  N3  UNL     1       4.488  -1.366  -2.097  1.00  0.00    -0.364 N 
HETATM   26  C25 UNL     1       5.118  -0.242  -1.714  1.00  0.00     0.043 A 
ATOM     27  H3  UNL     1       4.571  -1.810  -3.011  1.00  0.00     0.165 HD
HETATM   28  C26 UNL     1       5.990   0.575  -2.402  1.00  0.00     0.030 A 
HETATM   29  C30 UNL     1       4.727   0.009  -0.408  1.00  0.00     0.003 A 
HETATM   30  C27 UNL     1       6.507   1.695  -1.786  1.00  0.00     0.002 A 
HETATM   31  C28 UNL     1       6.146   1.986  -0.488  1.00  0.00     0.001 A 
HETATM   32  C29 UNL     1       5.266   1.137   0.169  1.00  0.00     0.014 A 
ENDBRANCH  22  23
ENDBRANCH   1  15
BRANCH   8  33
HETATM   33  C8  UNL     1      -3.423  -0.327  -0.650  1.00  0.00    -0.055 C 
BRANCH  33  34
HETATM   34  C9  UNL     1      -4.610  -0.116  -0.662  1.00  0.00    -0.061 C 
BRANCH  34  35
HETATM   35  C10 UNL     1      -6.025   0.137  -0.648  1.00  0.00     0.018 A 
HETATM   36  C11 UNL     1      -6.639   0.965  -1.567  1.00  0.00     0.020 A 
HETATM   37  C12 UNL     1      -7.989   1.214  -1.561  1.00  0.00     0.001 A 
HETATM   38  C13 UNL     1      -8.760   0.610  -0.596  1.00  0.00     0.000 A 
HETATM   39  C14 UNL     1      -8.201  -0.226   0.347  1.00  0.00     0.001 A 
HETATM   40  C15 UNL     1      -6.841  -0.450   0.306  1.00  0.00     0.020 A 
ENDBRANCH  34  35
ENDBRANCH  33  34
ENDBRANCH   8  33
TORSDOF 5
