REMARK  8 active torsions:
REMARK  status: ('A' for Active; 'I' for Inactive)
REMARK    1  A    between atoms: N2_6  and  C5_7 
REMARK    2  A    between atoms: C5_7  and  C6_8 
REMARK    3  A    between atoms: C6_8  and  N3_9 
REMARK    4  A    between atoms: N3_9  and  C7_11 
REMARK    5  A    between atoms: C7_11  and  C8_13 
REMARK    6  A    between atoms: N6_20  and  C11_21 
REMARK    7  A    between atoms: C13_23  and  C14_24 
REMARK    8  A    between atoms: C14_24  and  N7_25 
ROOT
HETATM    1  C8  UNL     1       1.277  -0.829  -1.133  1.00  0.00     0.146 A 
HETATM    2  N4  UNL     1       1.574  -1.842  -1.981  1.00  0.00    -0.336 N 
ATOM      3  H4  UNL     1       0.889  -2.359  -2.532  1.00  0.00     0.168 HD
HETATM    4  C9  UNL     1       2.878  -2.066  -1.994  1.00  0.00     0.097 A 
HETATM    5  C10 UNL     1       3.915  -2.818  -2.509  1.00  0.00     0.141 A 
HETATM    6  N5  UNL     1       5.078  -2.401  -1.980  1.00  0.00    -0.301 N 
ATOM      7  H5  UNL     1       6.003  -2.780  -2.183  1.00  0.00     0.186 HD
HETATM    8  N6  UNL     1       4.803  -1.405  -1.145  1.00  0.00    -0.234 N 
HETATM    9  C17 UNL     1       3.459  -1.171  -1.127  1.00  0.00     0.157 A 
HETATM   10  N10 UNL     1       2.472  -0.425  -0.612  1.00  0.00    -0.323 N 
ATOM     11  H10 UNL     1       2.595   0.328   0.065  1.00  0.00     0.169 HD
ENDROOT
BRANCH   8  12
HETATM   12  C11 UNL     1       5.720  -0.666  -0.370  1.00  0.00     0.102 A 
HETATM   13  C12 UNL     1       6.183   0.562  -0.779  1.00  0.00     0.045 A 
HETATM   14  C13 UNL     1       7.090   1.284   0.009  1.00  0.00    -0.015 A 
HETATM   15  C15 UNL     1       7.509   0.736   1.203  1.00  0.00     0.098 A 
HETATM   16  N8  UNL     1       7.040  -0.469   1.580  1.00  0.00    -0.350 N 
HETATM   17  C16 UNL     1       6.167  -1.168   0.825  1.00  0.00     0.128 A 
ATOM     18  H8  UNL     1       7.355  -0.866   2.465  1.00  0.00     0.166 HD
HETATM   19  N9  UNL     1       5.746  -2.308   1.221  1.00  0.00    -0.384 N 
ATOM     20  H92 UNL     1       5.086  -2.836   0.650  1.00  0.00     0.157 HD
ATOM     21  H91 UNL     1       6.079  -2.681   2.110  1.00  0.00     0.157 HD
BRANCH  14  22
HETATM   22  C14 UNL     1       7.579   2.592  -0.436  1.00  0.00     0.269 C 
BRANCH  22  23
HETATM   23  N7  UNL     1       8.430   3.158   0.593  1.00  0.00    -0.075 N 
ATOM     24  H73 UNL     1       7.963   3.207   1.498  1.00  0.00     0.274 HD
ATOM     25  H72 UNL     1       9.189   2.530   0.856  1.00  0.00     0.274 HD
ATOM     26  H71 UNL     1       8.770   4.068   0.283  1.00  0.00     0.274 HD
ENDBRANCH  22  23
ENDBRANCH  14  22
ENDBRANCH   8  12
BRANCH   1  27
HETATM   27  C7  UNL     1      -0.021  -0.262  -0.817  1.00  0.00     0.141 C 
HETATM   28  S1  UNL     1      -0.154   1.342  -0.633  1.00  0.00    -0.057 SA
BRANCH  27  29
HETATM   29  N3  UNL     1      -1.151  -1.088  -0.670  1.00  0.00    -0.376 N 
ATOM     30  H3  UNL     1      -1.077  -2.099  -0.783  1.00  0.00     0.160 HD
BRANCH  29  31
HETATM   31  C6  UNL     1      -2.425  -0.466  -0.353  1.00  0.00     0.151 C 
BRANCH  31  32
HETATM   32  C5  UNL     1      -3.469  -1.533  -0.251  1.00  0.00     0.292 C 
BRANCH  32  33
HETATM   33  N2  UNL     1      -4.770  -1.025   0.060  1.00  0.00     0.091 N 
HETATM   34  C4  UNL     1      -5.266  -0.265  -1.043  1.00  0.00     0.274 C 
HETATM   35  C3  UNL     1      -6.756  -0.405  -1.238  1.00  0.00     0.060 C 
HETATM   36  C2  UNL     1      -7.514   0.359  -0.175  1.00  0.00     0.273 C 
HETATM   37  N1  UNL     1      -6.562   1.038   0.649  1.00  0.00     0.086 N 
HETATM   38  C1  UNL     1      -6.979   2.343   1.067  1.00  0.00     0.309 C 
HETATM   39  C19 UNL     1      -6.124   0.186   1.706  1.00  0.00     0.302 C 
HETATM   40  C18 UNL     1      -4.741  -0.337   1.310  1.00  0.00     0.302 C 
ENDBRANCH  32  33
ENDBRANCH  31  32
ENDBRANCH  29  31
ENDBRANCH  27  29
ENDBRANCH   1  27
TORSDOF 8
