REMARK  9 active torsions:
REMARK  status: ('A' for Active; 'I' for Inactive)
REMARK    1  A    between atoms: C2_2  and  C3_3 
REMARK    2  A    between atoms: C3_3  and  C4_4 
REMARK    3  A    between atoms: C4_4  and  N1_5 
REMARK    4  A    between atoms: C6_10  and  N4_11 
REMARK    5  A    between atoms: C9_14  and  N5_15 
REMARK    6  A    between atoms: N5_15  and  C10_17 
REMARK    7  A    between atoms: C11_20  and  N7_21 
REMARK    8  A    between atoms: C12_26  and  N9_27 
REMARK    9  A    between atoms: N9_27  and  C13_29 
ROOT
HETATM    1  N4  UNL     1       1.368  -0.206  -1.093  1.00  0.00    -0.365 N 
HETATM    2  C7  UNL     1       0.289  -0.601  -2.018  1.00  0.00     0.126 C 
HETATM    3  C8  UNL     1      -0.847  -1.248  -1.261  1.00  0.00     0.045 C 
HETATM    4  C9  UNL     1      -1.121  -0.537   0.047  1.00  0.00     0.102 C 
HETATM    5  C16 UNL     1      -0.581   0.870  -0.095  1.00  0.00     0.045 C 
HETATM    6  C17 UNL     1       0.958   0.707  -0.083  1.00  0.00     0.126 C 
ENDROOT
BRANCH   4   7
HETATM    7  N5  UNL     1      -2.405  -0.662   0.574  1.00  0.00    -0.220 N 
ATOM      8  H5  UNL     1      -2.412  -1.198   1.442  1.00  0.00     0.178 HD
BRANCH   7   9
HETATM    9  C10 UNL     1      -3.558  -0.279   0.247  1.00  0.00     0.707 A 
HETATM   10  N6  UNL     1      -3.826   0.438  -0.844  1.00  0.00    -0.022 N 
HETATM   11  C11 UNL     1      -5.080   0.819  -1.142  1.00  0.00     0.705 A 
ATOM     12  H6  UNL     1      -3.063   0.703  -1.466  1.00  0.00     0.203 HD
HETATM   13  N8  UNL     1      -6.100   0.494  -0.359  1.00  0.00    -0.022 N 
HETATM   14  C12 UNL     1      -5.890  -0.224   0.749  1.00  0.00     0.707 A 
ATOM     15  H8  UNL     1      -7.045   0.792  -0.602  1.00  0.00     0.203 HD
HETATM   16  N10 UNL     1      -4.641  -0.593   1.028  1.00  0.00    -0.021 N 
ATOM     17  H10 UNL     1      -4.480  -1.142   1.873  1.00  0.00     0.203 HD
BRANCH  11  18
HETATM   18  N7  UNL     1      -5.315   1.519  -2.212  1.00  0.00    -0.234 N 
ATOM     19  H72 UNL     1      -4.531   1.769  -2.814  1.00  0.00     0.174 HD
ATOM     20  H71 UNL     1      -6.267   1.808  -2.438  1.00  0.00     0.174 HD
ENDBRANCH  11  18
BRANCH  14  21
HETATM   21  N9  UNL     1      -6.877  -0.558   1.537  1.00  0.00    -0.221 N 
ATOM     22  H9  UNL     1      -6.692  -1.107   2.376  1.00  0.00     0.178 HD
BRANCH  21  23
HETATM   23  C13 UNL     1      -8.217  -0.157   1.229  1.00  0.00     0.091 C 
HETATM   24  C14 UNL     1      -9.230  -0.968   2.046  1.00  0.00     0.032 C 
HETATM   25  C15 UNL     1      -8.488   1.305   1.556  1.00  0.00     0.032 C 
ENDBRANCH  21  23
ENDBRANCH  14  21
ENDBRANCH   7   9
ENDBRANCH   4   7
BRANCH   1  26
HETATM   26  C6  UNL     1       2.638  -0.772  -1.314  1.00  0.00     0.136 A 
HETATM   27  C5  UNL     1       3.724  -0.470  -0.532  1.00  0.00     0.135 A 
HETATM   28  N3  UNL     1       3.928   0.376   0.580  1.00  0.00    -0.277 N 
HETATM   29  C19 UNL     1       4.934  -1.075  -0.813  1.00  0.00     0.153 A 
HETATM   30  N2  UNL     1       5.100  -0.049   1.229  1.00  0.00    -0.018 NA
ATOM     31  H3  UNL     1       3.332   1.155   0.861  1.00  0.00     0.184 HD
HETATM   32  N1  UNL     1       5.863  -0.564   0.165  1.00  0.00    -0.258 N 
HETATM   33  N12 UNL     1       5.083  -1.947  -1.825  1.00  0.00    -0.336 N 
HETATM   34  C18 UNL     1       4.019  -2.239  -2.587  1.00  0.00     0.183 A 
ATOM     35  H12 UNL     1       5.989  -2.379  -2.010  1.00  0.00     0.168 HD
HETATM   36  N11 UNL     1       2.850  -1.661  -2.323  1.00  0.00    -0.337 N 
ATOM     37  H11 UNL     1       2.057  -1.901  -2.918  1.00  0.00     0.168 HD
BRANCH  32  38
HETATM   38  C4  UNL     1       7.275  -0.616  -0.005  1.00  0.00     0.148 C 
BRANCH  38  39
HETATM   39  C3  UNL     1       7.971   0.712  -0.098  1.00  0.00     0.021 C 
BRANCH  39  40
HETATM   40  C2  UNL     1       7.792   1.557   1.133  1.00  0.00    -0.003 C 
HETATM   41  C1  UNL     1       8.331   0.824   2.340  1.00  0.00     0.005 C 
ENDBRANCH  39  40
ENDBRANCH  38  39
ENDBRANCH  32  38
ENDBRANCH   1  26
TORSDOF 9
