REMARK  4 active torsions:
REMARK  status: ('A' for Active; 'I' for Inactive)
REMARK    1  A    between atoms: N1_1  and  N2_4 
REMARK    2  A    between atoms: C1_6  and  N3_7 
REMARK    3  A    between atoms: C1_6  and  C3_16 
REMARK       I    between atoms: C2_9  and  N5_11 
REMARK    4  A    between atoms: N5_11  and  N6_13 
ROOT
HETATM    1  N2  UNL     1       1.424  -0.292   1.134  1.00  0.00    -0.288 N 
ATOM      2  H2  UNL     1       2.303  -0.805   1.199  1.00  0.00     0.188 HD
HETATM    3  C1  UNL     1       1.219   0.415   0.098  1.00  0.00     0.188 C 
ENDROOT
BRANCH   3   4
HETATM    4  N3  UNL     1       0.021   1.137  -0.028  1.00  0.00    -0.310 N 
HETATM    5  C2  UNL     1      -1.131   0.653  -0.245  1.00  0.00     0.208 C 
HETATM    6  N4  UNL     1      -2.251   1.503  -0.348  1.00  0.00    -0.062 NA
HETATM    7  N5  UNL     1      -1.292  -0.740  -0.383  1.00  0.00    -0.280 N 
ATOM      8  H5  UNL     1      -0.493  -1.289  -0.702  1.00  0.00     0.189 HD
ATOM      9  H3  UNL     1       0.084   2.151   0.064  1.00  0.00     0.170 HD
BRANCH   7  10
HETATM   10  N6  UNL     1      -2.487  -1.411  -0.107  1.00  0.00    -0.343 N 
ATOM     11  H62 UNL     1      -3.275  -0.847   0.210  1.00  0.00     0.176 HD
ATOM     12  H61 UNL     1      -2.604  -2.419  -0.207  1.00  0.00     0.176 HD
ENDBRANCH   7  10
ENDBRANCH   3   4
BRANCH   3  13
HETATM   13  C3  UNL     1       2.205   0.483  -0.949  1.00  0.00     0.300 C 
HETATM   14  N7  UNL     1       3.431  -0.255  -0.821  1.00  0.00    -0.054 NA
HETATM   15  O1  UNL     1       2.050   1.168  -1.992  1.00  0.00    -0.268 OA
ENDBRANCH   3  13
BRANCH   1  16
HETATM   16  N1  UNL     1       0.520  -0.407   2.184  1.00  0.00    -0.343 N 
ATOM     17  H12 UNL     1      -0.354   0.113   2.102  1.00  0.00     0.176 HD
ATOM     18  H11 UNL     1       0.685  -0.974   3.015  1.00  0.00     0.176 HD
ENDBRANCH   1  16
TORSDOF 4
