REMARK  2 active torsions:
REMARK  status: ('A' for Active; 'I' for Inactive)
REMARK    1  A    between atoms: N1_2  and  C2_4 
REMARK    2  A    between atoms: N2_6  and  C4_8 
ROOT
HETATM    1  C4  UNL     1       0.488  -0.439  -0.880  1.00  0.00     0.115 C 
HETATM    2  C5  UNL     1      -0.634  -0.649  -1.906  1.00  0.00     0.058 C 
HETATM    3  C6  UNL     1      -1.551  -1.684  -1.312  1.00  0.00     0.274 C 
HETATM    4  N3  UNL     1      -1.595  -1.660   0.116  1.00  0.00     0.091 N 
HETATM    5  C7  UNL     1      -2.804  -2.229   0.643  1.00  0.00     0.310 C 
HETATM    6  C8  UNL     1      -1.401  -0.370   0.710  1.00  0.00     0.253 C 
HETATM    7  C9  UNL     1      -2.656   0.491   0.552  1.00  0.00     0.040 C 
HETATM    8  C10 UNL     1      -2.417   1.908   0.940  1.00  0.00     0.028 C 
HETATM    9  C11 UNL     1      -0.975   2.334   0.830  1.00  0.00     0.168 C 
HETATM   10  O1  UNL     1      -0.422   1.614  -0.238  1.00  0.00    -0.382 OA
HETATM   11  C12 UNL     1      -0.165   0.335   0.258  1.00  0.00     0.177 C 
ENDROOT
BRANCH   1  12
HETATM   12  N2  UNL     1       1.585   0.282  -1.433  1.00  0.00    -0.373 N 
HETATM   13  C2  UNL     1       2.733   0.210  -0.862  1.00  0.00     0.068 C 
HETATM   14  C3  UNL     1       3.914   0.952  -1.410  1.00  0.00     0.088 C 
ATOM     15  H2  UNL     1       1.460   0.848  -2.272  1.00  0.00     0.161 HD
BRANCH  13  16
HETATM   16  N1  UNL     1       2.957  -0.563   0.304  1.00  0.00    -0.385 N 
HETATM   17  C1  UNL     1       3.761   0.000   1.356  1.00  0.00     0.147 C 
ATOM     18  H1  UNL     1       2.558  -1.497   0.396  1.00  0.00     0.160 HD
ENDBRANCH  13  16
ENDBRANCH   1  12
TORSDOF 2
