REMARK  10 active torsions:
REMARK  status: ('A' for Active; 'I' for Inactive)
REMARK    1  A    between atoms: N1_1  and  C1_4 
REMARK    2  A    between atoms: C4_12  and  N4_13 
REMARK    3  A    between atoms: N4_13  and  C5_15 
REMARK    4  A    between atoms: C5_15  and  C6_16 
REMARK    5  A    between atoms: C6_16  and  O2_17 
REMARK    6  A    between atoms: C7_21  and  N6_22 
REMARK    7  A    between atoms: N6_22  and  N7_24 
REMARK    8  A    between atoms: N7_24  and  C8_26 
REMARK    9  A    between atoms: C8_26  and  C9_27 
REMARK   10  A    between atoms: C9_27  and  O3_28 
ROOT
HETATM    1  C1  UNL     1       0.548  -4.528   0.088  1.00  0.00     0.692 C 
HETATM    2  N2  UNL     1       1.195  -4.518  -1.111  1.00  0.00    -0.130 N 
ATOM      3  H2  UNL     1       1.080  -5.339  -1.705  1.00  0.00     0.205 HD
HETATM    4  N3  UNL     1       1.956  -3.545  -1.575  1.00  0.00    -0.251 N 
ATOM      5  H3  UNL     1       2.710  -3.836  -2.197  1.00  0.00     0.191 HD
HETATM    6  C2  UNL     1       1.876  -2.220  -1.342  1.00  0.00     0.278 C 
HETATM    7  O1  UNL     1       2.627  -1.436  -1.974  1.00  0.00    -0.266 OA
HETATM    8  C3  UNL     1       1.020  -1.628  -0.448  1.00  0.00     0.122 A 
HETATM    9  C4  UNL     1       0.970  -0.247  -0.674  1.00  0.00     0.136 A 
HETATM   10  N5  UNL     1       0.175   0.455   0.126  1.00  0.00    -0.174 N 
ATOM     11  H5  UNL     1       0.119   1.464  -0.015  1.00  0.00     0.186 HD
HETATM   12  C7  UNL     1      -0.565  -0.094   1.117  1.00  0.00     0.699 A 
HETATM   13  N8  UNL     1      -0.527  -1.416   1.344  1.00  0.00    -0.173 N 
ATOM     14  H8  UNL     1      -1.084  -1.831   2.091  1.00  0.00     0.186 HD
HETATM   15  C10 UNL     1       0.259  -2.184   0.569  1.00  0.00     0.156 A 
HETATM   16  N9  UNL     1       0.215  -3.493   0.891  1.00  0.00    -0.174 N 
ATOM     17  H9  UNL     1      -0.101  -3.725   1.833  1.00  0.00     0.186 HD
ENDROOT
BRANCH  12  18
HETATM   18  N6  UNL     1      -1.327   0.613   1.877  1.00  0.00    -0.136 N 
ATOM     19  H6  UNL     1      -1.853   0.125   2.602  1.00  0.00     0.205 HD
BRANCH  18  20
HETATM   20  N7  UNL     1      -1.486   1.981   1.785  1.00  0.00    -0.320 N 
ATOM     21  H7  UNL     1      -0.941   2.590   2.396  1.00  0.00     0.180 HD
BRANCH  20  22
HETATM   22  C8  UNL     1      -2.398   2.562   0.851  1.00  0.00     0.166 C 
BRANCH  22  23
HETATM   23  C9  UNL     1      -3.834   2.096   1.097  1.00  0.00     0.185 C 
BRANCH  23  24
HETATM   24  O3  UNL     1      -4.700   2.674   0.178  1.00  0.00    -0.399 OA
ATOM     25  H3  UNL     1      -5.592   2.385   0.331  1.00  0.00     0.209 HD
ENDBRANCH  23  24
ENDBRANCH  22  23
ENDBRANCH  20  22
ENDBRANCH  18  20
ENDBRANCH  12  18
BRANCH   9  26
HETATM   26  N4  UNL     1       1.696   0.198  -1.627  1.00  0.00    -0.373 N 
ATOM     27  H4  UNL     1       2.262  -0.459  -2.164  1.00  0.00     0.161 HD
BRANCH  26  28
HETATM   28  C5  UNL     1       1.742   1.586  -1.966  1.00  0.00     0.147 C 
BRANCH  28  29
HETATM   29  C6  UNL     1       2.944   2.266  -1.333  1.00  0.00     0.183 C 
BRANCH  29  30
HETATM   30  O2  UNL     1       2.901   2.170   0.038  1.00  0.00    -0.399 OA
ATOM     31  H2  UNL     1       3.653   2.595   0.434  1.00  0.00     0.209 HD
ENDBRANCH  29  30
ENDBRANCH  28  29
ENDBRANCH  26  28
ENDBRANCH   9  26
BRANCH   1  32
HETATM   32  N1  UNL     1       0.185  -5.672   0.557  1.00  0.00    -0.233 N 
ATOM     33  H12 UNL     1       0.436  -6.453  -0.049  1.00  0.00     0.174 HD
ATOM     34  H11 UNL     1      -0.299  -5.679   1.455  1.00  0.00     0.174 HD
ENDBRANCH   1  32
TORSDOF 10
