REMARK  8 active torsions:
REMARK  status: ('A' for Active; 'I' for Inactive)
REMARK    1  A    between atoms: O1_2  and  C2_3 
REMARK    2  A    between atoms: C4_5  and  O2_6 
REMARK    3  A    between atoms: C6_8  and  O3_9 
REMARK    4  A    between atoms: C10_15  and  N2_16 
REMARK    5  A    between atoms: N2_16  and  N3_18 
REMARK    6  A    between atoms: N4_21  and  C11_22 
REMARK    7  A    between atoms: C12_25  and  N6_26 
REMARK    8  A    between atoms: N9_36  and  O7_37 
ROOT
HETATM    1  C11 UNL     1       2.993  -0.177  -0.128  1.00  0.00     0.170 A 
HETATM    2  N5  UNL     1       3.704   0.101   1.010  1.00  0.00    -0.173 N 
ATOM      3  H5  UNL     1       3.253   0.589   1.784  1.00  0.00     0.186 HD
HETATM    4  C12 UNL     1       4.998  -0.268   1.112  1.00  0.00     0.680 A 
HETATM    5  N7  UNL     1       5.607  -0.911   0.103  1.00  0.00    -0.155 N 
ATOM      6  H7  UNL     1       6.586  -1.185   0.189  1.00  0.00     0.187 HD
HETATM    7  C13 UNL     1       4.926  -1.193  -1.021  1.00  0.00     0.284 A 
HETATM    8  O6  UNL     1       5.476  -1.787  -1.962  1.00  0.00    -0.266 OA
HETATM    9  C14 UNL     1       3.580  -0.828  -1.168  1.00  0.00     0.159 A 
HETATM   10  C15 UNL     1       2.866  -1.143  -2.354  1.00  0.00     0.109 C 
HETATM   11  N8  UNL     1       2.306  -1.414  -3.308  1.00  0.00    -0.191 NA
ENDROOT
BRANCH   1  12
HETATM   12  N4  UNL     1       1.651   0.230  -0.145  1.00  0.00    -0.204 N 
HETATM   13  C10 UNL     1       1.339   1.626  -0.278  1.00  0.00     0.337 C 
HETATM   14  N1  UNL     1       0.023   1.943   0.236  1.00  0.00    -0.345 N 
HETATM   15  C9  UNL     1      -0.991   0.995   0.413  1.00  0.00     0.099 A 
ATOM     16  H1  UNL     1      -0.176   2.912   0.483  1.00  0.00     0.163 HD
HETATM   17  C2  UNL     1      -2.298   1.387   0.724  1.00  0.00     0.100 A 
HETATM   18  C8  UNL     1      -0.713  -0.348   0.271  1.00  0.00     0.146 A 
HETATM   19  C3  UNL     1      -3.291   0.448   0.885  1.00  0.00     0.078 A 
HETATM   20  C4  UNL     1      -3.047  -0.899   0.748  1.00  0.00     0.106 A 
HETATM   21  C6  UNL     1      -1.744  -1.266   0.440  1.00  0.00     0.135 A 
HETATM   22  N9  UNL     1       0.628  -0.746  -0.012  1.00  0.00    -0.151 N 
BRANCH  13  23
HETATM   23  N2  UNL     1       1.563   2.181  -1.571  1.00  0.00    -0.234 N 
ATOM     24  H2  UNL     1       2.382   2.774  -1.706  1.00  0.00     0.190 HD
BRANCH  23  25
HETATM   25  N3  UNL     1       0.733   1.960  -2.651  1.00  0.00    -0.040 N 
HETATM   26  O4  UNL     1      -0.501   1.816  -2.603  1.00  0.00    -0.517 OA
HETATM   27  O5  UNL     1       1.267   1.891  -3.940  1.00  0.00    -0.517 OA
ENDBRANCH  23  25
ENDBRANCH  13  23
BRANCH  17  28
HETATM   28  O1  UNL     1      -2.535   2.762   0.860  1.00  0.00    -0.353 OA
HETATM   29  C1  UNL     1      -3.822   3.208   1.170  1.00  0.00     0.210 C 
ENDBRANCH  17  28
BRANCH  20  30
HETATM   30  O2  UNL     1      -4.000  -1.857   0.898  1.00  0.00    -0.353 OA
HETATM   31  C5  UNL     1      -5.342  -1.654   1.205  1.00  0.00     0.210 C 
ENDBRANCH  20  30
BRANCH  21  32
HETATM   32  O3  UNL     1      -1.467  -2.630   0.294  1.00  0.00    -0.351 OA
HETATM   33  C7  UNL     1      -1.698  -3.154  -1.031  1.00  0.00     0.210 C 
ENDBRANCH  21  32
BRANCH  22  34
HETATM   34  O7  UNL     1       0.903  -2.051  -0.126  1.00  0.00    -0.267 OA
ATOM     35  H7  UNL     1       1.796  -2.316  -0.314  1.00  0.00     0.247 HD
ENDBRANCH  22  34
ENDBRANCH   1  12
BRANCH   4  36
HETATM   36  N6  UNL     1       5.636   0.019   2.211  1.00  0.00    -0.234 N 
ATOM     37  H62 UNL     1       5.173   0.508   2.978  1.00  0.00     0.174 HD
ATOM     38  H61 UNL     1       6.614  -0.260   2.288  1.00  0.00     0.174 HD
ENDBRANCH   4  36
TORSDOF 8
