REMARK  7 active torsions:
REMARK  status: ('A' for Active; 'I' for Inactive)
REMARK    1  A    between atoms: C2_2  and  C3_3 
REMARK    2  A    between atoms: C4_4  and  C5_5 
REMARK    3  A    between atoms: C5_5  and  O1_6 
REMARK    4  A    between atoms: C7_10  and  O3_11 
REMARK    5  A    between atoms: C12_18  and  O5_19 
REMARK    6  A    between atoms: C12_18  and  O6_21 
REMARK    7  A    between atoms: O6_21  and  O7_22 
ROOT
HETATM    1  C3  UNL     1      -1.554  -0.518  -0.388  1.00  0.00     0.086 C 
HETATM    2  C4  UNL     1      -1.181   0.925  -0.267  1.00  0.00     0.078 C 
HETATM    3  C6  UNL     1       0.289   1.146  -0.513  1.00  0.00     0.270 C 
HETATM    4  O2  UNL     1       0.970   1.525   0.613  1.00  0.00    -0.327 OA
HETATM    5  C7  UNL     1       2.325   1.388   0.562  1.00  0.00     0.289 C 
HETATM    6  C8  UNL     1       2.800  -0.027   0.489  1.00  0.00    -0.033 C 
HETATM    7  C9  UNL     1       4.117  -0.161   0.565  1.00  0.00     0.019 C 
HETATM    8  C10 UNL     1       2.024  -1.296   0.346  1.00  0.00     0.076 C 
HETATM    9  C11 UNL     1       0.857  -1.096  -0.594  1.00  0.00     0.194 C 
HETATM   10  O4  UNL     1       0.878   0.116  -1.231  1.00  0.00    -0.350 OA
HETATM   11  C12 UNL     1      -0.401  -1.332   0.162  1.00  0.00     0.229 C 
ENDROOT
BRANCH  11  12
HETATM   12  O5  UNL     1      -0.242  -0.916   1.503  1.00  0.00    -0.361 OA
ATOM     13  H5  UNL     1       0.481  -1.427   1.848  1.00  0.00     0.213 HD
ENDBRANCH  11  12
BRANCH  11  14
HETATM   14  O6  UNL     1      -0.737  -2.689   0.211  1.00  0.00    -0.200 OA
BRANCH  14  15
HETATM   15  O7  UNL     1      -1.029  -3.173  -0.961  1.00  0.00    -0.247 OA
ATOM     16  H7  UNL     1      -1.257  -4.095  -0.928  1.00  0.00     0.253 HD
ENDBRANCH  14  15
ENDBRANCH  11  14
BRANCH   1  17
HETATM   17  C2  UNL     1      -2.742  -0.910   0.414  1.00  0.00    -0.026 C 
HETATM   18  C1  UNL     1      -3.471  -0.115   1.165  1.00  0.00     0.007 C 
ENDBRANCH   1  17
BRANCH   2  19
HETATM   19  C5  UNL     1      -2.033   1.813  -1.154  1.00  0.00     0.174 C 
BRANCH  19  20
HETATM   20  O1  UNL     1      -1.669   3.149  -1.023  1.00  0.00    -0.400 OA
ATOM     21  H1  UNL     1      -2.203   3.705  -1.578  1.00  0.00     0.209 HD
ENDBRANCH  19  20
ENDBRANCH   2  19
BRANCH   5  22
HETATM   22  O3  UNL     1       2.932   2.123  -0.450  1.00  0.00    -0.367 OA
ATOM     23  H3  UNL     1       3.877   2.028  -0.486  1.00  0.00     0.213 HD
ENDBRANCH   5  22
TORSDOF 7
