REMARK  10 active torsions:
REMARK  status: ('A' for Active; 'I' for Inactive)
REMARK    1  A    between atoms: C2_2  and  C4_4 
REMARK    2  A    between atoms: C4_4  and  N1_5 
REMARK    3  A    between atoms: N1_5  and  N2_7 
REMARK    4  A    between atoms: N2_7  and  N3_8 
REMARK    5  A    between atoms: C5_11  and  O1_12 
REMARK    6  A    between atoms: C6_14  and  O2_15 
REMARK    7  A    between atoms: C7_17  and  O3_18 
REMARK    8  A    between atoms: C8_20  and  C9_21 
REMARK    9  A    between atoms: C9_21  and  O4_22 
REMARK   10  A    between atoms: N4_24  and  O5_26 
ROOT
HETATM    1  C4  UNL     1       0.149  -0.428   0.307  1.00  0.00     0.104 C 
HETATM    2  C5  UNL     1       1.392  -0.502  -0.547  1.00  0.00     0.181 C 
HETATM    3  C6  UNL     1       1.669   0.871  -1.095  1.00  0.00     0.179 C 
HETATM    4  C7  UNL     1       0.870   1.833  -0.247  1.00  0.00     0.164 C 
HETATM    5  C8  UNL     1      -0.288   0.991   0.311  1.00  0.00     0.127 C 
ENDROOT
BRANCH   1   6
HETATM    6  C2  UNL     1      -0.881  -1.361  -0.303  1.00  0.00     0.012 C 
HETATM    7  C1  UNL     1      -1.315  -0.970  -1.672  1.00  0.00     0.012 C 
HETATM    8  C3  UNL     1      -2.093  -1.523   0.588  1.00  0.00     0.012 C 
ENDBRANCH   1   6
BRANCH   1   9
HETATM    9  N1  UNL     1       0.442  -0.961   1.624  1.00  0.00    -0.239 N 
ATOM     10  H1  UNL     1      -0.026  -0.535   2.424  1.00  0.00     0.198 HD
BRANCH   9  11
HETATM   11  N2  UNL     1       1.207  -1.880   1.838  1.00  0.00    -0.248 NA
BRANCH  11  12
HETATM   12  N3  UNL     1       1.790  -2.961   1.928  1.00  0.00    -0.261 N 
ATOM     13  H32 UNL     1       1.028  -3.440   1.447  1.00  0.00     0.193 HD
ATOM     14  H31 UNL     1       2.432  -3.733   2.108  1.00  0.00     0.193 HD
ENDBRANCH  11  12
ENDBRANCH   9  11
ENDBRANCH   1   9
BRANCH   2  15
HETATM   15  O1  UNL     1       1.200  -1.349  -1.637  1.00  0.00    -0.390 OA
ATOM     16  H1  UNL     1       1.982  -1.396  -2.174  1.00  0.00     0.210 HD
ENDBRANCH   2  15
BRANCH   5  17
HETATM   17  C9  UNL     1      -0.562   1.540   1.650  1.00  0.00     0.144 C 
HETATM   18  N4  UNL     1      -1.729   1.988   1.908  1.00  0.00    -0.251 N 
ATOM     19  H4  UNL     1      -1.877   2.358   2.847  1.00  0.00     0.196 HD
BRANCH  17  20
HETATM   20  O4  UNL     1       0.402   1.583   2.629  1.00  0.00    -0.348 OA
ATOM     21  H4  UNL     1       0.225   1.937   3.493  1.00  0.00     0.219 HD
ENDBRANCH  17  20
BRANCH  18  22
HETATM   22  O5  UNL     1      -2.790   2.025   1.070  1.00  0.00    -0.288 OA
ATOM     23  H5  UNL     1      -3.659   2.358   1.262  1.00  0.00     0.244 HD
ENDBRANCH  18  22
ENDBRANCH   5  17
BRANCH   3  24
HETATM   24  O2  UNL     1       3.028   1.190  -1.068  1.00  0.00    -0.390 OA
ATOM     25  H2  UNL     1       3.203   2.057  -1.414  1.00  0.00     0.210 HD
ENDBRANCH   3  24
BRANCH   4  26
HETATM   26  O3  UNL     1       1.662   2.348   0.762  1.00  0.00    -0.392 OA
ATOM     27  H3  UNL     1       1.160   2.953   1.295  1.00  0.00     0.210 HD
ENDBRANCH   4  26
TORSDOF 10
