REMARK  6 active torsions:
REMARK  status: ('A' for Active; 'I' for Inactive)
REMARK    1  A    between atoms: C2_2  and  C3_3 
REMARK    2  A    between atoms: C3_3  and  C4_4 
REMARK    3  A    between atoms: C4_4  and  C5_5 
REMARK       I    between atoms: C5_5  and  N1_7 
REMARK    4  A    between atoms: C6_8  and  C7_9 
REMARK    5  A    between atoms: C7_9  and  O3_11 
REMARK    6  A    between atoms: O3_11  and  C8_12 
ROOT
HETATM    1  C5  UNL     1      -1.612   0.516  -0.174  1.00  0.00     0.221 C 
HETATM    2  O1  UNL     1      -2.548   0.115   0.534  1.00  0.00    -0.273 OA
HETATM    3  N1  UNL     1      -0.819  -0.444  -0.883  1.00  0.00    -0.331 N 
HETATM    4  C6  UNL     1       0.277  -0.007  -1.705  1.00  0.00     0.188 C 
HETATM    5  C12 UNL     1       0.539  -1.205  -2.605  1.00  0.00     0.044 C 
HETATM    6  C13 UNL     1       0.301  -2.364  -1.620  1.00  0.00     0.038 C 
HETATM    7  C14 UNL     1      -0.051  -3.579  -2.440  1.00  0.00     0.197 C 
HETATM    8  O4  UNL     1      -0.388  -4.662  -1.632  1.00  0.00    -0.275 OA
HETATM    9  S1  UNL     1      -0.440  -4.258  -0.020  1.00  0.00     0.275 S 
HETATM   10  O5  UNL     1       0.915  -4.327   0.595  1.00  0.00    -0.198 OA
HETATM   11  O6  UNL     1      -1.281  -5.320   0.674  1.00  0.00    -0.198 OA
HETATM   12  C15 UNL     1      -1.216  -2.649   0.247  1.00  0.00     0.103 C 
HETATM   13  C16 UNL     1      -2.722  -2.967   0.309  1.00  0.00     0.036 C 
HETATM   14  C17 UNL     1      -0.738  -2.137   1.553  1.00  0.00     0.036 C 
HETATM   15  C18 UNL     1      -0.949  -1.846  -0.960  1.00  0.00     0.119 C 
ENDROOT
BRANCH   4  16
HETATM   16  C7  UNL     1       1.479   0.444  -1.027  1.00  0.00     0.282 C 
HETATM   17  O2  UNL     1       2.405   0.898  -1.788  1.00  0.00    -0.263 OA
BRANCH  16  18
HETATM   18  O3  UNL     1       1.778   0.458   0.310  1.00  0.00    -0.310 OA
BRANCH  18  19
HETATM   19  C8  UNL     1       2.966   0.910   0.887  1.00  0.00     0.060 C 
HETATM   20  C9  UNL     1       2.830   0.725   2.397  1.00  0.00     0.045 C 
HETATM   21  C10 UNL     1       3.282   2.355   0.554  1.00  0.00     0.045 C 
HETATM   22  C11 UNL     1       4.134   0.058   0.451  1.00  0.00     0.045 C 
ENDBRANCH  18  19
ENDBRANCH  16  18
ENDBRANCH   4  16
BRANCH   1  23
HETATM   23  C4  UNL     1      -1.358   1.960  -0.257  1.00  0.00     0.103 C 
BRANCH  23  24
HETATM   24  C3  UNL     1      -2.417   2.751   0.530  1.00  0.00     0.009 C 
BRANCH  24  25
HETATM   25  C2  UNL     1      -2.045   4.216   0.367  1.00  0.00    -0.004 C 
HETATM   26  C1  UNL     1      -3.059   5.049   1.124  1.00  0.00     0.005 C 
ENDBRANCH  24  25
ENDBRANCH  23  24
ENDBRANCH   1  23
TORSDOF 6
