REMARK  1 active torsions:
REMARK  status: ('A' for Active; 'I' for Inactive)
REMARK    1  A    between atoms: C2_3  and  C3_4 
ROOT
HETATM    1  N1  UNL     1       2.768   2.223   0.726  1.00  0.00    -0.197 NA
HETATM    2  C1  UNL     1       2.553   1.167   0.298  1.00  0.00     0.060 C 
HETATM    3  C2  UNL     1       2.302  -0.178  -0.250  1.00  0.00     0.148 C 
ENDROOT
BRANCH   3   4
HETATM    4  C3  UNL     1       0.774  -0.358  -0.196  1.00  0.00     0.062 C 
HETATM    5  C4  UNL     1       0.492  -1.669  -0.727  1.00  0.00     0.070 C 
HETATM    6  N2  UNL     1       0.261  -2.734  -1.161  1.00  0.00    -0.196 NA
HETATM    7  C5  UNL     1       0.199   0.749  -0.992  1.00  0.00     0.027 C 
HETATM    8  C6  UNL     1      -1.230   0.735  -1.277  1.00  0.00     0.029 C 
HETATM    9  C7  UNL     1      -2.130   0.043  -0.328  1.00  0.00     0.232 C 
HETATM   10  N3  UNL     1      -1.851   0.246   1.054  1.00  0.00    -0.075 N 
HETATM   11  C8  UNL     1      -0.952  -0.817   1.480  1.00  0.00     0.234 C 
ATOM     12  H32 UNL     1      -1.488   1.178   1.254  1.00  0.00     0.277 HD
ATOM     13  H31 UNL     1      -2.694   0.307   1.625  1.00  0.00     0.277 HD
HETATM   14  C9  UNL     1       0.444  -0.301   1.277  1.00  0.00     0.053 C 
ENDBRANCH   3   4
TORSDOF 1
