REMARK  2 active torsions:
REMARK  status: ('A' for Active; 'I' for Inactive)
REMARK    1  A    between atoms: C6_6  and  N1_7 
REMARK    2  A    between atoms: C15_21  and  O1_22 
ROOT
HETATM    1  N1  UNL     1      -0.095  -0.472   0.009  1.00  0.00    -0.227 N 
HETATM    2  N2  UNL     1       0.820   0.407   0.572  1.00  0.00    -0.099 NA
HETATM    3  C7  UNL     1       2.138  -0.081   0.219  1.00  0.00     0.124 C 
HETATM    4  C8  UNL     1       2.755   0.827  -0.826  1.00  0.00     0.051 C 
HETATM    5  C9  UNL     1       3.750   1.805  -0.248  1.00  0.00     0.004 C 
HETATM    6  C10 UNL     1       4.887   1.016   0.368  1.00  0.00     0.000 C 
HETATM    7  C11 UNL     1       4.432  -0.097   1.258  1.00  0.00     0.004 C 
HETATM    8  C12 UNL     1       2.940  -0.109   1.492  1.00  0.00     0.051 C 
HETATM    9  N3  UNL     1       1.890  -1.363  -0.368  1.00  0.00    -0.338 N 
ATOM     10  H3  UNL     1       2.621  -2.015  -0.652  1.00  0.00     0.164 HD
HETATM   11  C13 UNL     1       0.607  -1.593  -0.494  1.00  0.00     0.209 C 
HETATM   12  N4  UNL     1       0.111  -2.794  -1.056  1.00  0.00    -0.062 NA
ENDROOT
BRANCH   1  13
HETATM   13  C6  UNL     1      -1.496  -0.265  -0.026  1.00  0.00     0.088 A 
HETATM   14  C4  UNL     1      -2.381  -1.087   0.640  1.00  0.00    -0.031 A 
HETATM   15  C3  UNL     1      -3.759  -0.849   0.606  1.00  0.00     0.018 A 
HETATM   16  C5  UNL     1      -1.934  -2.253   1.409  1.00  0.00     0.050 C 
HETATM   17  C2  UNL     1      -4.275   0.215  -0.094  1.00  0.00    -0.026 A 
HETATM   18  C1  UNL     1      -5.745   0.483  -0.139  1.00  0.00     0.051 C 
HETATM   19  C15 UNL     1      -3.421   1.044  -0.761  1.00  0.00     0.098 A 
HETATM   20  C14 UNL     1      -2.062   0.806  -0.725  1.00  0.00     0.108 A 
HETATM   21  N5  UNL     1      -1.135   1.660  -1.410  1.00  0.00    -0.097 NA
BRANCH  19  22
HETATM   22  O1  UNL     1      -3.920   2.129  -1.475  1.00  0.00    -0.358 OA
ATOM     23  H1  UNL     1      -3.325   2.706  -1.939  1.00  0.00     0.217 HD
ENDBRANCH  19  22
ENDBRANCH   1  13
TORSDOF 2
