REMARK  3 active torsions:
REMARK  status: ('A' for Active; 'I' for Inactive)
REMARK    1  A    between atoms: C5_6  and  N1_7 
REMARK    2  A    between atoms: C6_12  and  O1_13 
REMARK    3  A    between atoms: N4_19  and  C9_20 
ROOT
HETATM    1  C1  UNL     1      -2.332  -2.314   1.777  1.00  0.00     0.021 C 
HETATM    2  C2  UNL     1      -1.932  -1.546   0.814  1.00  0.00    -0.032 C 
HETATM    3  C3  UNL     1      -0.497  -1.409   0.532  1.00  0.00     0.041 A 
HETATM    4  S1  UNL     1       0.831  -2.429   0.789  1.00  0.00    -0.081 SA
HETATM    5  C4  UNL     1       2.071  -1.433   0.151  1.00  0.00     0.078 A 
HETATM    6  C5  UNL     1       3.459  -1.588   0.007  1.00  0.00     0.121 A 
HETATM    7  N2  UNL     1       4.210  -0.621  -0.545  1.00  0.00    -0.307 N 
ATOM      8  H2  UNL     1       5.220  -0.705  -0.662  1.00  0.00     0.171 HD
HETATM    9  C6  UNL     1       3.521   0.465  -0.930  1.00  0.00     0.223 A 
HETATM   10  N3  UNL     1       2.228   0.630  -0.805  1.00  0.00    -0.319 N 
ATOM     11  H3  UNL     1       1.816   1.503  -1.135  1.00  0.00     0.169 HD
HETATM   12  C7  UNL     1       1.394  -0.320  -0.248  1.00  0.00     0.084 A 
HETATM   13  C8  UNL     1       0.045  -0.296  -0.053  1.00  0.00     0.076 A 
HETATM   14  N4  UNL     1      -0.944   0.725  -0.359  1.00  0.00    -0.377 N 
HETATM   15  C11 UNL     1      -2.337   0.577  -0.150  1.00  0.00     0.144 C 
HETATM   16  C12 UNL     1      -2.918  -0.771  -0.032  1.00  0.00     0.110 C 
HETATM   17  S2  UNL     1      -4.529  -0.846   0.729  1.00  0.00    -0.086 SA
ENDROOT
BRANCH   6  18
HETATM   18  N1  UNL     1       3.963  -2.689   0.428  1.00  0.00    -0.384 N 
ATOM     19  H12 UNL     1       3.393  -3.423   0.847  1.00  0.00     0.157 HD
ATOM     20  H11 UNL     1       4.971  -2.802   0.323  1.00  0.00     0.157 HD
ENDBRANCH   6  18
BRANCH   9  21
HETATM   21  O1  UNL     1       4.294   1.496  -1.515  1.00  0.00    -0.332 OA
ATOM     22  H1  UNL     1       3.806   2.264  -1.787  1.00  0.00     0.220 HD
ENDBRANCH   9  21
BRANCH  14  23
HETATM   23  C9  UNL     1      -0.541   2.004  -0.901  1.00  0.00     0.118 C 
HETATM   24  C10 UNL     1      -0.754   3.093   0.156  1.00  0.00     0.026 C 
ENDBRANCH  14  23
TORSDOF 3
