REMARK  7 active torsions:
REMARK  status: ('A' for Active; 'I' for Inactive)
REMARK    1  A    between atoms: C1_2  and  C2_3 
REMARK    2  A    between atoms: C1_2  and  O5_19 
REMARK    3  A    between atoms: C2_3  and  C3_4 
REMARK    4  A    between atoms: C3_4  and  C4_5 
REMARK    5  A    between atoms: C3_4  and  C11_14 
REMARK    6  A    between atoms: O5_19  and  N1_20 
REMARK    7  A    between atoms: N1_20  and  C15_22 
ROOT
HETATM    1  C3  UNL     1      -0.597  -0.165  -0.482  1.00  0.00     0.014 C 
ENDROOT
BRANCH   1   2
HETATM    2  C2  UNL     1      -1.154  -0.518  -1.578  1.00  0.00     0.099 C 
BRANCH   2   3
HETATM    3  C1  UNL     1      -2.480  -0.533  -2.103  1.00  0.00     0.305 C 
HETATM    4  O1  UNL     1      -2.602  -0.949  -3.327  1.00  0.00    -0.258 OA
BRANCH   3   5
HETATM    5  O5  UNL     1      -3.642  -0.186  -1.523  1.00  0.00    -0.195 OA
BRANCH   5   6
HETATM    6  N1  UNL     1      -4.848  -0.267  -2.171  1.00  0.00    -0.258 N 
ATOM      7  H1  UNL     1      -4.980   0.289  -3.016  1.00  0.00     0.195 HD
BRANCH   6   8
HETATM    8  C15 UNL     1      -5.804  -0.993  -1.778  1.00  0.00     0.195 C 
HETATM    9  S1  UNL     1      -7.104  -1.548  -0.978  1.00  0.00    -0.072 SA
ENDBRANCH   6   8
ENDBRANCH   5   6
ENDBRANCH   3   5
ENDBRANCH   2   3
ENDBRANCH   1   2
BRANCH   1  10
HETATM   10  C4  UNL     1       0.875  -0.345  -0.333  1.00  0.00    -0.020 A 
HETATM   11  C5  UNL     1       1.545  -1.200  -1.169  1.00  0.00     0.015 A 
HETATM   12  C6  UNL     1       2.950  -1.317  -1.095  1.00  0.00     0.040 A 
HETATM   13  C7  UNL     1       3.649  -0.573  -0.183  1.00  0.00     0.105 A 
HETATM   14  C8  UNL     1       3.010   0.291   0.669  1.00  0.00     0.105 A 
HETATM   15  O3  UNL     1       5.007  -0.486   0.107  1.00  0.00    -0.323 OA
HETATM   16  C9  UNL     1       1.622   0.383   0.569  1.00  0.00     0.052 A 
HETATM   17  O2  UNL     1       3.962   0.898   1.469  1.00  0.00    -0.323 OA
HETATM   18  C10 UNL     1       5.207   0.196   1.332  1.00  0.00     0.352 C 
ENDBRANCH   1  10
BRANCH   1  19
HETATM   19  C11 UNL     1      -1.227   0.521   0.625  1.00  0.00     0.086 A 
HETATM   20  C12 UNL     1      -2.288   1.384   0.670  1.00  0.00     0.040 A 
HETATM   21  C13 UNL     1      -2.544   1.777   1.990  1.00  0.00     0.027 A 
HETATM   22  C14 UNL     1      -1.588   1.109   2.706  1.00  0.00     0.142 A 
HETATM   23  O4  UNL     1      -0.852   0.402   1.905  1.00  0.00    -0.322 OA
ENDBRANCH   1  19
TORSDOF 7
