REMARK  13 active torsions:
REMARK  status: ('A' for Active; 'I' for Inactive)
REMARK    1  A    between atoms: C2_2  and  N1_3 
REMARK    2  A    between atoms: C6_7  and  C7_8 
REMARK       I    between atoms: C7_8  and  N2_10 
REMARK    3  A    between atoms: N3_13  and  C10_14 
REMARK    4  A    between atoms: C10_14  and  C11_15 
REMARK    5  A    between atoms: C11_15  and  C12_16 
REMARK    6  A    between atoms: C12_16  and  C13_17 
REMARK    7  A    between atoms: C13_17  and  C14_18 
REMARK    8  A    between atoms: C14_18  and  C15_19 
REMARK    9  A    between atoms: C15_19  and  S1_20 
REMARK   10  A    between atoms: S1_20  and  C16_21 
REMARK   11  A    between atoms: C20_27  and  C21_28 
REMARK   12  A    between atoms: C22_32  and  C23_33 
REMARK   13  A    between atoms: C23_33  and  N6_34 
REMARK       I    between atoms: N6_34  and  C24_36 
ROOT
HETATM    1  C16 UNL     1       3.136   1.311   1.063  1.00  0.00     0.145 A 
HETATM    2  N4  UNL     1       3.377   0.874  -0.175  1.00  0.00    -0.335 N 
ATOM      3  H4  UNL     1       2.663   0.673  -0.875  1.00  0.00     0.168 HD
HETATM    4  C17 UNL     1       4.694   0.739  -0.361  1.00  0.00     0.061 A 
HETATM    5  C18 UNL     1       5.472   0.324  -1.448  1.00  0.00     0.033 A 
HETATM    6  C19 UNL     1       6.830   0.294  -1.316  1.00  0.00     0.017 A 
HETATM    7  C20 UNL     1       7.421   0.667  -0.131  1.00  0.00     0.012 A 
HETATM    8  C28 UNL     1       6.649   1.082   0.960  1.00  0.00     0.047 A 
HETATM    9  C29 UNL     1       5.290   1.110   0.822  1.00  0.00     0.062 A 
HETATM   10  N9  UNL     1       4.308   1.459   1.685  1.00  0.00    -0.335 N 
ATOM     11  H9  UNL     1       4.440   1.780   2.644  1.00  0.00     0.168 HD
ENDROOT
BRANCH   1  12
HETATM   12  S1  UNL     1       1.497   1.649   1.779  1.00  0.00    -0.094 SA
BRANCH  12  13
HETATM   13  C15 UNL     1       0.859   0.179   2.579  1.00  0.00     0.082 C 
BRANCH  13  14
HETATM   14  C14 UNL     1       0.563  -0.949   1.636  1.00  0.00     0.010 C 
BRANCH  14  15
HETATM   15  C13 UNL     1      -0.434  -0.633   0.591  1.00  0.00     0.001 C 
BRANCH  15  16
HETATM   16  C12 UNL     1      -1.787  -0.228   1.019  1.00  0.00     0.005 C 
BRANCH  16  17
HETATM   17  C11 UNL     1      -2.549  -1.211   1.834  1.00  0.00     0.044 C 
BRANCH  17  18
HETATM   18  C10 UNL     1      -3.921  -0.640   2.195  1.00  0.00     0.063 C 
BRANCH  18  19
HETATM   19  N3  UNL     1      -4.748  -0.315   1.129  1.00  0.00    -0.371 N 
HETATM   20  C9  UNL     1      -5.290  -1.300   0.289  1.00  0.00     0.147 C 
HETATM   21  C8  UNL     1      -5.971  -0.673  -0.943  1.00  0.00     0.146 C 
HETATM   22  N2  UNL     1      -6.802   0.396  -0.465  1.00  0.00    -0.345 N 
HETATM   23  C7  UNL     1      -8.153   0.530  -0.874  1.00  0.00     0.226 C 
HETATM   24  C31 UNL     1      -6.279   1.379   0.464  1.00  0.00     0.170 C 
HETATM   25  O1  UNL     1      -8.844   1.521  -0.436  1.00  0.00    -0.273 OA
HETATM   26  C30 UNL     1      -4.855   1.040   0.774  1.00  0.00     0.083 C 
BRANCH  23  27
HETATM   27  C6  UNL     1      -8.833  -0.410  -1.786  1.00  0.00     0.106 C 
HETATM   28  C5  UNL     1      -9.073  -1.711  -1.046  1.00  0.00     0.017 C 
HETATM   29  C4  UNL     1     -10.556  -2.019  -0.960  1.00  0.00     0.031 C 
HETATM   30  C3  UNL     1     -11.389  -0.885  -0.475  1.00  0.00     0.272 C 
HETATM   31  N1  UNL     1     -10.945   0.388  -0.986  1.00  0.00     0.088 N 
HETATM   32  C32 UNL     1     -10.170   0.162  -2.185  1.00  0.00     0.286 C 
BRANCH  31  33
HETATM   33  C2  UNL     1     -12.003   1.342  -1.156  1.00  0.00     0.268 C 
HETATM   34  C1  UNL     1     -12.530   1.746   0.197  1.00  0.00     0.037 C 
ENDBRANCH  31  33
ENDBRANCH  23  27
ENDBRANCH  18  19
ENDBRANCH  17  18
ENDBRANCH  16  17
ENDBRANCH  15  16
ENDBRANCH  14  15
ENDBRANCH  13  14
ENDBRANCH  12  13
ENDBRANCH   1  12
BRANCH   7  35
HETATM   35  C21 UNL     1       8.879   0.653   0.023  1.00  0.00     0.139 C 
HETATM   36  N5  UNL     1       9.427   0.096   1.076  1.00  0.00    -0.249 N 
HETATM   37  O2  UNL     1      10.770   0.054   1.271  1.00  0.00    -0.264 OA
ATOM     38  H5  UNL     1       8.818  -0.324   1.779  1.00  0.00     0.196 HD
HETATM   39  C22 UNL     1      11.684   0.939   0.653  1.00  0.00     0.237 C 
HETATM   40  C26 UNL     1      11.178   1.208  -0.712  1.00  0.00     0.112 C 
HETATM   41  N7  UNL     1      11.998   1.407  -1.680  1.00  0.00    -0.386 N 
HETATM   42  N8  UNL     1       9.744   1.239  -0.924  1.00  0.00    -0.323 N 
ATOM     43  H72 UNL     1      13.007   1.385  -1.531  1.00  0.00     0.157 HD
ATOM     44  H71 UNL     1      11.649   1.592  -2.620  1.00  0.00     0.157 HD
HETATM   45  C27 UNL     1       9.258   1.894  -2.102  1.00  0.00     0.159 C 
BRANCH  39  46
HETATM   46  C23 UNL     1      13.026   0.240   0.630  1.00  0.00     0.165 C 
BRANCH  46  47
HETATM   47  N6  UNL     1      12.953  -0.994  -0.117  1.00  0.00    -0.358 N 
HETATM   48  C24 UNL     1      14.055  -1.856  -0.304  1.00  0.00     0.213 C 
HETATM   49  C25 UNL     1      13.932  -3.109  -1.077  1.00  0.00     0.117 C 
HETATM   50  O3  UNL     1      15.158  -1.508   0.220  1.00  0.00    -0.274 OA
ATOM     51  H6  UNL     1      12.058  -1.256  -0.531  1.00  0.00     0.162 HD
ENDBRANCH  46  47
ENDBRANCH  39  46
ENDBRANCH   7  35
TORSDOF 13
