REMARK  6 active torsions:
REMARK  status: ('A' for Active; 'I' for Inactive)
REMARK    1  A    between atoms: C2_2  and  N1_3 
REMARK    2  A    between atoms: N1_3  and  C3_5 
REMARK    3  A    between atoms: C3_5  and  C5_7 
REMARK       I    between atoms: C5_7  and  N2_9 
REMARK    4  A    between atoms: N3_12  and  C8_13 
REMARK    5  A    between atoms: C8_13  and  N4_15 
REMARK    6  A    between atoms: N4_15  and  C9_17 
ROOT
HETATM    1  C5  UNL     1       3.324   0.488   0.151  1.00  0.00     0.242 C 
HETATM    2  O1  UNL     1       3.464   1.721   0.428  1.00  0.00    -0.271 OA
HETATM    3  N2  UNL     1       2.383  -0.232   0.896  1.00  0.00    -0.347 N 
HETATM    4  C6  UNL     1       1.658   0.453   1.952  1.00  0.00     0.145 C 
HETATM    5  C7  UNL     1       0.166   0.309   1.781  1.00  0.00     0.145 C 
HETATM    6  N3  UNL     1      -0.160  -1.017   1.280  1.00  0.00    -0.355 N 
HETATM    7  C16 UNL     1       0.830  -2.051   1.199  1.00  0.00     0.145 C 
HETATM    8  C17 UNL     1       2.133  -1.617   0.597  1.00  0.00     0.145 C 
ENDROOT
BRANCH   6   9
HETATM    9  C8  UNL     1      -1.489  -1.266   0.873  1.00  0.00     0.170 C 
HETATM   10  S1  UNL     1      -1.813  -2.801   0.341  1.00  0.00    -0.041 SA
BRANCH   9  11
HETATM   11  N4  UNL     1      -2.478  -0.261   0.949  1.00  0.00    -0.362 N 
ATOM     12  H4  UNL     1      -2.186   0.643   1.321  1.00  0.00     0.162 HD
BRANCH  11  13
HETATM   13  C9  UNL     1      -3.863  -0.384   0.552  1.00  0.00     0.083 C 
HETATM   14  C10 UNL     1      -4.641   0.794   1.064  1.00  0.00     0.025 C 
HETATM   15  C11 UNL     1      -5.858   1.135   0.263  1.00  0.00     0.002 C 
HETATM   16  C12 UNL     1      -5.572   1.636  -1.108  1.00  0.00     0.000 C 
HETATM   17  C13 UNL     1      -5.782   0.527  -2.091  1.00  0.00     0.000 C 
HETATM   18  C14 UNL     1      -5.263  -0.756  -1.506  1.00  0.00     0.002 C 
HETATM   19  C15 UNL     1      -3.917  -0.535  -0.931  1.00  0.00     0.025 C 
ENDBRANCH  11  13
ENDBRANCH   9  11
ENDBRANCH   6   9
BRANCH   1  20
HETATM   20  C3  UNL     1       4.172  -0.043  -0.929  1.00  0.00     0.169 C 
HETATM   21  C4  UNL     1       4.947  -1.243  -0.453  1.00  0.00     0.042 C 
BRANCH  20  22
HETATM   22  N1  UNL     1       4.984   0.928  -1.565  1.00  0.00    -0.390 N 
ATOM     23  H1  UNL     1       4.819   1.138  -2.549  1.00  0.00     0.159 HD
BRANCH  22  24
HETATM   24  C2  UNL     1       5.998   1.605  -0.896  1.00  0.00     0.052 C 
HETATM   25  C1  UNL     1       7.212   0.790  -0.477  1.00  0.00     0.054 C 
ENDBRANCH  22  24
ENDBRANCH  20  22
ENDBRANCH   1  20
TORSDOF 6
