REMARK  5 active torsions:
REMARK  status: ('A' for Active; 'I' for Inactive)
REMARK       I    between atoms: C1_2  and  N1_3 
REMARK       I    between atoms: C1_2  and  N2_10 
REMARK    1  A    between atoms: N1_3  and  C2_5 
REMARK    2  A    between atoms: C2_5  and  C3_6 
REMARK    3  A    between atoms: C9_13  and  C10_14 
REMARK    4  A    between atoms: C10_14  and  O2_15 
REMARK    5  A    between atoms: C10_14  and  N3_17 
ROOT
HETATM    1  O1  UNL     1       3.406  -1.499   0.110  1.00  0.00    -0.247 OA
HETATM    2  C1  UNL     1       2.842  -0.556  -0.497  1.00  0.00     0.318 C 
HETATM    3  N1  UNL     1       3.430   0.419  -1.292  1.00  0.00    -0.343 N 
ATOM      4  H1  UNL     1       2.796   1.101  -1.708  1.00  0.00     0.164 HD
HETATM    5  N2  UNL     1       1.399  -0.518  -0.318  1.00  0.00    -0.334 N 
HETATM    6  C7  UNL     1       0.814  -1.536   0.520  1.00  0.00     0.128 C 
HETATM    7  C8  UNL     1      -0.699  -1.537   0.527  1.00  0.00     0.033 C 
HETATM    8  C9  UNL     1      -1.127  -0.106   0.512  1.00  0.00     0.063 C 
HETATM    9  C16 UNL     1      -0.812   0.474  -0.842  1.00  0.00     0.033 C 
HETATM   10  C17 UNL     1       0.688   0.524  -0.987  1.00  0.00     0.128 C 
ENDROOT
BRANCH   8  11
HETATM   11  C10 UNL     1      -2.432   0.207   1.063  1.00  0.00     0.120 C 
BRANCH  11  12
HETATM   12  O2  UNL     1      -2.495   1.020   2.081  1.00  0.00    -0.349 OA
ATOM     13  H2  UNL     1      -3.350   1.225   2.442  1.00  0.00     0.219 HD
ENDBRANCH  11  12
BRANCH  11  14
HETATM   14  N3  UNL     1      -3.703  -0.246   0.659  1.00  0.00    -0.333 N 
HETATM   15  C11 UNL     1      -3.901  -1.143  -0.445  1.00  0.00     0.155 C 
HETATM   16  C12 UNL     1      -4.952  -0.482  -1.351  1.00  0.00     0.252 C 
HETATM   17  N4  UNL     1      -6.240  -0.762  -0.798  1.00  0.00    -0.073 N 
HETATM   18  C13 UNL     1      -6.810   0.368  -0.093  1.00  0.00     0.237 C 
ATOM     19  H42 UNL     1      -6.879  -1.103  -1.516  1.00  0.00     0.277 HD
ATOM     20  H41 UNL     1      -6.208  -1.587  -0.199  1.00  0.00     0.277 HD
HETATM   21  C14 UNL     1      -5.754   1.139   0.671  1.00  0.00     0.086 C 
HETATM   22  C15 UNL     1      -4.845   0.255   1.453  1.00  0.00     0.274 C 
HETATM   23  F1  UNL     1      -5.571  -0.861   1.869  1.00  0.00    -0.227 F 
ENDBRANCH  11  14
ENDBRANCH   8  11
BRANCH   3  24
HETATM   24  C2  UNL     1       4.801   0.581  -1.595  1.00  0.00     0.129 C 
BRANCH  24  25
HETATM   25  C3  UNL     1       5.657   0.891  -0.427  1.00  0.00     0.003 C 
HETATM   26  C4  UNL     1       7.137   1.118  -0.888  1.00  0.00     0.006 C 
HETATM   27  C5  UNL     1       7.506   0.409   0.412  1.00  0.00     0.001 C 
HETATM   28  C6  UNL     1       6.130  -0.300   0.352  1.00  0.00     0.006 C 
ENDBRANCH  24  25
ENDBRANCH   3  24
TORSDOF 5
