REMARK  3 active torsions:
REMARK  status: ('A' for Active; 'I' for Inactive)
REMARK    1  A    between atoms: C4_4  and  C5_5 
REMARK    2  A    between atoms: C5_5  and  N1_6 
REMARK    3  A    between atoms: C12_17  and  N3_18 
REMARK       I    between atoms: N3_18  and  C13_20 
ROOT
HETATM    1  C1  UNL     1       2.650  -1.594   1.833  1.00  0.00     0.012 C 
HETATM    2  C2  UNL     1       1.804  -0.713   0.940  1.00  0.00     0.011 C 
HETATM    3  C3  UNL     1       0.705  -1.625   0.372  1.00  0.00     0.018 C 
HETATM    4  C4  UNL     1       0.248  -0.971  -0.883  1.00  0.00     0.060 C 
HETATM    5  C11 UNL     1       1.541  -0.372  -1.398  1.00  0.00     0.022 C 
HETATM    6  N2  UNL     1       1.807  -0.018  -2.595  1.00  0.00    -0.328 N 
ATOM      7  H2  UNL     1       2.727   0.373  -2.797  1.00  0.00     0.173 HD
HETATM    8 BR1  UNL     1       0.575  -0.189  -3.993  1.00  0.00     0.047 Br
HETATM    9  C12 UNL     1       2.509  -0.250  -0.280  1.00  0.00     0.136 C 
ENDROOT
BRANCH   4  10
HETATM   10  C5  UNL     1      -0.797   0.067  -0.768  1.00  0.00     0.247 C 
BRANCH  10  11
HETATM   11  N1  UNL     1      -2.060  -0.278  -0.228  1.00  0.00    -0.066 N 
HETATM   12  C6  UNL     1      -2.342  -1.672  -0.063  1.00  0.00     0.272 C 
HETATM   13  C7  UNL     1      -3.168   0.324  -0.981  1.00  0.00     0.263 C 
HETATM   14  C8  UNL     1      -3.522   1.696  -0.493  1.00  0.00     0.195 C 
HETATM   15  O1  UNL     1      -4.076   1.681   0.785  1.00  0.00    -0.388 OA
HETATM   16  C9  UNL     1      -3.623   0.532   1.449  1.00  0.00     0.195 C 
HETATM   17  C10 UNL     1      -2.167   0.347   1.091  1.00  0.00     0.263 C 
ENDBRANCH  10  11
ENDBRANCH   4  10
BRANCH   9  18
HETATM   18  N3  UNL     1       3.031   1.097  -0.168  1.00  0.00    -0.335 N 
HETATM   19  C13 UNL     1       4.390   1.427  -0.306  1.00  0.00     0.329 C 
HETATM   20  N4  UNL     1       4.807   2.765  -0.181  1.00  0.00    -0.040 NA
HETATM   21  O2  UNL     1       5.229   0.538  -0.540  1.00  0.00    -0.251 OA
ATOM     22  H3  UNL     1       2.372   1.852   0.023  1.00  0.00     0.164 HD
ENDBRANCH   9  18
TORSDOF 3
