REMARK  5 active torsions:
REMARK  status: ('A' for Active; 'I' for Inactive)
REMARK    1  A    between atoms: C2_2  and  C3_3 
REMARK    2  A    between atoms: C3_3  and  O1_4 
REMARK    3  A    between atoms: C3_3  and  N1_6 
REMARK       I    between atoms: N2_10  and  C7_11 
REMARK       I    between atoms: C7_11  and  N3_13 
REMARK    4  A    between atoms: N3_13  and  C8_15 
REMARK    5  A    between atoms: C8_15  and  C9_16 
ROOT
HETATM    1  N1  UNL     1       3.045  -0.273   0.599  1.00  0.00    -0.363 N 
HETATM    2  C4  UNL     1       2.449   0.926   0.136  1.00  0.00     0.126 C 
HETATM    3  C5  UNL     1       1.562   0.784  -1.087  1.00  0.00     0.040 C 
HETATM    4  C6  UNL     1       0.812  -0.535  -0.986  1.00  0.00     0.129 C 
HETATM    5  N2  UNL     1       0.172  -0.634   0.301  1.00  0.00    -0.333 N 
HETATM    6  C7  UNL     1      -1.218  -0.408   0.341  1.00  0.00     0.319 C 
HETATM    7  O2  UNL     1      -1.700  -0.550   1.497  1.00  0.00    -0.247 OA
HETATM    8  N3  UNL     1      -2.001  -0.063  -0.767  1.00  0.00    -0.325 N 
ATOM      9  H3  UNL     1      -1.497   0.037  -1.648  1.00  0.00     0.165 HD
HETATM   10  C15 UNL     1       0.851  -0.930   1.561  1.00  0.00     0.147 C 
HETATM   11  C16 UNL     1       2.268  -1.345   1.293  1.00  0.00     0.144 C 
ENDROOT
BRANCH   8  12
HETATM   12  C8  UNL     1      -3.430   0.172  -0.833  1.00  0.00     0.113 C 
HETATM   13  C10 UNL     1      -3.921   1.243   0.044  1.00  0.00     0.041 C 
HETATM   14  C11 UNL     1      -5.335   0.966   0.488  1.00  0.00     0.003 C 
HETATM   15  C12 UNL     1      -5.247  -0.236   1.405  1.00  0.00     0.000 C 
HETATM   16  C13 UNL     1      -4.769  -1.400   0.579  1.00  0.00     0.003 C 
HETATM   17  C14 UNL     1      -4.258  -1.078  -0.756  1.00  0.00     0.041 C 
BRANCH  12  18
HETATM   18  C9  UNL     1      -3.696   0.647  -2.251  1.00  0.00     0.259 C 
HETATM   19  N4  UNL     1      -5.008   0.932  -2.623  1.00  0.00    -0.060 NA
HETATM   20  O3  UNL     1      -2.757   0.769  -3.037  1.00  0.00    -0.274 OA
ENDBRANCH  12  18
ENDBRANCH   8  12
BRANCH   1  21
HETATM   21  C3  UNL     1       4.385  -0.629   0.501  1.00  0.00     0.122 C 
BRANCH  21  22
HETATM   22  C2  UNL     1       5.553   0.042  -0.055  1.00  0.00     0.021 A 
HETATM   23  C1  UNL     1       6.836  -0.827  -0.179  1.00  0.00     0.024 C 
HETATM   24  C17 UNL     1       5.464   1.097  -1.145  1.00  0.00     0.018 A 
HETATM   25  C18 UNL     1       5.793   1.501   0.218  1.00  0.00     0.018 A 
ENDBRANCH  21  22
BRANCH  21  26
HETATM   26  O1  UNL     1       4.668  -1.811   1.016  1.00  0.00    -0.349 OA
ATOM     27  H1  UNL     1       3.907  -2.248   1.378  1.00  0.00     0.219 HD
ENDBRANCH  21  26
ENDBRANCH   1  21
TORSDOF 5
