REMARK  4 active torsions:
REMARK  status: ('A' for Active; 'I' for Inactive)
REMARK       I    between atoms: C2_4  and  N2_5 
REMARK       I    between atoms: C2_4  and  N7_21 
REMARK    1  A    between atoms: C3_7  and  N3_9 
REMARK    2  A    between atoms: N7_21  and  C7_23 
REMARK    3  A    between atoms: C7_23  and  C8_24 
REMARK    4  A    between atoms: C8_24  and  C9_25 
ROOT
HETATM    1  C1  UNL     1       1.514   2.595  -0.956  1.00  0.00     0.165 C 
HETATM    2  N1  UNL     1       1.989   1.414  -0.299  1.00  0.00    -0.231 N 
ATOM      3  H1  UNL     1       2.985   1.365  -0.087  1.00  0.00     0.177 HD
HETATM    4  C2  UNL     1       1.264   0.413   0.044  1.00  0.00     0.676 C 
HETATM    5  N2  UNL     1      -0.119   0.438  -0.231  1.00  0.00    -0.150 N 
ATOM      6  H2  UNL     1      -0.448   0.585  -1.185  1.00  0.00     0.188 HD
HETATM    7  C3  UNL     1      -0.963   0.275   0.724  1.00  0.00     0.297 C 
HETATM    8  F1  UNL     1      -0.484   0.084   1.976  1.00  0.00    -0.163 F 
HETATM    9  N7  UNL     1       1.861  -0.693   0.686  1.00  0.00    -0.226 N 
ATOM     10  H7  UNL     1       1.265  -1.431   1.059  1.00  0.00     0.177 HD
ENDROOT
BRANCH   7  11
HETATM   11  N3  UNL     1      -2.372   0.285   0.503  1.00  0.00    -0.235 N 
HETATM   12  C4  UNL     1      -3.327  -0.332   1.408  1.00  0.00     0.191 C 
HETATM   13  C5  UNL     1      -4.138  -1.327   0.562  1.00  0.00     0.191 C 
HETATM   14 BR1  UNL     1      -5.266  -2.431   1.647  1.00  0.00    -0.066 Br
HETATM   15  N4  UNL     1      -4.882  -0.534  -0.395  1.00  0.00    -0.210 N 
HETATM   16  C6  UNL     1      -4.200   0.493  -1.099  1.00  0.00     0.687 C 
ATOM     17  H4  UNL     1      -5.873  -0.709  -0.559  1.00  0.00     0.179 HD
HETATM   18  N5  UNL     1      -4.719   1.064  -2.158  1.00  0.00    -0.234 N 
HETATM   19  N6  UNL     1      -2.914   0.901  -0.627  1.00  0.00    -0.127 N 
ATOM     20  H52 UNL     1      -5.637   0.773  -2.495  1.00  0.00     0.174 HD
ATOM     21  H51 UNL     1      -4.229   1.802  -2.664  1.00  0.00     0.174 HD
ATOM     22  H6  UNL     1      -2.397   1.635  -1.111  1.00  0.00     0.206 HD
ENDBRANCH   7  11
BRANCH   9  23
HETATM   23  C7  UNL     1       3.299  -0.808   0.829  1.00  0.00     0.139 C 
BRANCH  23  24
HETATM   24  C8  UNL     1       3.995  -1.024  -0.496  1.00  0.00     0.031 C 
BRANCH  24  25
HETATM   25  C9  UNL     1       5.483  -1.126  -0.179  1.00  0.00     0.086 C 
HETATM   26 BR2  UNL     1       6.113   0.504   0.669  1.00  0.00    -0.096 Br
ENDBRANCH  24  25
ENDBRANCH  23  24
ENDBRANCH   9  23
TORSDOF 4
