REMARK  2 active torsions:
REMARK  status: ('A' for Active; 'I' for Inactive)
REMARK       I    between atoms: C1_2  and  N2_4 
REMARK    1  A    between atoms: N2_4  and  C2_6 
REMARK    2  A    between atoms: C2_6  and  C3_7 
ROOT
HETATM    1  C3  UNL     1      -0.135  -0.267   0.023  1.00  0.00     0.001 C 
HETATM    2  C4  UNL     1      -0.219  -1.718  -0.283  1.00  0.00     0.014 C 
HETATM    3  C5  UNL     1      -0.820  -2.015   1.075  1.00  0.00     0.006 C 
HETATM    4  C6  UNL     1      -1.060  -0.507   1.198  1.00  0.00    -0.002 C 
HETATM    5  C7  UNL     1      -2.465  -0.084   0.963  1.00  0.00     0.010 C 
HETATM    6  C8  UNL     1      -2.614   0.897  -0.167  1.00  0.00    -0.010 C 
HETATM    7  C9  UNL     1      -1.390   1.804  -0.122  1.00  0.00     0.031 C 
HETATM    8  C10 UNL     1      -0.700   0.709  -0.954  1.00  0.00     0.047 C 
HETATM    9 CL1  UNL     1       0.418   1.380  -2.109  1.00  0.00    -0.118 Cl
HETATM   10  C11 UNL     1      -2.074   0.356  -1.470  1.00  0.00     0.031 C 
ENDROOT
BRANCH   1  11
HETATM   11  C2  UNL     1       1.190   0.235   0.540  1.00  0.00     0.135 C 
BRANCH  11  12
HETATM   12  N2  UNL     1       2.293   0.038  -0.323  1.00  0.00    -0.344 N 
HETATM   13  C1  UNL     1       3.581   0.470   0.047  1.00  0.00     0.328 C 
HETATM   14  N1  UNL     1       4.718   0.294  -0.786  1.00  0.00    -0.040 NA
HETATM   15  O1  UNL     1       3.756   1.036   1.152  1.00  0.00    -0.251 OA
ATOM     16  H2  UNL     1       2.154  -0.422  -1.223  1.00  0.00     0.163 HD
ENDBRANCH  11  12
ENDBRANCH   1  11
TORSDOF 2
