REMARK  1 active torsions:
REMARK  status: ('A' for Active; 'I' for Inactive)
REMARK    1  A    between atoms: C4_4  and  N1_5 
ROOT
HETATM    1  C1  UNL     1      -1.566  -1.071   0.463  1.00  0.00     0.010 C 
HETATM    2  C2  UNL     1      -0.978  -0.236  -0.622  1.00  0.00    -0.013 C 
HETATM    3  C3  UNL     1       0.281  -0.949  -1.115  1.00  0.00     0.037 C 
HETATM    4  C4  UNL     1       1.270  -0.565  -0.037  1.00  0.00     0.184 C 
HETATM    5  C5  UNL     1       1.026   0.894   0.146  1.00  0.00     0.037 C 
HETATM    6  C6  UNL     1      -0.435   1.080  -0.181  1.00  0.00    -0.013 C 
HETATM    7  C7  UNL     1      -1.203   1.724   0.933  1.00  0.00     0.010 C 
ENDROOT
BRANCH   4   8
HETATM    8  N1  UNL     1       2.594  -0.869  -0.551  1.00  0.00    -0.075 N 
ATOM      9  H13 UNL     1       2.692  -1.836  -0.860  1.00  0.00     0.274 HD
ATOM     10  H12 UNL     1       2.787  -0.426  -1.449  1.00  0.00     0.274 HD
ATOM     11  H11 UNL     1       3.261  -0.610   0.176  1.00  0.00     0.274 HD
ENDBRANCH   4   8
TORSDOF 1
