REMARK  2 active torsions:
REMARK  status: ('A' for Active; 'I' for Inactive)
REMARK    1  A    between atoms: C2_2  and  C3_3 
REMARK    2  A    between atoms: C3_3  and  N1_4 
ROOT
HETATM    1  N1  UNL     1       0.308   0.106  -0.592  1.00  0.00     0.116 N 
HETATM    2  C4  UNL     1      -0.416  -0.311   0.488  1.00  0.00     0.229 C 
HETATM    3  C5  UNL     1      -0.639  -1.737   0.827  1.00  0.00     0.036 C 
HETATM    4  C6  UNL     1      -2.083  -1.796   1.322  1.00  0.00     0.002 C 
HETATM    5  C7  UNL     1      -2.578  -0.346   1.246  1.00  0.00     0.007 C 
HETATM    6  C8  UNL     1      -1.861   0.023  -0.002  1.00  0.00     0.022 C 
HETATM    7  C9  UNL     1      -1.655   1.446  -0.291  1.00  0.00     0.064 C 
HETATM    8  C10 UNL     1      -0.339   1.365  -1.036  1.00  0.00     0.243 C 
HETATM    9  C11 UNL     1       0.455   2.573  -0.656  1.00  0.00     0.066 C 
HETATM   10  C12 UNL     1      -0.493   1.288  -2.461  1.00  0.00     0.101 C 
HETATM   11  N2  UNL     1      -0.631   1.222  -3.610  1.00  0.00    -0.195 NA
ENDROOT
BRANCH   1  12
HETATM   12  C3  UNL     1       1.671   0.321  -0.681  1.00  0.00     0.275 C 
BRANCH  12  13
HETATM   13  C2  UNL     1       2.675  -0.749  -0.637  1.00  0.00     0.026 C 
HETATM   14  C1  UNL     1       2.743  -1.548   0.626  1.00  0.00     0.007 C 
ENDBRANCH  12  13
ENDBRANCH   1  12
TORSDOF 2
