REMARK  3 active torsions:
REMARK  status: ('A' for Active; 'I' for Inactive)
REMARK    1  A    between atoms: C2_2  and  C3_3 
REMARK    2  A    between atoms: C8_9  and  C9_10 
REMARK    3  A    between atoms: C9_10  and  N1_11 
ROOT
HETATM    1  C3  UNL     1      -1.835  -0.298  -0.143  1.00  0.00    -0.006 C 
HETATM    2  C4  UNL     1      -1.490  -1.777  -0.332  1.00  0.00     0.031 C 
HETATM    3  C5  UNL     1      -0.624  -1.984  -1.549  1.00  0.00     0.169 C 
HETATM    4  O1  UNL     1       0.128  -0.838  -1.847  1.00  0.00    -0.380 OA
HETATM    5  C6  UNL     1       0.528  -0.199  -0.702  1.00  0.00     0.065 C 
HETATM    6  C7  UNL     1       1.427  -1.025   0.160  1.00  0.00     0.044 C 
HETATM    7  C8  UNL     1       2.612  -0.366  -0.524  1.00  0.00     0.017 C 
HETATM    8  C10 UNL     1       1.689   0.758  -0.918  1.00  0.00     0.044 C 
HETATM    9  C11 UNL     1      -0.603   0.510   0.020  1.00  0.00     0.020 C 
HETATM   10  C12 UNL     1      -0.797   1.842  -0.675  1.00  0.00     0.013 C 
ENDROOT
BRANCH   7  11
HETATM   11  C9  UNL     1       3.722   0.041   0.425  1.00  0.00     0.234 C 
BRANCH  11  12
HETATM   12  N1  UNL     1       3.234   0.990   1.408  1.00  0.00    -0.079 N 
ATOM     13  H13 UNL     1       2.797   1.800   0.967  1.00  0.00     0.274 HD
ATOM     14  H12 UNL     1       2.421   0.631   1.909  1.00  0.00     0.274 HD
ATOM     15  H11 UNL     1       3.981   1.264   2.046  1.00  0.00     0.274 HD
ENDBRANCH  11  12
ENDBRANCH   7  11
BRANCH   1  16
HETATM   16  C2  UNL     1      -2.854  -0.158   0.936  1.00  0.00     0.000 C 
HETATM   17  C1  UNL     1      -3.305   1.205   1.254  1.00  0.00     0.005 C 
ENDBRANCH   1  16
TORSDOF 3
