REMARK  5 active torsions:
REMARK  status: ('A' for Active; 'I' for Inactive)
REMARK    1  A    between atoms: C3_3  and  C4_4 
REMARK    2  A    between atoms: N2_13  and  O1_14 
REMARK    3  A    between atoms: C15_20  and  N3_21 
REMARK    4  A    between atoms: N3_21  and  S1_23 
REMARK    5  A    between atoms: N4_29  and  O4_30 
ROOT
HETATM    1  C1  UNL     1      -1.446   2.888  -0.148  1.00  0.00     0.072 C 
HETATM    2  C2  UNL     1      -0.589   1.663  -0.080  1.00  0.00     0.051 A 
HETATM    3  C3  UNL     1      -1.108   0.401   0.008  1.00  0.00     0.036 A 
HETATM    4  C11 UNL     1      -0.155  -0.616   0.114  1.00  0.00     0.031 A 
HETATM    5  C12 UNL     1       1.210  -0.372   0.129  1.00  0.00    -0.006 A 
HETATM    6  C13 UNL     1       2.140  -1.373   0.233  1.00  0.00     0.016 A 
HETATM    7  C14 UNL     1       3.522  -1.117   0.247  1.00  0.00     0.031 A 
HETATM    8  C15 UNL     1       3.977   0.169   0.154  1.00  0.00     0.044 A 
HETATM    9  C17 UNL     1       3.024   1.178   0.049  1.00  0.00     0.063 A 
HETATM   10  C18 UNL     1       1.680   0.913   0.037  1.00  0.00     0.075 A 
HETATM   11  N4  UNL     1       0.764   1.897  -0.066  1.00  0.00    -0.228 N 
ENDROOT
BRANCH   3  12
HETATM   12  C4  UNL     1      -2.536   0.125  -0.089  1.00  0.00     0.146 A 
HETATM   13  N1  UNL     1      -3.555   0.825  -0.572  1.00  0.00    -0.338 N 
HETATM   14  C5  UNL     1      -4.739   0.200  -0.385  1.00  0.00     0.063 A 
ATOM     15  H1  UNL     1      -3.456   1.730  -1.031  1.00  0.00     0.167 HD
HETATM   16  C6  UNL     1      -6.050   0.499  -0.693  1.00  0.00     0.032 A 
HETATM   17  C10 UNL     1      -4.463  -0.969   0.255  1.00  0.00     0.091 A 
HETATM   18  C7  UNL     1      -7.072  -0.384  -0.353  1.00  0.00     0.002 A 
HETATM   19  C8  UNL     1      -6.746  -1.560   0.295  1.00  0.00     0.002 A 
HETATM   20  C9  UNL     1      -5.445  -1.876   0.611  1.00  0.00     0.034 A 
HETATM   21  N2  UNL     1      -3.126  -0.997   0.426  1.00  0.00    -0.205 N 
BRANCH  21  22
HETATM   22  O1  UNL     1      -2.472  -2.023   1.061  1.00  0.00    -0.281 OA
ATOM     23  H1  UNL     1      -2.882  -2.802   1.419  1.00  0.00     0.245 HD
ENDBRANCH  21  22
ENDBRANCH   3  12
BRANCH  11  24
HETATM   24  O4  UNL     1       1.211   3.181  -0.159  1.00  0.00    -0.282 OA
ATOM     25  H4  UNL     1       2.147   3.343  -0.149  1.00  0.00     0.245 HD
ENDBRANCH  11  24
BRANCH   8  26
HETATM   26  N3  UNL     1       5.334   0.525   0.175  1.00  0.00    -0.285 N 
ATOM     27  H3  UNL     1       5.621   1.260   0.822  1.00  0.00     0.178 HD
BRANCH  26  28
HETATM   28  S1  UNL     1       6.530  -0.179  -0.798  1.00  0.00     0.227 S 
HETATM   29  C16 UNL     1       6.706  -1.902  -0.464  1.00  0.00     0.186 C 
HETATM   30  O2  UNL     1       6.153  -0.075  -2.281  1.00  0.00    -0.206 OA
HETATM   31  O3  UNL     1       7.866   0.535  -0.645  1.00  0.00    -0.206 OA
ENDBRANCH  26  28
ENDBRANCH   8  26
TORSDOF 5
