REMARK  6 active torsions:
REMARK  status: ('A' for Active; 'I' for Inactive)
REMARK    1  A    between atoms: C4_4  and  C5_5 
REMARK    2  A    between atoms: C5_5  and  C6_6 
REMARK    3  A    between atoms: C6_6  and  C7_7 
REMARK    4  A    between atoms: C6_6  and  C13_14 
REMARK    5  A    between atoms: C7_7  and  C8_9 
REMARK    6  A    between atoms: C9_10  and  C10_11 
ROOT
HETATM    1  C6  UNL     1      -0.658  -0.038   1.325  1.00  0.00     0.139 C 
ENDROOT
BRANCH   1   2
HETATM    2  C5  UNL     1      -1.555  -1.042   0.641  1.00  0.00     0.048 C 
BRANCH   2   3
HETATM    3  C4  UNL     1      -1.499  -0.953  -0.832  1.00  0.00    -0.024 C 
HETATM    4  C2  UNL     1      -2.562  -0.697  -1.565  1.00  0.00    -0.091 C 
HETATM    5  C1  UNL     1      -2.491  -0.610  -3.049  1.00  0.00     0.042 C 
HETATM    6  C3  UNL     1      -3.902  -0.485  -0.905  1.00  0.00     0.042 C 
ENDBRANCH   2   3
ENDBRANCH   1   2
BRANCH   1   7
HETATM    7  C7  UNL     1       0.781  -0.251   0.922  1.00  0.00     0.161 C 
HETATM    8  O1  UNL     1       1.321   0.751   0.435  1.00  0.00    -0.292 OA
BRANCH   7   9
HETATM    9  C8  UNL     1       1.437  -1.493   1.094  1.00  0.00     0.047 C 
HETATM   10  C9  UNL     1       2.608  -1.901   0.838  1.00  0.00    -0.019 C 
BRANCH  10  11
HETATM   11  C10 UNL     1       3.865  -1.467   0.294  1.00  0.00    -0.000 C 
HETATM   12  C11 UNL     1       4.355  -2.432  -0.821  1.00  0.00     0.013 C 
HETATM   13  C12 UNL     1       4.106  -0.108  -0.206  1.00  0.00     0.013 C 
ENDBRANCH  10  11
ENDBRANCH   7   9
ENDBRANCH   1   7
BRANCH   1  14
HETATM   14  C13 UNL     1      -1.025   1.352   1.012  1.00  0.00     0.152 A 
HETATM   15  N1  UNL     1      -1.060   1.928  -0.204  1.00  0.00    -0.281 N 
HETATM   16  N2  UNL     1      -1.436   3.185  -0.071  1.00  0.00    -0.282 N 
ATOM     17  H1  UNL     1      -0.833   1.467  -1.085  1.00  0.00     0.189 HD
HETATM   18  C14 UNL     1      -1.643   3.417   1.231  1.00  0.00     0.136 A 
ATOM     19  H2  UNL     1      -1.549   3.861  -0.827  1.00  0.00     0.189 HD
HETATM   20  C15 UNL     1      -2.085   4.717   1.862  1.00  0.00     0.099 C 
HETATM   21  O2  UNL     1      -1.386   2.292   1.853  1.00  0.00    -0.282 OA
ENDBRANCH   1  14
TORSDOF 6
