REMARK  7 active torsions:
REMARK  status: ('A' for Active; 'I' for Inactive)
REMARK    1  A    between atoms: C2_2  and  S1_3 
REMARK    2  A    between atoms: S1_3  and  C3_4 
REMARK    3  A    between atoms: C3_4  and  N2_6 
REMARK    4  A    between atoms: N2_6  and  N3_8 
REMARK       I    between atoms: N3_8  and  C4_10 
REMARK    5  A    between atoms: C4_10  and  C5_12 
REMARK       I    between atoms: C5_12  and  N4_14 
REMARK    6  A    between atoms: N4_14  and  C6_16 
REMARK    7  A    between atoms: C6_16  and  C7_17 
REMARK       I    between atoms: C7_17  and  N5_19 
ROOT
HETATM    1  C5  UNL     1       0.935  -1.390   0.251  1.00  0.00     0.311 C 
HETATM    2  O2  UNL     1       1.585  -2.125  -0.530  1.00  0.00    -0.262 OA
HETATM    3  N4  UNL     1       1.608  -0.876   1.393  1.00  0.00    -0.344 N 
ATOM      4  H4  UNL     1       1.117  -0.273   2.053  1.00  0.00     0.163 HD
ENDROOT
BRANCH   1   5
HETATM    5  C4  UNL     1      -0.460  -1.085  -0.016  1.00  0.00     0.327 C 
HETATM    6  N3  UNL     1      -1.083  -1.595  -1.160  1.00  0.00    -0.260 N 
ATOM      7  H3  UNL     1      -0.557  -2.179  -1.811  1.00  0.00     0.190 HD
HETATM    8  O1  UNL     1      -1.090  -0.366   0.783  1.00  0.00    -0.261 OA
BRANCH   6   9
HETATM    9  N2  UNL     1      -2.425  -1.304  -1.410  1.00  0.00    -0.279 N 
ATOM     10  H2  UNL     1      -3.088  -2.079  -1.419  1.00  0.00     0.189 HD
BRANCH   9  11
HETATM   11  C3  UNL     1      -2.923  -0.003  -1.651  1.00  0.00     0.168 C 
HETATM   12  N1  UNL     1      -2.043   1.095  -1.652  1.00  0.00    -0.073 NA
BRANCH  11  13
HETATM   13  S1  UNL     1      -4.511   0.201  -1.915  1.00  0.00    -0.096 SA
BRANCH  13  14
HETATM   14  C2  UNL     1      -5.260   1.857  -2.230  1.00  0.00     0.077 C 
HETATM   15  C1  UNL     1      -6.708   1.706  -2.607  1.00  0.00     0.016 C 
ENDBRANCH  13  14
ENDBRANCH  11  13
ENDBRANCH   9  11
ENDBRANCH   6   9
ENDBRANCH   1   5
BRANCH   3  16
HETATM   16  C6  UNL     1       2.985  -1.216   1.606  1.00  0.00     0.226 C 
BRANCH  16  17
HETATM   17  C7  UNL     1       3.466  -0.565   2.840  1.00  0.00     0.241 C 
HETATM   18  O3  UNL     1       2.700   0.156   3.512  1.00  0.00    -0.271 OA
HETATM   19  N5  UNL     1       4.799  -0.775   3.242  1.00  0.00    -0.302 N 
HETATM   20  C8  UNL     1       5.742  -0.090   2.714  1.00  0.00     0.203 C 
ATOM     21  H5  UNL     1       5.013  -1.473   3.954  1.00  0.00     0.171 HD
HETATM   22  N6  UNL     1       7.069  -0.357   3.170  1.00  0.00    -0.066 NA
HETATM   23  N7  UNL     1       5.458   0.875   1.733  1.00  0.00    -0.066 NA
ENDBRANCH  16  17
ENDBRANCH   3  16
TORSDOF 7
