REMARK  13 active torsions:
REMARK  status: ('A' for Active; 'I' for Inactive)
REMARK    1  A    between atoms: N1_1  and  C1_4 
REMARK    2  A    between atoms: C2_10  and  N4_11 
REMARK    3  A    between atoms: N4_11  and  C3_12 
REMARK    4  A    between atoms: N4_11  and  C7_21 
REMARK    5  A    between atoms: C3_12  and  C4_13 
REMARK    6  A    between atoms: C4_13  and  N5_14 
REMARK    7  A    between atoms: N5_14  and  C5_17 
REMARK    8  A    between atoms: C5_17  and  C6_18 
REMARK    9  A    between atoms: C6_18  and  O2_19 
REMARK   10  A    between atoms: N8_30  and  C11_31 
REMARK   11  A    between atoms: C13_36  and  O5_37 
REMARK   12  A    between atoms: C17_43  and  O7_44 
REMARK   13  A    between atoms: C19_47  and  S1_48 
ROOT
HETATM    1  C7  UNL     1       1.084  -1.160  -0.484  1.00  0.00     0.139 A 
HETATM    2  N6  UNL     1       1.382  -1.294  -1.829  1.00  0.00    -0.306 N 
ATOM      3  H6  UNL     1       2.206  -1.833  -2.096  1.00  0.00     0.170 HD
HETATM    4  C8  UNL     1       0.643  -0.753  -2.780  1.00  0.00     0.276 A 
HETATM    5  O3  UNL     1       0.910  -0.868  -4.016  1.00  0.00    -0.266 OA
HETATM    6  C9  UNL     1      -0.461  -0.036  -2.407  1.00  0.00     0.131 A 
HETATM    7  N7  UNL     1      -1.420   0.595  -3.145  1.00  0.00    -0.346 N 
ATOM      8  H7  UNL     1      -1.449   0.659  -4.163  1.00  0.00     0.167 HD
HETATM    9  C10 UNL     1      -2.306   1.109  -2.305  1.00  0.00     0.185 A 
HETATM   10  N8  UNL     1      -1.931   0.818  -1.003  1.00  0.00    -0.322 N 
HETATM   11  C18 UNL     1      -0.794   0.120  -1.061  1.00  0.00     0.097 A 
HETATM   12  C19 UNL     1      -0.005  -0.449  -0.040  1.00  0.00     0.154 A 
ENDROOT
BRANCH   1  13
HETATM   13  N4  UNL     1       2.020  -1.866   0.332  1.00  0.00    -0.312 N 
BRANCH  13  14
HETATM   14  C2  UNL     1       1.697  -3.189   0.703  1.00  0.00     0.177 A 
HETATM   15  C1  UNL     1       2.318  -4.338   0.180  1.00  0.00     0.167 A 
HETATM   16  N2  UNL     1       1.763  -5.412   0.772  1.00  0.00    -0.222 N 
HETATM   17  O1  UNL     1       0.874  -4.962   1.591  1.00  0.00    -0.153 OA
ATOM     18  H2  UNL     1       1.999  -6.390   0.605  1.00  0.00     0.198 HD
HETATM   19  N3  UNL     1       0.823  -3.684   1.563  1.00  0.00    -0.222 N 
ATOM     20  H3  UNL     1       0.190  -3.120   2.130  1.00  0.00     0.198 HD
BRANCH  15  21
HETATM   21  N1  UNL     1       3.221  -4.429  -0.693  1.00  0.00    -0.381 N 
ATOM     22  H12 UNL     1       3.671  -5.262  -1.072  1.00  0.00     0.157 HD
ATOM     23  H11 UNL     1       3.642  -3.615  -1.142  1.00  0.00     0.157 HD
ENDBRANCH  15  21
ENDBRANCH  13  14
BRANCH  13  24
HETATM   24  C3  UNL     1       3.276  -1.258   0.645  1.00  0.00     0.160 C 
BRANCH  24  25
HETATM   25  C4  UNL     1       3.432   0.150   0.053  1.00  0.00     0.252 C 
BRANCH  25  26
HETATM   26  N5  UNL     1       4.764   0.569   0.479  1.00  0.00    -0.072 N 
ATOM     27  H52 UNL     1       4.864   0.491   1.491  1.00  0.00     0.277 HD
ATOM     28  H51 UNL     1       5.469  -0.109   0.189  1.00  0.00     0.277 HD
BRANCH  26  29
HETATM   29  C5  UNL     1       5.107   1.886   0.031  1.00  0.00     0.258 C 
BRANCH  29  30
HETATM   30  C6  UNL     1       4.310   2.977   0.687  1.00  0.00     0.191 C 
BRANCH  30  31
HETATM   31  O2  UNL     1       4.568   2.879   2.073  1.00  0.00    -0.399 OA
ATOM     32  H2  UNL     1       4.064   3.569   2.488  1.00  0.00     0.209 HD
ENDBRANCH  30  31
ENDBRANCH  29  30
ENDBRANCH  26  29
ENDBRANCH  25  26
ENDBRANCH  24  25
ENDBRANCH  13  24
ENDBRANCH   1  13
BRANCH  12  33
HETATM   33  S1  UNL     1      -0.402  -0.203   1.587  1.00  0.00     0.143 S 
HETATM   34  O8  UNL     1      -0.453   1.293   1.974  1.00  0.00    -0.591 OA
HETATM   35  O9  UNL     1      -1.345  -1.061   2.282  1.00  0.00    -0.591 OA
HETATM   36  O10 UNL     1       1.009  -0.464   2.538  1.00  0.00    -0.591 OA
ENDBRANCH  12  33
BRANCH  10  37
HETATM   37  C11 UNL     1      -2.776   1.199   0.031  1.00  0.00     0.226 C 
HETATM   38  C12 UNL     1      -3.032   2.658  -0.144  1.00  0.00     0.247 C 
HETATM   39  O4  UNL     1      -2.160   3.527   0.072  1.00  0.00    -0.271 OA
HETATM   40  N9  UNL     1      -4.336   2.936  -0.569  1.00  0.00    -0.318 N 
HETATM   41  C13 UNL     1      -5.091   1.730  -0.515  1.00  0.00     0.238 C 
ATOM     42  H9  UNL     1      -4.686   3.847  -0.867  1.00  0.00     0.166 HD
HETATM   43  C14 UNL     1      -5.975   1.776   0.670  1.00  0.00     0.207 C 
HETATM   44  C17 UNL     1      -4.180   0.592  -0.321  1.00  0.00     0.163 C 
HETATM   45  O6  UNL     1      -6.759   2.687   0.971  1.00  0.00    -0.288 OA
HETATM   46  C15 UNL     1      -5.745   0.555   1.405  1.00  0.00     0.055 C 
HETATM   47  C16 UNL     1      -4.759  -0.101   0.866  1.00  0.00     0.022 C 
BRANCH  41  48
HETATM   48  O5  UNL     1      -5.894   1.535  -1.643  1.00  0.00    -0.361 OA
ATOM     49  H5  UNL     1      -6.398   0.730  -1.607  1.00  0.00     0.213 HD
ENDBRANCH  41  48
BRANCH  44  50
HETATM   50  O7  UNL     1      -4.089  -0.311  -1.348  1.00  0.00    -0.378 OA
ATOM     51  H7  UNL     1      -4.939  -0.678  -1.561  1.00  0.00     0.211 HD
ENDBRANCH  44  50
ENDBRANCH  10  37
TORSDOF 13
