REMARK  3 active torsions:
REMARK  status: ('A' for Active; 'I' for Inactive)
REMARK    1  A    between atoms: C3_3  and  N1_4 
REMARK    2  A    between atoms: C4_6  and  C5_7 
REMARK    3  A    between atoms: C4_6  and  C8_10 
ROOT
HETATM    1  C1  UNL     1      -2.944   3.700   0.582  1.00  0.00     0.018 C 
HETATM    2  C2  UNL     1      -2.047   2.995   0.212  1.00  0.00    -0.072 C 
HETATM    3  C3  UNL     1      -0.934   2.124  -0.252  1.00  0.00     0.152 C 
ENDROOT
BRANCH   3   4
HETATM    4  N1  UNL     1      -1.201   0.784   0.036  1.00  0.00    -0.359 N 
HETATM    5  C4  UNL     1      -0.594  -0.306  -0.088  1.00  0.00     0.047 C 
ATOM      6  H1  UNL     1      -2.124   0.661   0.453  1.00  0.00     0.165 HD
BRANCH   5   7
HETATM    7  C5  UNL     1      -1.272  -1.509   0.361  1.00  0.00    -0.046 C 
HETATM    8  C6  UNL     1      -0.700  -2.688   0.257  1.00  0.00     0.020 C 
HETATM    9  C7  UNL     1      -2.628  -1.435   0.948  1.00  0.00     0.049 C 
ENDBRANCH   5   7
BRANCH   5  10
HETATM   10  C8  UNL     1       0.742  -0.431  -0.637  1.00  0.00     0.194 C 
HETATM   11  N2  UNL     1       1.748  -0.823   0.287  1.00  0.00    -0.383 N 
HETATM   12  C9  UNL     1       3.034  -0.518  -0.102  1.00  0.00     0.067 C 
ATOM     13  H2  UNL     1       1.535  -1.292   1.167  1.00  0.00     0.160 HD
HETATM   14  C10 UNL     1       3.162   0.631  -1.007  1.00  0.00     0.120 C 
HETATM   15  S1  UNL     1       1.440   0.982  -1.464  1.00  0.00    -0.133 SA
ENDBRANCH   5  10
ENDBRANCH   3   4
TORSDOF 3
