REMARK  3 active torsions:
REMARK  status: ('A' for Active; 'I' for Inactive)
REMARK    1  A    between atoms: C2_2  and  C3_3 
REMARK    2  A    between atoms: C3_3  and  C5_5 
REMARK    3  A    between atoms: N2_11  and  O1_13 
ROOT
HETATM    1  C5  UNL     1      -0.449  -0.421   1.089  1.00  0.00     0.120 C 
HETATM    2  C6  UNL     1      -0.949   0.382   2.167  1.00  0.00     0.090 C 
HETATM    3  S1  UNL     1      -2.035   1.471   2.724  1.00  0.00    -0.064 SA
HETATM    4  N1  UNL     1       0.112  -0.184   2.988  1.00  0.00    -0.338 N 
ATOM      5  H1  UNL     1       0.260  -0.395   3.975  1.00  0.00     0.168 HD
HETATM    6  C7  UNL     1       0.841  -0.305   1.783  1.00  0.00     0.113 C 
HETATM    7  N2  UNL     1       2.074  -0.319   1.510  1.00  0.00    -0.254 N 
ATOM      8  H2  UNL     1       2.707  -0.202   2.301  1.00  0.00     0.195 HD
ENDROOT
BRANCH   1   9
HETATM    9  C3  UNL     1      -0.562  -0.153  -0.330  1.00  0.00    -0.001 C 
HETATM   10  C4  UNL     1       0.246   0.944  -0.942  1.00  0.00     0.011 C 
BRANCH   9  11
HETATM   11  C2  UNL     1      -1.977  -0.108  -0.816  1.00  0.00     0.001 C 
HETATM   12  C1  UNL     1      -2.740   1.139  -0.577  1.00  0.00     0.005 C 
ENDBRANCH   9  11
ENDBRANCH   1   9
BRANCH   7  13
HETATM   13  O1  UNL     1       2.665  -0.470   0.295  1.00  0.00    -0.284 OA
HETATM   14  C8  UNL     1       3.744  -1.297   0.001  1.00  0.00     0.237 C 
ENDBRANCH   7  13
TORSDOF 3
