REMARK  3 active torsions:
REMARK  status: ('A' for Active; 'I' for Inactive)
REMARK    1  A    between atoms: N1_2  and  C2_5 
REMARK    2  A    between atoms: C2_5  and  N2_6 
REMARK    3  A    between atoms: C5_12  and  C7_14 
ROOT
HETATM    1  C2  UNL     1       1.138   0.102  -0.254  1.00  0.00     0.291 C 
HETATM    2  C3  UNL     1       1.599  -1.268   0.218  1.00  0.00     0.071 C 
HETATM    3  C4  UNL     1       0.156  -1.472   0.700  1.00  0.00     0.018 C 
HETATM    4  C5  UNL     1      -0.224  -0.425  -0.313  1.00  0.00     0.022 C 
HETATM    5  C6  UNL     1      -0.393  -1.188  -1.658  1.00  0.00     0.020 C 
ENDROOT
BRANCH   1   6
HETATM    6  N1  UNL     1       1.516   1.081   0.731  1.00  0.00    -0.044 N 
HETATM    7  C1  UNL     1       2.958   1.225   0.890  1.00  0.00     0.270 C 
ATOM      8  H12 UNL     1       1.073   0.879   1.628  1.00  0.00     0.279 HD
ATOM      9  H11 UNL     1       1.085   1.982   0.527  1.00  0.00     0.279 HD
ENDBRANCH   1   6
BRANCH   1  10
HETATM   10  N2  UNL     1       1.754   0.350  -1.565  1.00  0.00    -0.044 N 
ATOM     11  H23 UNL     1       1.552   1.295  -1.892  1.00  0.00     0.277 HD
ATOM     12  H22 UNL     1       2.769   0.417  -1.486  1.00  0.00     0.277 HD
ATOM     13  H21 UNL     1       1.486  -0.344  -2.263  1.00  0.00     0.277 HD
ENDBRANCH   1  10
BRANCH   4  14
HETATM   14  C7  UNL     1      -1.425   0.326   0.015  1.00  0.00    -0.040 C 
HETATM   15  C8  UNL     1      -1.491   0.868   1.417  1.00  0.00     0.015 C 
HETATM   16  C9  UNL     1      -2.624  -0.645  -0.077  1.00  0.00     0.015 C 
HETATM   17  C10 UNL     1      -1.788   1.462  -0.905  1.00  0.00     0.015 C 
ENDBRANCH   4  14
TORSDOF 3
