REMARK  10 active torsions:
REMARK  status: ('A' for Active; 'I' for Inactive)
REMARK    1  A    between atoms: O1_2  and  C2_3 
REMARK    2  A    between atoms: C2_3  and  C3_4 
REMARK    3  A    between atoms: C3_4  and  C4_5 
REMARK    4  A    between atoms: C4_5  and  C5_6 
REMARK    5  A    between atoms: C5_6  and  C6_7 
REMARK    6  A    between atoms: C6_7  and  C7_8 
REMARK    7  A    between atoms: C7_8  and  N1_9 
REMARK    8  A    between atoms: N1_9  and  C8_11 
REMARK    9  A    between atoms: C17_26  and  O4_27 
REMARK   10  A    between atoms: C18_30  and  C19_31 
ROOT
HETATM    1  C2  UNL     1       0.617   0.217  -0.470  1.00  0.00     0.211 C 
HETATM    2  O3  UNL     1      -0.357   0.555  -1.418  1.00  0.00    -0.325 OA
HETATM    3  C12 UNL     1      -1.648   0.580  -1.104  1.00  0.00     0.227 C 
HETATM    4  C13 UNL     1      -2.134   1.961  -1.676  1.00  0.00     0.056 C 
HETATM    5  C14 UNL     1      -1.702   2.896  -0.534  1.00  0.00     0.029 C 
HETATM    6  C15 UNL     1      -1.581   2.007   0.678  1.00  0.00     0.088 C 
HETATM    7  C16 UNL     1      -0.243   1.884   1.267  1.00  0.00     0.063 C 
HETATM    8  C17 UNL     1       0.871   1.283   0.511  1.00  0.00     0.186 C 
HETATM    9  N4  UNL     1      -2.064   0.761   0.210  1.00  0.00    -0.362 N 
HETATM   10  C18 UNL     1      -2.867  -0.029   0.951  1.00  0.00     0.071 C 
ENDROOT
BRANCH   1  11
HETATM   11  O1  UNL     1       0.266  -0.967   0.173  1.00  0.00    -0.355 OA
HETATM   12  C1  UNL     1       0.113  -2.057  -0.663  1.00  0.00     0.206 C 
ENDBRANCH   1  11
BRANCH   1  13
HETATM   13  C3  UNL     1       1.819  -0.050  -1.315  1.00  0.00     0.039 C 
BRANCH  13  14
HETATM   14  C4  UNL     1       3.088  -0.545  -0.809  1.00  0.00    -0.025 C 
BRANCH  14  15
HETATM   15  C5  UNL     1       3.925   0.215   0.149  1.00  0.00     0.028 C 
BRANCH  15  16
HETATM   16  C6  UNL     1       5.192  -0.625   0.438  1.00  0.00     0.024 C 
BRANCH  16  17
HETATM   17  C7  UNL     1       5.994  -0.861  -0.799  1.00  0.00     0.138 C 
BRANCH  17  18
HETATM   18  N1  UNL     1       7.191  -1.626  -0.455  1.00  0.00    -0.226 N 
ATOM     19  H1  UNL     1       7.189  -2.632  -0.620  1.00  0.00     0.177 HD
BRANCH  18  20
HETATM   20  C8  UNL     1       8.239  -1.093   0.043  1.00  0.00     0.680 A 
HETATM   21  N2  UNL     1       8.314   0.209   0.284  1.00  0.00    -0.202 N 
HETATM   22  C9  UNL     1       9.466   0.710   0.826  1.00  0.00     0.111 A 
ATOM     23  H2  UNL     1       7.529   0.824   0.070  1.00  0.00     0.183 HD
HETATM   24  C10 UNL     1      10.539  -0.109   1.122  1.00  0.00     0.092 A 
HETATM   25  C11 UNL     1      10.429  -1.470   0.857  1.00  0.00     0.260 A 
HETATM   26  O2  UNL     1      11.410  -2.207   1.129  1.00  0.00    -0.268 OA
HETATM   27  N3  UNL     1       9.287  -1.903   0.331  1.00  0.00    -0.156 N 
ATOM     28  H3  UNL     1       9.195  -2.899   0.133  1.00  0.00     0.187 HD
ENDBRANCH  18  20
ENDBRANCH  17  18
ENDBRANCH  16  17
ENDBRANCH  15  16
ENDBRANCH  14  15
ENDBRANCH  13  14
ENDBRANCH   1  13
BRANCH   8  29
HETATM   29  O4  UNL     1       1.681   2.315   0.040  1.00  0.00    -0.390 OA
ATOM     30  H4  UNL     1       1.845   3.004   0.674  1.00  0.00     0.210 HD
ENDBRANCH   8  29
BRANCH  10  31
HETATM   31  C19 UNL     1      -4.321  -0.214   0.668  1.00  0.00    -0.007 C 
HETATM   32  C20 UNL     1      -4.666  -0.782  -0.656  1.00  0.00     0.019 C 
HETATM   33  C21 UNL     1      -6.157  -1.123  -0.672  1.00  0.00    -0.013 C 
HETATM   34  C22 UNL     1      -6.565  -2.054   0.416  1.00  0.00     0.009 C 
HETATM   35  C26 UNL     1      -6.888   0.195  -0.621  1.00  0.00     0.009 C 
HETATM   36  C23 UNL     1      -6.288  -1.379   1.738  1.00  0.00    -0.013 C 
HETATM   37  C24 UNL     1      -7.066  -0.090   1.836  1.00  0.00     0.009 C 
HETATM   38  C28 UNL     1      -4.840  -1.070   1.835  1.00  0.00     0.019 C 
HETATM   39  C25 UNL     1      -6.580   0.813   0.738  1.00  0.00    -0.013 C 
HETATM   40  C27 UNL     1      -5.112   1.099   0.791  1.00  0.00     0.019 C 
ENDBRANCH  10  31
TORSDOF 10
