REMARK  8 active torsions:
REMARK  status: ('A' for Active; 'I' for Inactive)
REMARK    1  A    between atoms: O1_2  and  C2_3 
REMARK    2  A    between atoms: C2_3  and  C3_5 
REMARK    3  A    between atoms: C6_8  and  N1_9 
REMARK    4  A    between atoms: C7_11  and  C8_12 
REMARK    5  A    between atoms: C8_12  and  C9_13 
REMARK    6  A    between atoms: C9_13  and  C10_14 
REMARK    7  A    between atoms: C10_14  and  C11_15 
REMARK    8  A    between atoms: C23_31  and  O5_32 
ROOT
HETATM    1  C3  UNL     1      -2.187  -0.320   0.267  1.00  0.00     0.090 C 
HETATM    2  C4  UNL     1      -0.933  -1.071   0.522  1.00  0.00     0.026 C 
HETATM    3  C5  UNL     1       0.139  -0.693   1.439  1.00  0.00     0.027 C 
HETATM    4  C6  UNL     1       1.378   0.048   0.894  1.00  0.00     0.085 C 
HETATM    5  C14 UNL     1       0.899   0.874  -0.218  1.00  0.00     0.008 C 
HETATM    6  C15 UNL     1       1.757   1.438  -1.290  1.00  0.00     0.009 C 
HETATM    7  C16 UNL     1       0.713   2.030  -2.261  1.00  0.00     0.027 C 
HETATM    8  C17 UNL     1      -0.590   1.319  -2.331  1.00  0.00     0.169 C 
HETATM    9  O4  UNL     1      -1.529   1.239  -1.518  1.00  0.00    -0.375 OA
HETATM   10  C18 UNL     1      -2.060   1.056  -0.381  1.00  0.00     0.096 C 
HETATM   11  C19 UNL     1      -1.241   1.859   0.654  1.00  0.00     0.044 C 
HETATM   12  C20 UNL     1       0.170   2.040   0.316  1.00  0.00     0.010 C 
HETATM   13  C21 UNL     1      -3.386   1.814  -0.367  1.00  0.00     0.011 C 
HETATM   14  C22 UNL     1      -4.639   1.306  -0.788  1.00  0.00     0.017 C 
HETATM   15  C23 UNL     1      -4.942  -0.081  -1.121  1.00  0.00     0.136 C 
HETATM   16  C24 UNL     1      -3.744  -0.726  -1.736  1.00  0.00     0.061 C 
HETATM   17  C25 UNL     1      -3.032  -1.276  -0.555  1.00  0.00    -0.014 C 
HETATM   18  C26 UNL     1      -2.252  -2.448  -1.153  1.00  0.00     0.017 C 
HETATM   19  C27 UNL     1      -4.180  -1.888   0.171  1.00  0.00     0.092 C 
HETATM   20  C28 UNL     1      -5.327  -1.004  -0.043  1.00  0.00     0.165 C 
HETATM   21  O6  UNL     1      -6.375  -1.059   0.573  1.00  0.00    -0.294 OA
ENDROOT
BRANCH   4  22
HETATM   22  N1  UNL     1       2.522  -0.739   0.765  1.00  0.00    -0.394 N 
HETATM   23  C7  UNL     1       2.662  -1.819  -0.058  1.00  0.00     0.083 C 
ATOM     24  H1  UNL     1       3.327  -0.485   1.337  1.00  0.00     0.159 HD
BRANCH  23  25
HETATM   25  C8  UNL     1       3.927  -2.579   0.046  1.00  0.00     0.016 C 
BRANCH  25  26
HETATM   26  C9  UNL     1       5.246  -2.080  -0.250  1.00  0.00    -0.002 C 
BRANCH  26  27
HETATM   27  C10 UNL     1       5.980  -0.997   0.360  1.00  0.00    -0.011 C 
BRANCH  27  28
HETATM   28  C11 UNL     1       5.629   0.426   0.272  1.00  0.00     0.118 C 
HETATM   29  C12 UNL     1       6.679   1.277   1.062  1.00  0.00     0.140 C 
HETATM   30  N2  UNL     1       6.505   2.236  -0.011  1.00  0.00    -0.359 N 
HETATM   31  C13 UNL     1       6.294   1.148  -0.893  1.00  0.00     0.227 C 
ATOM     32  H2  UNL     1       6.526   3.252  -0.095  1.00  0.00     0.162 HD
HETATM   33  O3  UNL     1       6.561   0.937  -2.087  1.00  0.00    -0.273 OA
ENDBRANCH  27  28
ENDBRANCH  26  27
ENDBRANCH  25  26
ENDBRANCH  23  25
ENDBRANCH   4  22
BRANCH   1  34
HETATM   34  C2  UNL     1      -2.816  -0.231   1.631  1.00  0.00     0.271 C 
HETATM   35  O2  UNL     1      -2.416  -0.986   2.604  1.00  0.00    -0.264 OA
BRANCH  34  36
HETATM   36  O1  UNL     1      -3.812   0.554   2.085  1.00  0.00    -0.326 OA
HETATM   37  C1  UNL     1      -4.379   0.624   3.345  1.00  0.00     0.213 C 
ENDBRANCH  34  36
ENDBRANCH   1  34
BRANCH  15  38
HETATM   38  O5  UNL     1      -5.997  -0.177  -2.069  1.00  0.00    -0.378 OA
ATOM     39  H5  UNL     1      -6.194  -1.081  -2.286  1.00  0.00     0.211 HD
ENDBRANCH  15  38
TORSDOF 8
