REMARK  5 active torsions:
REMARK  status: ('A' for Active; 'I' for Inactive)
REMARK    1  A    between atoms: O1_1  and  C1_3 
REMARK    2  A    between atoms: C1_3  and  N1_4 
REMARK    3  A    between atoms: C1_3  and  C6_9 
REMARK    4  A    between atoms: C10_13  and  O2_14 
REMARK    5  A    between atoms: C12_17  and  O3_18 
ROOT
HETATM    1  C6  UNL     1      -0.141  -0.223  -0.560  1.00  0.00     0.030 C 
HETATM    2  C7  UNL     1      -0.885  -0.316  -1.906  1.00  0.00     0.023 C 
HETATM    3  C8  UNL     1      -2.356  -0.289  -1.709  1.00  0.00    -0.008 C 
HETATM    4  C9  UNL     1      -2.695   1.025  -1.025  1.00  0.00     0.042 C 
HETATM    5  C10 UNL     1      -2.084   1.027   0.334  1.00  0.00     0.062 C 
HETATM    6  C11 UNL     1      -2.466  -0.187   1.163  1.00  0.00     0.075 C 
HETATM    7  C12 UNL     1      -2.033  -1.431   0.451  1.00  0.00     0.062 C 
HETATM    8  C13 UNL     1      -2.737  -1.491  -0.870  1.00  0.00     0.042 C 
HETATM    9  C14 UNL     1      -0.527  -1.441   0.279  1.00  0.00     0.056 C 
HETATM   10  C15 UNL     1      -0.566   0.998   0.207  1.00  0.00     0.056 C 
ENDROOT
BRANCH   1  11
HETATM   11  C1  UNL     1       1.286  -0.209  -0.936  1.00  0.00     0.122 C 
BRANCH  11  12
HETATM   12  O1  UNL     1       1.617  -0.490  -2.162  1.00  0.00    -0.349 OA
ATOM     13  H1  UNL     1       0.890  -0.689  -2.741  1.00  0.00     0.219 HD
ENDBRANCH  11  12
BRANCH  11  14
HETATM   14  N1  UNL     1       2.355   0.084  -0.085  1.00  0.00    -0.365 N 
HETATM   15  C2  UNL     1       3.756   0.062  -0.585  1.00  0.00     0.124 C 
HETATM   16  C3  UNL     1       4.483   0.953   0.429  1.00  0.00     0.021 C 
HETATM   17  C4  UNL     1       3.822   0.439   1.688  1.00  0.00     0.021 C 
HETATM   18  C5  UNL     1       2.364   0.450   1.285  1.00  0.00     0.124 C 
ENDBRANCH  11  14
ENDBRANCH   1  11
BRANCH   7  19
HETATM   19  O3  UNL     1      -2.357  -2.556   1.214  1.00  0.00    -0.390 OA
ATOM     20  H3  UNL     1      -2.082  -3.345   0.762  1.00  0.00     0.210 HD
ENDBRANCH   7  19
BRANCH   5  21
HETATM   21  O2  UNL     1      -2.442   2.197   0.994  1.00  0.00    -0.390 OA
ATOM     22  H2  UNL     1      -2.052   2.198   1.860  1.00  0.00     0.210 HD
ENDBRANCH   5  21
TORSDOF 5
