REMARK  9 active torsions:
REMARK  status: ('A' for Active; 'I' for Inactive)
REMARK    1  A    between atoms: C3_5  and  N2_6 
REMARK    2  A    between atoms: N4_11  and  C4_12 
REMARK    3  A    between atoms: C4_12  and  C5_13 
REMARK    4  A    between atoms: C5_13  and  C6_14 
REMARK    5  A    between atoms: C6_14  and  N5_15 
REMARK    6  A    between atoms: N5_15  and  C7_17 
REMARK    7  A    between atoms: C7_17  and  C8_18 
REMARK    8  A    between atoms: C8_18  and  N6_19 
REMARK    9  A    between atoms: N6_19  and  N7_20 
ROOT
HETATM    1  C1  UNL     1      -1.741   1.555  -1.127  1.00  0.00     0.091 C 
HETATM    2  C2  UNL     1      -2.207   0.303  -0.479  1.00  0.00     0.110 A 
HETATM    3  N1  UNL     1      -3.489  -0.040  -0.235  1.00  0.00    -0.178 N 
ATOM      4  H1  UNL     1      -4.311   0.518  -0.465  1.00  0.00     0.185 HD
HETATM    5  C3  UNL     1      -3.496  -1.227   0.355  1.00  0.00     0.692 A 
HETATM    6  N3  UNL     1      -2.200  -1.606   0.468  1.00  0.00    -0.129 N 
ATOM      7  H3  UNL     1      -1.881  -2.481   0.884  1.00  0.00     0.206 HD
HETATM    8  N4  UNL     1      -1.412  -0.680  -0.037  1.00  0.00    -0.265 N 
ENDROOT
BRANCH   8   9
HETATM    9  C4  UNL     1       0.054  -0.708  -0.107  1.00  0.00     0.164 C 
BRANCH   9  10
HETATM   10  C5  UNL     1       0.552  -0.095   1.125  1.00  0.00     0.126 C 
BRANCH  10  11
HETATM   11  C6  UNL     1       1.409   0.907   0.988  1.00  0.00    -0.073 C 
BRANCH  11  12
HETATM   12  N5  UNL     1       2.439   1.646   0.889  1.00  0.00    -0.355 N 
ATOM     13  H5  UNL     1       2.355   2.663   0.890  1.00  0.00     0.169 HD
BRANCH  12  14
HETATM   14  C7  UNL     1       3.727   1.013   0.775  1.00  0.00     0.190 C 
BRANCH  14  15
HETATM   15  C8  UNL     1       3.910   0.227  -0.434  1.00  0.00     0.201 C 
BRANCH  15  16
HETATM   16  N6  UNL     1       4.950   0.355  -1.102  1.00  0.00    -0.348 NA
BRANCH  16  17
HETATM   17  N7  UNL     1       5.949   0.363  -1.856  1.00  0.00    -0.281 N 
ATOM     18  H72 UNL     1       5.498  -0.439  -2.296  1.00  0.00     0.191 HD
ATOM     19  H71 UNL     1       6.803   0.468  -2.404  1.00  0.00     0.191 HD
ENDBRANCH  16  17
ENDBRANCH  15  16
ENDBRANCH  14  15
ENDBRANCH  12  14
ENDBRANCH  11  12
ENDBRANCH  10  11
ENDBRANCH   9  10
ENDBRANCH   8   9
BRANCH   5  20
HETATM   20  N2  UNL     1      -4.459  -1.974   0.781  1.00  0.00    -0.233 N 
ATOM     21  H22 UNL     1      -5.435  -1.689   0.696  1.00  0.00     0.174 HD
ATOM     22  H21 UNL     1      -4.464  -2.887   1.235  1.00  0.00     0.174 HD
ENDBRANCH   5  20
TORSDOF 9
