REMARK  8 active torsions:
REMARK  status: ('A' for Active; 'I' for Inactive)
REMARK    1  A    between atoms: C2_2  and  N1_4 
REMARK       I    between atoms: N1_4  and  C4_6 
REMARK    2  A    between atoms: C4_6  and  C5_8 
REMARK    3  A    between atoms: C6_9  and  C7_10 
REMARK       I    between atoms: C7_10  and  N2_12 
REMARK    4  A    between atoms: N2_12  and  C8_13 
REMARK    5  A    between atoms: C8_13  and  C9_14 
REMARK    6  A    between atoms: C8_13  and  C10_17 
REMARK    7  A    between atoms: C10_17  and  C11_19 
REMARK    8  A    between atoms: C14_22  and  O6_23 
ROOT
HETATM    1  C8  UNL     1      -2.037   0.095  -0.950  1.00  0.00     0.341 C 
ENDROOT
BRANCH   1   2
HETATM    2  N2  UNL     1      -0.859   0.603  -0.472  1.00  0.00    -0.387 NA
HETATM    3  C7  UNL     1       0.292   1.106  -0.001  1.00  0.00     0.312 C 
HETATM    4  O2  UNL     1       0.412   2.230   0.638  1.00  0.00    -0.252 OA
BRANCH   3   5
HETATM    5  C6  UNL     1       1.625   0.453  -0.148  1.00  0.00     0.095 C 
HETATM    6  C5  UNL     1       2.665   0.996   0.400  1.00  0.00     0.080 C 
BRANCH   6   7
HETATM    7  C4  UNL     1       4.050   0.426   0.297  1.00  0.00     0.241 C 
HETATM    8  N1  UNL     1       5.032   1.093   1.016  1.00  0.00    -0.354 N 
ATOM      9  H1  UNL     1       4.728   1.878   1.592  1.00  0.00     0.163 HD
HETATM   10  O1  UNL     1       4.172  -0.587  -0.441  1.00  0.00    -0.269 OA
BRANCH   8  11
HETATM   11  C2  UNL     1       6.416   0.790   1.027  1.00  0.00     0.076 C 
HETATM   12  C1  UNL     1       6.986   0.566   2.373  1.00  0.00     0.032 C 
HETATM   13  C3  UNL     1       6.700  -0.378   0.072  1.00  0.00     0.032 C 
ENDBRANCH   8  11
ENDBRANCH   6   7
ENDBRANCH   3   5
ENDBRANCH   1   2
BRANCH   1  14
HETATM   14  C9  UNL     1      -1.715  -1.000  -1.940  1.00  0.00     0.218 C 
HETATM   15  O3  UNL     1      -0.571  -1.093  -2.373  1.00  0.00    -0.645 OA
HETATM   16  O4  UNL     1      -2.734  -1.868  -2.318  1.00  0.00    -0.645 OA
ENDBRANCH   1  14
BRANCH   1  17
HETATM   17  C10 UNL     1      -2.929  -0.484   0.115  1.00  0.00     0.205 C 
HETATM   18  O5  UNL     1      -2.414  -0.898   1.164  1.00  0.00    -0.288 OA
BRANCH  17  19
HETATM   19  C11 UNL     1      -4.363  -0.558  -0.067  1.00  0.00     0.014 A 
HETATM   20  C12 UNL     1      -5.052  -0.158  -1.181  1.00  0.00     0.018 A 
HETATM   21  C13 UNL     1      -6.425  -0.237  -1.280  1.00  0.00     0.037 A 
HETATM   22  C14 UNL     1      -7.197  -0.733  -0.237  1.00  0.00     0.065 A 
HETATM   23  C15 UNL     1      -6.518  -1.137   0.885  1.00  0.00     0.037 A 
HETATM   24  C16 UNL     1      -5.153  -1.061   0.986  1.00  0.00     0.018 A 
BRANCH  22  25
HETATM   25  O6  UNL     1      -8.600  -0.804  -0.356  1.00  0.00    -0.361 OA
ATOM     26  H6  UNL     1      -9.128  -1.143   0.357  1.00  0.00     0.217 HD
ENDBRANCH  22  25
ENDBRANCH  17  19
ENDBRANCH   1  17
TORSDOF 8
