REMARK  5 active torsions:
REMARK  status: ('A' for Active; 'I' for Inactive)
REMARK    1  A    between atoms: O1_2  and  C2_3 
REMARK       I    between atoms: C2_3  and  N1_5 
REMARK    2  A    between atoms: N1_5  and  C3_6 
REMARK    3  A    between atoms: C3_6  and  C4_7 
REMARK    4  A    between atoms: C3_6  and  C15_23 
REMARK       I    between atoms: C4_7  and  N2_9 
REMARK    5  A    between atoms: N2_9  and  C5_11 
ROOT
HETATM    1  C4  UNL     1      -0.954   0.353   1.355  1.00  0.00     0.260 C 
HETATM    2  O3  UNL     1      -0.705   1.331   2.099  1.00  0.00    -0.270 OA
HETATM    3  N2  UNL     1       0.112  -0.145   0.582  1.00  0.00    -0.329 N 
ATOM      4  H2  UNL     1      -0.036  -0.924  -0.060  1.00  0.00     0.165 HD
ENDROOT
BRANCH   1   5
HETATM    5  C3  UNL     1      -2.327  -0.273   1.270  1.00  0.00     0.294 C 
BRANCH   5   6
HETATM    6  N1  UNL     1      -3.321   0.794   1.234  1.00  0.00    -0.370 NA
HETATM    7  C2  UNL     1      -4.194   1.730   1.201  1.00  0.00     0.435 C 
HETATM    8  O2  UNL     1      -4.983   2.220   2.095  1.00  0.00    -0.221 OA
BRANCH   7   9
HETATM    9  O1  UNL     1      -4.442   2.473  -0.043  1.00  0.00    -0.298 OA
HETATM   10  C1  UNL     1      -5.351   3.496  -0.137  1.00  0.00     0.216 C 
ENDBRANCH   7   9
ENDBRANCH   5   6
BRANCH   5  11
HETATM   11  C15 UNL     1      -2.402  -1.225   0.154  1.00  0.00    -0.013 A 
HETATM   12  C16 UNL     1      -2.755  -0.892  -1.149  1.00  0.00     0.011 A 
HETATM   13  C17 UNL     1      -2.710  -1.816  -2.179  1.00  0.00     0.001 A 
HETATM   14  C18 UNL     1      -2.305  -3.080  -1.890  1.00  0.00     0.000 A 
HETATM   15  C19 UNL     1      -1.944  -3.493  -0.657  1.00  0.00     0.001 A 
HETATM   16  C20 UNL     1      -2.006  -2.531   0.360  1.00  0.00     0.011 A 
ENDBRANCH   5  11
ENDBRANCH   1   5
BRANCH   3  17
HETATM   17  C5  UNL     1       1.436   0.467   0.709  1.00  0.00     0.264 C 
HETATM   18  O4  UNL     1       1.738   1.061  -0.524  1.00  0.00    -0.320 OA
HETATM   19  C6  UNL     1       2.989   1.134  -1.066  1.00  0.00     0.105 A 
HETATM   20  C7  UNL     1       3.314   1.818  -2.234  1.00  0.00     0.040 A 
HETATM   21  C11 UNL     1       4.044   0.498  -0.444  1.00  0.00     0.103 A 
HETATM   22  C8  UNL     1       4.575   1.870  -2.755  1.00  0.00     0.003 A 
HETATM   23  C9  UNL     1       5.629   1.212  -2.108  1.00  0.00     0.003 A 
HETATM   24  C10 UNL     1       5.329   0.534  -0.950  1.00  0.00     0.040 A 
HETATM   25  O5  UNL     1       3.762  -0.195   0.724  1.00  0.00    -0.334 OA
HETATM   26  C12 UNL     1       2.451  -0.565   1.118  1.00  0.00     0.105 C 
HETATM   27  C13 UNL     1       2.368  -0.683   2.627  1.00  0.00     0.051 C 
HETATM   28  C14 UNL     1       2.200  -1.920   0.501  1.00  0.00     0.051 C 
ENDBRANCH   3  17
TORSDOF 5
