REMARK  6 active torsions:
REMARK  status: ('A' for Active; 'I' for Inactive)
REMARK    1  A    between atoms: O1_2  and  C2_3 
REMARK    2  A    between atoms: C8_10  and  N2_11 
REMARK       I    between atoms: N2_11  and  C9_13 
REMARK    3  A    between atoms: C9_13  and  C10_15 
REMARK    4  A    between atoms: C18_25  and  O3_26 
REMARK    5  A    between atoms: O3_26  and  C19_27 
REMARK    6  A    between atoms: C19_27  and  O4_29 
ROOT
HETATM    1  C2  UNL     1      -3.191   0.581  -0.133  1.00  0.00     0.102 A 
HETATM    2  C3  UNL     1      -2.118   1.454  -0.336  1.00  0.00     0.053 A 
HETATM    3  C4  UNL     1      -0.848   0.989  -0.564  1.00  0.00    -0.005 A 
HETATM    4  C5  UNL     1       0.212   1.849  -0.765  1.00  0.00     0.040 A 
HETATM    5  C6  UNL     1       1.496   1.320  -0.995  1.00  0.00     0.089 A 
HETATM    6  C7  UNL     1       2.551   2.259  -1.196  1.00  0.00     0.103 C 
HETATM    7  N1  UNL     1       3.378   3.048  -1.353  1.00  0.00    -0.191 NA
HETATM    8  C8  UNL     1       1.654  -0.039  -1.013  1.00  0.00     0.129 A 
HETATM    9  N3  UNL     1       0.546  -0.854  -0.805  1.00  0.00    -0.340 N 
ATOM     10  H3  UNL     1       0.677  -1.865  -0.822  1.00  0.00     0.167 HD
HETATM   11  C16 UNL     1      -0.678  -0.376  -0.585  1.00  0.00     0.046 A 
HETATM   12  C17 UNL     1      -1.726  -1.236  -0.386  1.00  0.00     0.070 A 
HETATM   13  C18 UNL     1      -3.048  -0.791  -0.148  1.00  0.00     0.107 A 
ENDROOT
BRANCH   8  14
HETATM   14  N2  UNL     1       2.746  -0.595  -1.209  1.00  0.00    -0.308 N 
HETATM   15  C9  UNL     1       4.025  -0.215  -1.446  1.00  0.00     0.257 C 
HETATM   16  O2  UNL     1       4.479   0.066  -2.627  1.00  0.00    -0.267 OA
ATOM     17  H2  UNL     1       2.657  -1.611  -1.185  1.00  0.00     0.170 HD
BRANCH  15  18
HETATM   18  C10 UNL     1       5.054  -0.082  -0.381  1.00  0.00     0.032 A 
HETATM   19  C11 UNL     1       4.699  -0.352   0.911  1.00  0.00     0.017 A 
HETATM   20  C12 UNL     1       5.635  -0.236   1.913  1.00  0.00     0.001 A 
HETATM   21  C13 UNL     1       6.923   0.153   1.593  1.00  0.00     0.000 A 
HETATM   22  C14 UNL     1       7.293   0.428   0.292  1.00  0.00     0.001 A 
HETATM   23  C15 UNL     1       6.323   0.300  -0.685  1.00  0.00     0.017 A 
ENDBRANCH  15  18
ENDBRANCH   8  14
BRANCH   1  24
HETATM   24  O1  UNL     1      -4.458   1.128   0.095  1.00  0.00    -0.353 OA
HETATM   25  C1  UNL     1      -4.581   2.531   0.106  1.00  0.00     0.210 C 
ENDBRANCH   1  24
BRANCH  13  26
HETATM   26  O3  UNL     1      -4.016  -1.700   0.036  1.00  0.00    -0.318 OA
BRANCH  26  27
HETATM   27  C19 UNL     1      -5.344  -1.691   0.279  1.00  0.00     0.259 C 
HETATM   28  C20 UNL     1      -5.708  -2.389   1.608  1.00  0.00     0.071 C 
BRANCH  27  29
HETATM   29  O4  UNL     1      -6.082  -2.313  -0.759  1.00  0.00    -0.371 OA
ATOM     30  H4  UNL     1      -7.016  -2.307  -0.588  1.00  0.00     0.212 HD
ENDBRANCH  27  29
ENDBRANCH  26  27
ENDBRANCH  13  26
TORSDOF 6
