REMARK  11 active torsions:
REMARK  status: ('A' for Active; 'I' for Inactive)
REMARK    1  A    between atoms: C2_7  and  N3_8 
REMARK    2  A    between atoms: N4_10  and  N5_12 
REMARK       I    between atoms: N5_12  and  C3_13 
REMARK       I    between atoms: N5_12  and  C10_32 
REMARK    3  A    between atoms: C3_13  and  O2_15 
REMARK    4  A    between atoms: O2_15  and  C4_16 
REMARK    5  A    between atoms: C4_16  and  C5_17 
REMARK    6  A    between atoms: C5_17  and  O3_18 
REMARK    7  A    between atoms: C5_17  and  N6_20 
REMARK    8  A    between atoms: N6_20  and  C6_22 
REMARK       I    between atoms: C10_32  and  N9_33 
REMARK       I    between atoms: C10_32  and  N10_37 
REMARK    9  A    between atoms: N12_43  and  N13_44 
REMARK   10  A    between atoms: N14_46  and  C11_48 
REMARK   11  A    between atoms: N17_54  and  N18_55 
ROOT
HETATM    1  N5  UNL     1       0.074  -1.958   0.139  1.00  0.00    -0.165 N 
HETATM    2  C3  UNL     1       1.457  -1.694   0.436  1.00  0.00     0.386 C 
HETATM    3  O1  UNL     1       2.231  -2.657   0.718  1.00  0.00    -0.236 OA
HETATM    4  C10 UNL     1      -0.420  -3.314   0.164  1.00  0.00     0.506 C 
HETATM    5  N9  UNL     1      -0.296  -3.855   1.515  1.00  0.00    -0.031 N 
ATOM      6  H91 UNL     1      -0.645  -4.813   1.533  1.00  0.00     0.279 HD
ATOM      7  H92 UNL     1      -0.755  -3.265   2.209  1.00  0.00     0.279 HD
ATOM      8  H93 UNL     1       0.657  -3.786   1.871  1.00  0.00     0.279 HD
HETATM    9  N10 UNL     1       0.297  -4.168  -0.753  1.00  0.00    -0.031 N 
ATOM     10 1H10 UNL     1      -0.052  -5.126  -0.735  1.00  0.00     0.279 HD
ATOM     11 2H10 UNL     1       1.302  -4.137  -0.579  1.00  0.00     0.279 HD
ATOM     12 3H10 UNL     1       0.285  -3.787  -1.699  1.00  0.00     0.279 HD
ENDROOT
BRANCH   1  13
HETATM   13  N4  UNL     1      -0.792  -0.912  -0.173  1.00  0.00    -0.218 N 
HETATM   14  N3  UNL     1      -1.400  -0.184   0.641  1.00  0.00    -0.115 N 
ATOM     15  H3  UNL     1      -1.291  -0.323   1.646  1.00  0.00     0.207 HD
ATOM     16  H4  UNL     1      -0.945  -0.722  -1.163  1.00  0.00     0.209 HD
BRANCH  14  17
HETATM   17  C2  UNL     1      -2.248   0.843   0.137  1.00  0.00     0.729 A 
HETATM   18  N2  UNL     1      -2.145   1.413  -1.070  1.00  0.00    -0.017 N 
HETATM   19  C1  UNL     1      -3.109   2.339  -1.185  1.00  0.00     0.728 A 
ATOM     20  H2  UNL     1      -1.451   1.182  -1.781  1.00  0.00     0.203 HD
HETATM   21  N1  UNL     1      -3.341   3.084  -2.185  1.00  0.00    -0.231 N 
HETATM   22  N12 UNL     1      -3.838   2.356  -0.033  1.00  0.00     0.009 N 
ATOM     23  H12 UNL     1      -2.796   3.071  -3.047  1.00  0.00     0.174 HD
ATOM     24  H11 UNL     1      -4.074   3.788  -2.272  1.00  0.00     0.174 HD
HETATM   25  N11 UNL     1      -3.289   1.437   0.746  1.00  0.00    -0.093 N 
ATOM     26  H11 UNL     1      -3.614   1.209   1.686  1.00  0.00     0.208 HD
BRANCH  22  27
HETATM   27  N13 UNL     1      -4.931   3.180   0.242  1.00  0.00    -0.204 N 
HETATM   28  N14 UNL     1      -6.140   2.869   0.072  1.00  0.00    -0.266 N 
ATOM     29  H14 UNL     1      -6.878   3.536   0.299  1.00  0.00     0.190 HD
ATOM     30  H13 UNL     1      -4.735   4.110   0.611  1.00  0.00     0.211 HD
BRANCH  28  31
HETATM   31  C11 UNL     1      -6.473   1.574  -0.442  1.00  0.00     0.160 A 
HETATM   32  C12 UNL     1      -6.592   1.242  -1.795  1.00  0.00     0.142 A 
HETATM   33  N15 UNL     1      -6.911  -0.055  -1.857  1.00  0.00    -0.335 N 
HETATM   34  C13 UNL     1      -7.007  -0.589  -0.631  1.00  0.00     0.215 A 
ATOM     35  H15 UNL     1      -7.062  -0.571  -2.724  1.00  0.00     0.168 HD
HETATM   36  N16 UNL     1      -7.324  -1.929  -0.284  1.00  0.00    -0.061 NA
HETATM   37  N17 UNL     1      -6.733   0.441   0.228  1.00  0.00    -0.215 N 
BRANCH  37  38
HETATM   38  N18 UNL     1      -6.738   0.294   1.613  1.00  0.00    -0.334 N 
ATOM     39 2H18 UNL     1      -6.534   1.061   2.253  1.00  0.00     0.177 HD
ATOM     40 1H18 UNL     1      -6.936  -0.567   2.122  1.00  0.00     0.177 HD
ENDBRANCH  37  38
ENDBRANCH  28  31
ENDBRANCH  22  27
ENDBRANCH  14  17
ENDBRANCH   1  13
BRANCH   2  41
HETATM   41  O2  UNL     1       1.994  -0.427   0.430  1.00  0.00    -0.298 OA
BRANCH  41  42
HETATM   42  C4  UNL     1       3.360  -0.154   0.712  1.00  0.00     0.234 C 
BRANCH  42  43
HETATM   43  C5  UNL     1       3.676   1.301   0.649  1.00  0.00     0.243 C 
BRANCH  43  44
HETATM   44  O3  UNL     1       2.904   2.005   1.573  1.00  0.00    -0.375 OA
ATOM     45  H3  UNL     1       3.105   2.933   1.533  1.00  0.00     0.212 HD
ENDBRANCH  43  44
BRANCH  43  46
HETATM   46  N6  UNL     1       5.074   1.519   0.910  1.00  0.00    -0.348 N 
ATOM     47  H6  UNL     1       5.331   1.928   1.808  1.00  0.00     0.163 HD
BRANCH  46  48
HETATM   48  C6  UNL     1       6.119   1.205   0.007  1.00  0.00     0.112 A 
HETATM   49  C7  UNL     1       7.447   1.433   0.313  1.00  0.00     0.122 A 
HETATM   50  C8  UNL     1       8.495   1.163  -0.537  1.00  0.00     0.252 A 
HETATM   51  O4  UNL     1       9.683   1.395  -0.196  1.00  0.00    -0.268 OA
HETATM   52  N7  UNL     1       8.196   0.639  -1.754  1.00  0.00    -0.275 N 
HETATM   53  C9  UNL     1       6.913   0.412  -2.065  1.00  0.00     0.328 A 
ATOM     54  H7  UNL     1       8.937   0.422  -2.421  1.00  0.00     0.173 HD
HETATM   55  O5  UNL     1       6.695  -0.081  -3.219  1.00  0.00    -0.247 OA
HETATM   56  N8  UNL     1       5.886   0.680  -1.225  1.00  0.00    -0.294 N 
ATOM     57  H8  UNL     1       4.929   0.486  -1.519  1.00  0.00     0.172 HD
ENDBRANCH  46  48
ENDBRANCH  43  46
ENDBRANCH  42  43
ENDBRANCH  41  42
ENDBRANCH   2  41
TORSDOF 11
