REMARK  14 active torsions:
REMARK  status: ('A' for Active; 'I' for Inactive)
REMARK    1  A    between atoms: C3_5  and  N2_6 
REMARK    2  A    between atoms: N2_6  and  C4_8 
REMARK    3  A    between atoms: C4_8  and  C5_9 
REMARK    4  A    between atoms: C4_8  and  C6_12 
REMARK    5  A    between atoms: C5_9  and  O1_10 
REMARK    6  A    between atoms: C6_12  and  O2_13 
REMARK    7  A    between atoms: C7_17  and  N4_18 
REMARK    8  A    between atoms: N4_18  and  C8_20 
REMARK    9  A    between atoms: C11_23  and  N5_24 
REMARK       I    between atoms: N5_24  and  C12_26 
REMARK   10  A    between atoms: C12_26  and  C13_28 
REMARK   11  A    between atoms: C13_28  and  C14_29 
REMARK   12  A    between atoms: C13_28  and  N9_39 
REMARK   13  A    between atoms: C15_32  and  N7_33 
REMARK   14  A    between atoms: C18_45  and  O5_46 
ROOT
HETATM    1  C8  UNL     1      -0.842  -0.826  -0.626  1.00  0.00     0.052 A 
HETATM    2  C9  UNL     1      -0.085  -1.591   0.228  1.00  0.00     0.032 A 
HETATM    3  C10 UNL     1       1.293  -1.570   0.087  1.00  0.00     0.035 A 
HETATM    4  C11 UNL     1       1.917  -0.815  -0.871  1.00  0.00     0.068 A 
HETATM    5  C18 UNL     1       1.111  -0.047  -1.724  1.00  0.00     0.094 A 
HETATM    6  C19 UNL     1      -0.263  -0.047  -1.608  1.00  0.00     0.069 A 
ENDROOT
BRANCH   1   7
HETATM    7  N4  UNL     1      -2.236  -0.834  -0.498  1.00  0.00    -0.191 N 
ATOM      8  H4  UNL     1      -2.739  -1.648  -0.852  1.00  0.00     0.184 HD
BRANCH   7   9
HETATM    9  C7  UNL     1      -2.927   0.108   0.032  1.00  0.00     0.698 A 
HETATM   10  N3  UNL     1      -4.265   0.025   0.117  1.00  0.00    -0.022 N 
HETATM   11  C3  UNL     1      -5.021   0.991   0.664  1.00  0.00     0.694 A 
ATOM     12  H3  UNL     1      -4.727  -0.807  -0.250  1.00  0.00     0.203 HD
HETATM   13  N1  UNL     1      -4.350   2.090   1.143  1.00  0.00    -0.180 N 
HETATM   14  C2  UNL     1      -3.020   2.200   1.072  1.00  0.00     0.109 A 
ATOM     15  H1  UNL     1      -4.885   2.848   1.567  1.00  0.00     0.185 HD
HETATM   16  C1  UNL     1      -2.294   3.402   1.596  1.00  0.00     0.090 C 
HETATM   17  N12 UNL     1      -2.319   1.195   0.510  1.00  0.00    -0.180 N 
ATOM     18  H12 UNL     1      -1.303   1.267   0.449  1.00  0.00     0.185 HD
BRANCH  11  19
HETATM   19  N2  UNL     1      -6.294   0.939   0.759  1.00  0.00    -0.217 N 
ATOM     20  H2  UNL     1      -6.781   1.723   1.192  1.00  0.00     0.178 HD
BRANCH  19  21
HETATM   21  C4  UNL     1      -7.063  -0.160   0.290  1.00  0.00     0.146 C 
BRANCH  21  22
HETATM   22  C5  UNL     1      -8.381  -0.298   1.051  1.00  0.00     0.192 C 
BRANCH  22  23
HETATM   23  O1  UNL     1      -9.041  -1.398   0.508  1.00  0.00    -0.399 OA
ATOM     24  H1  UNL     1      -9.860  -1.484   0.981  1.00  0.00     0.209 HD
ENDBRANCH  22  23
ENDBRANCH  21  22
BRANCH  21  25
HETATM   25  C6  UNL     1      -7.330   0.028  -1.189  1.00  0.00     0.192 C 
BRANCH  25  26
HETATM   26  O2  UNL     1      -8.071  -1.040  -1.638  1.00  0.00    -0.399 OA
ATOM     27  H2  UNL     1      -8.238  -0.922  -2.566  1.00  0.00     0.209 HD
ENDBRANCH  25  26
ENDBRANCH  21  25
ENDBRANCH  19  21
ENDBRANCH  11  19
ENDBRANCH   7   9
ENDBRANCH   1   7
BRANCH   5  28
HETATM   28  O5  UNL     1       1.732   0.711  -2.686  1.00  0.00    -0.358 OA
ATOM     29  H5  UNL     1       1.186   1.231  -3.264  1.00  0.00     0.217 HD
ENDBRANCH   5  28
BRANCH   4  30
HETATM   30  N5  UNL     1       3.315  -0.768  -1.045  1.00  0.00    -0.323 N 
HETATM   31  C12 UNL     1       4.297  -1.440  -0.324  1.00  0.00     0.255 C 
HETATM   32  O3  UNL     1       4.097  -2.217   0.622  1.00  0.00    -0.270 OA
ATOM     33  H5  UNL     1       3.650  -0.164  -1.796  1.00  0.00     0.169 HD
BRANCH  31  34
HETATM   34  C13 UNL     1       5.747  -1.226  -0.703  1.00  0.00     0.275 C 
BRANCH  34  35
HETATM   35  C14 UNL     1       6.049   0.208  -0.542  1.00  0.00     0.196 A 
HETATM   36  N6  UNL     1       6.907   0.957  -1.267  1.00  0.00    -0.168 N 
HETATM   37  C15 UNL     1       6.896   2.209  -0.810  1.00  0.00     0.698 A 
ATOM     38  H6  UNL     1       7.475   0.618  -2.043  1.00  0.00     0.186 HD
HETATM   39  N8  UNL     1       6.015   2.221   0.210  1.00  0.00    -0.090 N 
HETATM   40  O4  UNL     1       5.528   1.030   0.349  1.00  0.00    -0.206 OA
ATOM     41  H8  UNL     1       5.773   3.033   0.778  1.00  0.00     0.213 HD
BRANCH  37  42
HETATM   42  N7  UNL     1       7.585   3.222  -1.245  1.00  0.00    -0.233 N 
ATOM     43  H72 UNL     1       8.252   3.213  -2.017  1.00  0.00     0.174 HD
ATOM     44  H71 UNL     1       7.577   4.180  -0.895  1.00  0.00     0.174 HD
ENDBRANCH  37  42
ENDBRANCH  34  35
BRANCH  34  45
HETATM   45  N9  UNL     1       6.594  -2.074   0.075  1.00  0.00    -0.264 N 
HETATM   46  C16 UNL     1       7.738  -1.787   0.738  1.00  0.00     0.127 A 
HETATM   47  C17 UNL     1       8.185  -2.929   1.337  1.00  0.00     0.123 A 
HETATM   48  N10 UNL     1       7.302  -3.894   1.026  1.00  0.00    -0.294 N 
HETATM   49  N11 UNL     1       6.357  -3.364   0.271  1.00  0.00    -0.020 NA
ATOM     50  H10 UNL     1       7.353  -4.869   1.322  1.00  0.00     0.183 HD
ENDBRANCH  34  45
ENDBRANCH  31  34
ENDBRANCH   4  30
TORSDOF 14
