REMARK  5 active torsions:
REMARK  status: ('A' for Active; 'I' for Inactive)
REMARK    1  A    between atoms: C2_2  and  C3_4 
REMARK    2  A    between atoms: C6_7  and  N1_8 
REMARK       I    between atoms: N1_8  and  C7_10 
REMARK    3  A    between atoms: C7_10  and  C8_12 
REMARK    4  A    between atoms: N2_15  and  S1_16 
REMARK    5  A    between atoms: S1_16  and  N3_19 
ROOT
HETATM    1  C8  UNL     1       0.013  -1.295   0.661  1.00  0.00     0.080 C 
HETATM    2  C9  UNL     1      -0.394   0.131   0.476  1.00  0.00     0.029 C 
HETATM    3  C10 UNL     1      -1.867   0.198   0.218  1.00  0.00     0.110 C 
HETATM    4  N2  UNL     1      -2.596  -0.658   1.105  1.00  0.00    -0.193 NA
HETATM    5  C16 UNL     1      -2.360  -2.058   0.845  1.00  0.00     0.110 C 
HETATM    6  C17 UNL     1      -1.017  -2.287   0.205  1.00  0.00     0.029 C 
ENDROOT
BRANCH   1   7
HETATM    7  C7  UNL     1       1.287  -1.524  -0.084  1.00  0.00     0.222 C 
HETATM    8  N1  UNL     1       2.420  -0.759   0.279  1.00  0.00    -0.356 N 
ATOM      9  H1  UNL     1       2.366  -0.069   1.029  1.00  0.00     0.162 HD
HETATM   10  O1  UNL     1       1.342  -2.387  -1.020  1.00  0.00    -0.273 OA
BRANCH   8  11
HETATM   11  C6  UNL     1       3.659  -0.979  -0.440  1.00  0.00     0.084 C 
HETATM   12  C5  UNL     1       3.960   0.275  -1.229  1.00  0.00     0.025 C 
HETATM   13  C4  UNL     1       4.312   1.366  -0.247  1.00  0.00     0.008 C 
HETATM   14  C3  UNL     1       5.493   1.033   0.620  1.00  0.00    -0.000 C 
HETATM   15  C19 UNL     1       5.894  -0.400   0.566  1.00  0.00     0.008 C 
HETATM   16  C18 UNL     1       4.720  -1.349   0.546  1.00  0.00     0.025 C 
BRANCH  14  17
HETATM   17  C2  UNL     1       6.655   1.904   0.177  1.00  0.00     0.058 C 
HETATM   18  C1  UNL     1       7.894   1.636   1.001  1.00  0.00     0.022 C 
HETATM   19 BR1  UNL     1       7.115   1.562  -1.671  1.00  0.00    -0.091 Br
ENDBRANCH  14  17
ENDBRANCH   8  11
ENDBRANCH   1   7
BRANCH   4  20
HETATM   20  S1  UNL     1      -4.212  -0.263   1.381  1.00  0.00     0.304 S 
HETATM   21  O2  UNL     1      -4.767  -1.276   2.372  1.00  0.00    -0.188 OA
HETATM   22  O3  UNL     1      -4.263   1.062   2.097  1.00  0.00    -0.188 OA
BRANCH  20  23
HETATM   23  N3  UNL     1      -5.162  -0.306  -0.010  1.00  0.00    -0.278 N 
HETATM   24  C11 UNL     1      -4.849   0.565  -1.066  1.00  0.00     0.077 C 
HETATM   25  C12 UNL     1      -6.036   1.043  -1.865  1.00  0.00     0.046 C 
HETATM   26  C13 UNL     1      -7.176   1.481  -0.978  1.00  0.00     0.007 C 
HETATM   27  C14 UNL     1      -7.490   0.498   0.098  1.00  0.00     0.021 C 
HETATM   28  C15 UNL     1      -6.523  -0.650   0.175  1.00  0.00     0.141 C 
ENDBRANCH  20  23
ENDBRANCH   4  20
TORSDOF 5
