REMARK  3 active torsions:
REMARK  status: ('A' for Active; 'I' for Inactive)
REMARK    1  A    between atoms: C2_2  and  C3_3 
REMARK    2  A    between atoms: C3_3  and  O1_4 
REMARK    3  A    between atoms: C13_15  and  C14_16 
ROOT
HETATM    1  C3  UNL     1       2.054   0.078   0.431  1.00  0.00     0.066 C 
HETATM    2  C4  UNL     1       2.565  -1.307  -0.010  1.00  0.00     0.039 C 
HETATM    3  C5  UNL     1       1.339  -2.032  -0.384  1.00  0.00     0.009 C 
HETATM    4  C6  UNL     1       0.147  -1.079  -0.106  1.00  0.00     0.002 C 
HETATM    5  C7  UNL     1      -1.032  -1.615  -0.694  1.00  0.00    -0.005 C 
HETATM    6  C8  UNL     1      -1.939  -2.209   0.402  1.00  0.00     0.007 C 
HETATM    7  C9  UNL     1      -2.356  -1.248   1.467  1.00  0.00     0.027 C 
HETATM    8  C10 UNL     1      -3.064  -0.043   1.084  1.00  0.00     0.097 C 
HETATM    9  C11 UNL     1      -2.360   1.292   1.093  1.00  0.00     0.048 C 
HETATM   10  C12 UNL     1      -0.909   1.315   1.211  1.00  0.00     0.028 C 
HETATM   11  C13 UNL     1      -0.048   1.437   0.001  1.00  0.00     0.099 C 
HETATM   12  C15 UNL     1       0.787   0.233  -0.358  1.00  0.00     0.004 C 
HETATM   13  C16 UNL     1       1.206   0.273  -1.825  1.00  0.00     0.020 C 
HETATM   14  C17 UNL     1      -3.081   1.563  -0.192  1.00  0.00     0.070 C 
HETATM   15  N1  UNL     1      -3.390   0.194  -0.247  1.00  0.00    -0.368 N 
HETATM   16  C18 UNL     1      -3.295  -0.646  -1.292  1.00  0.00     0.064 C 
HETATM   17  C19 UNL     1      -1.867  -0.989  -1.731  1.00  0.00     0.049 C 
ENDROOT
BRANCH   1  18
HETATM   18  C2  UNL     1       3.189   0.983   0.208  1.00  0.00     0.034 C 
HETATM   19  C1  UNL     1       4.498   0.413   0.830  1.00  0.00     0.008 C 
ENDBRANCH   1  18
BRANCH   1  20
HETATM   20  O1  UNL     1       1.851  -0.076   1.809  1.00  0.00    -0.389 OA
ATOM     21  H1  UNL     1       1.117  -0.661   1.953  1.00  0.00     0.210 HD
ENDBRANCH   1  20
BRANCH  11  22
HETATM   22  C14 UNL     1       0.705   2.726   0.005  1.00  0.00     0.177 C 
HETATM   23  O2  UNL     1       0.692   3.467   1.027  1.00  0.00    -0.648 OA
HETATM   24  O3  UNL     1       1.454   3.234  -1.035  1.00  0.00    -0.648 OA
ENDBRANCH  11  22
TORSDOF 3
