REMARK  9 active torsions:
REMARK  status: ('A' for Active; 'I' for Inactive)
REMARK    1  A    between atoms: C2_2  and  O1_3 
REMARK    2  A    between atoms: O1_3  and  C3_4 
REMARK       I    between atoms: C3_4  and  N1_6 
REMARK    3  A    between atoms: N1_6  and  S1_8 
REMARK    4  A    between atoms: S1_8  and  O5_11 
REMARK    5  A    between atoms: O5_11  and  C4_12 
REMARK    6  A    between atoms: C5_15  and  N3_16 
REMARK    7  A    between atoms: C6_21  and  N5_22 
REMARK    8  A    between atoms: C7_25  and  S2_26 
REMARK    9  A    between atoms: S2_26  and  N6_27 
ROOT
HETATM    1  C4  UNL     1      -1.894   0.460   0.782  1.00  0.00     0.201 A 
HETATM    2  N2  UNL     1      -2.005  -0.307   1.910  1.00  0.00    -0.168 N 
ATOM      3  H2  UNL     1      -1.554   0.016   2.766  1.00  0.00     0.186 HD
HETATM    4  C5  UNL     1      -2.681  -1.465   1.940  1.00  0.00     0.679 A 
HETATM    5  N4  UNL     1      -3.267  -1.871   0.802  1.00  0.00    -0.176 N 
ATOM      6  H4  UNL     1      -3.784  -2.750   0.812  1.00  0.00     0.186 HD
HETATM    7  C6  UNL     1      -3.209  -1.184  -0.342  1.00  0.00     0.140 A 
HETATM    8  C7  UNL     1      -2.501   0.025  -0.361  1.00  0.00     0.148 A 
ENDROOT
BRANCH   1   9
HETATM    9  O5  UNL     1      -1.181   1.634   0.826  1.00  0.00    -0.196 OA
BRANCH   9  10
HETATM   10  S1  UNL     1       0.497   1.784   0.703  1.00  0.00     0.372 S 
HETATM   11  O3  UNL     1       1.119   1.945   2.084  1.00  0.00    -0.175 OA
HETATM   12  O4  UNL     1       0.921   2.996  -0.063  1.00  0.00    -0.175 OA
BRANCH  10  13
HETATM   13  N1  UNL     1       1.254   0.400  -0.001  1.00  0.00    -0.206 N 
HETATM   14  C3  UNL     1       2.659   0.263   0.146  1.00  0.00     0.375 C 
HETATM   15  O2  UNL     1       3.354   1.104   0.761  1.00  0.00    -0.237 OA
ATOM     16  H1  UNL     1       0.708  -0.297  -0.507  1.00  0.00     0.186 HD
BRANCH  14  17
HETATM   17  O1  UNL     1       3.276  -0.842  -0.413  1.00  0.00    -0.304 OA
BRANCH  17  18
HETATM   18  C2  UNL     1       4.651  -1.080  -0.330  1.00  0.00     0.176 C 
HETATM   19  C1  UNL     1       5.497   0.009  -0.949  1.00  0.00     0.034 C 
ENDBRANCH  17  18
ENDBRANCH  14  17
ENDBRANCH  10  13
ENDBRANCH   9  10
ENDBRANCH   1   9
BRANCH   8  20
HETATM   20  S2  UNL     1      -2.492   0.895  -1.889  1.00  0.00     0.152 S 
HETATM   21  O6  UNL     1      -1.189   1.557  -2.221  1.00  0.00    -0.230 OA
BRANCH  20  22
HETATM   22  N6  UNL     1      -3.795   2.032  -2.029  1.00  0.00    -0.345 NA
ATOM     23  H62 UNL     1      -4.682   1.581  -1.803  1.00  0.00     0.166 HD
ATOM     24  H61 UNL     1      -3.790   2.537  -2.915  1.00  0.00     0.166 HD
ENDBRANCH  20  22
ENDBRANCH   8  20
BRANCH   4  25
HETATM   25  N3  UNL     1      -2.780  -2.185   3.011  1.00  0.00    -0.234 N 
ATOM     26  H32 UNL     1      -2.335  -1.877   3.875  1.00  0.00     0.174 HD
ATOM     27  H31 UNL     1      -3.294  -3.066   3.034  1.00  0.00     0.174 HD
ENDBRANCH   4  25
BRANCH   7  28
HETATM   28  N5  UNL     1      -3.782  -1.596  -1.425  1.00  0.00    -0.384 N 
ATOM     29  H52 UNL     1      -4.297  -2.476  -1.411  1.00  0.00     0.157 HD
ATOM     30  H51 UNL     1      -3.738  -1.071  -2.299  1.00  0.00     0.157 HD
ENDBRANCH   7  28
TORSDOF 9
