REMARK  11 active torsions:
REMARK  status: ('A' for Active; 'I' for Inactive)
REMARK    1  A    between atoms: C2_2  and  N1_3 
REMARK    2  A    between atoms: N1_3  and  C3_6 
REMARK    3  A    between atoms: C3_6  and  C4_7 
REMARK    4  A    between atoms: C4_7  and  N2_8 
REMARK    5  A    between atoms: C6_11  and  O1_12 
REMARK    6  A    between atoms: C10_19  and  O4_20 
REMARK    7  A    between atoms: C10_19  and  O5_22 
REMARK    8  A    between atoms: C11_24  and  O6_25 
REMARK    9  A    between atoms: C12_27  and  O7_28 
REMARK   10  A    between atoms: O7_28  and  C13_29 
REMARK   11  A    between atoms: N4_31  and  O8_33 
ROOT
HETATM    1  N2  UNL     1       1.099   0.080  -0.320  1.00  0.00    -0.369 N 
ATOM      2  H2  UNL     1       1.831  -0.591  -0.084  1.00  0.00     0.164 HD
HETATM    3  C5  UNL     1      -0.025  -0.434  -0.414  1.00  0.00     0.072 C 
HETATM    4  C6  UNL     1      -1.399   0.054  -0.725  1.00  0.00     0.236 C 
HETATM    5  O2  UNL     1      -1.710  -0.842  -1.781  1.00  0.00    -0.316 OA
HETATM    6  C7  UNL     1      -1.352  -2.099  -1.295  1.00  0.00     0.286 C 
HETATM    7  O3  UNL     1      -0.311  -2.709  -2.028  1.00  0.00    -0.358 OA
HETATM    8  C8  UNL     1       0.513  -2.866  -0.886  1.00  0.00     0.197 C 
HETATM    9  C9  UNL     1      -0.312  -1.879  -0.213  1.00  0.00     0.133 C 
HETATM   10  C10 UNL     1      -0.785  -2.066   1.179  1.00  0.00     0.209 C 
HETATM   11  C11 UNL     1      -1.748  -0.987   1.541  1.00  0.00     0.216 C 
HETATM   12  C12 UNL     1      -2.363  -0.272   0.375  1.00  0.00     0.234 C 
ENDROOT
BRANCH   1  13
HETATM   13  C4  UNL     1       1.573   1.384  -0.469  1.00  0.00     0.088 C 
BRANCH  13  14
HETATM   14  C3  UNL     1       2.834   1.477  -1.314  1.00  0.00     0.276 C 
BRANCH  14  15
HETATM   15  N1  UNL     1       3.917   0.719  -0.744  1.00  0.00    -0.071 N 
ATOM     16  H12 UNL     1       4.671   0.608  -1.421  1.00  0.00     0.277 HD
ATOM     17  H11 UNL     1       3.647  -0.257  -0.625  1.00  0.00     0.277 HD
BRANCH  15  18
HETATM   18  C2  UNL     1       4.421   1.255   0.487  1.00  0.00     0.228 C 
HETATM   19  C1  UNL     1       5.551   0.366   0.980  1.00  0.00     0.034 C 
ENDBRANCH  15  18
ENDBRANCH  14  15
ENDBRANCH  13  14
ENDBRANCH   1  13
BRANCH   4  20
HETATM   20  O1  UNL     1      -1.427   1.345  -1.176  1.00  0.00    -0.359 OA
ATOM     21  H1  UNL     1      -2.303   1.656  -1.374  1.00  0.00     0.213 HD
ENDBRANCH   4  20
BRANCH  12  22
HETATM   22  O7  UNL     1      -2.918   0.935   0.856  1.00  0.00    -0.309 OA
BRANCH  22  23
HETATM   23  C13 UNL     1      -3.651   1.814   0.075  1.00  0.00     0.252 C 
HETATM   24  N3  UNL     1      -3.539   3.195   0.333  1.00  0.00    -0.054 NA
HETATM   25  N4  UNL     1      -4.392   1.285  -0.842  1.00  0.00    -0.235 N 
ATOM     26  H4  UNL     1      -4.434   0.276  -0.983  1.00  0.00     0.197 HD
BRANCH  25  27
HETATM   27  O8  UNL     1      -5.124   2.158  -1.621  1.00  0.00    -0.287 OA
ATOM     28  H8  UNL     1      -5.669   1.769  -2.295  1.00  0.00     0.244 HD
ENDBRANCH  25  27
ENDBRANCH  22  23
ENDBRANCH  12  22
BRANCH  10  29
HETATM   29  O4  UNL     1      -1.289  -3.352   1.378  1.00  0.00    -0.362 OA
ATOM     30  H4  UNL     1      -1.592  -3.472   2.270  1.00  0.00     0.213 HD
ENDBRANCH  10  29
BRANCH  10  31
HETATM   31  O5  UNL     1       0.330  -1.952   2.030  1.00  0.00    -0.362 OA
ATOM     32  H5  UNL     1       0.027  -2.072   2.922  1.00  0.00     0.213 HD
ENDBRANCH  10  31
BRANCH  11  33
HETATM   33  O6  UNL     1      -2.791  -1.569   2.265  1.00  0.00    -0.387 OA
ATOM     34  H6  UNL     1      -3.405  -0.881   2.496  1.00  0.00     0.210 HD
ENDBRANCH  11  33
TORSDOF 11
