REMARK  4 active torsions:
REMARK  status: ('A' for Active; 'I' for Inactive)
REMARK    1  A    between atoms: N1_2  and  C4_5 
REMARK    2  A    between atoms: C4_5  and  C5_6 
REMARK    3  A    between atoms: C5_6  and  C6_7 
REMARK    4  A    between atoms: C8_11  and  N3_12 
ROOT
HETATM    1  C6  UNL     1       1.720   0.394   0.245  1.00  0.00     0.044 A 
HETATM    2  C7  UNL     1       2.268  -0.882   0.411  1.00  0.00     0.131 A 
HETATM    3  N2  UNL     1       3.578  -0.786   0.633  1.00  0.00    -0.200 N 
ATOM      4  H2  UNL     1       4.224  -1.560   0.788  1.00  0.00     0.183 HD
HETATM    5  C8  UNL     1       3.891   0.532   0.615  1.00  0.00     0.675 A 
HETATM    6  N4  UNL     1       2.762   1.224   0.380  1.00  0.00    -0.194 N 
ATOM      7  H4  UNL     1       2.707   2.240   0.314  1.00  0.00     0.184 HD
ENDROOT
BRANCH   1   8
HETATM    8  C5  UNL     1       0.300   0.724  -0.021  1.00  0.00     0.087 C 
BRANCH   8   9
HETATM    9  C4  UNL     1      -0.536  -0.526  -0.097  1.00  0.00     0.242 C 
BRANCH   9  10
HETATM   10  N1  UNL     1      -1.919  -0.269  -0.352  1.00  0.00    -0.078 N 
HETATM   11  C1  UNL     1      -2.540  -1.534  -0.749  1.00  0.00     0.271 C 
HETATM   12  C2  UNL     1      -2.131   0.655  -1.445  1.00  0.00     0.271 C 
HETATM   13  C3  UNL     1      -2.641   0.212   0.800  1.00  0.00     0.271 C 
ENDBRANCH   9  10
ENDBRANCH   8   9
ENDBRANCH   1   8
BRANCH   5  14
HETATM   14  N3  UNL     1       5.087   0.955   0.799  1.00  0.00    -0.234 N 
ATOM     15  H32 UNL     1       5.943   0.430   0.977  1.00  0.00     0.174 HD
ATOM     16  H31 UNL     1       5.323   1.947   0.785  1.00  0.00     0.174 HD
ENDBRANCH   5  14
TORSDOF 4
