REMARK  1 active torsions:
REMARK  status: ('A' for Active; 'I' for Inactive)
REMARK    1  A    between atoms: C2_2  and  N1_3 
REMARK       I    between atoms: C3_5  and  N3_7 
ROOT
HETATM    1  N1  UNL     1      -1.820   0.643   0.494  1.00  0.00    -0.365 N 
ATOM      2  H1  UNL     1      -1.516   1.605   0.646  1.00  0.00     0.162 HD
HETATM    3  C3  UNL     1      -0.921  -0.240   0.261  1.00  0.00     0.186 C 
HETATM    4  N2  UNL     1      -1.232  -1.595   0.039  1.00  0.00    -0.064 NA
HETATM    5  N3  UNL     1       0.425   0.172   0.229  1.00  0.00    -0.356 N 
HETATM    6  C4  UNL     1       1.331  -0.383   1.234  1.00  0.00     0.125 C 
HETATM    7  C5  UNL     1       2.448  -1.065   0.445  1.00  0.00     0.020 C 
HETATM    8  C6  UNL     1       3.130   0.008  -0.368  1.00  0.00     0.003 C 
HETATM    9  C7  UNL     1       2.432   1.337  -0.293  1.00  0.00     0.020 C 
HETATM   10  C8  UNL     1       0.980   1.100  -0.720  1.00  0.00     0.125 C 
ENDROOT
BRANCH   1  11
HETATM   11  C2  UNL     1      -3.221   0.367   0.555  1.00  0.00     0.118 C 
HETATM   12  C1  UNL     1      -3.755   0.271  -0.853  1.00  0.00     0.026 C 
ENDBRANCH   1  11
TORSDOF 1
