REMARK  9 active torsions:
REMARK  status: ('A' for Active; 'I' for Inactive)
REMARK    1  A    between atoms: O1_2  and  C2_3 
REMARK    2  A    between atoms: C2_3  and  C3_5 
REMARK    3  A    between atoms: N2_8  and  C4_9 
REMARK    4  A    between atoms: C4_9  and  O3_10 
REMARK    5  A    between atoms: C4_9  and  N3_12 
REMARK    6  A    between atoms: N3_12  and  C5_14 
REMARK    7  A    between atoms: C10_20  and  C11_21 
REMARK    8  A    between atoms: C16_29  and  N5_30 
REMARK       I    between atoms: N5_30  and  C17_32 
REMARK    9  A    between atoms: C17_32  and  C18_34 
ROOT
HETATM    1  C3  UNL     1      -0.845   1.106  -1.948  1.00  0.00     0.153 A 
HETATM    2  N1  UNL     1       0.456   1.183  -1.860  1.00  0.00    -0.283 N 
ATOM      3  H1  UNL     1       1.062   1.567  -2.585  1.00  0.00     0.188 HD
HETATM    4  N2  UNL     1       0.907   0.670  -0.642  1.00  0.00    -0.220 N 
HETATM    5  C10 UNL     1      -0.159   0.275   0.058  1.00  0.00     0.071 A 
HETATM    6  C16 UNL     1      -1.264   0.538  -0.770  1.00  0.00     0.095 A 
ENDROOT
BRANCH   4   7
HETATM    7  C4  UNL     1       2.305   0.671  -0.524  1.00  0.00     0.239 C 
BRANCH   7   8
HETATM    8  O3  UNL     1       2.898   1.585  -1.294  1.00  0.00    -0.331 OA
ATOM      9  H3  UNL     1       3.845   1.586  -1.214  1.00  0.00     0.221 HD
ENDBRANCH   7   8
BRANCH   7  10
HETATM   10  N3  UNL     1       3.225  -0.094   0.209  1.00  0.00    -0.350 N 
ATOM     11  H3  UNL     1       2.884  -0.843   0.811  1.00  0.00     0.163 HD
BRANCH  10  12
HETATM   12  C5  UNL     1       4.673   0.163   0.127  1.00  0.00     0.089 C 
HETATM   13  C6  UNL     1       5.310   0.422   1.443  1.00  0.00     0.051 C 
HETATM   14  C7  UNL     1       6.064  -0.834   1.898  1.00  0.00     0.169 C 
HETATM   15  O4  UNL     1       7.147  -1.089   1.075  1.00  0.00    -0.391 OA
HETATM   16  C8  UNL     1       6.869  -0.828  -0.246  1.00  0.00     0.169 C 
HETATM   17  C9  UNL     1       5.383  -0.988  -0.548  1.00  0.00     0.051 C 
ENDBRANCH  10  12
ENDBRANCH   7  10
ENDBRANCH   4   7
BRANCH   5  18
HETATM   18  C11 UNL     1      -0.260  -0.245   1.412  1.00  0.00     0.043 C 
HETATM   19  C12 UNL     1       0.856   0.199   2.315  1.00  0.00     0.038 C 
HETATM   20  C13 UNL     1       0.357   0.703   3.688  1.00  0.00     0.233 C 
HETATM   21  N4  UNL     1      -0.607   1.744   3.589  1.00  0.00    -0.075 N 
HETATM   22  C14 UNL     1      -1.530   1.547   2.475  1.00  0.00     0.233 C 
ATOM     23  H42 UNL     1      -1.112   1.862   4.468  1.00  0.00     0.277 HD
ATOM     24  H41 UNL     1      -0.157   2.658   3.535  1.00  0.00     0.277 HD
HETATM   25  C15 UNL     1      -1.519   0.085   2.170  1.00  0.00     0.038 C 
ENDBRANCH   5  18
BRANCH   1  26
HETATM   26  C2  UNL     1      -1.697   1.540  -3.067  1.00  0.00     0.313 C 
HETATM   27  O2  UNL     1      -2.932   1.415  -3.009  1.00  0.00    -0.257 OA
BRANCH  26  28
HETATM   28  O1  UNL     1      -1.161   2.100  -4.215  1.00  0.00    -0.321 OA
HETATM   29  C1  UNL     1      -1.960   2.528  -5.309  1.00  0.00     0.213 C 
ENDBRANCH  26  28
ENDBRANCH   1  26
BRANCH   6  30
HETATM   30  N5  UNL     1      -2.616   0.234  -0.530  1.00  0.00    -0.323 N 
HETATM   31  C17 UNL     1      -3.170  -1.022  -0.974  1.00  0.00     0.230 C 
HETATM   32  O5  UNL     1      -2.335  -1.790  -1.573  1.00  0.00    -0.272 OA
ATOM     33  H5  UNL     1      -3.208   0.905  -0.040  1.00  0.00     0.169 HD
BRANCH  31  34
HETATM   34  C18 UNL     1      -4.554  -1.447  -0.793  1.00  0.00     0.030 C 
HETATM   35  C19 UNL     1      -5.089  -1.331   0.609  1.00  0.00     0.025 C 
HETATM   36  C20 UNL     1      -4.601  -2.960  -1.112  1.00  0.00     0.025 C 
HETATM   37  C21 UNL     1      -5.479  -0.823  -1.815  1.00  0.00     0.025 C 
ENDBRANCH  31  34
ENDBRANCH   6  30
TORSDOF 9
