REMARK  7 active torsions:
REMARK  status: ('A' for Active; 'I' for Inactive)
REMARK    1  A    between atoms: O1_1  and  C1_3 
REMARK    2  A    between atoms: C1_3  and  N1_4 
REMARK    3  A    between atoms: N1_4  and  C2_5 
REMARK    4  A    between atoms: N1_4  and  C10_15 
REMARK    5  A    between atoms: C2_5  and  C3_6 
REMARK    6  A    between atoms: C3_6  and  O2_7 
REMARK    7  A    between atoms: C3_6  and  C4_9 
ROOT
HETATM    1  N1  UNL     1       1.070  -0.855  -0.470  1.00  0.00    -0.357 N 
ENDROOT
BRANCH   1   2
HETATM    2  C1  UNL     1       1.171  -2.290  -0.583  1.00  0.00     0.290 C 
BRANCH   2   3
HETATM    3  O1  UNL     1       2.483  -2.721  -0.372  1.00  0.00    -0.382 OA
ATOM      4  H1  UNL     1       2.549  -3.666  -0.446  1.00  0.00     0.211 HD
ENDBRANCH   2   3
ENDBRANCH   1   2
BRANCH   1   5
HETATM    5  C2  UNL     1      -0.199  -0.206  -0.651  1.00  0.00     0.162 C 
BRANCH   5   6
HETATM    6  C3  UNL     1      -1.178  -0.520   0.432  1.00  0.00     0.169 C 
BRANCH   6   7
HETATM    7  O2  UNL     1      -0.680  -0.100   1.653  1.00  0.00    -0.389 OA
ATOM      8  H2  UNL     1      -1.303  -0.300   2.342  1.00  0.00     0.210 HD
ENDBRANCH   6   7
BRANCH   6   9
HETATM    9  C4  UNL     1      -2.489   0.157   0.228  1.00  0.00    -0.028 A 
HETATM   10  C5  UNL     1      -2.864   0.756  -0.954  1.00  0.00     0.010 A 
HETATM   11  C6  UNL     1      -4.097   1.379  -1.115  1.00  0.00     0.001 A 
HETATM   12  C7  UNL     1      -4.982   1.403  -0.055  1.00  0.00     0.000 A 
HETATM   13  C8  UNL     1      -4.631   0.807   1.148  1.00  0.00     0.001 A 
HETATM   14  C9  UNL     1      -3.404   0.204   1.263  1.00  0.00     0.010 A 
ENDBRANCH   6   9
ENDBRANCH   5   6
ENDBRANCH   1   5
BRANCH   1  15
HETATM   15  C10 UNL     1       2.229  -0.111  -0.207  1.00  0.00     0.031 A 
HETATM   16  C11 UNL     1       2.950   0.486  -1.236  1.00  0.00     0.029 A 
HETATM   17  C12 UNL     1       4.085   1.207  -1.012  1.00  0.00     0.002 A 
HETATM   18  C13 UNL     1       4.526   1.346   0.280  1.00  0.00     0.000 A 
HETATM   19  C14 UNL     1       3.842   0.771   1.325  1.00  0.00     0.002 A 
HETATM   20  C15 UNL     1       2.681   0.035   1.076  1.00  0.00     0.029 A 
ENDBRANCH   1  15
TORSDOF 7
