REMARK  7 active torsions:
REMARK  status: ('A' for Active; 'I' for Inactive)
REMARK    1  A    between atoms: O1_1  and  C1_3 
REMARK    2  A    between atoms: C1_3  and  C2_5 
REMARK    3  A    between atoms: C1_3  and  C17_25 
REMARK    4  A    between atoms: C2_5  and  C3_6 
REMARK    5  A    between atoms: C3_6  and  N1_7 
REMARK    6  A    between atoms: N1_7  and  C4_9 
REMARK    7  A    between atoms: C5_12  and  C6_13 
ROOT
HETATM    1  C4  UNL     1       1.701  -0.718  -0.261  1.00  0.00     0.148 A 
HETATM    2  N2  UNL     1       0.364  -0.849  -0.231  1.00  0.00    -0.339 N 
ATOM      3  H2  UNL     1      -0.068  -1.768  -0.135  1.00  0.00     0.168 HD
HETATM    4  C5  UNL     1      -0.362   0.214  -0.327  1.00  0.00     0.026 A 
HETATM    5  C16 UNL     1       0.254   1.423  -0.459  1.00  0.00     0.079 A 
HETATM    6  S1  UNL     1       1.915   0.960  -0.435  1.00  0.00    -0.064 SA
ENDROOT
BRANCH   1   7
HETATM    7  N1  UNL     1       2.556  -1.681  -0.171  1.00  0.00    -0.350 N 
ATOM      8  H1  UNL     1       2.152  -2.612  -0.073  1.00  0.00     0.167 HD
BRANCH   7   9
HETATM    9  C3  UNL     1       3.947  -1.638  -0.188  1.00  0.00     0.069 C 
BRANCH   9  10
HETATM   10  C2  UNL     1       4.613  -0.295  -0.051  1.00  0.00     0.128 C 
BRANCH  10  11
HETATM   11  C1  UNL     1       6.128  -0.445   0.004  1.00  0.00     0.305 C 
HETATM   12  F1  UNL     1       6.355  -1.288   1.103  1.00  0.00    -0.201 F 
BRANCH  11  13
HETATM   13  O1  UNL     1       6.685  -1.028  -1.095  1.00  0.00    -0.355 OA
ATOM     14  H1  UNL     1       6.531  -0.457  -1.839  1.00  0.00     0.213 HD
ENDBRANCH  11  13
BRANCH  11  15
HETATM   15  C17 UNL     1       6.782   0.882   0.354  1.00  0.00     0.449 C 
HETATM   16  F2  UNL     1       8.124   0.706   0.628  1.00  0.00    -0.165 F 
HETATM   17  F3  UNL     1       6.642   1.736  -0.764  1.00  0.00    -0.165 F 
HETATM   18  F4  UNL     1       6.188   1.518   1.408  1.00  0.00    -0.165 F 
ENDBRANCH  11  15
ENDBRANCH  10  11
ENDBRANCH   9  10
ENDBRANCH   7   9
ENDBRANCH   1   7
BRANCH   4  19
HETATM   19  C6  UNL     1      -1.882   0.170  -0.244  1.00  0.00     0.004 C 
HETATM   20  C7  UNL     1      -2.405  -1.229  -0.306  1.00  0.00     0.020 C 
HETATM   21  C8  UNL     1      -3.905  -1.142  -0.052  1.00  0.00    -0.013 C 
HETATM   22  C9  UNL     1      -4.208  -0.599   1.325  1.00  0.00     0.009 C 
HETATM   23  C13 UNL     1      -4.590  -0.258  -1.059  1.00  0.00     0.009 C 
HETATM   24  C10 UNL     1      -3.620   0.798   1.445  1.00  0.00    -0.013 C 
HETATM   25  C11 UNL     1      -4.203   1.722   0.386  1.00  0.00     0.009 C 
HETATM   26  C15 UNL     1      -2.165   0.686   1.178  1.00  0.00     0.020 C 
HETATM   27  C12 UNL     1      -3.998   1.113  -0.971  1.00  0.00    -0.013 C 
HETATM   28  C14 UNL     1      -2.517   1.026  -1.275  1.00  0.00     0.020 C 
ENDBRANCH   4  19
TORSDOF 7
