REMARK  5 active torsions:
REMARK  status: ('A' for Active; 'I' for Inactive)
REMARK    1  A    between atoms: C4_4  and  O1_5 
REMARK    2  A    between atoms: C6_7  and  O2_8 
REMARK    3  A    between atoms: C11_15  and  N2_16 
REMARK    4  A    between atoms: C12_18  and  C13_19 
REMARK    5  A    between atoms: C13_19  and  C14_20 
ROOT
HETATM    1  C1  UNL     1      -2.088  -0.085  -3.898  1.00  0.00     0.018 C 
HETATM    2  C2  UNL     1      -2.107   0.006  -2.693  1.00  0.00    -0.072 C 
HETATM    3  C3  UNL     1      -2.110   0.127  -1.257  1.00  0.00     0.080 A 
HETATM    4  C4  UNL     1      -3.279   0.349  -0.565  1.00  0.00     0.122 A 
HETATM    5  C6  UNL     1      -3.210   0.455   0.808  1.00  0.00     0.104 A 
HETATM    6  C8  UNL     1      -2.013   0.344   1.492  1.00  0.00     0.055 A 
HETATM    7  C9  UNL     1      -0.850   0.123   0.813  1.00  0.00     0.023 A 
HETATM    8  C10 UNL     1      -0.902   0.015  -0.557  1.00  0.00     0.068 A 
HETATM    9  N1  UNL     1       0.220  -0.199  -1.226  1.00  0.00    -0.340 N 
ATOM     10  H1  UNL     1       0.181  -0.279  -2.242  1.00  0.00     0.167 HD
HETATM   11  C11 UNL     1       1.443  -0.318  -0.591  1.00  0.00     0.118 A 
HETATM   12  C15 UNL     1       1.491  -0.208   0.796  1.00  0.00     0.037 A 
HETATM   13  C16 UNL     1       2.509  -0.271   1.750  1.00  0.00     0.034 A 
HETATM   14  C17 UNL     1       1.957  -0.087   3.018  1.00  0.00     0.089 A 
HETATM   15  N3  UNL     1       0.648   0.081   2.827  1.00  0.00    -0.364 N 
ATOM     16  H3  UNL     1      -0.029   0.239   3.573  1.00  0.00     0.165 HD
HETATM   17  C18 UNL     1       0.338   0.014   1.513  1.00  0.00     0.059 A 
ENDROOT
BRANCH   4  18
HETATM   18  O1  UNL     1      -4.512   0.466  -1.238  1.00  0.00    -0.352 OA
HETATM   19  C5  UNL     1      -5.305  -0.687  -1.477  1.00  0.00     0.210 C 
ENDBRANCH   4  18
BRANCH   5  20
HETATM   20  O2  UNL     1      -4.400   0.680   1.489  1.00  0.00    -0.353 OA
HETATM   21  C7  UNL     1      -4.373   0.794   2.899  1.00  0.00     0.210 C 
ENDBRANCH   5  20
BRANCH  11  22
HETATM   22  N2  UNL     1       2.464  -0.517  -1.254  1.00  0.00    -0.355 N 
HETATM   23  C12 UNL     1       3.814  -0.707  -1.247  1.00  0.00     0.071 C 
ATOM     24  H2  UNL     1       2.172  -0.557  -2.230  1.00  0.00     0.166 HD
BRANCH  23  25
HETATM   25  C13 UNL     1       4.666   0.556  -1.156  1.00  0.00     0.162 C 
BRANCH  25  26
HETATM   26  C14 UNL     1       6.129   0.121  -1.162  1.00  0.00     0.392 C 
HETATM   27  F1  UNL     1       6.374  -0.564  -2.349  1.00  0.00    -0.171 F 
HETATM   28  F2  UNL     1       6.419  -0.734  -0.132  1.00  0.00    -0.171 F 
HETATM   29  F3  UNL     1       6.933   1.249  -1.161  1.00  0.00    -0.171 F 
ENDBRANCH  25  26
ENDBRANCH  23  25
ENDBRANCH  11  22
TORSDOF 5
