REMARK  1 active torsions:
REMARK  status: ('A' for Active; 'I' for Inactive)
REMARK    1  A    between atoms: C11_13  and  C12_14 
ROOT
HETATM    1  C1  UNL     1       6.428   0.513   0.053  1.00  0.00     0.010 C 
HETATM    2  C2  UNL     1       4.926   0.716   0.077  1.00  0.00    -0.018 C 
HETATM    3  C3  UNL     1       4.398   0.039   1.311  1.00  0.00     0.010 C 
HETATM    4  C4  UNL     1       2.896   0.022   1.379  1.00  0.00     0.075 C 
HETATM    5  C5  UNL     1       2.258  -0.386   0.085  1.00  0.00     0.230 C 
HETATM    6  C6  UNL     1       3.360  -0.944  -0.805  1.00  0.00     0.075 C 
HETATM    7  C7  UNL     1       4.362   0.122  -1.178  1.00  0.00     0.010 C 
HETATM    8  O1  UNL     1       1.683   0.752  -0.479  1.00  0.00    -0.195 OA
HETATM    9  O2  UNL     1       0.708   0.350  -1.259  1.00  0.00    -0.195 OA
HETATM   10  C8  UNL     1      -0.401  -0.085  -0.505  1.00  0.00     0.230 C 
HETATM   11  C9  UNL     1      -1.331  -0.753  -1.473  1.00  0.00     0.075 C 
HETATM   12  C10 UNL     1      -2.676  -1.072  -0.914  1.00  0.00     0.011 C 
HETATM   13  C11 UNL     1      -3.117  -0.227   0.215  1.00  0.00     0.005 C 
HETATM   14  C15 UNL     1      -2.457   1.114   0.305  1.00  0.00     0.011 C 
HETATM   15  C16 UNL     1      -0.984   1.102   0.184  1.00  0.00     0.075 C 
HETATM   16  O3  UNL     1       0.108  -0.951   0.456  1.00  0.00    -0.195 OA
HETATM   17  O4  UNL     1       1.304  -1.367   0.208  1.00  0.00    -0.195 OA
ENDROOT
BRANCH  13  18
HETATM   18  C12 UNL     1      -4.628   0.026   0.172  1.00  0.00     0.015 C 
HETATM   19  C13 UNL     1      -5.417  -1.237   0.243  1.00  0.00     0.028 C 
HETATM   20  C14 UNL     1      -5.003   0.804  -1.073  1.00  0.00     0.028 C 
HETATM   21  S1  UNL     1      -5.002   1.004   1.674  1.00  0.00    -0.087 SA
ENDBRANCH  13  18
TORSDOF 1
