REMARK  3 active torsions:
REMARK  status: ('A' for Active; 'I' for Inactive)
REMARK    1  A    between atoms: C1_4  and  C2_6 
REMARK    2  A    between atoms: C4_10  and  S1_11 
REMARK    3  A    between atoms: S1_11  and  C5_12 
ROOT
HETATM    1  C2  UNL     1      -2.000   0.207   0.213  1.00  0.00     0.063 A 
HETATM    2  C3  UNL     1      -1.365  -0.403   1.266  1.00  0.00     0.111 A 
HETATM    3  N3  UNL     1      -0.180   0.016   1.574  1.00  0.00    -0.353 N 
ATOM      4  H3  UNL     1       0.322  -0.416   2.350  1.00  0.00     0.166 HD
HETATM    5  C4  UNL     1       0.382   0.988   0.900  1.00  0.00     0.113 A 
HETATM    6  S2  UNL     1      -0.834   1.360  -0.271  1.00  0.00    -0.061 SA
ENDROOT
BRANCH   1   7
HETATM    7  C1  UNL     1      -3.330  -0.068  -0.345  1.00  0.00     0.128 C 
HETATM    8  N1  UNL     1      -3.724   0.636  -1.338  1.00  0.00    -0.387 N 
ATOM      9  H12 UNL     1      -4.648   0.445  -1.726  1.00  0.00     0.157 HD
ATOM     10  H11 UNL     1      -3.109   1.360  -1.709  1.00  0.00     0.157 HD
HETATM   11  N2  UNL     1      -4.176  -1.063   0.165  1.00  0.00    -0.082 NA
ENDBRANCH   1   7
BRANCH   5  12
HETATM   12  S1  UNL     1       2.006   1.753   1.125  1.00  0.00    -0.100 SA
BRANCH  12  13
HETATM   13  C5  UNL     1       3.273   0.920   0.179  1.00  0.00     0.054 A 
HETATM   14  C6  UNL     1       3.691  -0.468   0.473  1.00  0.00     0.017 A 
HETATM   15  C7  UNL     1       2.906  -0.219  -0.757  1.00  0.00     0.017 A 
ENDBRANCH  12  13
ENDBRANCH   5  12
TORSDOF 3
