REMARK  9 active torsions:
REMARK  status: ('A' for Active; 'I' for Inactive)
REMARK    1  A    between atoms: O1_2  and  C2_3 
REMARK    2  A    between atoms: C2_3  and  C3_4 
REMARK    3  A    between atoms: N1_5  and  O2_6 
REMARK    4  A    between atoms: N1_5  and  C4_8 
REMARK    5  A    between atoms: C4_8  and  C5_9 
REMARK    6  A    between atoms: C5_9  and  C6_10 
REMARK    7  A    between atoms: C6_10  and  N2_11 
REMARK    8  A    between atoms: N2_11  and  C7_13 
REMARK    9  A    between atoms: C8_16  and  N4_17 
ROOT
HETATM    1  C7  UNL     1      -1.890  -0.703  -0.092  1.00  0.00     0.129 A 
HETATM    2  N3  UNL     1      -2.124  -1.864   0.511  1.00  0.00    -0.176 N 
ATOM      3  H3  UNL     1      -1.439  -2.618   0.461  1.00  0.00     0.186 HD
HETATM    4  C8  UNL     1      -3.285  -2.036   1.195  1.00  0.00     0.677 A 
HETATM    5  N5  UNL     1      -4.221  -1.080   1.294  1.00  0.00    -0.191 N 
ATOM      6  H5  UNL     1      -5.081  -1.246   1.816  1.00  0.00     0.184 HD
HETATM    7  C9  UNL     1      -4.001   0.106   0.688  1.00  0.00     0.063 A 
HETATM    8  C10 UNL     1      -4.974   1.103   0.790  1.00  0.00     0.031 A 
HETATM    9  C11 UNL     1      -4.728   2.303   0.165  1.00  0.00     0.002 A 
HETATM   10  C12 UNL     1      -3.561   2.515  -0.539  1.00  0.00     0.001 A 
HETATM   11  C13 UNL     1      -2.598   1.538  -0.644  1.00  0.00     0.017 A 
HETATM   12  C14 UNL     1      -2.835   0.320  -0.015  1.00  0.00     0.035 A 
ENDROOT
BRANCH   1  13
HETATM   13  N2  UNL     1      -0.821  -0.455  -0.759  1.00  0.00    -0.375 N 
ATOM     14  H2  UNL     1      -0.674   0.448  -1.210  1.00  0.00     0.161 HD
BRANCH  13  15
HETATM   15  C6  UNL     1       0.173  -1.517  -0.845  1.00  0.00     0.123 C 
BRANCH  15  16
HETATM   16  C5  UNL     1       1.256  -1.066  -1.754  1.00  0.00     0.042 C 
BRANCH  16  17
HETATM   17  C4  UNL     1       1.938   0.186  -1.327  1.00  0.00     0.156 C 
BRANCH  17  18
HETATM   18  N1  UNL     1       2.556   0.025  -0.042  1.00  0.00    -0.274 N 
HETATM   19  C3  UNL     1       3.840   0.088   0.064  1.00  0.00     0.115 C 
BRANCH  19  20
HETATM   20  C2  UNL     1       4.504  -0.076   1.382  1.00  0.00     0.213 C 
BRANCH  20  21
HETATM   21  O1  UNL     1       5.841   0.292   1.287  1.00  0.00    -0.391 OA
HETATM   22  C1  UNL     1       5.980   1.608   0.896  1.00  0.00     0.201 C 
ENDBRANCH  20  21
ENDBRANCH  19  20
BRANCH  18  23
HETATM   23  O2  UNL     1       1.827  -0.196   1.090  1.00  0.00    -0.288 OA
ATOM     24  H2  UNL     1       0.881  -0.242   1.012  1.00  0.00     0.244 HD
ENDBRANCH  18  23
ENDBRANCH  17  18
ENDBRANCH  16  17
ENDBRANCH  15  16
ENDBRANCH  13  15
ENDBRANCH   1  13
BRANCH   4  25
HETATM   25  N4  UNL     1      -3.424  -3.196   1.747  1.00  0.00    -0.234 N 
ATOM     26  H42 UNL     1      -2.712  -3.923   1.672  1.00  0.00     0.174 HD
ATOM     27  H41 UNL     1      -4.296  -3.325   2.261  1.00  0.00     0.174 HD
ENDBRANCH   4  25
TORSDOF 9
