REMARK  8 active torsions:
REMARK  status: ('A' for Active; 'I' for Inactive)
REMARK    1  A    between atoms: C2_2  and  O1_3 
REMARK    2  A    between atoms: C2_2  and  C3_5 
REMARK    3  A    between atoms: C2_2  and  C5_11 
REMARK    4  A    between atoms: C3_5  and  N1_6 
REMARK    5  A    between atoms: C5_11  and  N4_12 
REMARK    6  A    between atoms: N5_15  and  C8_16 
REMARK    7  A    between atoms: C8_16  and  C9_17 
REMARK    8  A    between atoms: C9_17  and  C10_18 
ROOT
HETATM    1  N4  UNL     1      -0.182   1.215   0.946  1.00  0.00    -0.349 N 
HETATM    2  C6  UNL     1      -1.077   0.751   1.826  1.00  0.00     0.109 A 
HETATM    3  C7  UNL     1      -2.333   0.927   1.288  1.00  0.00     0.109 A 
HETATM    4  N5  UNL     1      -2.198   1.499   0.080  1.00  0.00    -0.351 N 
HETATM    5  C14 UNL     1      -0.879   1.665  -0.105  1.00  0.00     0.185 A 
ENDROOT
BRANCH   1   6
HETATM    6  C5  UNL     1       1.254   1.234   1.091  1.00  0.00     0.168 C 
BRANCH   6   7
HETATM    7  C2  UNL     1       1.915   0.002   0.571  1.00  0.00     0.086 C 
HETATM    8  C1  UNL     1       1.500  -1.268   1.221  1.00  0.00     0.049 C 
BRANCH   7   9
HETATM    9  O1  UNL     1       1.696  -0.117  -0.802  1.00  0.00    -0.387 OA
ATOM     10  H1  UNL     1       1.961   0.695  -1.218  1.00  0.00     0.210 HD
ENDBRANCH   7   9
BRANCH   7  11
HETATM   11  C3  UNL     1       3.418   0.167   0.787  1.00  0.00     0.161 C 
BRANCH  11  12
HETATM   12  N1  UNL     1       4.149  -0.939   0.204  1.00  0.00    -0.364 N 
HETATM   13  C4  UNL     1       5.290  -0.782  -0.377  1.00  0.00     0.197 C 
HETATM   14  N2  UNL     1       5.935   0.467  -0.503  1.00  0.00    -0.067 NA
HETATM   15  N3  UNL     1       5.934  -1.924  -0.920  1.00  0.00    -0.067 NA
ATOM     16  H1  UNL     1       3.747  -1.875   0.255  1.00  0.00     0.161 HD
ENDBRANCH  11  12
ENDBRANCH   7  11
ENDBRANCH   6   7
ENDBRANCH   1   6
BRANCH   4  17
HETATM   17  C8  UNL     1      -3.268   1.862  -0.833  1.00  0.00     0.135 C 
BRANCH  17  18
HETATM   18  C9  UNL     1      -3.647   0.799  -1.800  1.00  0.00     0.085 C 
BRANCH  18  19
HETATM   19  C10 UNL     1      -4.109  -0.398  -1.058  1.00  0.00     0.054 A 
HETATM   20  C11 UNL     1      -5.387  -0.692  -0.653  1.00  0.00     0.034 A 
HETATM   21  C12 UNL     1      -5.355  -1.910   0.004  1.00  0.00     0.027 A 
HETATM   22  C13 UNL     1      -4.022  -2.304  -0.038  1.00  0.00     0.142 A 
HETATM   23  O2  UNL     1      -3.330  -1.372  -0.678  1.00  0.00    -0.327 OA
ENDBRANCH  18  19
ENDBRANCH  17  18
ENDBRANCH   4  17
TORSDOF 8
