REMARK  6 active torsions:
REMARK  status: ('A' for Active; 'I' for Inactive)
REMARK    1  A    between atoms: N1_2  and  C3_4 
REMARK    2  A    between atoms: C10_12  and  C11_13 
REMARK    3  A    between atoms: C11_13  and  O2_14 
REMARK    4  A    between atoms: O2_14  and  C12_15 
REMARK    5  A    between atoms: C12_15  and  C13_17 
REMARK    6  A    between atoms: C14_19  and  O4_20 
ROOT
HETATM    1  C3  UNL     1      -1.114  -0.326   0.972  1.00  0.00     0.257 C 
HETATM    2  C4  UNL     1      -2.131  -1.335   0.567  1.00  0.00     0.115 C 
HETATM    3  C5  UNL     1      -1.615  -2.672   0.107  1.00  0.00     0.030 C 
HETATM    4  C6  UNL     1      -1.056  -2.735  -1.260  1.00  0.00     0.042 C 
HETATM    5  C7  UNL     1       0.295  -2.304  -1.577  1.00  0.00     0.085 A 
HETATM    6  C8  UNL     1       1.038  -3.484  -2.315  1.00  0.00     0.049 C 
HETATM    7  O1  UNL     1       0.183  -1.254  -2.671  1.00  0.00    -0.369 OA
HETATM    8  C9  UNL     1       0.958  -1.129  -1.579  1.00  0.00     0.171 A 
HETATM    9  C10 UNL     1       0.906  -0.022  -0.554  1.00  0.00     0.055 C 
HETATM   10  C14 UNL     1       1.790   1.147  -1.085  1.00  0.00     0.071 C 
HETATM   11  C15 UNL     1       2.406   2.063  -0.130  1.00  0.00     0.040 C 
HETATM   12  C16 UNL     1       1.629   3.363   0.151  1.00  0.00     0.012 C 
HETATM   13  C17 UNL     1       0.220   2.955  -0.375  1.00  0.00    -0.043 C 
HETATM   14  C18 UNL     1      -0.607   4.228  -0.076  1.00  0.00     0.015 C 
HETATM   15  C19 UNL     1       0.412   2.935  -1.823  1.00  0.00     0.012 C 
HETATM   16  C20 UNL     1       1.321   1.839  -2.300  1.00  0.00     0.040 C 
HETATM   17  C21 UNL     1      -0.124   1.839   0.488  1.00  0.00     0.026 C 
HETATM   18  C22 UNL     1      -0.446   0.457  -0.126  1.00  0.00     0.027 C 
HETATM   19  C23 UNL     1      -1.437   0.771  -1.192  1.00  0.00     0.003 C 
HETATM   20  C24 UNL     1      -2.752   0.074  -1.292  1.00  0.00     0.080 C 
HETATM   21  N2  UNL     1      -3.087  -0.913  -0.371  1.00  0.00    -0.392 N 
ATOM     22  H2  UNL     1      -4.019  -1.327  -0.377  1.00  0.00     0.159 HD
ENDROOT
BRANCH   9  23
HETATM   23  C11 UNL     1       1.869  -0.501   0.496  1.00  0.00     0.195 C 
BRANCH  23  24
HETATM   24  O2  UNL     1       1.655  -1.779   1.057  1.00  0.00    -0.320 OA
BRANCH  24  25
HETATM   25  C12 UNL     1       2.514  -2.233   2.011  1.00  0.00     0.272 C 
HETATM   26  O3  UNL     1       3.488  -1.526   2.390  1.00  0.00    -0.264 OA
BRANCH  25  27
HETATM   27  C13 UNL     1       2.339  -3.582   2.646  1.00  0.00     0.225 C 
HETATM   28 CL1  UNL     1       3.183  -4.853   1.773  1.00  0.00    -0.120 Cl
ENDBRANCH  25  27
ENDBRANCH  24  25
ENDBRANCH  23  24
ENDBRANCH   9  23
BRANCH  10  29
HETATM   29  O4  UNL     1       2.947   0.431  -1.556  1.00  0.00    -0.389 OA
ATOM     30  H4  UNL     1       3.486   1.143  -1.880  1.00  0.00     0.210 HD
ENDBRANCH  10  29
BRANCH   1  31
HETATM   31  N1  UNL     1      -1.561   0.409   2.133  1.00  0.00     0.087 N 
HETATM   32  C1  UNL     1      -1.593  -0.516   3.310  1.00  0.00     0.310 C 
HETATM   33  C2  UNL     1      -2.948   0.841   2.120  1.00  0.00     0.310 C 
ENDBRANCH   1  31
TORSDOF 6
