REMARK  2 active torsions:
REMARK  status: ('A' for Active; 'I' for Inactive)
REMARK    1  A    between atoms: C2_2  and  C3_3 
REMARK    2  A    between atoms: C3_3  and  C4_4 
ROOT
HETATM    1  C4  UNL     1       0.713  -0.251  -0.273  1.00  0.00     0.109 A 
HETATM    2  N1  UNL     1       1.645  -0.485   0.680  1.00  0.00    -0.339 N 
ATOM      3  H1  UNL     1       1.464  -0.544   1.682  1.00  0.00     0.168 HD
HETATM    4  C5  UNL     1       2.833  -0.625   0.103  1.00  0.00     0.198 A 
HETATM    5  N2  UNL     1       2.616  -0.472  -1.224  1.00  0.00    -0.295 N 
ATOM      6  H2  UNL     1       3.335  -0.523  -1.946  1.00  0.00     0.187 HD
HETATM    7  N3  UNL     1       1.322  -0.244  -1.445  1.00  0.00    -0.287 N 
ATOM      8  H3  UNL     1       0.882  -0.092  -2.353  1.00  0.00     0.188 HD
ENDROOT
BRANCH   1   9
HETATM    9  C3  UNL     1      -0.729  -0.050   0.081  1.00  0.00     0.037 A 
HETATM   10  C6  UNL     1      -1.778  -0.261  -0.936  1.00  0.00     0.023 A 
HETATM   11  C7  UNL     1      -1.517  -1.338   0.031  1.00  0.00     0.023 A 
BRANCH   9  12
HETATM   12  C2  UNL     1      -0.922   0.854   1.230  1.00  0.00    -0.020 C 
HETATM   13  C1  UNL     1      -0.910   2.164   1.093  1.00  0.00     0.008 C 
ENDBRANCH   9  12
ENDBRANCH   1   9
TORSDOF 2
