REMARK  4 active torsions:
REMARK  status: ('A' for Active; 'I' for Inactive)
REMARK    1  A    between atoms: C2_2  and  C3_3 
REMARK    2  A    between atoms: C3_3  and  C4_4 
REMARK    3  A    between atoms: C7_8  and  C8_9 
REMARK    4  A    between atoms: C8_9  and  N1_10 
ROOT
HETATM    1  C4  UNL     1       0.398  -0.330  -0.650  1.00  0.00     0.015 C 
HETATM    2  C5  UNL     1      -0.171  -1.537  -0.012  1.00  0.00     0.016 C 
HETATM    3  C6  UNL     1      -1.146  -1.170   0.794  1.00  0.00     0.096 C 
HETATM    4  F1  UNL     1      -1.896  -2.031   1.547  1.00  0.00    -0.211 F 
HETATM    5  C7  UNL     1      -1.376   0.293   0.828  1.00  0.00     0.073 C 
HETATM    6  C9  UNL     1      -0.085   0.792   0.201  1.00  0.00     0.022 C 
ENDROOT
BRANCH   5   7
HETATM    7  C8  UNL     1      -2.594   0.727   0.072  1.00  0.00     0.241 C 
BRANCH   7   8
HETATM    8  N1  UNL     1      -2.550   0.387  -1.316  1.00  0.00    -0.079 N 
ATOM      9  H13 UNL     1      -1.704   0.753  -1.752  1.00  0.00     0.274 HD
ATOM     10  H12 UNL     1      -2.384  -0.612  -1.439  1.00  0.00     0.274 HD
ATOM     11  H11 UNL     1      -3.379   0.683  -1.831  1.00  0.00     0.274 HD
ENDBRANCH   7   8
ENDBRANCH   5   7
BRANCH   1  12
HETATM   12  C3  UNL     1       1.905  -0.394  -0.755  1.00  0.00     0.035 C 
BRANCH  12  13
HETATM   13  C2  UNL     1       2.560  -0.517   0.555  1.00  0.00    -0.036 C 
HETATM   14  C1  UNL     1       3.415   0.391   0.984  1.00  0.00     0.007 C 
ENDBRANCH  12  13
ENDBRANCH   1  12
TORSDOF 4
