REMARK  3 active torsions:
REMARK  status: ('A' for Active; 'I' for Inactive)
REMARK    1  A    between atoms: C2_2  and  O1_3 
REMARK    2  A    between atoms: C11_14  and  O3_15 
REMARK    3  A    between atoms: O3_15  and  S1_16 
ROOT
HETATM    1  C1  UNL     1      -2.773   2.184   1.595  1.00  0.00     0.049 C 
HETATM    2  C2  UNL     1      -2.469   1.553   0.229  1.00  0.00     0.081 C 
HETATM    3  C3  UNL     1      -3.668   0.768  -0.159  1.00  0.00     0.040 C 
HETATM    4  C4  UNL     1      -3.547  -0.716   0.055  1.00  0.00     0.004 C 
HETATM    5  C5  UNL     1      -2.245  -1.139  -0.638  1.00  0.00     0.013 C 
HETATM    6  C6  UNL     1      -1.109  -0.593   0.239  1.00  0.00    -0.005 C 
HETATM    7  C7  UNL     1      -1.247  -1.206   1.575  1.00  0.00     0.019 C 
HETATM    8  C8  UNL     1      -1.173   0.884   0.172  1.00  0.00     0.165 C 
HETATM    9  O2  UNL     1      -0.429   1.148  -1.013  1.00  0.00    -0.376 OA
HETATM   10  C9  UNL     1       0.716   0.513  -0.675  1.00  0.00     0.133 C 
HETATM   11  C10 UNL     1       1.840   0.458  -1.591  1.00  0.00     0.066 C 
HETATM   12  C11 UNL     1       2.975  -0.226  -0.818  1.00  0.00     0.147 C 
HETATM   13  C12 UNL     1       2.576  -1.505  -0.174  1.00  0.00     0.034 C 
HETATM   14  C13 UNL     1       1.258  -1.416   0.598  1.00  0.00     0.015 C 
HETATM   15  C14 UNL     1       0.239  -0.888  -0.354  1.00  0.00    -0.008 C 
HETATM   16  C15 UNL     1       0.171  -1.792  -1.528  1.00  0.00     0.019 C 
ENDROOT
BRANCH  12  17
HETATM   17  O3  UNL     1       3.249   0.689   0.226  1.00  0.00    -0.252 OA
BRANCH  17  18
HETATM   18  S1  UNL     1       4.806   1.235   0.199  1.00  0.00     0.251 S 
HETATM   19  O4  UNL     1       5.479   0.865  -1.081  1.00  0.00    -0.572 OA
HETATM   20  O5  UNL     1       4.860   2.743   0.328  1.00  0.00    -0.572 OA
HETATM   21  O6  UNL     1       5.616   0.529   1.517  1.00  0.00    -0.572 OA
ENDBRANCH  17  18
ENDBRANCH  12  17
BRANCH   2  22
HETATM   22  O1  UNL     1      -2.403   2.667  -0.650  1.00  0.00    -0.388 OA
ATOM     23  H1  UNL     1      -2.215   2.277  -1.495  1.00  0.00     0.210 HD
ENDBRANCH   2  22
TORSDOF 3
