REMARK  4 active torsions:
REMARK  status: ('A' for Active; 'I' for Inactive)
REMARK    1  A    between atoms: O1_1  and  N1_3 
REMARK    2  A    between atoms: C1_5  and  C2_6 
REMARK    3  A    between atoms: C3_9  and  S1_10 
REMARK    4  A    between atoms: S1_10  and  C4_11 
ROOT
HETATM    1  C2  UNL     1       3.686   0.109  -0.125  1.00  0.00     0.176 A 
HETATM    2  N2  UNL     1       2.637   0.476   0.628  1.00  0.00    -0.317 N 
ATOM      3  H2  UNL     1       2.446   0.139   1.572  1.00  0.00     0.169 HD
HETATM    4  C3  UNL     1       1.869   1.362  -0.054  1.00  0.00     0.161 A 
HETATM    5  N3  UNL     1       2.477   1.522  -1.241  1.00  0.00    -0.278 N 
ATOM      6  H3  UNL     1       2.151   2.128  -1.994  1.00  0.00     0.189 HD
HETATM    7  N4  UNL     1       3.575   0.763  -1.279  1.00  0.00    -0.280 N 
ATOM      8  H4  UNL     1       4.223   0.695  -2.064  1.00  0.00     0.188 HD
ENDROOT
BRANCH   4   9
HETATM    9  S1  UNL     1       0.383   2.112   0.563  1.00  0.00    -0.082 SA
BRANCH   9  10
HETATM   10  C4  UNL     1      -1.103   1.156   0.199  1.00  0.00     0.017 C 
HETATM   11  C5  UNL     1      -1.031  -0.139   0.972  1.00  0.00     0.025 C 
HETATM   12  C6  UNL     1      -2.302  -0.925   0.787  1.00  0.00    -0.012 C 
HETATM   13  C7  UNL     1      -3.476  -0.092   1.226  1.00  0.00     0.009 C 
HETATM   14  C11 UNL     1      -2.397  -1.311  -0.669  1.00  0.00     0.009 C 
HETATM   15  C8  UNL     1      -3.570   1.156   0.375  1.00  0.00    -0.012 C 
HETATM   16  C9  UNL     1      -3.681   0.719  -1.077  1.00  0.00     0.009 C 
HETATM   17  C13 UNL     1      -2.310   1.983   0.513  1.00  0.00     0.025 C 
HETATM   18  C10 UNL     1      -2.434  -0.035  -1.481  1.00  0.00    -0.012 C 
HETATM   19  C12 UNL     1      -1.177   0.775  -1.267  1.00  0.00     0.025 C 
ENDBRANCH   9  10
ENDBRANCH   4   9
BRANCH   1  20
HETATM   20  C1  UNL     1       4.736  -0.827   0.266  1.00  0.00     0.221 A 
HETATM   21  O2  UNL     1       4.815  -1.459   1.418  1.00  0.00    -0.185 OA
HETATM   22  N1  UNL     1       5.882  -2.228   1.452  1.00  0.00    -0.090 N 
HETATM   23  C14 UNL     1       6.507  -2.081   0.279  1.00  0.00     0.233 A 
HETATM   24  N5  UNL     1       5.803  -1.220  -0.450  1.00  0.00    -0.305 N 
HETATM   25 CL1  UNL     1       8.007  -2.914  -0.166  1.00  0.00    -0.041 Cl
ATOM     26  H5  UNL     1       6.034  -0.910  -1.394  1.00  0.00     0.170 HD
BRANCH  22  27
HETATM   27  O1  UNL     1       6.270  -3.025   2.500  1.00  0.00    -0.260 OA
ATOM     28  H1  UNL     1       7.040  -3.580   2.525  1.00  0.00     0.247 HD
ENDBRANCH  22  27
ENDBRANCH   1  20
TORSDOF 4
