REMARK  5 active torsions:
REMARK  status: ('A' for Active; 'I' for Inactive)
REMARK    1  A    between atoms: C1_2  and  O2_4 
REMARK    2  A    between atoms: O2_4  and  C2_5 
REMARK    3  A    between atoms: C10_13  and  O3_14 
REMARK    4  A    between atoms: O3_14  and  C11_15 
REMARK    5  A    between atoms: C11_15  and  C12_17 
ROOT
HETATM    1  C2  UNL     1      -1.114   0.402  -0.498  1.00  0.00     0.172 C 
HETATM    2  C3  UNL     1      -2.559  -0.074  -0.251  1.00  0.00     0.019 C 
HETATM    3  C4  UNL     1      -2.800  -0.489   1.158  1.00  0.00     0.012 C 
HETATM    4  C5  UNL     1      -1.804  -1.585   1.479  1.00  0.00    -0.011 C 
HETATM    5  C6  UNL     1      -2.019  -2.803   0.641  1.00  0.00     0.009 C 
HETATM    6  C7  UNL     1      -1.830  -2.371  -0.806  1.00  0.00    -0.011 C 
HETATM    7  C8  UNL     1      -2.764  -1.252  -1.174  1.00  0.00     0.012 C 
HETATM    8  C9  UNL     1      -0.419  -1.897  -0.941  1.00  0.00     0.046 C 
HETATM    9  C10 UNL     1      -0.146  -0.633  -0.095  1.00  0.00     0.099 C 
HETATM   10  C16 UNL     1      -0.436  -0.987   1.362  1.00  0.00     0.046 C 
ENDROOT
BRANCH   9  11
HETATM   11  O3  UNL     1       1.165  -0.343  -0.307  1.00  0.00    -0.303 OA
BRANCH  11  12
HETATM   12  C11 UNL     1       1.963   0.552   0.283  1.00  0.00     0.301 C 
HETATM   13  O4  UNL     1       1.538   1.256   1.201  1.00  0.00    -0.259 OA
BRANCH  12  14
HETATM   14  C12 UNL     1       3.386   0.753  -0.123  1.00  0.00     0.081 A 
HETATM   15  C13 UNL     1       4.294   1.636   0.406  1.00  0.00     0.027 A 
HETATM   16  C14 UNL     1       5.521   1.633  -0.127  1.00  0.00     0.033 A 
HETATM   17  C15 UNL     1       5.769   0.759  -1.148  1.00  0.00     0.075 A 
HETATM   18 CL1  UNL     1       7.280   0.526  -2.045  1.00  0.00    -0.076 Cl
HETATM   19  S1  UNL     1       4.278  -0.042  -1.338  1.00  0.00    -0.072 SA
ENDBRANCH  12  14
ENDBRANCH  11  12
ENDBRANCH   9  11
BRANCH   1  20
HETATM   20  O2  UNL     1      -0.911   1.661   0.016  1.00  0.00    -0.297 OA
BRANCH  20  21
HETATM   21  C1  UNL     1      -0.812   2.771  -0.855  1.00  0.00     0.373 C 
HETATM   22  N1  UNL     1      -0.603   4.079  -0.350  1.00  0.00    -0.032 NA
HETATM   23  O1  UNL     1      -0.922   2.512  -2.077  1.00  0.00    -0.242 OA
ENDBRANCH  20  21
ENDBRANCH   1  20
TORSDOF 5
