REMARK  4 active torsions:
REMARK  status: ('A' for Active; 'I' for Inactive)
REMARK    1  A    between atoms: C2_2  and  C5_5 
REMARK    2  A    between atoms: C6_10  and  C7_11 
REMARK    3  A    between atoms: N3_14  and  C10_15 
REMARK    4  A    between atoms: C10_15  and  C11_16 
ROOT
HETATM    1  C7  UNL     1      -0.088   0.797  -0.325  1.00  0.00     0.067 C 
HETATM    2  C8  UNL     1      -0.794   2.093  -0.259  1.00  0.00     0.043 C 
HETATM    3  C9  UNL     1      -2.293   2.027  -0.077  1.00  0.00     0.275 C 
HETATM    4  N3  UNL     1      -2.732   0.810   0.505  1.00  0.00     0.112 N 
HETATM    5  C14 UNL     1      -1.767   0.233   1.426  1.00  0.00     0.319 C 
HETATM    6 CL1  UNL     1      -2.490  -1.077   2.346  1.00  0.00    -0.092 Cl
HETATM    7  C15 UNL     1      -0.650  -0.288   0.598  1.00  0.00     0.065 C 
ENDROOT
BRANCH   1   8
HETATM    8  C6  UNL     1       1.338   0.913   0.069  1.00  0.00     0.144 A 
HETATM    9  N2  UNL     1       1.986   1.818   0.764  1.00  0.00    -0.281 N 
HETATM   10  N1  UNL     1       3.284   1.446   0.857  1.00  0.00    -0.281 N 
ATOM     11  H2  UNL     1       1.579   2.662   1.167  1.00  0.00     0.189 HD
HETATM   12  C5  UNL     1       3.400   0.291   0.193  1.00  0.00     0.147 A 
ATOM     13  H1  UNL     1       4.029   1.949   1.340  1.00  0.00     0.189 HD
HETATM   14  O2  UNL     1       2.204  -0.035  -0.291  1.00  0.00    -0.281 OA
BRANCH  12  15
HETATM   15  C2  UNL     1       4.565  -0.596  -0.047  1.00  0.00     0.016 C 
HETATM   16  C1  UNL     1       4.885  -0.571  -1.517  1.00  0.00     0.023 C 
HETATM   17  C3  UNL     1       4.076  -2.015   0.285  1.00  0.00     0.023 C 
HETATM   18  C4  UNL     1       5.723  -0.216   0.825  1.00  0.00     0.023 C 
ENDBRANCH  12  15
ENDBRANCH   1   8
BRANCH   4  19
HETATM   19  C10 UNL     1      -3.328  -0.151  -0.350  1.00  0.00     0.331 C 
BRANCH  19  20
HETATM   20  C11 UNL     1      -4.819  -0.290  -0.105  1.00  0.00     0.047 A 
HETATM   21  C12 UNL     1      -5.475   0.619   0.682  1.00  0.00     0.082 A 
HETATM   22  S1  UNL     1      -7.063  -0.015   0.688  1.00  0.00    -0.039 SA
HETATM   23  C13 UNL     1      -6.795  -1.380  -0.302  1.00  0.00     0.288 A 
HETATM   24  O1  UNL     1      -7.615  -2.281  -0.688  1.00  0.00    -0.260 OA
HETATM   25  N4  UNL     1      -5.505  -1.288  -0.592  1.00  0.00    -0.319 N 
ATOM     26  H4  UNL     1      -5.056  -1.985  -1.186  1.00  0.00     0.169 HD
ENDBRANCH  19  20
ENDBRANCH   4  19
TORSDOF 4
