REMARK  15 active torsions:
REMARK  status: ('A' for Active; 'I' for Inactive)
REMARK    1  A    between atoms: O1_2  and  C2_3 
REMARK    2  A    between atoms: C2_3  and  C3_5 
REMARK    3  A    between atoms: C3_5  and  C4_6 
REMARK    4  A    between atoms: C3_5  and  N3_27 
REMARK    5  A    between atoms: C4_6  and  C5_7 
REMARK       I    between atoms: C5_7  and  N1_9 
REMARK    6  A    between atoms: C9_13  and  C10_14 
REMARK    7  A    between atoms: C10_14  and  O4_15 
REMARK    8  A    between atoms: O4_15  and  C11_16 
REMARK       I    between atoms: C11_16  and  N2_18 
REMARK    9  A    between atoms: N2_18  and  C12_20 
REMARK   10  A    between atoms: C12_20  and  C15_23 
REMARK   11  A    between atoms: N3_27  and  C19_29 
REMARK   12  A    between atoms: C19_29  and  C20_30 
REMARK   13  A    between atoms: C20_30  and  C21_31 
REMARK   14  A    between atoms: C21_31  and  N4_32 
REMARK   15  A    between atoms: C27_38  and  C28_39 
ROOT
HETATM    1  C4  UNL     1       0.862  -0.189  -0.885  1.00  0.00     0.138 C 
ENDROOT
BRANCH   1   2
HETATM    2  C3  UNL     1       2.343  -0.007  -0.422  1.00  0.00     0.189 C 
BRANCH   2   3
HETATM    3  C2  UNL     1       2.880  -1.333  -0.022  1.00  0.00     0.281 C 
HETATM    4  O2  UNL     1       3.279  -1.556   1.161  1.00  0.00    -0.263 OA
BRANCH   3   5
HETATM    5  O1  UNL     1       2.974  -2.387  -0.918  1.00  0.00    -0.325 OA
HETATM    6  C1  UNL     1       3.491  -3.657  -0.536  1.00  0.00     0.213 C 
ENDBRANCH   3   5
ENDBRANCH   2   3
BRANCH   2   7
HETATM    7  N3  UNL     1       2.325   0.965   0.562  1.00  0.00    -0.388 N 
ATOM      8  H3  UNL     1       1.407   1.323   0.827  1.00  0.00     0.159 HD
BRANCH   7   9
HETATM    9  C19 UNL     1       3.406   1.505   1.226  1.00  0.00     0.058 C 
BRANCH   9  10
HETATM   10  C20 UNL     1       4.351   2.420   0.514  1.00  0.00     0.074 C 
BRANCH  10  11
HETATM   11  C21 UNL     1       5.111   1.895  -0.616  1.00  0.00     0.278 C 
BRANCH  11  12
HETATM   12  N4  UNL     1       5.978   0.791  -0.372  1.00  0.00     0.103 N 
HETATM   13  C22 UNL     1       6.581   0.317  -1.586  1.00  0.00     0.273 C 
HETATM   14  C23 UNL     1       7.221  -1.031  -1.454  1.00  0.00     0.030 C 
HETATM   15  C24 UNL     1       8.615  -0.909  -0.935  1.00  0.00     0.002 C 
HETATM   16  C25 UNL     1       8.642  -0.842   0.560  1.00  0.00     0.003 C 
HETATM   17  C26 UNL     1       7.340  -0.414   1.171  1.00  0.00     0.047 C 
HETATM   18  C27 UNL     1       6.883   0.955   0.721  1.00  0.00     0.322 C 
BRANCH  18  19
HETATM   19  C28 UNL     1       7.987   1.897   0.505  1.00  0.00     0.207 C 
HETATM   20  O6  UNL     1       8.788   2.053   1.480  1.00  0.00    -0.646 OA
HETATM   21  O7  UNL     1       8.256   2.628  -0.618  1.00  0.00    -0.646 OA
ENDBRANCH  18  19
ENDBRANCH  11  12
ENDBRANCH  10  11
ENDBRANCH   9  10
ENDBRANCH   7   9
ENDBRANCH   2   7
ENDBRANCH   1   2
BRANCH   1  22
HETATM   22  C5  UNL     1       0.036  -0.740   0.203  1.00  0.00     0.222 C 
HETATM   23  O3  UNL     1       0.440  -1.784   0.769  1.00  0.00    -0.273 OA
HETATM   24  N1  UNL     1      -1.179  -0.153   0.638  1.00  0.00    -0.345 N 
HETATM   25  C6  UNL     1      -2.035  -0.644   1.682  1.00  0.00     0.126 C 
HETATM   26  C9  UNL     1      -1.825   1.077   0.176  1.00  0.00     0.111 C 
HETATM   27  C7  UNL     1      -2.545   0.581   2.373  1.00  0.00     0.022 C 
HETATM   28  C8  UNL     1      -2.342   1.716   1.398  1.00  0.00     0.029 C 
BRANCH  26  29
HETATM   29  C10 UNL     1      -2.684   0.952  -0.992  1.00  0.00     0.206 C 
BRANCH  29  30
HETATM   30  O4  UNL     1      -3.775   0.144  -1.002  1.00  0.00    -0.302 OA
BRANCH  30  31
HETATM   31  C11 UNL     1      -4.999   0.196  -0.438  1.00  0.00     0.361 C 
HETATM   32  O5  UNL     1      -5.300   1.191   0.251  1.00  0.00    -0.238 OA
HETATM   33  N2  UNL     1      -6.003  -0.803  -0.561  1.00  0.00    -0.328 N 
ATOM     34  H2  UNL     1      -5.756  -1.623  -1.115  1.00  0.00     0.165 HD
BRANCH  33  35
HETATM   35  C12 UNL     1      -7.312  -0.795  -0.003  1.00  0.00     0.034 C 
HETATM   36  C13 UNL     1      -7.291  -0.541   1.497  1.00  0.00     0.039 C 
HETATM   37  C14 UNL     1      -7.816  -2.264  -0.111  1.00  0.00     0.039 C 
BRANCH  35  38
HETATM   38  C15 UNL     1      -8.359   0.012  -0.662  1.00  0.00    -0.027 C 
HETATM   39  C16 UNL     1      -9.682  -0.126   0.109  1.00  0.00     0.017 C 
HETATM   40  C17 UNL     1      -8.133   1.499  -0.752  1.00  0.00     0.017 C 
HETATM   41  C18 UNL     1      -8.599  -0.442  -2.108  1.00  0.00     0.017 C 
ENDBRANCH  35  38
ENDBRANCH  33  35
ENDBRANCH  30  31
ENDBRANCH  29  30
ENDBRANCH  26  29
ENDBRANCH   1  22
TORSDOF 15
