REMARK  10 active torsions:
REMARK  status: ('A' for Active; 'I' for Inactive)
REMARK    1  A    between atoms: N1_2  and  C2_4 
REMARK    2  A    between atoms: C3_7  and  C4_8 
REMARK    3  A    between atoms: C4_8  and  C5_9 
REMARK    4  A    between atoms: C4_8  and  C11_18 
REMARK    5  A    between atoms: C6_10  and  S1_11 
REMARK    6  A    between atoms: S1_11  and  C7_12 
REMARK    7  A    between atoms: C9_14  and  C10_15 
REMARK    8  A    between atoms: C10_15  and  O1_16 
REMARK    9  A    between atoms: C16_27  and  N5_28 
REMARK   10  A    between atoms: N5_28  and  C17_30 
ROOT
HETATM    1  C2  UNL     1      -0.558  -2.383   1.392  1.00  0.00     0.679 A 
HETATM    2  N2  UNL     1       0.587  -1.870   0.941  1.00  0.00    -0.191 N 
ATOM      3  H2  UNL     1       1.468  -2.333   1.166  1.00  0.00     0.184 HD
HETATM    4  C3  UNL     1       0.599  -0.740   0.187  1.00  0.00     0.090 A 
HETATM    5  C15 UNL     1      -0.580  -0.140  -0.102  1.00  0.00     0.185 A 
HETATM    6  F1  UNL     1      -0.643   1.008  -0.857  1.00  0.00    -0.200 F 
HETATM    7  C16 UNL     1      -1.800  -0.670   0.365  1.00  0.00     0.158 A 
HETATM    8  N7  UNL     1      -1.726  -1.781   1.101  1.00  0.00    -0.174 N 
ATOM      9  H7  UNL     1      -2.590  -2.190   1.457  1.00  0.00     0.186 HD
ENDROOT
BRANCH   4  10
HETATM   10  C4  UNL     1       1.864  -0.158  -0.308  1.00  0.00     0.170 C 
BRANCH  10  11
HETATM   11  C5  UNL     1       1.928   1.217   0.193  1.00  0.00    -0.077 C 
HETATM   12  C6  UNL     1       1.973   2.358   0.637  1.00  0.00    -0.033 C 
BRANCH  12  13
HETATM   13  S1  UNL     1       1.980   3.972   1.276  1.00  0.00    -0.073 SA
BRANCH  13  14
HETATM   14  C7  UNL     1       3.573   4.665   1.599  1.00  0.00     0.067 A 
HETATM   15  C8  UNL     1       4.473   4.943   0.443  1.00  0.00     0.024 A 
HETATM   16  C9  UNL     1       4.871   3.968   1.584  1.00  0.00     0.025 A 
BRANCH  16  17
HETATM   17  C10 UNL     1       5.066   2.550   1.142  1.00  0.00     0.170 C 
BRANCH  17  18
HETATM   18  O1  UNL     1       6.423   2.173   1.247  1.00  0.00    -0.400 OA
ATOM     19  H1  UNL     1       6.547   1.274   0.967  1.00  0.00     0.209 HD
ENDBRANCH  17  18
ENDBRANCH  16  17
ENDBRANCH  13  14
ENDBRANCH  12  13
ENDBRANCH  10  11
BRANCH  10  20
HETATM   20  C11 UNL     1       2.047  -0.231  -1.761  1.00  0.00     0.049 A 
HETATM   21  C12 UNL     1       1.926   0.855  -2.609  1.00  0.00     0.115 A 
HETATM   22  N3  UNL     1       2.157   0.406  -3.854  1.00  0.00    -0.360 N 
HETATM   23  C13 UNL     1       2.417  -0.934  -3.793  1.00  0.00     0.182 A 
ATOM     24  H3  UNL     1       2.141   0.971  -4.703  1.00  0.00     0.166 HD
HETATM   25  N4  UNL     1       2.346  -1.294  -2.523  1.00  0.00    -0.348 N 
HETATM   26  C14 UNL     1       2.552  -2.634  -2.003  1.00  0.00     0.157 C 
ENDBRANCH  10  20
ENDBRANCH   4  10
BRANCH   1  27
HETATM   27  N1  UNL     1      -0.542  -3.473   2.118  1.00  0.00    -0.230 N 
HETATM   28  C1  UNL     1       0.705  -4.118   2.431  1.00  0.00     0.165 C 
ATOM     29  H1  UNL     1      -1.418  -3.866   2.463  1.00  0.00     0.177 HD
ENDBRANCH   1  27
BRANCH   7  30
HETATM   30  N5  UNL     1      -2.859  -0.087   0.068  1.00  0.00    -0.369 N 
ATOM     31  H5  UNL     1      -2.656   0.734  -0.503  1.00  0.00     0.161 HD
BRANCH  30  32
HETATM   32  C17 UNL     1      -4.229  -0.199   0.267  1.00  0.00     0.086 C 
HETATM   33  C18 UNL     1      -5.039   0.735  -0.639  1.00  0.00     0.052 C 
HETATM   34  C19 UNL     1      -6.473   0.692  -0.196  1.00  0.00     0.234 C 
HETATM   35  N6  UNL     1      -6.955  -0.639   0.084  1.00  0.00    -0.075 N 
HETATM   36  C20 UNL     1      -6.111  -1.625  -0.575  1.00  0.00     0.234 C 
ATOM     37  H62 UNL     1      -7.035  -0.813   1.086  1.00  0.00     0.277 HD
ATOM     38  H61 UNL     1      -7.938  -0.750  -0.166  1.00  0.00     0.277 HD
HETATM   39  C21 UNL     1      -4.766  -1.595   0.153  1.00  0.00     0.052 C 
ENDBRANCH  30  32
ENDBRANCH   7  30
TORSDOF 10
