REMARK  13 active torsions:
REMARK  status: ('A' for Active; 'I' for Inactive)
REMARK    1  A    between atoms: C2_2  and  N2_5 
REMARK    2  A    between atoms: C4_10  and  C5_11 
REMARK    3  A    between atoms: C5_11  and  O1_12 
REMARK    4  A    between atoms: C5_11  and  N5_14 
REMARK    5  A    between atoms: N5_14  and  C6_16 
REMARK    6  A    between atoms: C6_16  and  C7_21 
REMARK    7  A    between atoms: N6_17  and  O2_19 
REMARK    8  A    between atoms: C7_21  and  O4_23 
REMARK    9  A    between atoms: O4_23  and  C8_24 
REMARK   10  A    between atoms: C8_24  and  N7_25 
REMARK   11  A    between atoms: C10_30  and  N10_31 
REMARK   12  A    between atoms: C11_36  and  N12_37 
REMARK   13  A    between atoms: C13_43  and  O5_44 
ROOT
HETATM    1  C1  UNL     1      -6.736  -0.014   1.241  1.00  0.00     0.050 C 
HETATM    2  C2  UNL     1      -6.144  -1.348   1.658  1.00  0.00     0.214 C 
HETATM    3  C3  UNL     1      -6.846  -2.398   0.934  1.00  0.00     0.086 C 
HETATM    4  N1  UNL     1      -7.405  -3.219   0.352  1.00  0.00    -0.195 NA
ENDROOT
BRANCH   2   5
HETATM    5  N2  UNL     1      -4.703  -1.386   1.379  1.00  0.00    -0.237 N 
HETATM    6  N3  UNL     1      -3.781  -1.925   2.147  1.00  0.00    -0.237 N 
HETATM    7  N4  UNL     1      -2.577  -1.780   1.590  1.00  0.00    -0.282 N 
ATOM      8  H3  UNL     1      -3.960  -2.387   3.039  1.00  0.00     0.208 HD
HETATM    9  C4  UNL     1      -2.713  -1.126   0.421  1.00  0.00     0.127 A 
ATOM     10  H4  UNL     1      -1.697  -2.111   1.986  1.00  0.00     0.188 HD
HETATM   11  C13 UNL     1      -4.081  -0.880   0.301  1.00  0.00     0.188 A 
BRANCH   9  12
HETATM   12  C5  UNL     1      -1.695  -0.721  -0.569  1.00  0.00     0.276 C 
BRANCH  12  13
HETATM   13  O1  UNL     1      -2.156  -1.033  -1.847  1.00  0.00    -0.371 OA
ATOM     14  H1  UNL     1      -1.501  -0.772  -2.484  1.00  0.00     0.212 HD
ENDBRANCH  12  13
BRANCH  12  15
HETATM   15  N5  UNL     1      -1.410   0.690  -0.436  1.00  0.00    -0.339 N 
ATOM     16  H5  UNL     1      -1.910   1.218   0.280  1.00  0.00     0.164 HD
BRANCH  15  17
HETATM   17  C6  UNL     1      -0.482   1.373  -1.239  1.00  0.00     0.200 C 
HETATM   18  N6  UNL     1      -0.907   2.314  -2.001  1.00  0.00    -0.248 N 
ATOM     19  H6  UNL     1      -1.904   2.531  -1.996  1.00  0.00     0.196 HD
BRANCH  18  20
HETATM   20  O2  UNL     1      -0.090   3.036  -2.815  1.00  0.00    -0.288 OA
ATOM     21  H2  UNL     1      -0.405   3.733  -3.379  1.00  0.00     0.244 HD
ENDBRANCH  18  20
BRANCH  17  22
HETATM   22  C7  UNL     1       0.942   0.996  -1.186  1.00  0.00     0.335 C 
HETATM   23  O3  UNL     1       1.266   0.071  -0.418  1.00  0.00    -0.255 OA
BRANCH  22  24
HETATM   24  O4  UNL     1       1.889   1.604  -1.925  1.00  0.00    -0.266 OA
BRANCH  24  25
HETATM   25  C8  UNL     1       3.232   1.445  -2.050  1.00  0.00     0.262 C 
BRANCH  25  26
HETATM   26  N7  UNL     1       4.067   1.637  -0.889  1.00  0.00    -0.210 N 
HETATM   27  N8  UNL     1       4.478   2.807  -0.384  1.00  0.00    -0.012 NA
HETATM   28  N9  UNL     1       5.201   2.610   0.705  1.00  0.00    -0.277 N 
HETATM   29  C9  UNL     1       5.284   1.289   0.945  1.00  0.00     0.136 A 
ATOM     30  H9  UNL     1       5.628   3.342   1.272  1.00  0.00     0.184 HD
HETATM   31  C10 UNL     1       5.897   0.509   1.894  1.00  0.00     0.146 A 
HETATM   32  C12 UNL     1       4.562   0.692  -0.073  1.00  0.00     0.174 A 
HETATM   33  N11 UNL     1       5.806  -0.836   1.846  1.00  0.00    -0.175 N 
HETATM   34  C11 UNL     1       5.114  -1.433   0.871  1.00  0.00     0.679 A 
ATOM     35  H11 UNL     1       6.268  -1.401   2.558  1.00  0.00     0.186 HD
HETATM   36  N13 UNL     1       4.524  -0.661  -0.043  1.00  0.00    -0.173 N 
ATOM     37  H13 UNL     1       4.000  -1.130  -0.782  1.00  0.00     0.186 HD
BRANCH  31  38
HETATM   38  N10 UNL     1       6.572   1.039   2.848  1.00  0.00    -0.383 N 
ATOM     39 2H10 UNL     1       6.641   2.056   2.884  1.00  0.00     0.157 HD
ATOM     40 1H10 UNL     1       7.027   0.459   3.553  1.00  0.00     0.157 HD
ENDBRANCH  31  38
BRANCH  34  41
HETATM   41  N12 UNL     1       5.036  -2.724   0.839  1.00  0.00    -0.234 N 
ATOM     42 2H12 UNL     1       5.487  -3.314   1.538  1.00  0.00     0.174 HD
ATOM     43 1H12 UNL     1       4.508  -3.180   0.095  1.00  0.00     0.174 HD
ENDBRANCH  34  41
ENDBRANCH  25  26
ENDBRANCH  24  25
ENDBRANCH  22  24
ENDBRANCH  17  22
ENDBRANCH  15  17
ENDBRANCH  12  15
ENDBRANCH   9  12
BRANCH  11  44
HETATM   44  O5  UNL     1      -4.719  -0.226  -0.747  1.00  0.00    -0.343 OA
ATOM     45  H5  UNL     1      -4.279   0.132  -1.509  1.00  0.00     0.219 HD
ENDBRANCH  11  44
ENDBRANCH   2   5
TORSDOF 13
