REMARK  3 active torsions:
REMARK  status: ('A' for Active; 'I' for Inactive)
REMARK    1  A    between atoms: C2_2  and  O1_3 
REMARK    2  A    between atoms: C2_2  and  C3_5 
REMARK    3  A    between atoms: C3_5  and  C5_7 
ROOT
HETATM    1  C5  UNL     1       1.008   0.462   0.142  1.00  0.00     0.030 C 
HETATM    2  C6  UNL     1       1.226   1.766   0.915  1.00  0.00     0.125 C 
HETATM    3  C7  UNL     1       0.878   2.996   0.172  1.00  0.00     0.040 C 
HETATM    4  O2  UNL     1       0.524   1.629   2.101  1.00  0.00    -0.355 OA
HETATM    5  C8  UNL     1      -0.594   0.862   1.797  1.00  0.00     0.274 C 
HETATM    6  O3  UNL     1      -1.525   1.698   1.182  1.00  0.00    -0.289 OA
HETATM    7  C9  UNL     1      -2.140   1.389   0.010  1.00  0.00     0.270 C 
HETATM    8  O4  UNL     1      -2.738   2.273  -0.646  1.00  0.00    -0.264 OA
HETATM    9  C10 UNL     1      -2.118   0.012  -0.511  1.00  0.00     0.059 C 
HETATM   10  C11 UNL     1      -1.918  -0.052  -2.010  1.00  0.00     0.027 C 
HETATM   11  C12 UNL     1      -3.554  -0.509  -0.301  1.00  0.00     0.131 C 
HETATM   12  C13 UNL     1      -3.878  -0.337   1.155  1.00  0.00     0.260 C 
HETATM   13  O5  UNL     1      -4.921   0.206   1.571  1.00  0.00    -0.265 OA
HETATM   14  O6  UNL     1      -2.880  -0.853   2.006  1.00  0.00    -0.321 OA
HETATM   15  C14 UNL     1      -1.901  -1.629   1.382  1.00  0.00     0.185 C 
HETATM   16  C15 UNL     1      -1.171  -0.881   0.250  1.00  0.00     0.038 C 
HETATM   17  C16 UNL     1      -0.007  -0.208   0.896  1.00  0.00     0.056 C 
ENDROOT
BRANCH   1  18
HETATM   18  C3  UNL     1       2.366  -0.063  -0.100  1.00  0.00     0.017 C 
HETATM   19  C4  UNL     1       3.045   1.049  -0.955  1.00  0.00     0.013 C 
BRANCH  18  20
HETATM   20  C2  UNL     1       2.597  -1.326  -0.818  1.00  0.00     0.118 C 
HETATM   21  C1  UNL     1       2.057  -2.577  -0.182  1.00  0.00     0.040 C 
BRANCH  20  22
HETATM   22  O1  UNL     1       4.006  -1.559  -0.821  1.00  0.00    -0.396 OA
ATOM     23  H1  UNL     1       4.347  -0.769  -1.223  1.00  0.00     0.210 HD
ENDBRANCH  20  22
ENDBRANCH  18  20
ENDBRANCH   1  18
TORSDOF 3
