REMARK  3 active torsions:
REMARK  status: ('A' for Active; 'I' for Inactive)
REMARK    1  A    between atoms: O1_2  and  C2_3 
REMARK    2  A    between atoms: C9_12  and  O4_13 
REMARK    3  A    between atoms: C13_18  and  O5_19 
ROOT
HETATM    1  C2  UNL     1       1.246  -0.859   1.529  1.00  0.00     0.130 A 
HETATM    2  C3  UNL     1       1.933   0.183   1.165  1.00  0.00     0.042 A 
HETATM    3  C4  UNL     1       3.273   0.696   1.566  1.00  0.00     0.227 C 
HETATM    4  O2  UNL     1       3.786   0.527   2.677  1.00  0.00    -0.284 OA
HETATM    5  C5  UNL     1       3.817   1.401   0.425  1.00  0.00     0.200 C 
HETATM    6  O3  UNL     1       4.914   1.948   0.260  1.00  0.00    -0.289 OA
HETATM    7  C6  UNL     1       2.726   1.357  -0.643  1.00  0.00     0.102 C 
HETATM    8  C7  UNL     1       1.474   1.215   0.181  1.00  0.00     0.070 A 
HETATM    9  C8  UNL     1       0.224   0.931  -0.421  1.00  0.00     0.001 A 
HETATM   10  C9  UNL     1      -0.295   1.829  -1.367  1.00  0.00     0.074 A 
HETATM   11  C10 UNL     1      -1.548   1.592  -1.899  1.00  0.00     0.046 A 
HETATM   12  C11 UNL     1      -2.333   0.502  -1.553  1.00  0.00    -0.025 A 
HETATM   13  C12 UNL     1      -3.670   0.312  -2.190  1.00  0.00     0.051 C 
HETATM   14  C13 UNL     1      -1.794  -0.355  -0.630  1.00  0.00     0.089 A 
HETATM   15  C15 UNL     1      -0.553  -0.157  -0.071  1.00  0.00     0.060 A 
HETATM   16  C16 UNL     1      -0.061  -1.108   0.934  1.00  0.00     0.219 A 
HETATM   17  O6  UNL     1      -0.681  -2.109   1.318  1.00  0.00    -0.284 OA
ENDROOT
BRANCH   1  18
HETATM   18  O1  UNL     1       1.769  -1.735   2.485  1.00  0.00    -0.351 OA
HETATM   19  C1  UNL     1       1.292  -1.891   3.787  1.00  0.00     0.210 C 
ENDBRANCH   1  18
BRANCH  14  20
HETATM   20  O5  UNL     1      -2.571  -1.448  -0.284  1.00  0.00    -0.354 OA
HETATM   21  C14 UNL     1      -2.564  -2.689  -0.961  1.00  0.00     0.210 C 
ENDBRANCH  14  20
BRANCH  10  22
HETATM   22  O4  UNL     1       0.441   2.926  -1.765  1.00  0.00    -0.360 OA
ATOM     23  H4  UNL     1       0.090   3.534  -2.405  1.00  0.00     0.217 HD
ENDBRANCH  10  22
TORSDOF 3
