REMARK  6 active torsions:
REMARK  status: ('A' for Active; 'I' for Inactive)
REMARK       I    between atoms: C2_2  and  N1_4 
REMARK    1  A    between atoms: N1_4  and  N2_6 
REMARK       I    between atoms: N2_6  and  C3_8 
REMARK       I    between atoms: C3_8  and  N3_10 
REMARK    2  A    between atoms: N3_10  and  C4_12 
REMARK    3  A    between atoms: C7_16  and  N5_17 
REMARK    4  A    between atoms: C9_22  and  N6_23 
REMARK    5  A    between atoms: C9_22  and  C10_27 
REMARK    6  A    between atoms: C10_27  and  N7_28 
ROOT
HETATM    1  C4  UNL     1      -0.495   0.384   0.055  1.00  0.00     0.152 C 
HETATM    2  C5  UNL     1      -1.162   1.459   0.878  1.00  0.00     0.302 C 
HETATM    3  N4  UNL     1      -2.391   1.886   0.262  1.00  0.00     0.117 N 
HETATM    4  C6  UNL     1      -3.052   2.793   1.183  1.00  0.00     0.312 C 
HETATM    5  C7  UNL     1      -3.305   0.777   0.036  1.00  0.00     0.419 C 
HETATM    6  C8  UNL     1      -2.656  -0.260  -0.837  1.00  0.00     0.107 C 
HETATM    7  C9  UNL     1      -1.440  -0.781  -0.090  1.00  0.00     0.172 C 
ENDROOT
BRANCH   1   8
HETATM    8  N3  UNL     1       0.722  -0.065   0.638  1.00  0.00    -0.333 N 
HETATM    9  C3  UNL     1       2.019   0.137   0.086  1.00  0.00     0.335 C 
HETATM   10  N2  UNL     1       3.169  -0.354   0.751  1.00  0.00    -0.249 N 
HETATM   11  O2  UNL     1       2.213   0.746  -0.996  1.00  0.00    -0.246 OA
ATOM     12  H2  UNL     1       3.030  -0.852   1.630  1.00  0.00     0.192 HD
ATOM     13  H3  UNL     1       0.661  -0.572   1.521  1.00  0.00     0.164 HD
BRANCH  10  14
HETATM   14  N1  UNL     1       4.471  -0.206   0.293  1.00  0.00    -0.266 N 
HETATM   15  C2  UNL     1       4.923  -0.732  -0.959  1.00  0.00     0.232 C 
HETATM   16  C1  UNL     1       6.335  -0.536  -1.389  1.00  0.00     0.119 C 
HETATM   17  O1  UNL     1       4.084  -1.351  -1.653  1.00  0.00    -0.272 OA
ATOM     18  H1  UNL     1       5.137   0.301   0.876  1.00  0.00     0.190 HD
ENDBRANCH  10  14
ENDBRANCH   1   8
BRANCH   7  19
HETATM   19  N6  UNL     1      -1.900  -1.159   1.221  1.00  0.00    -0.067 N 
ATOM     20  H63 UNL     1      -1.133  -1.354   1.865  1.00  0.00     0.275 HD
ATOM     21  H62 UNL     1      -2.315  -0.379   1.731  1.00  0.00     0.275 HD
ATOM     22  H61 UNL     1      -2.540  -1.947   1.123  1.00  0.00     0.275 HD
ENDBRANCH   7  19
BRANCH   7  23
HETATM   23  C10 UNL     1      -0.882  -1.935  -0.867  1.00  0.00     0.270 C 
BRANCH  23  24
HETATM   24  N7  UNL     1       0.294  -2.531  -0.323  1.00  0.00    -0.077 N 
ATOM     25  H73 UNL     1       1.014  -1.821  -0.187  1.00  0.00     0.274 HD
ATOM     26  H72 UNL     1       0.129  -2.809   0.644  1.00  0.00     0.274 HD
ATOM     27  H71 UNL     1       0.674  -3.316  -0.852  1.00  0.00     0.274 HD
ENDBRANCH  23  24
ENDBRANCH   7  23
BRANCH   5  28
HETATM   28  N5  UNL     1      -4.473   1.268  -0.626  1.00  0.00    -0.047 N 
ATOM     29  H53 UNL     1      -4.912   2.038  -0.121  1.00  0.00     0.276 HD
ATOM     30  H52 UNL     1      -4.251   1.771  -1.485  1.00  0.00     0.276 HD
ATOM     31  H51 UNL     1      -5.114   0.490  -0.784  1.00  0.00     0.276 HD
ENDBRANCH   5  28
TORSDOF 6
