REMARK  5 active torsions:
REMARK  status: ('A' for Active; 'I' for Inactive)
REMARK    1  A    between atoms: C2_2  and  C3_3 
REMARK    2  A    between atoms: C3_3  and  C4_4 
REMARK    3  A    between atoms: C4_4  and  C5_5 
REMARK    4  A    between atoms: C6_10  and  N3_11 
REMARK    5  A    between atoms: N3_11  and  N4_13 
ROOT
HETATM    1  C5  UNL     1      -0.069   0.964  -0.127  1.00  0.00     0.112 A 
HETATM    2  N1  UNL     1       0.534   0.674  -1.305  1.00  0.00    -0.274 N 
ATOM      3  H1  UNL     1       0.071   0.633  -2.213  1.00  0.00     0.189 HD
HETATM    4  N2  UNL     1       1.820   0.453  -1.087  1.00  0.00    -0.129 N 
ATOM      5  H2  UNL     1       2.510   0.214  -1.799  1.00  0.00     0.205 HD
HETATM    6  C6  UNL     1       2.067   0.594   0.222  1.00  0.00     0.712 A 
HETATM    7  N5  UNL     1       0.894   0.907   0.793  1.00  0.00    -0.177 N 
ATOM      8  H5  UNL     1       0.758   1.077   1.790  1.00  0.00     0.185 HD
ENDROOT
BRANCH   6   9
HETATM    9  N3  UNL     1       3.222   0.451   0.810  1.00  0.00    -0.135 N 
ATOM     10  H3  UNL     1       3.310   0.579   1.818  1.00  0.00     0.205 HD
BRANCH   9  11
HETATM   11  N4  UNL     1       4.336   0.120   0.036  1.00  0.00    -0.327 N 
HETATM   12  C7  UNL     1       4.922  -1.183   0.096  1.00  0.00     0.168 C 
ATOM     13  H4  UNL     1       4.740   0.822  -0.585  1.00  0.00     0.180 HD
ENDBRANCH   9  11
ENDBRANCH   6   9
BRANCH   1  14
HETATM   14  C4  UNL     1      -1.510   1.263  -0.022  1.00  0.00     0.078 C 
BRANCH  14  15
HETATM   15  C3  UNL     1      -2.244  -0.027   0.213  1.00  0.00     0.007 C 
BRANCH  15  16
HETATM   16  C2  UNL     1      -3.731   0.155   0.337  1.00  0.00    -0.004 C 
HETATM   17  C1  UNL     1      -4.346  -1.209   0.569  1.00  0.00     0.005 C 
ENDBRANCH  15  16
ENDBRANCH  14  15
ENDBRANCH   1  14
TORSDOF 5
