REMARK  2 active torsions:
REMARK  status: ('A' for Active; 'I' for Inactive)
REMARK    1  A    between atoms: C4_4  and  C5_5 
REMARK    2  A    between atoms: C5_5  and  C6_6 
ROOT
HETATM    1  C1  UNL     1       3.121  -1.903   0.889  1.00  0.00     0.078 C 
HETATM    2  C2  UNL     1       2.524  -0.660   0.383  1.00  0.00     0.223 C 
HETATM    3  C3  UNL     1       1.012  -0.688   0.220  1.00  0.00     0.075 C 
HETATM    4  C4  UNL     1       0.596   0.735   0.481  1.00  0.00     0.023 C 
HETATM    5  C11 UNL     1       1.939   1.434   0.370  1.00  0.00     0.217 C 
HETATM    6  C12 UNL     1       2.617   1.137  -0.943  1.00  0.00     0.204 C 
HETATM    7  O1  UNL     1       3.053  -0.196  -0.820  1.00  0.00    -0.352 OA
HETATM    8  N1  UNL     1       2.704   0.505   1.234  1.00  0.00    -0.037 N 
ATOM      9  H11 UNL     1       3.658   0.767   1.482  1.00  0.00     0.281 HD
ATOM     10  H12 UNL     1       2.421   0.426   2.211  1.00  0.00     0.281 HD
ENDROOT
BRANCH   4  11
HETATM   11  C5  UNL     1      -0.421   1.259  -0.440  1.00  0.00     0.011 C 
BRANCH  11  12
HETATM   12  C6  UNL     1      -1.739   0.631  -0.525  1.00  0.00    -0.014 C 
HETATM   13  C7  UNL     1      -1.855  -0.790  -0.928  1.00  0.00     0.005 C 
HETATM   14  C8  UNL     1      -3.390  -0.950  -0.882  1.00  0.00     0.000 C 
HETATM   15  C9  UNL     1      -3.729  -0.210   0.398  1.00  0.00     0.000 C 
HETATM   16  C10 UNL     1      -2.518   0.617   0.776  1.00  0.00     0.005 C 
ENDBRANCH  11  12
ENDBRANCH   4  11
TORSDOF 2
