REMARK  3 active torsions:
REMARK  status: ('A' for Active; 'I' for Inactive)
REMARK    1  A    between atoms: C2_2  and  C3_3 
REMARK    2  A    between atoms: C3_3  and  C4_4 
REMARK    3  A    between atoms: C12_13  and  N2_14 
ROOT
HETATM    1  C4  UNL     1       0.845  -0.363   0.372  1.00  0.00    -0.012 C 
HETATM    2  C5  UNL     1       0.754  -1.385   1.516  1.00  0.00     0.017 C 
HETATM    3  C6  UNL     1      -0.029   0.834   0.673  1.00  0.00     0.052 C 
HETATM    4  C7  UNL     1      -1.491   0.471   0.788  1.00  0.00     0.153 C 
HETATM    5  C8  UNL     1      -1.888   0.116   2.206  1.00  0.00     0.049 C 
HETATM    6  C9  UNL     1      -2.272   1.740   0.426  1.00  0.00     0.049 C 
HETATM    7  N1  UNL     1      -1.861  -0.631  -0.055  1.00  0.00     0.095 N 
HETATM    8  C10 UNL     1      -3.254  -0.619  -0.433  1.00  0.00     0.310 C 
HETATM    9  C11 UNL     1      -1.044  -0.691  -1.243  1.00  0.00     0.306 C 
HETATM   10  C12 UNL     1       0.401  -1.051  -0.873  1.00  0.00     0.220 C 
ENDROOT
BRANCH   1  11
HETATM   11  C3  UNL     1       2.277   0.091   0.358  1.00  0.00     0.011 C 
BRANCH  11  12
HETATM   12  C2  UNL     1       2.569   1.107  -0.707  1.00  0.00    -0.004 C 
HETATM   13  C1  UNL     1       4.033   1.509  -0.649  1.00  0.00     0.005 C 
ENDBRANCH  11  12
ENDBRANCH   1  11
BRANCH  10  14
HETATM   14  N2  UNL     1       0.495  -2.509  -0.711  1.00  0.00    -0.073 N 
ATOM     15  H23 UNL     1       1.430  -2.801  -0.428  1.00  0.00     0.274 HD
ATOM     16  H22 UNL     1      -0.019  -2.835   0.108  1.00  0.00     0.274 HD
ATOM     17  H21 UNL     1       0.191  -2.980  -1.563  1.00  0.00     0.274 HD
ENDBRANCH  10  14
TORSDOF 3
