REMARK  8 active torsions:
REMARK  status: ('A' for Active; 'I' for Inactive)
REMARK    1  A    between atoms: C7_9  and  C8_10 
REMARK    2  A    between atoms: C7_9  and  C14_17 
REMARK    3  A    between atoms: C8_10  and  C9_11 
REMARK    4  A    between atoms: C10_12  and  C11_13 
REMARK    5  A    between atoms: C11_13  and  C12_14 
REMARK    6  A    between atoms: C12_14  and  C13_15 
REMARK    7  A    between atoms: C14_17  and  O3_18 
REMARK    8  A    between atoms: N1_20  and  O4_22 
ROOT
HETATM    1  C1  UNL     1      -2.443   0.855  -1.903  1.00  0.00     0.027 C 
HETATM    2  C2  UNL     1      -2.111  -0.217  -0.934  1.00  0.00     0.056 C 
HETATM    3  C3  UNL     1      -1.475  -1.385  -1.633  1.00  0.00     0.027 C 
HETATM    4  C4  UNL     1      -3.380  -0.697  -0.326  1.00  0.00     0.268 C 
HETATM    5  O1  UNL     1      -4.507  -0.498  -0.874  1.00  0.00    -0.264 OA
HETATM    6  O2  UNL     1      -3.317  -1.372   0.860  1.00  0.00    -0.321 OA
HETATM    7  C5  UNL     1      -2.134  -1.697   1.507  1.00  0.00     0.180 C 
HETATM    8  C6  UNL     1      -0.957  -0.878   1.159  1.00  0.00     0.046 C 
HETATM    9  C7  UNL     1      -1.176   0.221   0.186  1.00  0.00     0.048 C 
ENDROOT
BRANCH   9  10
HETATM   10  C8  UNL     1       0.175   0.552  -0.440  1.00  0.00     0.046 C 
BRANCH  10  11
HETATM   11  C9  UNL     1       1.206   0.988   0.496  1.00  0.00    -0.029 C 
HETATM   12  C10 UNL     1       2.355   0.374   0.707  1.00  0.00    -0.031 C 
BRANCH  12  13
HETATM   13  C11 UNL     1       2.832  -0.856   0.057  1.00  0.00     0.027 C 
BRANCH  13  14
HETATM   14  C12 UNL     1       4.123  -0.648  -0.708  1.00  0.00     0.014 C 
BRANCH  14  15
HETATM   15  C13 UNL     1       5.230  -0.175   0.211  1.00  0.00     0.085 C 
HETATM   16 BR1  UNL     1       6.812   0.044  -0.905  1.00  0.00    -0.097 Br
ENDBRANCH  14  15
ENDBRANCH  13  14
ENDBRANCH  12  13
ENDBRANCH  10  11
ENDBRANCH   9  10
BRANCH   9  17
HETATM   17  C14 UNL     1      -1.719   1.392   0.902  1.00  0.00     0.145 C 
HETATM   18  N1  UNL     1      -2.747   2.046   0.475  1.00  0.00    -0.250 N 
ATOM     19  H1  UNL     1      -3.188   1.729  -0.388  1.00  0.00     0.196 HD
BRANCH  17  20
HETATM   20  O3  UNL     1      -1.107   1.806   2.070  1.00  0.00    -0.347 OA
ATOM     21  H3  UNL     1      -1.456   2.560   2.531  1.00  0.00     0.219 HD
ENDBRANCH  17  20
BRANCH  18  22
HETATM   22  O4  UNL     1      -3.278   3.123   1.096  1.00  0.00    -0.288 OA
ATOM     23  H4  UNL     1      -4.034   3.604   0.782  1.00  0.00     0.244 HD
ENDBRANCH  18  22
ENDBRANCH   9  17
TORSDOF 8
