REMARK  6 active torsions:
REMARK  status: ('A' for Active; 'I' for Inactive)
REMARK    1  A    between atoms: C7_7  and  C8_8 
REMARK    2  A    between atoms: C9_11  and  N2_12 
REMARK    3  A    between atoms: N2_12  and  C10_14 
REMARK    4  A    between atoms: C10_14  and  C11_15 
REMARK    5  A    between atoms: C10_14  and  C15_23 
REMARK    6  A    between atoms: C11_15  and  C12_16 
ROOT
HETATM    1  C8  UNL     1      -0.821  -0.081  -0.086  1.00  0.00     0.070 A 
HETATM    2  N1  UNL     1       0.459   0.295  -0.365  1.00  0.00    -0.190 N 
ATOM      3  H1  UNL     1       0.732   1.260  -0.181  1.00  0.00     0.184 HD
HETATM    4  C9  UNL     1       1.363  -0.530  -0.862  1.00  0.00     0.681 A 
HETATM    5  N5  UNL     1       1.016  -1.795  -1.102  1.00  0.00    -0.182 N 
HETATM    6  C19 UNL     1       1.969  -2.749  -1.651  1.00  0.00     0.176 C 
HETATM    7  C20 UNL     1      -0.250  -2.210  -0.834  1.00  0.00     0.130 A 
HETATM    8  C21 UNL     1      -1.234  -1.387  -0.321  1.00  0.00     0.031 A 
HETATM    9  C22 UNL     1      -2.473  -2.145  -0.230  1.00  0.00     0.065 C 
HETATM   10  C23 UNL     1      -3.424  -1.978  -1.408  1.00  0.00     0.042 C 
HETATM   11  C24 UNL     1      -4.444  -3.131  -1.289  1.00  0.00     0.082 C 
HETATM   12  C25 UNL     1      -5.247  -2.986  -0.034  1.00  0.00     0.243 C 
HETATM   13  F1  UNL     1      -5.395  -4.218   0.570  1.00  0.00    -0.206 F 
HETATM   14  F2  UNL     1      -6.555  -2.560  -0.330  1.00  0.00    -0.206 F 
HETATM   15  C26 UNL     1      -4.680  -1.949   0.881  1.00  0.00     0.082 C 
HETATM   16  C27 UNL     1      -3.193  -2.075   1.079  1.00  0.00     0.042 C 
HETATM   17  N6  UNL     1      -2.039  -3.547  -0.366  1.00  0.00    -0.342 N 
ATOM     18  H6  UNL     1      -2.600  -4.363  -0.122  1.00  0.00     0.164 HD
HETATM   19  C28 UNL     1      -0.747  -3.584  -0.878  1.00  0.00     0.270 C 
HETATM   20  O1  UNL     1      -0.161  -4.634  -1.289  1.00  0.00    -0.266 OA
ENDROOT
BRANCH   4  21
HETATM   21  N2  UNL     1       2.548  -0.135  -1.111  1.00  0.00    -0.221 N 
ATOM     22  H2  UNL     1       3.188  -0.831  -1.494  1.00  0.00     0.178 HD
BRANCH  21  23
HETATM   23  C10 UNL     1       3.079   1.173  -0.914  1.00  0.00     0.109 C 
BRANCH  23  24
HETATM   24  C11 UNL     1       3.222   1.551   0.539  1.00  0.00     0.084 C 
BRANCH  24  25
HETATM   25  C12 UNL     1       4.112   0.656   1.295  1.00  0.00     0.027 A 
HETATM   26  C13 UNL     1       5.467   0.797   1.469  1.00  0.00     0.114 A 
HETATM   27  N3  UNL     1       5.900  -0.244   2.230  1.00  0.00    -0.360 N 
HETATM   28  C14 UNL     1       4.840  -1.025   2.530  1.00  0.00     0.180 A 
ATOM     29  H3  UNL     1       6.863  -0.407   2.524  1.00  0.00     0.166 HD
HETATM   30  N4  UNL     1       3.772  -0.465   1.956  1.00  0.00    -0.355 N 
ATOM     31  H4  UNL     1       2.824  -0.838   2.012  1.00  0.00     0.166 HD
ENDBRANCH  24  25
ENDBRANCH  23  24
BRANCH  23  32
HETATM   32  C15 UNL     1       4.341   1.370  -1.708  1.00  0.00     0.009 C 
HETATM   33  C16 UNL     1       4.982   2.726  -1.570  1.00  0.00     0.007 C 
HETATM   34  C17 UNL     1       5.127   2.795  -3.092  1.00  0.00     0.001 C 
HETATM   35  C18 UNL     1       4.033   1.744  -3.163  1.00  0.00     0.007 C 
ENDBRANCH  23  32
ENDBRANCH  21  23
ENDBRANCH   4  21
BRANCH   1  36
HETATM   36  C7  UNL     1      -1.650   0.893   0.530  1.00  0.00    -0.007 A 
HETATM   37  C6  UNL     1      -2.819   1.352   0.054  1.00  0.00     0.020 A 
HETATM   38  C4  UNL     1      -3.565   2.277   0.739  1.00  0.00    -0.061 A 
HETATM   39  C3  UNL     1      -3.096   2.743   1.941  1.00  0.00     0.013 A 
HETATM   40  C5  UNL     1      -4.871   2.799   0.225  1.00  0.00     0.048 C 
HETATM   41  C2  UNL     1      -1.902   2.318   2.491  1.00  0.00    -0.061 A 
HETATM   42  C1  UNL     1      -1.417   2.843   3.800  1.00  0.00     0.048 C 
HETATM   43  C29 UNL     1      -1.196   1.391   1.765  1.00  0.00     0.020 A 
ENDBRANCH   1  36
TORSDOF 6
