REMARK  7 active torsions:
REMARK  status: ('A' for Active; 'I' for Inactive)
REMARK    1  A    between atoms: C2_2  and  C3_3 
REMARK    2  A    between atoms: C7_11  and  N3_12 
REMARK    3  A    between atoms: N3_12  and  C8_14 
REMARK    4  A    between atoms: C10_16  and  N4_17 
REMARK    5  A    between atoms: N5_20  and  C13_21 
REMARK    6  A    between atoms: C25_34  and  O1_35 
REMARK    7  A    between atoms: O1_35  and  C26_36 
ROOT
HETATM    1  C8  UNL     1      -1.548  -1.454   0.907  1.00  0.00     0.085 A 
HETATM    2  C9  UNL     1      -0.453  -0.674   0.655  1.00  0.00     0.062 A 
HETATM    3  C10 UNL     1       0.682  -1.165  -0.002  1.00  0.00     0.040 A 
HETATM    4  C22 UNL     1       0.670  -2.494  -0.403  1.00  0.00    -0.033 A 
HETATM    5  C23 UNL     1       1.854  -3.077  -1.105  1.00  0.00     0.050 C 
HETATM    6  C24 UNL     1      -0.419  -3.303  -0.164  1.00  0.00     0.048 A 
HETATM    7  C25 UNL     1      -1.509  -2.784   0.483  1.00  0.00     0.106 A 
ENDROOT
BRANCH   1   8
HETATM    8  N3  UNL     1      -2.686  -0.925   1.571  1.00  0.00    -0.189 N 
ATOM      9  H3  UNL     1      -2.721  -0.899   2.590  1.00  0.00     0.184 HD
BRANCH   8  10
HETATM   10  C7  UNL     1      -3.685  -0.473   0.868  1.00  0.00     0.682 A 
HETATM   11  N2  UNL     1      -3.637  -0.509  -0.463  1.00  0.00    -0.199 N 
HETATM   12  C6  UNL     1      -4.632  -0.063  -1.250  1.00  0.00     0.137 A 
ATOM     13  H2  UNL     1      -2.804  -0.894  -0.907  1.00  0.00     0.183 HD
HETATM   14  C5  UNL     1      -5.774   0.466  -0.632  1.00  0.00     0.067 A 
HETATM   15  N1  UNL     1      -6.849   0.951  -1.419  1.00  0.00    -0.387 N 
HETATM   16  C27 UNL     1      -5.813   0.497   0.737  1.00  0.00     0.054 A 
HETATM   17  C4  UNL     1      -8.144   1.100  -0.789  1.00  0.00     0.124 C 
ATOM     18  H1  UNL     1      -6.714   1.188  -2.402  1.00  0.00     0.159 HD
HETATM   19  C3  UNL     1      -7.878   1.824   0.524  1.00  0.00     0.009 C 
HETATM   20  C28 UNL     1      -6.997   1.043   1.434  1.00  0.00     0.066 C 
HETATM   21  N6  UNL     1      -4.766   0.027   1.484  1.00  0.00    -0.193 N 
ATOM     22  H6  UNL     1      -4.808   0.057   2.503  1.00  0.00     0.184 HD
BRANCH  19  23
HETATM   23  C2  UNL     1      -9.195   2.108   1.191  1.00  0.00     0.002 C 
HETATM   24  C1  UNL     1     -10.066   2.972   0.319  1.00  0.00     0.005 C 
ENDBRANCH  19  23
ENDBRANCH   8  10
ENDBRANCH   1   8
BRANCH   7  25
HETATM   25  O1  UNL     1      -2.618  -3.540   0.748  1.00  0.00    -0.253 OA
BRANCH  25  26
HETATM   26  C26 UNL     1      -2.820  -4.882   0.429  1.00  0.00     0.530 C 
HETATM   27  F2  UNL     1      -2.737  -5.042  -0.956  1.00  0.00    -0.144 F 
HETATM   28  F3  UNL     1      -4.143  -5.193   0.775  1.00  0.00    -0.144 F 
HETATM   29  F4  UNL     1      -2.021  -5.762   1.095  1.00  0.00    -0.144 F 
ENDBRANCH  25  26
ENDBRANCH   7  25
BRANCH   3  30
HETATM   30  N4  UNL     1       1.762  -0.283  -0.230  1.00  0.00    -0.347 N 
HETATM   31  C11 UNL     1       2.124   0.114  -1.563  1.00  0.00     0.145 C 
HETATM   32  C12 UNL     1       3.352   1.027  -1.409  1.00  0.00     0.137 C 
HETATM   33  N5  UNL     1       4.320   0.258  -0.697  1.00  0.00    -0.402 N 
HETATM   34  C20 UNL     1       3.984  -0.067   0.649  1.00  0.00     0.176 C 
HETATM   35  C21 UNL     1       2.519   0.232   0.887  1.00  0.00     0.289 C 
HETATM   36  F1  UNL     1       2.086  -0.300   2.090  1.00  0.00    -0.225 F 
BRANCH  33  37
HETATM   37  C13 UNL     1       5.672   0.638  -0.919  1.00  0.00     0.079 C 
HETATM   38  C14 UNL     1       6.039   2.025  -0.488  1.00  0.00     0.025 C 
HETATM   39  C15 UNL     1       7.318   2.077   0.303  1.00  0.00     0.006 C 
HETATM   40  C16 UNL     1       8.418   1.229  -0.236  1.00  0.00    -0.019 C 
HETATM   41  C17 UNL     1       9.413   0.979   0.905  1.00  0.00     0.010 C 
HETATM   42  C18 UNL     1       7.977  -0.088  -0.807  1.00  0.00     0.006 C 
HETATM   43  C19 UNL     1       6.581  -0.377  -0.249  1.00  0.00     0.025 C 
ENDBRANCH  33  37
ENDBRANCH   3  30
TORSDOF 7
