REMARK  7 active torsions:
REMARK  status: ('A' for Active; 'I' for Inactive)
REMARK    1  A    between atoms: C5_6  and  N2_7 
REMARK    2  A    between atoms: N2_7  and  C6_9 
REMARK    3  A    between atoms: C7_12  and  O1_13 
REMARK    4  A    between atoms: O1_13  and  C8_14 
REMARK    5  A    between atoms: C8_14  and  C9_15 
REMARK    6  A    between atoms: C17_28  and  O2_29 
REMARK    7  A    between atoms: O2_29  and  C18_30 
ROOT
HETATM    1  N1  UNL     1       4.141  -2.059   4.686  1.00  0.00    -0.191 NA
HETATM    2  C1  UNL     1       3.728  -1.224   4.010  1.00  0.00     0.099 C 
HETATM    3  C2  UNL     1       3.197  -0.196   3.152  1.00  0.00     0.047 A 
HETATM    4  C3  UNL     1       2.251   0.700   3.639  1.00  0.00     0.025 A 
HETATM    5  C4  UNL     1       1.715   1.701   2.853  1.00  0.00     0.034 A 
HETATM    6  C5  UNL     1       2.148   1.802   1.526  1.00  0.00     0.068 A 
HETATM    7  C17 UNL     1       3.085   0.909   1.052  1.00  0.00     0.104 A 
HETATM    8  C24 UNL     1       3.615  -0.086   1.842  1.00  0.00     0.062 A 
ENDROOT
BRANCH   7   9
HETATM    9  O2  UNL     1       3.501   1.028  -0.272  1.00  0.00    -0.302 OA
BRANCH   9  10
HETATM   10  C18 UNL     1       4.451   0.156  -0.817  1.00  0.00     0.159 A 
HETATM   11  C19 UNL     1       5.803   0.431  -0.762  1.00  0.00     0.191 A 
HETATM   12  F1  UNL     1       6.201   1.578  -0.162  1.00  0.00    -0.200 F 
HETATM   13  C20 UNL     1       6.747  -0.423  -1.296  1.00  0.00     0.160 A 
HETATM   14  F2  UNL     1       8.085  -0.139  -1.235  1.00  0.00    -0.203 F 
HETATM   15  C21 UNL     1       6.361  -1.598  -1.912  1.00  0.00     0.091 A 
HETATM   16  C22 UNL     1       5.012  -1.873  -1.967  1.00  0.00     0.160 A 
HETATM   17  F3  UNL     1       4.618  -3.039  -2.578  1.00  0.00    -0.203 F 
HETATM   18  C23 UNL     1       4.064  -1.016  -1.431  1.00  0.00     0.191 A 
HETATM   19  F4  UNL     1       2.742  -1.289  -1.487  1.00  0.00    -0.200 F 
ENDBRANCH   9  10
ENDBRANCH   7   9
BRANCH   6  20
HETATM   20  N2  UNL     1       1.632   2.801   0.690  1.00  0.00    -0.339 N 
ATOM     21  H2  UNL     1       2.251   3.576   0.452  1.00  0.00     0.167 HD
BRANCH  20  22
HETATM   22  C6  UNL     1       0.437   2.823   0.195  1.00  0.00     0.130 A 
HETATM   23  N3  UNL     1      -0.457   1.856   0.444  1.00  0.00    -0.320 N 
HETATM   24  C7  UNL     1      -1.677   1.928  -0.092  1.00  0.00     0.166 A 
ATOM     25  H3  UNL     1      -0.206   1.068   1.041  1.00  0.00     0.169 HD
HETATM   26  C14 UNL     1      -2.012   2.989  -0.893  1.00  0.00     0.086 A 
HETATM   27 CL1  UNL     1      -3.599   3.138  -1.625  1.00  0.00    -0.080 Cl
HETATM   28  C15 UNL     1      -1.101   4.009  -1.168  1.00  0.00     0.056 A 
HETATM   29  C16 UNL     1       0.131   3.892  -0.600  1.00  0.00     0.080 A 
HETATM   30 CL2  UNL     1       1.295   5.176  -0.938  1.00  0.00    -0.080 Cl
BRANCH  24  31
HETATM   31  O1  UNL     1      -2.634   0.954   0.136  1.00  0.00    -0.334 OA
BRANCH  31  32
HETATM   32  C8  UNL     1      -2.625  -0.203  -0.679  1.00  0.00     0.182 C 
BRANCH  32  33
HETATM   33  C9  UNL     1      -3.750  -1.133  -0.263  1.00  0.00     0.013 C 
HETATM   34  C10 UNL     1      -3.780  -2.378  -1.102  1.00  0.00     0.034 C 
HETATM   35  C11 UNL     1      -4.903  -3.254  -0.543  1.00  0.00     0.232 C 
HETATM   36  N4  UNL     1      -6.146  -2.543  -0.701  1.00  0.00    -0.075 N 
HETATM   37  C12 UNL     1      -6.130  -1.390   0.173  1.00  0.00     0.232 C 
ATOM     38  H42 UNL     1      -6.334  -2.295  -1.672  1.00  0.00     0.277 HD
ATOM     39  H41 UNL     1      -6.960  -3.139  -0.548  1.00  0.00     0.277 HD
HETATM   40  C13 UNL     1      -5.085  -0.434  -0.400  1.00  0.00     0.034 C 
ENDBRANCH  32  33
ENDBRANCH  31  32
ENDBRANCH  24  31
ENDBRANCH  20  22
ENDBRANCH   6  20
TORSDOF 7
