REMARK  5 active torsions:
REMARK  status: ('A' for Active; 'I' for Inactive)
REMARK    1  A    between atoms: O1_2  and  C2_3 
REMARK    2  A    between atoms: C2_3  and  C3_4 
REMARK    3  A    between atoms: C3_4  and  C4_5 
REMARK    4  A    between atoms: C5_6  and  C6_7 
REMARK    5  A    between atoms: C6_7  and  C7_8 
ROOT
HETATM    1  C7  UNL     1      -2.074  -1.983  -0.892  1.00  0.00     0.205 A 
HETATM    2  N1  UNL     1      -2.415  -1.448   0.365  1.00  0.00    -0.351 N 
ATOM      3  H1  UNL     1      -2.683  -1.835   1.270  1.00  0.00     0.163 HD
HETATM    4  C8  UNL     1      -2.229  -0.155  -0.154  1.00  0.00     0.151 A 
HETATM    5  C9  UNL     1      -2.187   1.254  -0.157  1.00  0.00     0.163 A 
HETATM    6  N2  UNL     1      -2.472   2.109   0.938  1.00  0.00    -0.079 NA
HETATM    7  N3  UNL     1      -1.821   1.567  -1.410  1.00  0.00    -0.318 N 
ATOM      8  H3  UNL     1      -1.693   2.517  -1.758  1.00  0.00     0.169 HD
HETATM    9  C10 UNL     1      -1.647   0.456  -2.140  1.00  0.00     0.182 A 
HETATM   10  S1  UNL     1      -1.208   0.315  -3.698  1.00  0.00    -0.040 SA
HETATM   11  N4  UNL     1      -1.905  -0.630  -1.347  1.00  0.00    -0.284 N 
ENDROOT
BRANCH   1  12
HETATM   12  C6  UNL     1      -0.805  -2.804  -0.960  1.00  0.00     0.141 C 
BRANCH  12  13
HETATM   13  C5  UNL     1       0.319  -1.954  -0.554  1.00  0.00    -0.103 C 
HETATM   14  C4  UNL     1       1.245  -1.272  -0.237  1.00  0.00    -0.104 C 
BRANCH  14  15
HETATM   15  C3  UNL     1       2.410  -0.433   0.144  1.00  0.00     0.120 C 
BRANCH  15  16
HETATM   16  C2  UNL     1       2.233  -0.010   1.564  1.00  0.00     0.179 C 
BRANCH  16  17
HETATM   17  O1  UNL     1       3.265   0.770   2.019  1.00  0.00    -0.395 OA
HETATM   18  C1  UNL     1       3.475   1.947   1.349  1.00  0.00     0.201 C 
ENDBRANCH  16  17
ENDBRANCH  15  16
ENDBRANCH  14  15
ENDBRANCH  12  13
ENDBRANCH   1  12
TORSDOF 5
