REMARK  5 active torsions:
REMARK  status: ('A' for Active; 'I' for Inactive)
REMARK    1  A    between atoms: C2_2  and  O1_3 
REMARK    2  A    between atoms: O1_3  and  C3_4 
REMARK    3  A    between atoms: C3_4  and  C4_6 
REMARK    4  A    between atoms: C5_7  and  N1_8 
REMARK       I    between atoms: N1_8  and  C6_10 
REMARK    5  A    between atoms: C6_10  and  C7_12 
ROOT
HETATM    1  C4  UNL     1       1.694   0.805   1.096  1.00  0.00     0.109 A 
HETATM    2  C5  UNL     1       0.381   0.498   1.385  1.00  0.00     0.077 A 
HETATM    3  C11 UNL     1       0.106   1.065   2.621  1.00  0.00     0.174 A 
HETATM    4  O5  UNL     1       1.197   1.685   3.060  1.00  0.00    -0.312 OA
HETATM    5  C12 UNL     1       2.144   1.545   2.179  1.00  0.00     0.139 A 
HETATM    6 BR1  UNL     1       3.940   2.224   2.265  1.00  0.00    -0.022 Br
ENDROOT
BRANCH   2   7
HETATM    7  N1  UNL     1      -0.481  -0.252   0.554  1.00  0.00    -0.322 N 
HETATM    8  C6  UNL     1      -1.818  -0.518   0.936  1.00  0.00     0.251 C 
HETATM    9  O3  UNL     1      -2.366  -0.141   1.998  1.00  0.00    -0.270 OA
ATOM     10  H1  UNL     1      -0.134  -0.608  -0.337  1.00  0.00     0.169 HD
BRANCH   8  11
HETATM   11  C7  UNL     1      -2.710  -1.320   0.027  1.00  0.00     0.213 C 
HETATM   12  C8  UNL     1      -2.865  -0.498  -1.234  1.00  0.00     0.044 C 
HETATM   13  C9  UNL     1      -4.154   0.255  -0.984  1.00  0.00     0.029 C 
HETATM   14  C10 UNL     1      -4.700  -0.343   0.268  1.00  0.00     0.168 C 
HETATM   15  O4  UNL     1      -3.938  -1.447   0.596  1.00  0.00    -0.376 OA
ENDBRANCH   8  11
ENDBRANCH   2   7
BRANCH   1  16
HETATM   16  C3  UNL     1       2.453   0.438  -0.086  1.00  0.00     0.299 C 
HETATM   17  O2  UNL     1       2.029  -0.231  -1.053  1.00  0.00    -0.259 OA
BRANCH  16  18
HETATM   18  O1  UNL     1       3.799   0.839  -0.222  1.00  0.00    -0.318 OA
BRANCH  18  19
HETATM   19  C2  UNL     1       4.568   0.498  -1.361  1.00  0.00     0.174 C 
HETATM   20  C1  UNL     1       4.632  -1.025  -1.460  1.00  0.00     0.034 C 
ENDBRANCH  18  19
ENDBRANCH  16  18
ENDBRANCH   1  16
TORSDOF 5
