REMARK  9 active torsions:
REMARK  status: ('A' for Active; 'I' for Inactive)
REMARK    1  A    between atoms: C2_2  and  C3_3 
REMARK    2  A    between atoms: C3_3  and  O1_4 
REMARK    3  A    between atoms: C3_3  and  N1_6 
REMARK    4  A    between atoms: N1_6  and  C4_8 
REMARK    5  A    between atoms: C6_18  and  O5_19 
REMARK    6  A    between atoms: C6_18  and  C7_21 
REMARK    7  A    between atoms: N8_32  and  C10_33 
REMARK    8  A    between atoms: C11_34  and  C12_35 
REMARK    9  A    between atoms: C12_35  and  O8_36 
ROOT
HETATM    1  C3  UNL     1      -0.052   0.160  -0.098  1.00  0.00     0.267 C 
ENDROOT
BRANCH   1   2
HETATM    2  C2  UNL     1      -0.973  -0.958  -0.469  1.00  0.00     0.155 C 
HETATM    3  C1  UNL     1      -0.704  -1.423  -1.921  1.00  0.00     0.068 C 
HETATM    4  N4  UNL     1      -0.797  -2.114   0.339  1.00  0.00    -0.334 N 
HETATM    5  C8  UNL     1      -1.786  -2.851   0.694  1.00  0.00     0.192 C 
ATOM      6  H4  UNL     1       0.143  -2.365   0.646  1.00  0.00     0.164 HD
HETATM    7  N5  UNL     1      -1.642  -4.012   1.490  1.00  0.00    -0.063 NA
HETATM    8  N6  UNL     1      -3.154  -2.490   0.392  1.00  0.00    -0.304 N 
HETATM    9  C9  UNL     1      -3.410  -1.393  -0.237  1.00  0.00     0.199 C 
ATOM     10  H6  UNL     1      -3.917  -3.104   0.677  1.00  0.00     0.171 HD
HETATM   11  N7  UNL     1      -4.767  -1.029  -0.559  1.00  0.00    -0.063 NA
HETATM   12  N8  UNL     1      -2.344  -0.513  -0.524  1.00  0.00    -0.300 N 
BRANCH  12  13
HETATM   13  C10 UNL     1      -2.714   0.832  -0.890  1.00  0.00     0.094 C 
HETATM   14  C11 UNL     1      -3.381   1.628  -0.089  1.00  0.00     0.016 C 
BRANCH  14  15
HETATM   15  C12 UNL     1      -3.757   3.011  -0.470  1.00  0.00     0.192 C 
BRANCH  15  16
HETATM   16  O8  UNL     1      -3.193   3.941   0.405  1.00  0.00    -0.397 OA
ATOM     17  H8  UNL     1      -3.434   4.827   0.161  1.00  0.00     0.209 HD
ENDBRANCH  15  16
ENDBRANCH  14  15
ENDBRANCH  12  13
ENDBRANCH   1   2
BRANCH   1  18
HETATM   18  O1  UNL     1      -0.217   0.422   1.272  1.00  0.00    -0.372 OA
ATOM     19  H1  UNL     1       0.368   1.132   1.508  1.00  0.00     0.212 HD
ENDBRANCH   1  18
BRANCH   1  20
HETATM   20  N1  UNL     1       1.267   0.185  -0.533  1.00  0.00    -0.355 N 
ATOM     21  H1  UNL     1       1.470   0.051  -1.523  1.00  0.00     0.162 HD
BRANCH  20  22
HETATM   22  C4  UNL     1       2.356   0.398   0.392  1.00  0.00     0.144 C 
HETATM   23  C5  UNL     1       2.633  -0.695   1.300  1.00  0.00     0.284 C 
HETATM   24  O2  UNL     1       2.171  -0.790   2.478  1.00  0.00    -0.265 OA
HETATM   25  N2  UNL     1       3.498  -1.749   0.846  1.00  0.00    -0.232 N 
HETATM   26  S1  UNL     1       4.471  -1.375  -0.524  1.00  0.00     0.324 S 
ATOM     27  H2  UNL     1       3.533  -2.659   1.305  1.00  0.00     0.183 HD
HETATM   28  O3  UNL     1       5.884  -1.859  -0.193  1.00  0.00    -0.182 OA
HETATM   29  O4  UNL     1       4.030  -2.066  -1.772  1.00  0.00    -0.182 OA
HETATM   30  N3  UNL     1       4.581   0.303  -0.724  1.00  0.00    -0.254 N 
HETATM   31  C6  UNL     1       3.493   1.070  -0.295  1.00  0.00     0.282 C 
ATOM     32  H3  UNL     1       5.406   0.736  -1.140  1.00  0.00     0.178 HD
BRANCH  31  33
HETATM   33  O5  UNL     1       2.938   1.694  -1.438  1.00  0.00    -0.357 OA
ATOM     34  H5  UNL     1       3.664   2.123  -1.876  1.00  0.00     0.213 HD
ENDBRANCH  31  33
BRANCH  31  35
HETATM   35  C7  UNL     1       4.017   2.162   0.561  1.00  0.00     0.239 C 
HETATM   36  O6  UNL     1       4.593   1.832   1.635  1.00  0.00    -0.644 OA
HETATM   37  O7  UNL     1       3.893   3.483   0.230  1.00  0.00    -0.644 OA
ENDBRANCH  31  35
ENDBRANCH  20  22
ENDBRANCH   1  20
TORSDOF 9
