REMARK  7 active torsions:
REMARK  status: ('A' for Active; 'I' for Inactive)
REMARK    1  A    between atoms: C14_14  and  N1_15 
REMARK    2  A    between atoms: N1_15  and  C15_18 
REMARK    3  A    between atoms: C15_18  and  C16_19 
REMARK    4  A    between atoms: C16_19  and  C17_20 
REMARK    5  A    between atoms: C17_20  and  N2_21 
REMARK    6  A    between atoms: C22_29  and  O1_30 
REMARK    7  A    between atoms: C28_37  and  O2_38 
ROOT
HETATM    1  C1  UNL     1      -2.951  -0.202  -2.613  1.00  0.00     0.014 C 
HETATM    2  C2  UNL     1      -2.879  -0.942  -1.501  1.00  0.00    -0.084 C 
HETATM    3  C3  UNL     1      -1.749  -1.832  -1.430  1.00  0.00     0.034 C 
HETATM    4  C4  UNL     1      -0.645  -1.301  -0.585  1.00  0.00     0.010 C 
HETATM    5  C5  UNL     1      -0.472   0.159  -0.458  1.00  0.00     0.002 C 
HETATM    6  C6  UNL     1      -1.279   0.814   0.604  1.00  0.00     0.002 C 
HETATM    7  C7  UNL     1      -1.043   2.313   0.554  1.00  0.00    -0.007 C 
HETATM    8  C8  UNL     1      -1.148   2.886  -0.828  1.00  0.00     0.006 C 
HETATM    9  C9  UNL     1       0.048   2.603  -1.589  1.00  0.00     0.010 C 
HETATM   10  C10 UNL     1       1.201   1.848  -1.042  1.00  0.00    -0.034 C 
HETATM   11  C11 UNL     1       2.177   2.816  -0.369  1.00  0.00     0.016 C 
HETATM   12  C12 UNL     1       1.927   1.442  -2.349  1.00  0.00     0.012 C 
HETATM   13  C13 UNL     1       1.812  -0.098  -2.343  1.00  0.00     0.034 C 
HETATM   14  C14 UNL     1       2.051  -0.219  -0.886  1.00  0.00     0.195 C 
HETATM   15  C19 UNL     1       0.983   0.599  -0.245  1.00  0.00    -0.004 C 
HETATM   16  C20 UNL     1       1.421   0.529   1.149  1.00  0.00     0.018 C 
HETATM   17  C21 UNL     1      -2.113   2.971   1.397  1.00  0.00     0.037 C 
HETATM   18  C22 UNL     1      -2.704   1.704   2.048  1.00  0.00     0.123 C 
HETATM   19  C23 UNL     1      -2.693   0.820   0.778  1.00  0.00     0.028 C 
HETATM   20  C24 UNL     1      -3.640  -0.291   0.812  1.00  0.00    -0.030 C 
HETATM   21  C25 UNL     1      -5.021   0.264   1.276  1.00  0.00     0.016 C 
HETATM   22  C26 UNL     1      -3.453  -1.386   1.789  1.00  0.00     0.013 C 
HETATM   23  C27 UNL     1      -4.675  -2.295   1.777  1.00  0.00     0.032 C 
HETATM   24  C28 UNL     1      -4.899  -2.847   0.404  1.00  0.00     0.118 C 
HETATM   25  C29 UNL     1      -4.977  -1.836  -0.672  1.00  0.00     0.041 C 
HETATM   26  C30 UNL     1      -3.996  -0.699  -0.598  1.00  0.00     0.025 C 
ENDROOT
BRANCH  14  27
HETATM   27  N1  UNL     1       2.525  -1.424  -0.380  1.00  0.00    -0.070 N 
ATOM     28  H12 UNL     1       2.555  -1.416   0.640  1.00  0.00     0.277 HD
ATOM     29  H11 UNL     1       1.850  -2.177  -0.511  1.00  0.00     0.277 HD
BRANCH  27  30
HETATM   30  C15 UNL     1       3.812  -1.760  -0.947  1.00  0.00     0.234 C 
BRANCH  30  31
HETATM   31  C16 UNL     1       4.961  -0.926  -0.537  1.00  0.00     0.047 C 
BRANCH  31  32
HETATM   32  C17 UNL     1       5.201  -1.013   0.956  1.00  0.00     0.123 C 
BRANCH  32  33
HETATM   33  N2  UNL     1       6.319  -0.193   1.368  1.00  0.00    -0.367 N 
HETATM   34  C18 UNL     1       7.537  -0.550   1.321  1.00  0.00     0.196 C 
HETATM   35  N3  UNL     1       8.522   0.380   1.767  1.00  0.00    -0.067 NA
HETATM   36  N4  UNL     1       7.976  -1.830   0.848  1.00  0.00    -0.067 NA
ATOM     37  H2  UNL     1       6.114   0.741   1.723  1.00  0.00     0.161 HD
ENDBRANCH  32  33
ENDBRANCH  31  32
ENDBRANCH  30  31
ENDBRANCH  27  30
ENDBRANCH  14  27
BRANCH  18  38
HETATM   38  O1  UNL     1      -3.850   2.117   2.557  1.00  0.00    -0.395 OA
ATOM     39  H1  UNL     1      -4.214   1.337   2.958  1.00  0.00     0.210 HD
ENDBRANCH  18  38
BRANCH  24  40
HETATM   40  O2  UNL     1      -6.145  -3.519   0.441  1.00  0.00    -0.396 OA
ATOM     41  H2  UNL     1      -6.287  -3.869  -0.431  1.00  0.00     0.210 HD
ENDBRANCH  24  40
TORSDOF 7
