REMARK  4 active torsions:
REMARK  status: ('A' for Active; 'I' for Inactive)
REMARK    1  A    between atoms: N1_2  and  C2_4 
REMARK    2  A    between atoms: C4_8  and  N3_9 
REMARK    3  A    between atoms: N3_9  and  N4_11 
REMARK    4  A    between atoms: N7_20  and  N8_21 
ROOT
HETATM    1  C2  UNL     1      -1.391  -0.197   0.021  1.00  0.00     0.170 A 
HETATM    2  C3  UNL     1      -0.062   0.141  -0.050  1.00  0.00     0.126 A 
HETATM    3  N2  UNL     1       1.075  -0.565   0.020  1.00  0.00    -0.184 N 
ATOM      4  H2  UNL     1       1.034  -1.575   0.154  1.00  0.00     0.184 HD
HETATM    5  C4  UNL     1       2.277   0.049  -0.085  1.00  0.00     0.696 A 
HETATM    6  N5  UNL     1       2.366   1.386  -0.262  1.00  0.00    -0.198 N 
ATOM      7  H5  UNL     1       3.288   1.816  -0.337  1.00  0.00     0.183 HD
HETATM    8  C5  UNL     1       1.273   2.164  -0.342  1.00  0.00     0.139 A 
HETATM    9  C6  UNL     1       0.055   1.525  -0.234  1.00  0.00     0.097 A 
HETATM   10  N6  UNL     1      -1.206   1.967  -0.266  1.00  0.00    -0.275 N 
ATOM     11  H6  UNL     1      -1.468   2.945  -0.388  1.00  0.00     0.189 HD
HETATM   12  N7  UNL     1      -2.068   0.982  -0.120  1.00  0.00    -0.184 N 
ENDROOT
BRANCH   5  13
HETATM   13  N3  UNL     1       3.329  -0.695  -0.008  1.00  0.00    -0.139 N 
ATOM     14  H3  UNL     1       3.223  -1.700   0.127  1.00  0.00     0.205 HD
BRANCH  13  15
HETATM   15  N4  UNL     1       4.591  -0.154  -0.105  1.00  0.00    -0.331 N 
ATOM     16  H42 UNL     1       4.679   0.853  -0.240  1.00  0.00     0.177 HD
ATOM     17  H41 UNL     1       5.422  -0.742  -0.044  1.00  0.00     0.177 HD
ENDBRANCH  13  15
ENDBRANCH   5  13
BRANCH   1  18
HETATM   18  N1  UNL     1      -2.006  -1.459   0.199  1.00  0.00    -0.376 N 
HETATM   19  C1  UNL     1      -1.343  -2.709   0.348  1.00  0.00     0.148 C 
ATOM     20  H1  UNL     1      -3.026  -1.474   0.223  1.00  0.00     0.160 HD
ENDBRANCH   1  18
BRANCH  12  21
HETATM   21  N8  UNL     1      -3.456   1.150  -0.114  1.00  0.00    -0.322 N 
ATOM     22  H82 UNL     1      -4.124   0.387  -0.001  1.00  0.00     0.179 HD
ATOM     23  H81 UNL     1      -3.961   2.030  -0.219  1.00  0.00     0.179 HD
ENDBRANCH  12  21
TORSDOF 4
