REMARK  3 active torsions:
REMARK  status: ('A' for Active; 'I' for Inactive)
REMARK       I    between atoms: C2_2  and  N1_4 
REMARK    1  A    between atoms: C3_6  and  C4_7 
REMARK    2  A    between atoms: C8_14  and  C9_15 
REMARK    3  A    between atoms: C9_15  and  O2_17 
ROOT
HETATM    1  C4  UNL     1       1.284  -0.953  -0.792  1.00  0.00     0.023 A 
HETATM    2  C5  UNL     1       1.312  -2.060  -1.641  1.00  0.00     0.100 A 
HETATM    3  N2  UNL     1       2.457  -2.810  -2.113  1.00  0.00    -0.093 NA
HETATM    4  S1  UNL     1      -0.326  -2.322  -1.994  1.00  0.00    -0.072 SA
HETATM    5  C6  UNL     1      -1.004  -1.054  -1.085  1.00  0.00     0.043 A 
HETATM    6  C7  UNL     1      -2.324  -0.694  -0.922  1.00  0.00     0.077 A 
HETATM    7  N3  UNL     1      -3.345  -1.423  -1.576  1.00  0.00    -0.100 NA
HETATM    8  C8  UNL     1      -2.685   0.395  -0.113  1.00  0.00     0.025 A 
HETATM    9  C11 UNL     1      -1.626   1.028   0.471  1.00  0.00    -0.041 A 
HETATM   10  C12 UNL     1      -1.892   2.104   1.460  1.00  0.00     0.050 C 
HETATM   11  C13 UNL     1      -0.294   0.663   0.298  1.00  0.00    -0.043 A 
HETATM   12  C14 UNL     1       0.689   1.609   0.904  1.00  0.00     0.049 C 
HETATM   13  C15 UNL     1       0.076  -0.428  -0.507  1.00  0.00     0.003 A 
ENDROOT
BRANCH   1  14
HETATM   14  C3  UNL     1       2.596  -0.532  -0.266  1.00  0.00     0.105 C 
HETATM   15  N1  UNL     1       3.699  -1.161  -0.601  1.00  0.00    -0.337 N 
HETATM   16  C2  UNL     1       4.920  -0.724  -0.076  1.00  0.00     0.217 C 
ATOM     17  H1  UNL     1       3.666  -1.958  -1.236  1.00  0.00     0.168 HD
HETATM   18  C1  UNL     1       5.328  -0.956   1.326  1.00  0.00     0.117 C 
HETATM   19  O1  UNL     1       5.719  -0.101  -0.823  1.00  0.00    -0.274 OA
ENDBRANCH   1  14
BRANCH   8  20
HETATM   20  C9  UNL     1      -4.077   0.732  -0.019  1.00  0.00     0.052 C 
HETATM   21  C10 UNL     1      -4.745   1.837   0.672  1.00  0.00     0.077 C 
BRANCH  20  22
HETATM   22  O2  UNL     1      -4.887  -0.068  -0.653  1.00  0.00    -0.364 OA
ATOM     23  H2  UNL     1      -5.808   0.155  -0.591  1.00  0.00     0.217 HD
ENDBRANCH  20  22
ENDBRANCH   8  20
TORSDOF 3
