REMARK  4 active torsions:
REMARK  status: ('A' for Active; 'I' for Inactive)
REMARK    1  A    between atoms: C3_5  and  C4_6 
REMARK    2  A    between atoms: N1_7  and  N2_9 
REMARK    3  A    between atoms: N2_9  and  C5_11 
REMARK    4  A    between atoms: C11_17  and  O3_18 
ROOT
HETATM    1  O1  UNL     1       2.037   1.820   2.397  1.00  0.00    -0.259 OA
HETATM    2  C1  UNL     1       2.185   1.108   1.353  1.00  0.00     0.299 A 
HETATM    3  O2  UNL     1       1.115   0.531   0.872  1.00  0.00    -0.273 OA
HETATM    4  C2  UNL     1       1.218  -0.212  -0.203  1.00  0.00     0.105 A 
HETATM    5  C3  UNL     1       0.042  -0.809  -0.678  1.00  0.00     0.049 A 
HETATM    6  C11 UNL     1       0.098  -1.593  -1.796  1.00  0.00     0.080 A 
HETATM    7  C12 UNL     1       1.312  -1.802  -2.464  1.00  0.00     0.038 A 
HETATM    8  C13 UNL     1       2.478  -1.214  -1.998  1.00  0.00     0.018 A 
HETATM    9  C14 UNL     1       2.413  -0.428  -0.875  1.00  0.00     0.010 A 
HETATM   10  C15 UNL     1       3.554   0.186  -0.364  1.00  0.00    -0.007 A 
HETATM   11  C16 UNL     1       4.770   0.024  -0.963  1.00  0.00     0.013 A 
HETATM   12  C17 UNL     1       5.851   0.667  -0.392  1.00  0.00     0.001 A 
HETATM   13  C18 UNL     1       5.761   1.448   0.734  1.00  0.00     0.001 A 
HETATM   14  C19 UNL     1       4.522   1.596   1.320  1.00  0.00     0.018 A 
HETATM   15  C20 UNL     1       3.420   0.958   0.762  1.00  0.00     0.051 A 
ENDROOT
BRANCH   5  16
HETATM   16  C4  UNL     1      -1.202  -0.579   0.046  1.00  0.00     0.124 C 
HETATM   17  N1  UNL     1      -1.204   0.155   1.089  1.00  0.00    -0.310 N 
ATOM     18  H1  UNL     1      -0.327   0.572   1.400  1.00  0.00     0.186 HD
BRANCH  17  19
HETATM   19  N2  UNL     1      -2.343   0.402   1.805  1.00  0.00    -0.301 N 
ATOM     20  H2  UNL     1      -2.265   0.674   2.785  1.00  0.00     0.187 HD
BRANCH  19  21
HETATM   21  C5  UNL     1      -3.627   0.290   1.221  1.00  0.00     0.048 A 
HETATM   22  C6  UNL     1      -4.235   1.400   0.678  1.00  0.00     0.031 A 
HETATM   23  C7  UNL     1      -5.484   1.338   0.117  1.00  0.00     0.002 A 
HETATM   24  C8  UNL     1      -6.145   0.135   0.096  1.00  0.00     0.000 A 
HETATM   25  C9  UNL     1      -5.560  -0.998   0.633  1.00  0.00     0.002 A 
HETATM   26  C10 UNL     1      -4.309  -0.914   1.190  1.00  0.00     0.031 A 
ENDBRANCH  19  21
ENDBRANCH  17  19
ENDBRANCH   5  16
BRANCH   6  27
HETATM   27  O3  UNL     1      -1.042  -2.211  -2.311  1.00  0.00    -0.360 OA
ATOM     28  H3  UNL     1      -1.003  -2.756  -3.088  1.00  0.00     0.217 HD
ENDBRANCH   6  27
TORSDOF 4
