REMARK  5 active torsions:
REMARK  status: ('A' for Active; 'I' for Inactive)
REMARK    1  A    between atoms: O1_2  and  C2_3 
REMARK    2  A    between atoms: C5_6  and  C6_7 
REMARK    3  A    between atoms: C6_7  and  C7_9 
REMARK    4  A    between atoms: C11_13  and  N1_14 
REMARK       I    between atoms: N1_14  and  C12_16 
REMARK       I    between atoms: C12_16  and  N2_18 
REMARK    5  A    between atoms: N2_18  and  C13_20 
ROOT
HETATM    1  C7  UNL     1       1.491  -0.554  -0.645  1.00  0.00     0.018 A 
HETATM    2  C8  UNL     1       2.040  -1.742  -1.047  1.00  0.00     0.015 A 
HETATM    3  C9  UNL     1       1.199  -2.842  -1.148  1.00  0.00     0.003 A 
HETATM    4  C10 UNL     1      -0.135  -2.737  -0.852  1.00  0.00     0.029 A 
HETATM    5  C11 UNL     1      -0.731  -1.529  -0.435  1.00  0.00     0.037 A 
HETATM    6  C17 UNL     1       0.122  -0.463  -0.347  1.00  0.00     0.045 A 
ENDROOT
BRANCH   5   7
HETATM    7  N1  UNL     1      -2.098  -1.534  -0.116  1.00  0.00    -0.309 N 
HETATM    8  C12 UNL     1      -2.917  -0.400  -0.004  1.00  0.00     0.321 C 
HETATM    9  O3  UNL     1      -2.570   0.793  -0.194  1.00  0.00    -0.247 OA
HETATM   10  N2  UNL     1      -4.311  -0.541   0.366  1.00  0.00    -0.335 N 
ATOM     11  H2  UNL     1      -4.678  -1.476   0.542  1.00  0.00     0.165 HD
ATOM     12  H1  UNL     1      -2.534  -2.441   0.049  1.00  0.00     0.170 HD
BRANCH  10  13
HETATM   13  C13 UNL     1      -5.194   0.577   0.494  1.00  0.00     0.023 C 
HETATM   14  C14 UNL     1      -5.308   1.321  -0.838  1.00  0.00     0.037 C 
HETATM   15  C15 UNL     1      -6.561   0.074   0.951  1.00  0.00     0.037 C 
HETATM   16  C16 UNL     1      -4.649   1.580   1.491  1.00  0.00     0.037 C 
ENDBRANCH  10  13
ENDBRANCH   5   7
BRANCH   1  17
HETATM   17  C6  UNL     1       2.309   0.616  -0.484  1.00  0.00     0.199 C 
HETATM   18  O2  UNL     1       1.688   1.749  -0.510  1.00  0.00    -0.286 OA
BRANCH  17  19
HETATM   19  C5  UNL     1       3.758   0.658  -0.288  1.00  0.00     0.058 A 
HETATM   20  C4  UNL     1       4.818   0.152  -0.962  1.00  0.00     0.026 A 
HETATM   21  C3  UNL     1       6.046   0.348  -0.460  1.00  0.00     0.046 A 
HETATM   22  C2  UNL     1       6.150   1.052   0.707  1.00  0.00     0.109 A 
HETATM   23  S1  UNL     1       4.524   1.422   1.072  1.00  0.00    -0.062 SA
BRANCH  22  24
HETATM   24  O1  UNL     1       7.311   1.387   1.429  1.00  0.00    -0.349 OA
HETATM   25  C1  UNL     1       8.591   1.033   1.043  1.00  0.00     0.211 C 
ENDBRANCH  22  24
ENDBRANCH  17  19
ENDBRANCH   1  17
TORSDOF 5
