REMARK  9 active torsions:
REMARK  status: ('A' for Active; 'I' for Inactive)
REMARK    1  A    between atoms: C2_2  and  O2_4 
REMARK    2  A    between atoms: O2_4  and  C3_5 
REMARK    3  A    between atoms: C4_6  and  O3_7 
REMARK    4  A    between atoms: C5_9  and  N1_10 
REMARK    5  A    between atoms: C8_16  and  N2_17 
REMARK    6  A    between atoms: C9_21  and  O4_22 
REMARK    7  A    between atoms: O4_22  and  C10_23 
REMARK    8  A    between atoms: C10_23  and  C11_25 
REMARK    9  A    between atoms: N3_27  and  N4_29 
REMARK       I    between atoms: N4_29  and  C13_31 
ROOT
HETATM    1  C3  UNL     1      -0.002   0.917  -1.409  1.00  0.00     0.194 C 
HETATM    2  C4  UNL     1       0.762   1.499  -2.570  1.00  0.00     0.181 C 
HETATM    3  C5  UNL     1       1.069   0.324  -3.510  1.00  0.00     0.220 C 
HETATM    4  C6  UNL     1       1.776  -0.786  -2.810  1.00  0.00     0.048 C 
HETATM    5  C7  UNL     1       1.917  -1.955  -3.724  1.00  0.00     0.014 C 
HETATM    6  C8  UNL     1       1.053  -1.247  -1.533  1.00  0.00     0.221 C 
HETATM    7  C9  UNL     1       0.928  -0.032  -0.677  1.00  0.00     0.195 C 
ENDROOT
BRANCH   7   8
HETATM    8  O4  UNL     1       0.547  -0.186   0.621  1.00  0.00    -0.306 OA
BRANCH   8   9
HETATM    9  C10 UNL     1       1.171   0.152   1.792  1.00  0.00     0.307 C 
HETATM   10  O5  UNL     1       2.274   0.691   1.666  1.00  0.00    -0.258 OA
BRANCH   9  11
HETATM   11  C11 UNL     1       0.631  -0.079   3.123  1.00  0.00     0.097 C 
HETATM   12  C12 UNL     1       1.444   0.351   4.285  1.00  0.00     0.076 C 
HETATM   13  N3  UNL     1      -0.509  -0.636   3.326  1.00  0.00    -0.296 N 
ATOM     14  H3  UNL     1      -1.086  -0.942   2.543  1.00  0.00     0.187 HD
BRANCH  13  15
HETATM   15  N4  UNL     1      -0.940  -0.813   4.642  1.00  0.00    -0.254 N 
HETATM   16  C13 UNL     1      -2.150  -1.527   4.946  1.00  0.00     0.347 C 
HETATM   17  N5  UNL     1      -2.573  -1.697   6.292  1.00  0.00    -0.038 NA
HETATM   18  O6  UNL     1      -2.842  -2.006   4.015  1.00  0.00    -0.249 OA
ATOM     19  H4  UNL     1      -0.384  -0.427   5.405  1.00  0.00     0.191 HD
ENDBRANCH  13  15
ENDBRANCH   9  11
ENDBRANCH   8   9
ENDBRANCH   7   8
BRANCH   1  20
HETATM   20  O2  UNL     1      -0.657   1.836  -0.616  1.00  0.00    -0.311 OA
BRANCH  20  21
HETATM   21  C2  UNL     1      -2.032   1.905  -0.470  1.00  0.00     0.255 C 
HETATM   22  C1  UNL     1      -2.726   2.893   0.381  1.00  0.00     0.126 C 
HETATM   23  O1  UNL     1      -2.667   1.028  -1.144  1.00  0.00    -0.266 OA
ENDBRANCH  20  21
ENDBRANCH   1  20
BRANCH   6  24
HETATM   24  N2  UNL     1      -0.194  -1.811  -1.947  1.00  0.00    -0.072 N 
ATOM     25  H23 UNL     1      -0.752  -1.177  -2.519  1.00  0.00     0.274 HD
ATOM     26  H22 UNL     1      -0.090  -2.552  -2.640  1.00  0.00     0.274 HD
ATOM     27  H21 UNL     1      -0.673  -2.117  -1.100  1.00  0.00     0.274 HD
ENDBRANCH   6  24
BRANCH   2  28
HETATM   28  O3  UNL     1      -0.008   2.388  -3.314  1.00  0.00    -0.391 OA
ATOM     29  H3  UNL     1       0.474   2.755  -4.046  1.00  0.00     0.210 HD
ENDBRANCH   2  28
BRANCH   3  30
HETATM   30  N1  UNL     1      -0.098  -0.078  -4.240  1.00  0.00    -0.072 N 
ATOM     31  H13 UNL     1      -0.875  -0.292  -3.615  1.00  0.00     0.274 HD
ATOM     32  H12 UNL     1      -0.513   0.706  -4.744  1.00  0.00     0.274 HD
ATOM     33  H11 UNL     1       0.106  -0.858  -4.864  1.00  0.00     0.274 HD
ENDBRANCH   3  30
TORSDOF 9
