REMARK  6 active torsions:
REMARK  status: ('A' for Active; 'I' for Inactive)
REMARK    1  A    between atoms: N1_1  and  N2_4 
REMARK    2  A    between atoms: N2_4  and  C1_6 
REMARK    3  A    between atoms: C2_11  and  N5_12 
REMARK    4  A    between atoms: N5_12  and  S1_14 
REMARK    5  A    between atoms: S1_14  and  C3_17 
REMARK    6  A    between atoms: C6_20  and  N6_21 
ROOT
HETATM    1  S1  UNL     1       1.659   0.998  -0.354  1.00  0.00     0.276 S 
HETATM    2  O1  UNL     1       1.861   2.362   0.256  1.00  0.00    -0.200 OA
HETATM    3  O2  UNL     1       2.197   1.031  -1.775  1.00  0.00    -0.200 OA
ENDROOT
BRANCH   1   4
HETATM    4  N5  UNL     1       2.486  -0.230   0.488  1.00  0.00    -0.111 N 
ATOM      5  H5  UNL     1       1.958  -1.014   0.871  1.00  0.00     0.197 HD
BRANCH   4   6
HETATM    6  C2  UNL     1       3.757  -0.191   0.651  1.00  0.00     0.709 A 
HETATM    7  N4  UNL     1       4.358  -1.204   1.335  1.00  0.00    -0.130 N 
HETATM    8  N3  UNL     1       5.661  -1.238   1.545  1.00  0.00    -0.266 N 
ATOM      9  H4  UNL     1       3.781  -1.963   1.698  1.00  0.00     0.205 HD
HETATM   10  C1  UNL     1       6.468  -0.268   1.093  1.00  0.00     0.204 A 
ATOM     11  H3  UNL     1       6.062  -2.020   2.063  1.00  0.00     0.189 HD
HETATM   12  C12 UNL     1       5.879   0.766   0.398  1.00  0.00     0.306 A 
HETATM   13  N11 UNL     1       4.536   0.796   0.184  1.00  0.00    -0.151 N 
HETATM   14  O3  UNL     1       6.637   1.676  -0.026  1.00  0.00    -0.263 OA
ATOM     15  H11 UNL     1       4.120   1.571  -0.333  1.00  0.00     0.188 HD
BRANCH  10  16
HETATM   16  N2  UNL     1       7.862  -0.348   1.343  1.00  0.00    -0.286 N 
ATOM     17  H2  UNL     1       8.284   0.057   2.179  1.00  0.00     0.188 HD
BRANCH  16  18
HETATM   18  N1  UNL     1       8.634  -1.023   0.364  1.00  0.00    -0.343 N 
ATOM     19  H12 UNL     1       8.197  -1.422  -0.467  1.00  0.00     0.176 HD
ATOM     20  H11 UNL     1       9.636  -1.081   0.544  1.00  0.00     0.176 HD
ENDBRANCH  16  18
ENDBRANCH  10  16
ENDBRANCH   4   6
ENDBRANCH   1   4
BRANCH   1  21
HETATM   21  C3  UNL     1      -0.068   0.700  -0.364  1.00  0.00     0.080 A 
HETATM   22  C4  UNL     1      -0.821   1.218   0.663  1.00  0.00     0.027 A 
HETATM   23  C5  UNL     1      -2.174   0.989   0.662  1.00  0.00     0.031 A 
HETATM   24  C6  UNL     1      -2.814   0.262  -0.322  1.00  0.00     0.038 A 
HETATM   25  C10 UNL     1      -2.053  -0.246  -1.338  1.00  0.00     0.031 A 
HETATM   26  C11 UNL     1      -0.671  -0.026  -1.359  1.00  0.00     0.027 A 
BRANCH  24  27
HETATM   27  N6  UNL     1      -4.226   0.119  -0.222  1.00  0.00    -0.304 N 
HETATM   28  C7  UNL     1      -5.037   1.265   0.231  1.00  0.00     0.257 A 
HETATM   29  N7  UNL     1      -6.423   0.943   0.212  1.00  0.00    -0.348 N 
HETATM   30  C8  UNL     1      -6.949  -0.187  -0.088  1.00  0.00     0.191 A 
ATOM     31  H7  UNL     1      -7.068   1.692   0.464  1.00  0.00     0.163 HD
HETATM   32  N8  UNL     1      -8.385  -0.357  -0.058  1.00  0.00    -0.063 NA
HETATM   33  N9  UNL     1      -6.106  -1.249  -0.473  1.00  0.00    -0.304 N 
HETATM   34  C9  UNL     1      -4.831  -1.122  -0.537  1.00  0.00     0.198 A 
ATOM     35  H9  UNL     1      -6.524  -2.149  -0.709  1.00  0.00     0.171 HD
HETATM   36  N10 UNL     1      -4.017  -2.260  -0.908  1.00  0.00    -0.063 NA
ENDBRANCH  24  27
ENDBRANCH   1  21
TORSDOF 6
