REMARK  10 active torsions:
REMARK  status: ('A' for Active; 'I' for Inactive)
REMARK    1  A    between atoms: O1_2  and  C2_3 
REMARK    2  A    between atoms: C5_6  and  N1_7 
REMARK    3  A    between atoms: C7_12  and  O3_13 
REMARK    4  A    between atoms: C8_15  and  C9_16 
REMARK    5  A    between atoms: N3_17  and  C10_19 
REMARK    6  A    between atoms: C13_22  and  S1_23 
REMARK    7  A    between atoms: S1_23  and  N4_26 
REMARK    8  A    between atoms: N4_26  and  C14_27 
REMARK    9  A    between atoms: N4_26  and  C17_30 
REMARK   10  A    between atoms: C22_35  and  N5_36 
ROOT
HETATM    1  N1  UNL     1       5.228  -0.044  -0.709  1.00  0.00    -0.249 N 
HETATM    2  C6  UNL     1       5.288   0.014  -2.046  1.00  0.00     0.334 A 
HETATM    3  O2  UNL     1       6.460  -0.117  -2.543  1.00  0.00    -0.246 OA
HETATM    4  N2  UNL     1       4.242   0.193  -2.838  1.00  0.00    -0.288 N 
ATOM      5  H2  UNL     1       4.358   0.228  -3.851  1.00  0.00     0.172 HD
HETATM    6  C7  UNL     1       3.034   0.327  -2.289  1.00  0.00     0.159 A 
HETATM    7  C8  UNL     1       2.863   0.280  -0.893  1.00  0.00     0.074 A 
HETATM    8  C22 UNL     1       3.989   0.092  -0.133  1.00  0.00     0.126 A 
ENDROOT
BRANCH   7   9
HETATM    9  C9  UNL     1       1.533   0.429  -0.322  1.00  0.00     0.108 C 
HETATM   10  N3  UNL     1       0.540   0.601  -1.095  1.00  0.00    -0.365 N 
ATOM     11  H3  UNL     1       0.708   0.630  -2.101  1.00  0.00     0.165 HD
BRANCH  10  12
HETATM   12  C10 UNL     1      -0.806   0.757  -0.625  1.00  0.00     0.032 A 
HETATM   13  C11 UNL     1      -1.676   1.653  -1.215  1.00  0.00     0.031 A 
HETATM   14  C12 UNL     1      -2.971   1.807  -0.766  1.00  0.00     0.027 A 
HETATM   15  C13 UNL     1      -3.453   1.069   0.296  1.00  0.00     0.079 A 
HETATM   16  C20 UNL     1      -2.580   0.176   0.882  1.00  0.00     0.027 A 
HETATM   17  C21 UNL     1      -1.280   0.017   0.437  1.00  0.00     0.031 A 
BRANCH  15  18
HETATM   18  S1  UNL     1      -5.110   1.264   0.873  1.00  0.00     0.261 S 
HETATM   19  O4  UNL     1      -5.151   1.218   2.368  1.00  0.00    -0.200 OA
HETATM   20  O5  UNL     1      -5.483   2.700   0.505  1.00  0.00    -0.200 OA
BRANCH  18  21
HETATM   21  N4  UNL     1      -6.194   0.245   0.110  1.00  0.00    -0.299 N 
BRANCH  21  22
HETATM   22  C14 UNL     1      -6.364   0.372  -1.287  1.00  0.00     0.088 C 
HETATM   23  C15 UNL     1      -7.776   0.670  -1.715  1.00  0.00     0.032 C 
HETATM   24  C16 UNL     1      -5.882  -0.889  -1.977  1.00  0.00     0.032 C 
ENDBRANCH  21  22
BRANCH  21  25
HETATM   25  C17 UNL     1      -6.797  -0.810   0.789  1.00  0.00     0.088 C 
HETATM   26  C18 UNL     1      -5.825  -1.882   1.280  1.00  0.00     0.032 C 
HETATM   27  C19 UNL     1      -7.658  -0.441   1.970  1.00  0.00     0.032 C 
ENDBRANCH  21  25
ENDBRANCH  18  21
ENDBRANCH  15  18
ENDBRANCH  10  12
ENDBRANCH   7   9
BRANCH   6  28
HETATM   28  O3  UNL     1       1.910   0.515  -3.062  1.00  0.00    -0.345 OA
ATOM     29  H3  UNL     1       1.050   0.610  -2.671  1.00  0.00     0.219 HD
ENDBRANCH   6  28
BRANCH   8  30
HETATM   30  N5  UNL     1       3.929   0.036   1.139  1.00  0.00    -0.384 N 
ATOM     31  H52 UNL     1       4.766  -0.104   1.704  1.00  0.00     0.157 HD
ATOM     32  H51 UNL     1       3.009   0.137   1.567  1.00  0.00     0.157 HD
ENDBRANCH   8  30
BRANCH   1  33
HETATM   33  C5  UNL     1       6.384  -0.239   0.098  1.00  0.00     0.045 A 
HETATM   34  C4  UNL     1       6.477  -1.307   0.968  1.00  0.00     0.033 A 
HETATM   35  C3  UNL     1       7.601  -1.490   1.747  1.00  0.00     0.039 A 
HETATM   36  C2  UNL     1       8.679  -0.631   1.704  1.00  0.00     0.068 A 
HETATM   37  C24 UNL     1       8.589   0.439   0.834  1.00  0.00     0.039 A 
HETATM   38  C23 UNL     1       7.464   0.620   0.056  1.00  0.00     0.033 A 
BRANCH  36  39
HETATM   39  O1  UNL     1       9.809  -0.820   2.492  1.00  0.00    -0.356 OA
HETATM   40  C1  UNL     1      10.878   0.103   2.394  1.00  0.00     0.210 C 
ENDBRANCH  36  39
ENDBRANCH   1  33
TORSDOF 10
