REMARK  15 active torsions:
REMARK  status: ('A' for Active; 'I' for Inactive)
REMARK    1  A    between atoms: C2_2  and  C3_4 
REMARK    2  A    between atoms: C3_4  and  O2_5 
REMARK    3  A    between atoms: C3_4  and  C4_7 
REMARK    4  A    between atoms: C4_7  and  O3_8 
REMARK    5  A    between atoms: C4_7  and  C5_10 
REMARK    6  A    between atoms: C5_10  and  O4_11 
REMARK    7  A    between atoms: C5_10  and  N1_13 
REMARK    8  A    between atoms: N1_13  and  C6_15 
REMARK    9  A    between atoms: C8_18  and  C9_19 
REMARK   10  A    between atoms: C9_19  and  N2_20 
REMARK   11  A    between atoms: C10_21  and  N3_22 
REMARK   12  A    between atoms: N3_22  and  C11_24 
REMARK   13  A    between atoms: C13_28  and  O6_29 
REMARK   14  A    between atoms: C16_43  and  N10_44 
REMARK   15  A    between atoms: C18_50  and  O7_51 
ROOT
HETATM    1  N2  UNL     1      -1.954  -1.358   0.502  1.00  0.00    -0.003 N 
HETATM    2  C10 UNL     1      -2.957  -0.833  -0.199  1.00  0.00     0.730 A 
HETATM    3  N6  UNL     1      -3.812  -0.297   0.727  1.00  0.00    -0.095 N 
ATOM      4  H6  UNL     1      -4.684   0.185   0.511  1.00  0.00     0.207 HD
HETATM    5  N7  UNL     1      -3.338  -0.498   1.938  1.00  0.00     0.106 N 
HETATM    6  C15 UNL     1      -3.812  -0.162   3.176  1.00  0.00     0.727 A 
HETATM    7  N8  UNL     1      -4.935   0.478   3.287  1.00  0.00    -0.232 N 
ATOM      8  H81 UNL     1      -5.289   0.729   4.210  1.00  0.00     0.174 HD
ATOM      9  H82 UNL     1      -5.487   0.746   2.472  1.00  0.00     0.174 HD
HETATM   10  N9  UNL     1      -3.092  -0.512   4.239  1.00  0.00    -0.020 N 
ATOM     11  H9  UNL     1      -3.440  -0.266   5.166  1.00  0.00     0.203 HD
HETATM   12  C16 UNL     1      -1.920  -1.179   4.144  1.00  0.00     0.705 A 
HETATM   13  N11 UNL     1      -1.453  -1.509   2.933  1.00  0.00    -0.019 N 
ATOM     14  H11 UNL     1      -0.572  -2.012   2.830  1.00  0.00     0.203 HD
HETATM   15  C17 UNL     1      -2.180  -1.157   1.856  1.00  0.00     0.750 A 
ENDROOT
BRANCH   1  16
HETATM   16  C9  UNL     1      -0.757  -1.996   0.034  1.00  0.00     0.235 C 
BRANCH  16  17
HETATM   17  C8  UNL     1       0.436  -1.121   0.062  1.00  0.00     0.109 A 
HETATM   18  O5  UNL     1       1.274  -1.223   1.114  1.00  0.00    -0.320 OA
HETATM   19  C7  UNL     1       2.348  -0.511   1.256  1.00  0.00     0.175 A 
HETATM   20  C6  UNL     1       2.741   0.429   0.334  1.00  0.00     0.106 A 
HETATM   21  C19 UNL     1       1.926   0.578  -0.762  1.00  0.00     0.235 A 
HETATM   22  C18 UNL     1       0.765  -0.205  -0.899  1.00  0.00     0.150 A 
HETATM   23  O8  UNL     1       2.248   1.424  -1.627  1.00  0.00    -0.283 OA
BRANCH  20  24
HETATM   24  N1  UNL     1       3.906   1.236   0.520  1.00  0.00    -0.357 N 
ATOM     25  H1  UNL     1       4.046   2.000  -0.142  1.00  0.00     0.162 HD
BRANCH  24  26
HETATM   26  C5  UNL     1       4.891   1.081   1.536  1.00  0.00     0.250 C 
BRANCH  26  27
HETATM   27  C4  UNL     1       5.924   0.072   1.162  1.00  0.00     0.202 C 
BRANCH  27  28
HETATM   28  C3  UNL     1       6.938   0.571   0.164  1.00  0.00     0.220 C 
BRANCH  28  29
HETATM   29  C2  UNL     1       6.517   0.618  -1.231  1.00  0.00     0.154 C 
HETATM   30  C1  UNL     1       6.168  -0.530  -2.104  1.00  0.00     0.093 C 
HETATM   31  O1  UNL     1       6.429   1.727  -1.795  1.00  0.00    -0.295 OA
ENDBRANCH  28  29
BRANCH  28  32
HETATM   32  O2  UNL     1       7.362   1.870   0.525  1.00  0.00    -0.385 OA
ATOM     33  H2  UNL     1       7.636   1.839   1.434  1.00  0.00     0.210 HD
ENDBRANCH  28  32
ENDBRANCH  27  28
BRANCH  27  34
HETATM   34  O3  UNL     1       5.480  -1.187   0.895  1.00  0.00    -0.388 OA
ATOM     35  H3  UNL     1       4.841  -1.501   1.524  1.00  0.00     0.210 HD
ENDBRANCH  27  34
ENDBRANCH  26  27
BRANCH  26  36
HETATM   36  O4  UNL     1       5.443   2.330   1.824  1.00  0.00    -0.374 OA
ATOM     37  H4  UNL     1       4.785   2.973   2.062  1.00  0.00     0.212 HD
ENDBRANCH  26  36
ENDBRANCH  24  26
ENDBRANCH  20  24
BRANCH  22  38
HETATM   38  O7  UNL     1      -0.006  -0.003  -2.033  1.00  0.00    -0.355 OA
ATOM     39  H7  UNL     1       0.223   0.633  -2.700  1.00  0.00     0.218 HD
ENDBRANCH  22  38
ENDBRANCH  16  17
ENDBRANCH   1  16
BRANCH   2  40
HETATM   40  N3  UNL     1      -3.200  -0.837  -1.603  1.00  0.00    -0.021 N 
ATOM     41  H3  UNL     1      -2.547  -1.308  -2.229  1.00  0.00     0.203 HD
BRANCH  40  42
HETATM   42  C11 UNL     1      -4.346  -0.188  -2.135  1.00  0.00     0.688 C 
HETATM   43  N4  UNL     1      -5.496  -0.760  -2.265  1.00  0.00    -0.223 N 
HETATM   44  C12 UNL     1      -6.675  -0.116  -2.804  1.00  0.00     0.171 C 
ATOM     45  H4  UNL     1      -5.580  -1.732  -1.968  1.00  0.00     0.177 HD
HETATM   46  C13 UNL     1      -6.636   1.354  -2.454  1.00  0.00     0.154 C 
HETATM   47  C14 UNL     1      -5.377   1.923  -3.066  1.00  0.00     0.171 C 
HETATM   48  N5  UNL     1      -4.265   1.180  -2.565  1.00  0.00    -0.223 N 
ATOM     49  H5  UNL     1      -3.361   1.648  -2.509  1.00  0.00     0.177 HD
BRANCH  46  50
HETATM   50  O6  UNL     1      -7.775   2.022  -2.892  1.00  0.00    -0.392 OA
ATOM     51  H6  UNL     1      -7.750   2.946  -2.672  1.00  0.00     0.210 HD
ENDBRANCH  46  50
ENDBRANCH  40  42
ENDBRANCH   2  40
BRANCH  12  52
HETATM   52  N10 UNL     1      -1.238  -1.506   5.204  1.00  0.00    -0.234 N 
ATOM     53 2H10 UNL     1      -1.594  -1.255   6.126  1.00  0.00     0.174 HD
ATOM     54 1H10 UNL     1      -0.354  -2.009   5.132  1.00  0.00     0.174 HD
ENDBRANCH  12  52
TORSDOF 15
