REMARK  13 active torsions:
REMARK  status: ('A' for Active; 'I' for Inactive)
REMARK    1  A    between atoms: C3_3  and  C4_4 
REMARK    2  A    between atoms: C4_4  and  C5_5 
REMARK    3  A    between atoms: C5_5  and  C6_6 
REMARK    4  A    between atoms: C8_11  and  C9_12 
REMARK    5  A    between atoms: C12_17  and  O2_18 
REMARK    6  A    between atoms: C13_20  and  C14_21 
REMARK    7  A    between atoms: C14_21  and  C15_22 
REMARK    8  A    between atoms: C18_27  and  O3_28 
REMARK    9  A    between atoms: C19_30  and  C20_31 
REMARK   10  A    between atoms: C20_31  and  C21_32 
REMARK   11  A    between atoms: C24_37  and  O4_38 
REMARK   12  A    between atoms: C25_40  and  C26_41 
REMARK   13  A    between atoms: C26_41  and  C27_42 
ROOT
HETATM    1  C1  UNL     1       8.340  -2.090   1.481  1.00  0.00     0.112 C 
HETATM    2  C2  UNL     1       6.927  -1.795   1.221  1.00  0.00    -0.111 C 
HETATM    3  C3  UNL     1       5.761  -1.567   1.014  1.00  0.00    -0.107 C 
ENDROOT
BRANCH   3   4
HETATM    4  C4  UNL     1       4.318  -1.310   0.768  1.00  0.00     0.096 C 
BRANCH   4   5
HETATM    5  C5  UNL     1       3.820  -0.312   1.726  1.00  0.00     0.047 C 
BRANCH   5   6
HETATM    6  C6  UNL     1       2.326   0.048   1.573  1.00  0.00     0.177 C 
HETATM    7  N1  UNL     1       1.499  -1.102   1.744  1.00  0.00    -0.346 N 
HETATM    8  C7  UNL     1       0.433  -1.669   1.030  1.00  0.00     0.241 C 
ATOM      9  H1  UNL     1       1.739  -1.636   2.579  1.00  0.00     0.163 HD
HETATM   10  O1  UNL     1      -0.652  -1.719   1.664  1.00  0.00    -0.271 OA
HETATM   11  C8  UNL     1       0.400  -2.215  -0.335  1.00  0.00     0.179 C 
HETATM   12  N2  UNL     1      -0.772  -2.216  -1.110  1.00  0.00    -0.359 N 
HETATM   13  C12 UNL     1      -1.946  -1.541  -1.319  1.00  0.00     0.135 C 
ATOM     14  H2  UNL     1      -0.736  -3.009  -1.751  1.00  0.00     0.162 HD
HETATM   15  C13 UNL     1      -3.120  -1.089  -0.568  1.00  0.00     0.158 C 
HETATM   16  N3  UNL     1      -3.561   0.272  -0.957  1.00  0.00    -0.357 N 
HETATM   17  C18 UNL     1      -3.029   1.301  -1.673  1.00  0.00     0.159 C 
ATOM     18  H3  UNL     1      -4.491   0.492  -0.601  1.00  0.00     0.162 HD
HETATM   19  C19 UNL     1      -1.950   2.288  -1.415  1.00  0.00     0.062 C 
HETATM   20  N4  UNL     1      -1.825   2.640  -0.018  1.00  0.00    -0.339 N 
HETATM   21  C24 UNL     1      -1.035   2.248   1.035  1.00  0.00     0.139 C 
ATOM     22  H4  UNL     1      -2.492   3.362   0.254  1.00  0.00     0.167 HD
HETATM   23  C25 UNL     1       0.347   2.485   1.455  1.00  0.00     0.159 C 
HETATM   24  N5  UNL     1       1.389   2.190   0.518  1.00  0.00    -0.347 N 
HETATM   25  C30 UNL     1       2.096   0.971   0.494  1.00  0.00     0.241 C 
ATOM     26  H5  UNL     1       1.633   2.902  -0.170  1.00  0.00     0.163 HD
HETATM   27  O5  UNL     1       2.591   0.680  -0.663  1.00  0.00    -0.271 OA
BRANCH  11  28
HETATM   28  C9  UNL     1       0.949  -3.677  -0.258  1.00  0.00     0.009 C 
HETATM   29  C10 UNL     1       0.978  -4.356  -1.572  1.00  0.00     0.012 C 
HETATM   30  C11 UNL     1       0.236  -4.484   0.767  1.00  0.00     0.012 C 
ENDBRANCH  11  28
BRANCH  13  31
HETATM   31  O2  UNL     1      -2.099  -1.166  -2.591  1.00  0.00    -0.348 OA
ATOM     32  H2  UNL     1      -2.913  -0.698  -2.736  1.00  0.00     0.219 HD
ENDBRANCH  13  31
BRANCH  15  33
HETATM   33  C14 UNL     1      -4.341  -2.015  -0.760  1.00  0.00     0.037 C 
BRANCH  33  34
HETATM   34  C15 UNL     1      -4.211  -3.409  -0.351  1.00  0.00    -0.020 C 
HETATM   35  C16 UNL     1      -3.879  -3.657   1.101  1.00  0.00     0.009 C 
HETATM   36  C17 UNL     1      -3.401  -4.321  -1.202  1.00  0.00     0.009 C 
ENDBRANCH  33  34
ENDBRANCH  15  33
BRANCH  17  37
HETATM   37  O3  UNL     1      -3.575   1.477  -2.842  1.00  0.00    -0.345 OA
ATOM     38  H3  UNL     1      -3.204   2.195  -3.341  1.00  0.00     0.219 HD
ENDBRANCH  17  37
BRANCH  19  39
HETATM   39  C20 UNL     1      -0.670   2.085  -2.128  1.00  0.00     0.065 C 
BRANCH  39  40
HETATM   40  C21 UNL     1      -0.799   2.143  -3.666  1.00  0.00    -0.017 C 
HETATM   41  C22 UNL     1      -1.295   3.493  -4.067  1.00  0.00     0.010 C 
HETATM   42  C23 UNL     1       0.627   1.957  -4.183  1.00  0.00     0.010 C 
ENDBRANCH  39  40
ENDBRANCH  19  39
BRANCH  21  43
HETATM   43  O4  UNL     1      -1.651   1.468   1.892  1.00  0.00    -0.348 OA
ATOM     44  H4  UNL     1      -1.105   1.197   2.620  1.00  0.00     0.219 HD
ENDBRANCH  21  43
BRANCH  23  45
HETATM   45  C26 UNL     1       0.649   3.882   1.952  1.00  0.00     0.037 C 
BRANCH  45  46
HETATM   46  C27 UNL     1      -0.079   4.376   3.134  1.00  0.00    -0.020 C 
HETATM   47  C28 UNL     1       0.511   5.803   3.390  1.00  0.00     0.009 C 
HETATM   48  C29 UNL     1      -1.557   4.680   2.921  1.00  0.00     0.009 C 
ENDBRANCH  45  46
ENDBRANCH  23  45
ENDBRANCH   5   6
ENDBRANCH   4   5
ENDBRANCH   3   4
TORSDOF 13
