REMARK  13 active torsions:
REMARK  status: ('A' for Active; 'I' for Inactive)
REMARK    1  A    between atoms: C2_2  and  C3_3 
REMARK    2  A    between atoms: C3_3  and  C4_4 
REMARK    3  A    between atoms: C6_8  and  C7_9 
REMARK    4  A    between atoms: C7_9  and  C8_10 
REMARK    5  A    between atoms: C8_10  and  C9_11 
REMARK    6  A    between atoms: C9_11  and  N2_12 
REMARK    7  A    between atoms: C12_17  and  O1_18 
REMARK    8  A    between atoms: C17_25  and  O2_26 
REMARK    9  A    between atoms: C18_28  and  C19_29 
REMARK   10  A    between atoms: C19_29  and  C20_30 
REMARK   11  A    between atoms: C23_35  and  O3_36 
REMARK   12  A    between atoms: C24_38  and  C25_39 
REMARK   13  A    between atoms: C25_39  and  C26_40 
ROOT
HETATM    1  C4  UNL     1       0.917   2.776  -0.069  1.00  0.00     0.077 C 
HETATM    2  N1  UNL     1       1.204   1.429   0.094  1.00  0.00    -0.366 N 
ATOM      3  H1  UNL     1       1.435   1.092   1.029  1.00  0.00     0.165 HD
HETATM    4  C5  UNL     1       1.192   0.518  -0.951  1.00  0.00     0.086 C 
HETATM    5  C6  UNL     1       2.274  -0.510  -0.910  1.00  0.00     0.122 C 
HETATM    6  N3  UNL     1       1.848  -1.850  -1.206  1.00  0.00    -0.364 N 
ATOM      7  H3  UNL     1       2.578  -2.407  -1.650  1.00  0.00     0.162 HD
HETATM    8  C12 UNL     1       0.663  -2.560  -1.023  1.00  0.00     0.135 C 
HETATM    9  C13 UNL     1      -0.065  -3.045   0.148  1.00  0.00     0.160 C 
HETATM   10  C14 UNL     1       0.864  -3.700   1.179  1.00  0.00     0.035 C 
HETATM   11  C15 UNL     1       0.872  -2.809   2.359  1.00  0.00     0.022 C 
HETATM   12  C16 UNL     1      -0.109  -1.734   2.122  1.00  0.00     0.125 C 
HETATM   13  N4  UNL     1      -0.872  -2.178   0.924  1.00  0.00    -0.351 N 
HETATM   14  C17 UNL     1      -2.221  -1.765   0.721  1.00  0.00     0.137 C 
HETATM   15  C18 UNL     1      -2.879  -1.358  -0.504  1.00  0.00     0.158 C 
HETATM   16  N5  UNL     1      -3.101   0.041  -0.735  1.00  0.00    -0.361 N 
ATOM     17  H5  UNL     1      -3.868   0.209  -1.386  1.00  0.00     0.162 HD
HETATM   18  C23 UNL     1      -2.527   1.210  -0.289  1.00  0.00     0.135 C 
HETATM   19  C24 UNL     1      -2.302   1.690   1.090  1.00  0.00     0.159 C 
HETATM   20  N6  UNL     1      -1.370   2.781   1.212  1.00  0.00    -0.344 N 
ATOM     21  H6  UNL     1      -1.457   3.282   2.096  1.00  0.00     0.163 HD
HETATM   22  C29 UNL     1      -0.384   3.298   0.395  1.00  0.00     0.264 C 
HETATM   23  O4  UNL     1      -0.641   4.487  -0.062  1.00  0.00    -0.266 OA
ENDROOT
BRANCH   5  24
HETATM   24  C7  UNL     1       3.140  -0.390   0.325  1.00  0.00     0.032 C 
BRANCH  24  25
HETATM   25  C8  UNL     1       4.243  -1.387   0.380  1.00  0.00     0.033 C 
BRANCH  25  26
HETATM   26  C9  UNL     1       5.250  -1.337  -0.706  1.00  0.00     0.271 C 
BRANCH  26  27
HETATM   27  N2  UNL     1       5.957  -0.075  -0.785  1.00  0.00     0.080 N 
HETATM   28  C10 UNL     1       6.822   0.129   0.360  1.00  0.00     0.309 C 
HETATM   29  C11 UNL     1       6.827  -0.180  -1.967  1.00  0.00     0.309 C 
ENDBRANCH  26  27
ENDBRANCH  25  26
ENDBRANCH  24  25
ENDBRANCH   5  24
BRANCH   8  30
HETATM   30  O1  UNL     1       0.078  -2.862  -2.154  1.00  0.00    -0.348 OA
ATOM     31  H1  UNL     1      -0.730  -3.346  -2.029  1.00  0.00     0.219 HD
ENDBRANCH   8  30
BRANCH   1  32
HETATM   32  C3  UNL     1       1.236   3.414  -1.402  1.00  0.00     0.062 C 
BRANCH  32  33
HETATM   33  C2  UNL     1       2.691   3.361  -1.766  1.00  0.00     0.002 C 
HETATM   34  C1  UNL     1       3.555   4.079  -0.736  1.00  0.00     0.005 C 
ENDBRANCH  32  33
ENDBRANCH   1  32
BRANCH  14  35
HETATM   35  O2  UNL     1      -3.011  -1.738   1.763  1.00  0.00    -0.348 OA
ATOM     36  H2  UNL     1      -3.910  -1.463   1.628  1.00  0.00     0.219 HD
ENDBRANCH  14  35
BRANCH  19  37
HETATM   37  C25 UNL     1      -3.554   1.899   1.877  1.00  0.00     0.037 C 
BRANCH  37  38
HETATM   38  C26 UNL     1      -4.570   2.846   1.452  1.00  0.00    -0.020 C 
HETATM   39  C27 UNL     1      -5.242   2.672   0.142  1.00  0.00     0.009 C 
HETATM   40  C28 UNL     1      -4.177   4.309   1.561  1.00  0.00     0.009 C 
ENDBRANCH  37  38
ENDBRANCH  19  37
BRANCH  15  41
HETATM   41  C19 UNL     1      -4.301  -1.988  -0.419  1.00  0.00     0.037 C 
BRANCH  41  42
HETATM   42  C20 UNL     1      -4.284  -3.463  -0.336  1.00  0.00    -0.020 C 
HETATM   43  C21 UNL     1      -3.639  -4.048  -1.567  1.00  0.00     0.009 C 
HETATM   44  C22 UNL     1      -5.703  -3.943  -0.169  1.00  0.00     0.009 C 
ENDBRANCH  41  42
ENDBRANCH  15  41
BRANCH  18  45
HETATM   45  O3  UNL     1      -2.098   2.061  -1.174  1.00  0.00    -0.348 OA
ATOM     46  H3  UNL     1      -1.702   2.868  -0.866  1.00  0.00     0.219 HD
ENDBRANCH  18  45
TORSDOF 13
