REMARK  5 active torsions:
REMARK  status: ('A' for Active; 'I' for Inactive)
REMARK    1  A    between atoms: C2_2  and  C3_3 
REMARK    2  A    between atoms: N2_6  and  C4_7 
REMARK    3  A    between atoms: C10_15  and  N3_16 
REMARK       I    between atoms: N3_16  and  C11_18 
REMARK    4  A    between atoms: C11_18  and  O4_20 
REMARK    5  A    between atoms: O4_20  and  C12_21 
ROOT
HETATM    1  C3  UNL     1      -1.787   1.561   0.195  1.00  0.00     0.058 A 
HETATM    2  N1  UNL     1      -3.026   1.125  -0.070  1.00  0.00    -0.297 N 
ATOM      3  H1  UNL     1      -3.772   1.677  -0.494  1.00  0.00     0.187 HD
HETATM    4  N2  UNL     1      -3.123  -0.140   0.310  1.00  0.00    -0.250 N 
HETATM    5  C9  UNL     1      -1.954  -0.548   0.827  1.00  0.00     0.291 A 
HETATM    6  O2  UNL     1      -1.642  -1.686   1.300  1.00  0.00    -0.264 OA
HETATM    7  C10 UNL     1      -1.073   0.518   0.769  1.00  0.00     0.131 A 
ENDROOT
BRANCH   7   8
HETATM    8  N3  UNL     1       0.271   0.559   1.196  1.00  0.00    -0.296 N 
HETATM    9  C11 UNL     1       1.338   0.222   0.321  1.00  0.00     0.365 C 
HETATM   10  O3  UNL     1       1.139  -0.130  -0.879  1.00  0.00    -0.238 OA
ATOM     11  H3  UNL     1       0.481   0.837   2.155  1.00  0.00     0.171 HD
BRANCH   9  12
HETATM   12  O4  UNL     1       2.660   0.261   0.738  1.00  0.00    -0.297 OA
BRANCH  12  13
HETATM   13  C12 UNL     1       3.706  -0.078  -0.147  1.00  0.00     0.153 C 
HETATM   14  C13 UNL     1       4.443  -1.342   0.420  1.00  0.00     0.113 C 
HETATM   15  C14 UNL     1       5.789  -1.058   0.197  1.00  0.00    -0.180 C 
HETATM   16  C15 UNL     1       7.190  -1.163   0.145  1.00  0.00     0.090 C 
HETATM   17  C16 UNL     1       7.599   0.249  -0.430  1.00  0.00     0.085 C 
HETATM   18  S1  UNL     1       6.170   1.204  -0.946  1.00  0.00    -0.166 SA
HETATM   19  C17 UNL     1       4.611   1.119  -0.259  1.00  0.00     0.107 C 
ENDBRANCH  12  13
ENDBRANCH   9  12
ENDBRANCH   7   8
BRANCH   1  20
HETATM   20  C2  UNL     1      -1.206   2.907  -0.054  1.00  0.00     0.056 C 
HETATM   21  C1  UNL     1      -2.272   3.762  -0.682  1.00  0.00     0.011 C 
ENDBRANCH   1  20
BRANCH   4  22
HETATM   22  C4  UNL     1      -4.310  -0.949   0.184  1.00  0.00     0.116 C 
HETATM   23  C5  UNL     1      -4.048  -2.271  -0.500  1.00  0.00     0.053 C 
HETATM   24  C6  UNL     1      -5.390  -3.000  -0.558  1.00  0.00     0.169 C 
HETATM   25  O1  UNL     1      -6.269  -2.273  -1.336  1.00  0.00    -0.391 OA
HETATM   26  C7  UNL     1      -6.607  -1.065  -0.727  1.00  0.00     0.169 C 
HETATM   27  C8  UNL     1      -5.368  -0.218  -0.626  1.00  0.00     0.053 C 
ENDBRANCH   4  22
TORSDOF 5
