REMARK  3 active torsions:
REMARK  status: ('A' for Active; 'I' for Inactive)
REMARK    1  A    between atoms: O1_2  and  C2_3 
REMARK    2  A    between atoms: C6_7  and  C7_8 
REMARK    3  A    between atoms: C8_9  and  C9_10 
ROOT
HETATM    1  C2  UNL     1       4.421  -0.232  -0.088  1.00  0.00     0.090 A 
HETATM    2  C3  UNL     1       4.766   0.650  -1.080  1.00  0.00     0.038 A 
HETATM    3  C4  UNL     1       3.858   1.457  -1.728  1.00  0.00     0.004 A 
HETATM    4  C5  UNL     1       2.528   1.393  -1.379  1.00  0.00     0.022 A 
HETATM    5  C6  UNL     1       2.149   0.517  -0.385  1.00  0.00     0.041 A 
HETATM    6  C17 UNL     1       3.074  -0.280   0.249  1.00  0.00     0.096 A 
HETATM    7  C18 UNL     1       2.723  -1.210   1.293  1.00  0.00     0.103 C 
HETATM    8  N3  UNL     1       2.454  -1.967   2.128  1.00  0.00    -0.191 NA
ENDROOT
BRANCH   1   9
HETATM    9  O1  UNL     1       5.366  -1.018   0.531  1.00  0.00    -0.354 OA
HETATM   10  C1  UNL     1       6.718  -0.912   0.133  1.00  0.00     0.210 C 
ENDBRANCH   1   9
BRANCH   5  11
HETATM   11  C7  UNL     1       0.758   0.415   0.015  1.00  0.00    -0.060 C 
HETATM   12  C8  UNL     1      -0.397   0.345   0.364  1.00  0.00    -0.059 C 
BRANCH  12  13
HETATM   13  C9  UNL     1      -1.764   0.271   0.801  1.00  0.00     0.047 A 
HETATM   14  C10 UNL     1      -2.089   0.476   2.127  1.00  0.00     0.023 A 
HETATM   15  C11 UNL     1      -3.396   0.405   2.541  1.00  0.00     0.004 A 
HETATM   16  C12 UNL     1      -4.375   0.127   1.614  1.00  0.00     0.032 A 
HETATM   17  C13 UNL     1      -4.088  -0.084   0.285  1.00  0.00     0.063 A 
HETATM   18  C14 UNL     1      -2.763  -0.007  -0.110  1.00  0.00     0.079 A 
HETATM   19  N2  UNL     1      -4.863  -0.366  -0.788  1.00  0.00    -0.346 N 
HETATM   20  N1  UNL     1      -2.789  -0.253  -1.443  1.00  0.00    -0.349 N 
HETATM   21  C15 UNL     1      -4.055  -0.469  -1.849  1.00  0.00     0.183 A 
ATOM     22  H1  UNL     1      -1.969  -0.272  -2.050  1.00  0.00     0.166 HD
HETATM   23  C16 UNL     1      -6.313  -0.516  -0.718  1.00  0.00     0.157 C 
ENDBRANCH  12  13
ENDBRANCH   5  11
TORSDOF 3
