REMARK  7 active torsions:
REMARK  status: ('A' for Active; 'I' for Inactive)
REMARK    1  A    between atoms: C11_11  and  C12_12 
REMARK    2  A    between atoms: C13_13  and  C14_14 
REMARK    3  A    between atoms: C18_18  and  C19_19 
REMARK    4  A    between atoms: C18_18  and  C20_22 
REMARK    5  A    between atoms: C19_19  and  O1_20 
REMARK    6  A    between atoms: C20_22  and  O2_23 
REMARK    7  A    between atoms: O2_23  and  C21_24 
ROOT
HETATM    1  C14 UNL     1       1.663   0.135   0.044  1.00  0.00     0.020 C 
HETATM    2  C15 UNL     1       1.604   1.458  -0.594  1.00  0.00     0.009 C 
HETATM    3  C16 UNL     1       2.368   2.307   0.438  1.00  0.00     0.002 C 
HETATM    4  C17 UNL     1       3.612   1.440   0.584  1.00  0.00     0.014 C 
HETATM    5  C18 UNL     1       3.117  -0.005   0.419  1.00  0.00     0.010 C 
ENDROOT
BRANCH   1   6
HETATM    6  C13 UNL     1       0.730  -0.324   1.053  1.00  0.00    -0.024 C 
HETATM    7  C12 UNL     1      -0.676  -0.574   0.970  1.00  0.00    -0.021 C 
BRANCH   7   8
HETATM    8  C11 UNL     1      -1.811   0.283   0.726  1.00  0.00     0.040 C 
HETATM    9  C2  UNL     1      -2.027   1.043  -0.484  1.00  0.00    -0.081 C 
HETATM   10  C1  UNL     1      -2.166   2.380  -0.559  1.00  0.00     0.015 C 
HETATM   11  C3  UNL     1      -2.135   0.253  -1.759  1.00  0.00     0.034 C 
HETATM   12  C4  UNL     1      -2.950  -0.981  -1.529  1.00  0.00     0.010 C 
HETATM   13  C5  UNL     1      -3.703  -1.080  -0.273  1.00  0.00    -0.001 C 
HETATM   14  C6  UNL     1      -3.126  -0.501   0.958  1.00  0.00     0.003 C 
HETATM   15  C8  UNL     1      -4.983  -0.321  -0.099  1.00  0.00    -0.043 C 
HETATM   16  C7  UNL     1      -4.286   0.439   1.043  1.00  0.00     0.015 C 
HETATM   17  C9  UNL     1      -5.487   0.514  -1.213  1.00  0.00     0.015 C 
HETATM   18  C10 UNL     1      -6.128  -1.151   0.498  1.00  0.00     0.015 C 
ENDBRANCH   7   8
ENDBRANCH   1   6
BRANCH   5  19
HETATM   19  C19 UNL     1       3.442  -0.768   1.645  1.00  0.00     0.176 C 
BRANCH  19  20
HETATM   20  O1  UNL     1       2.929  -0.230   2.789  1.00  0.00    -0.400 OA
ATOM     21  H1  UNL     1       3.138  -0.720   3.576  1.00  0.00     0.209 HD
ENDBRANCH  19  20
ENDBRANCH   5  19
BRANCH   5  22
HETATM   22  C20 UNL     1       3.873  -0.558  -0.796  1.00  0.00     0.191 C 
BRANCH  22  23
HETATM   23  O2  UNL     1       5.249  -0.709  -0.487  1.00  0.00    -0.321 OA
BRANCH  23  24
HETATM   24  C21 UNL     1       6.064  -1.202  -1.490  1.00  0.00     0.254 C 
HETATM   25  C22 UNL     1       7.514  -1.378  -1.216  1.00  0.00     0.126 C 
HETATM   26  O3  UNL     1       5.573  -1.497  -2.628  1.00  0.00    -0.266 OA
ENDBRANCH  23  24
ENDBRANCH  22  23
ENDBRANCH   5  22
TORSDOF 7
