REMARK  5 active torsions:
REMARK  status: ('A' for Active; 'I' for Inactive)
REMARK    1  A    between atoms: C2_2  and  C5_5 
REMARK    2  A    between atoms: C6_6  and  N1_7 
REMARK    3  A    between atoms: C7_11  and  N2_12 
REMARK    4  A    between atoms: C8_16  and  N3_17 
REMARK       I    between atoms: N3_17  and  C9_19 
REMARK       I    between atoms: C9_19  and  N5_23 
REMARK    5  A    between atoms: N5_23  and  N6_25 
ROOT
HETATM    1  C5  UNL     1      -1.101  -0.479  -0.496  1.00  0.00     0.051 C 
HETATM    2  C6  UNL     1      -0.974  -1.665   0.433  1.00  0.00     0.222 C 
HETATM    3  C7  UNL     1       0.545  -1.547   0.235  1.00  0.00     0.237 C 
HETATM    4  C8  UNL     1       0.297  -0.602  -0.921  1.00  0.00     0.138 C 
ENDROOT
BRANCH   4   5
HETATM    5  N3  UNL     1       1.152   0.530  -1.004  1.00  0.00    -0.218 N 
HETATM    6  C9  UNL     1       2.519   0.483  -1.391  1.00  0.00     0.687 C 
HETATM    7  N4  UNL     1       2.947  -0.216  -2.376  1.00  0.00    -0.234 N 
HETATM    8  N5  UNL     1       3.453   1.250  -0.647  1.00  0.00    -0.119 N 
ATOM      9  H42 UNL     1       2.276  -0.767  -2.911  1.00  0.00     0.174 HD
ATOM     10  H41 UNL     1       3.928  -0.250  -2.654  1.00  0.00     0.174 HD
ATOM     11  H5  UNL     1       3.973   1.968  -1.151  1.00  0.00     0.207 HD
ATOM     12  H3  UNL     1       0.757   1.441  -0.769  1.00  0.00     0.178 HD
BRANCH   8  13
HETATM   13  N6  UNL     1       3.715   1.108   0.689  1.00  0.00    -0.235 N 
HETATM   14  N7  UNL     1       3.392   2.001   1.519  1.00  0.00    -0.330 N 
ATOM     15  H72 UNL     1       2.927   2.840   1.171  1.00  0.00     0.178 HD
ATOM     16  H71 UNL     1       3.587   1.895   2.515  1.00  0.00     0.178 HD
ATOM     17  H6  UNL     1       4.181   0.263   1.020  1.00  0.00     0.208 HD
ENDBRANCH   8  13
ENDBRANCH   4   5
BRANCH   1  18
HETATM   18  C2  UNL     1      -1.694   0.748   0.055  1.00  0.00    -0.044 C 
HETATM   19  C1  UNL     1      -3.118   0.370   0.511  1.00  0.00     0.015 C 
HETATM   20  C3  UNL     1      -1.018   1.420   1.174  1.00  0.00     0.015 C 
HETATM   21  C4  UNL     1      -1.870   1.733  -1.084  1.00  0.00     0.015 C 
ENDBRANCH   1  18
BRANCH   3  22
HETATM   22  N2  UNL     1       1.082  -2.848  -0.142  1.00  0.00    -0.071 N 
ATOM     23  H23 UNL     1       0.834  -3.577   0.527  1.00  0.00     0.274 HD
ATOM     24  H22 UNL     1       0.614  -3.238  -0.960  1.00  0.00     0.274 HD
ATOM     25  H21 UNL     1       2.090  -2.770  -0.273  1.00  0.00     0.274 HD
ENDBRANCH   3  22
BRANCH   2  26
HETATM   26  N1  UNL     1      -1.384  -1.460   1.791  1.00  0.00    -0.072 N 
ATOM     27  H13 UNL     1      -0.885  -0.662   2.183  1.00  0.00     0.274 HD
ATOM     28  H12 UNL     1      -2.342  -1.109   1.811  1.00  0.00     0.274 HD
ATOM     29  H11 UNL     1      -1.298  -2.260   2.418  1.00  0.00     0.274 HD
ENDBRANCH   2  26
TORSDOF 5
