REMARK  3 active torsions:
REMARK  status: ('A' for Active; 'I' for Inactive)
REMARK    1  A    between atoms: C3_3  and  O1_4 
REMARK    2  A    between atoms: O1_4  and  C4_5 
REMARK    3  A    between atoms: C4_5  and  C5_6 
ROOT
HETATM    1  C1  UNL     1       4.413   0.211  -1.474  1.00  0.00     0.014 C 
HETATM    2  C2  UNL     1       3.775  -0.350  -0.610  1.00  0.00    -0.091 C 
HETATM    3  C3  UNL     1       3.000  -1.031   0.434  1.00  0.00     0.260 C 
ENDROOT
BRANCH   3   4
HETATM    4  O1  UNL     1       1.699  -1.279   0.066  1.00  0.00    -0.377 OA
BRANCH   4   5
HETATM    5  C4  UNL     1       1.016  -0.080  -0.229  1.00  0.00     0.193 C 
BRANCH   5   6
HETATM    6  C5  UNL     1      -0.427  -0.392  -0.635  1.00  0.00     0.100 C 
HETATM    7  C6  UNL     1      -1.106   0.943  -0.873  1.00  0.00     0.027 C 
HETATM    8  C7  UNL     1      -1.525   1.458   0.487  1.00  0.00     0.004 C 
HETATM    9  C8  UNL     1      -2.775   0.647   0.865  1.00  0.00     0.019 C 
HETATM   10  C9  UNL     1      -2.442  -0.805   0.633  1.00  0.00     0.114 C 
HETATM   11  N1  UNL     1      -1.055  -1.047   0.434  1.00  0.00    -0.415 N 
ATOM     12  H1  UNL     1      -0.535  -1.675   1.047  1.00  0.00     0.153 HD
ENDBRANCH   5   6
ENDBRANCH   4   5
ENDBRANCH   3   4
TORSDOF 3
