REMARK  7 active torsions:
REMARK  status: ('A' for Active; 'I' for Inactive)
REMARK    1  A    between atoms: C2_2  and  N1_4 
REMARK    2  A    between atoms: N1_4  and  C4_6 
REMARK    3  A    between atoms: C4_6  and  C5_7 
REMARK    4  A    between atoms: C4_6  and  C8_13 
REMARK    5  A    between atoms: C8_13  and  O1_14 
REMARK    6  A    between atoms: C8_13  and  C9_16 
REMARK    7  A    between atoms: C9_16  and  N3_17 
ROOT
HETATM    1  C4  UNL     1      -2.026   0.066  -0.513  1.00  0.00     0.165 C 
ENDROOT
BRANCH   1   2
HETATM    2  N1  UNL     1      -2.373  -0.593   0.692  1.00  0.00    -0.406 N 
ATOM      3  H1  UNL     1      -1.817  -0.504   1.543  1.00  0.00     0.154 HD
BRANCH   2   4
HETATM    4  C2  UNL     1      -3.570  -1.401   0.631  1.00  0.00     0.069 C 
HETATM    5  C1  UNL     1      -4.832  -0.612   0.377  1.00  0.00     0.031 C 
HETATM    6  C3  UNL     1      -3.776  -2.184   1.918  1.00  0.00     0.031 C 
ENDBRANCH   2   4
ENDBRANCH   1   2
BRANCH   1   7
HETATM    7  C5  UNL     1      -2.701   1.414  -0.588  1.00  0.00     0.075 A 
HETATM    8  N2  UNL     1      -2.694   2.433   0.253  1.00  0.00    -0.361 N 
HETATM    9  C6  UNL     1      -3.370   3.505  -0.005  1.00  0.00     0.096 A 
ATOM     10  H2  UNL     1      -2.150   2.374   1.114  1.00  0.00     0.165 HD
HETATM   11  C7  UNL     1      -4.085   3.540  -1.179  1.00  0.00     0.068 A 
HETATM   12  S1  UNL     1      -3.735   2.007  -1.841  1.00  0.00    -0.085 SA
ENDBRANCH   1   7
BRANCH   1  13
HETATM   13  C8  UNL     1      -0.565   0.340  -0.680  1.00  0.00     0.164 C 
BRANCH  13  14
HETATM   14  O1  UNL     1      -0.309   1.020  -1.864  1.00  0.00    -0.391 OA
ATOM     15  H1  UNL     1       0.619   1.194  -1.970  1.00  0.00     0.210 HD
ENDBRANCH  13  14
BRANCH  13  16
HETATM   16  C9  UNL     1       0.359  -0.810  -0.565  1.00  0.00     0.156 C 
BRANCH  16  17
HETATM   17  N3  UNL     1       1.692  -0.285  -0.532  1.00  0.00    -0.391 N 
HETATM   18  C10 UNL     1       2.039   0.442   0.613  1.00  0.00     0.059 C 
HETATM   19  C11 UNL     1       3.378   0.173   1.216  1.00  0.00     0.054 C 
HETATM   20  C12 UNL     1       4.383  -0.280   0.200  1.00  0.00    -0.035 A 
HETATM   21  C13 UNL     1       3.802  -1.389  -0.666  1.00  0.00     0.029 C 
HETATM   22  C15 UNL     1       5.355   0.652  -0.381  1.00  0.00     0.010 A 
HETATM   23  C16 UNL     1       5.796  -0.402   0.600  1.00  0.00     0.010 A 
HETATM   24  C14 UNL     1       2.640  -0.739  -1.431  1.00  0.00     0.122 C 
ENDBRANCH  16  17
ENDBRANCH  13  16
ENDBRANCH   1  13
TORSDOF 7
