REMARK  8 active torsions:
REMARK  status: ('A' for Active; 'I' for Inactive)
REMARK    1  A    between atoms: C2_2  and  C3_3 
REMARK    2  A    between atoms: C3_3  and  C4_4 
REMARK    3  A    between atoms: C4_4  and  C5_5 
REMARK    4  A    between atoms: C5_5  and  S1_7 
REMARK    5  A    between atoms: S1_7  and  C7_8 
REMARK    6  A    between atoms: C8_11  and  N2_12 
REMARK    7  A    between atoms: N2_12  and  C9_14 
REMARK    8  A    between atoms: C12_20  and  N4_21 
ROOT
HETATM    1  C7  UNL     1       0.471   0.103   1.399  1.00  0.00     0.174 A 
HETATM    2  N1  UNL     1       1.497   0.931   1.143  1.00  0.00    -0.169 N 
ATOM      3  H1  UNL     1       1.495   1.855   1.575  1.00  0.00     0.186 HD
HETATM    4  C8  UNL     1       2.541   0.596   0.334  1.00  0.00     0.695 A 
HETATM    5  N3  UNL     1       2.556  -0.619  -0.241  1.00  0.00    -0.022 N 
ATOM      6  H3  UNL     1       3.325  -0.896  -0.851  1.00  0.00     0.203 HD
HETATM    7  C12 UNL     1       1.537  -1.462   0.003  1.00  0.00     0.694 A 
HETATM    8  N5  UNL     1       0.518  -1.108   0.805  1.00  0.00    -0.169 N 
ATOM      9  H5  UNL     1      -0.239  -1.772   0.969  1.00  0.00     0.186 HD
ENDROOT
BRANCH   1  10
HETATM   10  S1  UNL     1      -0.886   0.573   2.465  1.00  0.00    -0.088 SA
BRANCH  10  11
HETATM   11  C5  UNL     1      -2.168   1.361   1.413  1.00  0.00     0.051 C 
HETATM   12  C6  UNL     1      -3.225   1.993   2.250  1.00  0.00     0.022 C 
BRANCH  11  13
HETATM   13  C4  UNL     1      -2.700   0.282   0.498  1.00  0.00     0.015 C 
BRANCH  13  14
HETATM   14  C3  UNL     1      -3.733   0.803  -0.466  1.00  0.00     0.001 C 
BRANCH  14  15
HETATM   15  C2  UNL     1      -4.170  -0.395  -1.316  1.00  0.00    -0.005 C 
HETATM   16  C1  UNL     1      -5.207  -0.021  -2.329  1.00  0.00     0.005 C 
ENDBRANCH  14  15
ENDBRANCH  13  14
ENDBRANCH  11  13
ENDBRANCH  10  11
ENDBRANCH   1  10
BRANCH   4  17
HETATM   17  N2  UNL     1       3.500   1.442   0.130  1.00  0.00    -0.212 N 
ATOM     18  H2  UNL     1       3.456   2.354   0.584  1.00  0.00     0.179 HD
BRANCH  17  19
HETATM   19  C9  UNL     1       4.631   1.139  -0.718  1.00  0.00     0.162 C 
HETATM   20  C10 UNL     1       5.706   0.283  -0.093  1.00  0.00     0.047 C 
HETATM   21  C11 UNL     1       6.704   0.923  -1.067  1.00  0.00     0.079 C 
HETATM   22  S2  UNL     1       5.851   2.494  -0.767  1.00  0.00    -0.143 SA
ENDBRANCH  17  19
ENDBRANCH   4  17
BRANCH   7  23
HETATM   23  N4  UNL     1       1.561  -2.622  -0.551  1.00  0.00    -0.230 N 
HETATM   24  C13 UNL     1       0.488  -3.553  -0.313  1.00  0.00     0.165 C 
ATOM     25  H4  UNL     1       2.338  -2.882  -1.158  1.00  0.00     0.177 HD
ENDBRANCH   7  23
TORSDOF 8
