REMARK  15 active torsions:
REMARK  status: ('A' for Active; 'I' for Inactive)
REMARK    1  A    between atoms: C2_2  and  N1_4 
REMARK    2  A    between atoms: N1_4  and  C4_7 
REMARK    3  A    between atoms: C4_7  and  O1_8 
REMARK    4  A    between atoms: C4_7  and  C9_13 
REMARK    5  A    between atoms: O1_8  and  C5_9 
REMARK    6  A    between atoms: C9_13  and  C10_14 
REMARK    7  A    between atoms: C9_13  and  O3_22 
REMARK    8  A    between atoms: C10_14  and  N2_15 
REMARK    9  A    between atoms: N2_15  and  C11_16 
REMARK   10  A    between atoms: C11_16  and  C12_17 
REMARK   11  A    between atoms: C12_17  and  O2_18 
REMARK   12  A    between atoms: O3_22  and  C15_23 
REMARK   13  A    between atoms: C16_24  and  O4_25 
REMARK   14  A    between atoms: C17_27  and  O5_28 
REMARK   15  A    between atoms: C21_33  and  O6_34 
ROOT
HETATM    1  C9  UNL     1      -0.356   0.062  -0.549  1.00  0.00     0.204 C 
ENDROOT
BRANCH   1   2
HETATM    2  C4  UNL     1      -1.501  -0.759  -0.047  1.00  0.00     0.353 C 
BRANCH   2   3
HETATM    3  N1  UNL     1      -2.454  -1.079  -1.086  1.00  0.00    -0.043 N 
ATOM      4  H12 UNL     1      -2.875  -0.227  -1.457  1.00  0.00     0.280 HD
ATOM      5  H11 UNL     1      -3.281  -1.522  -0.686  1.00  0.00     0.280 HD
BRANCH   3   6
HETATM    6  C2  UNL     1      -1.926  -1.875  -2.144  1.00  0.00     0.181 C 
HETATM    7  C1  UNL     1      -1.477  -3.225  -1.589  1.00  0.00     0.039 C 
HETATM    8  C3  UNL     1      -3.025  -2.161  -3.146  1.00  0.00     0.039 C 
ENDBRANCH   3   6
ENDBRANCH   2   3
BRANCH   2   9
HETATM    9  O1  UNL     1      -2.176  -0.081   0.923  1.00  0.00    -0.347 OA
BRANCH   9  10
HETATM   10  C5  UNL     1      -2.361  -0.630   2.138  1.00  0.00     0.053 C 
HETATM   11  C6  UNL     1      -3.176   0.397   2.953  1.00  0.00     0.045 C 
HETATM   12  C7  UNL     1      -1.168  -0.940   2.969  1.00  0.00     0.045 C 
HETATM   13  C8  UNL     1      -3.249  -1.878   2.109  1.00  0.00     0.045 C 
ENDBRANCH   9  10
ENDBRANCH   2   9
ENDBRANCH   1   2
BRANCH   1  14
HETATM   14  C10 UNL     1      -0.765   1.254  -1.342  1.00  0.00     0.273 C 
BRANCH  14  15
HETATM   15  N2  UNL     1      -1.380   2.359  -0.738  1.00  0.00    -0.059 N 
HETATM   16  C13 UNL     1      -2.819   2.509  -0.652  1.00  0.00     0.265 A 
HETATM   17  C14 UNL     1      -2.147   3.172  -1.751  1.00  0.00     0.265 A 
BRANCH  15  18
HETATM   18  C11 UNL     1      -0.630   3.127   0.221  1.00  0.00     0.263 C 
BRANCH  18  19
HETATM   19  C12 UNL     1      -0.355   4.555  -0.193  1.00  0.00     0.192 C 
BRANCH  19  20
HETATM   20  O2  UNL     1       0.386   4.598  -1.379  1.00  0.00    -0.399 OA
ATOM     21  H2  UNL     1       0.559   5.495  -1.639  1.00  0.00     0.209 HD
ENDBRANCH  19  20
ENDBRANCH  18  19
ENDBRANCH  15  18
ENDBRANCH  14  15
ENDBRANCH   1  14
BRANCH   1  22
HETATM   22  O3  UNL     1       0.577   0.297   0.441  1.00  0.00    -0.370 OA
BRANCH  22  23
HETATM   23  C15 UNL     1       1.826  -0.289   0.170  1.00  0.00     0.187 C 
HETATM   24  C16 UNL     1       2.212  -1.306   1.189  1.00  0.00     0.180 C 
HETATM   25  C17 UNL     1       3.672  -1.610   1.259  1.00  0.00     0.183 C 
HETATM   26  C18 UNL     1       4.536  -0.374   1.275  1.00  0.00     0.240 C 
HETATM   27  C19 UNL     1       5.500  -0.423   0.141  1.00  0.00     0.007 C 
HETATM   28  N3  UNL     1       3.730   0.822   1.099  1.00  0.00    -0.056 N 
HETATM   29  C20 UNL     1       5.081  -0.031  -1.035  1.00  0.00     0.005 C 
HETATM   30  C21 UNL     1       3.703   0.463  -1.327  1.00  0.00     0.174 C 
HETATM   31  C22 UNL     1       2.913   0.729  -0.083  1.00  0.00     0.250 C 
ATOM     32  H32 UNL     1       3.170   1.022   1.928  1.00  0.00     0.278 HD
ATOM     33  H31 UNL     1       4.305   1.664   1.092  1.00  0.00     0.278 HD
BRANCH  24  34
HETATM   34  O4  UNL     1       1.571  -2.532   0.901  1.00  0.00    -0.390 OA
ATOM     35  H4  UNL     1       1.817  -3.180   1.550  1.00  0.00     0.210 HD
ENDBRANCH  24  34
BRANCH  25  36
HETATM   36  O5  UNL     1       4.071  -2.524   0.273  1.00  0.00    -0.390 OA
ATOM     37  H5  UNL     1       5.000  -2.717   0.318  1.00  0.00     0.210 HD
ENDBRANCH  25  36
BRANCH  30  38
HETATM   38  O6  UNL     1       3.123  -0.407  -2.210  1.00  0.00    -0.390 OA
ATOM     39  H6  UNL     1       2.246  -0.093  -2.396  1.00  0.00     0.210 HD
ENDBRANCH  30  38
ENDBRANCH  22  23
ENDBRANCH   1  22
TORSDOF 15
