REMARK  8 active torsions:
REMARK  status: ('A' for Active; 'I' for Inactive)
REMARK    1  A    between atoms: C2_2  and  N1_3 
REMARK    2  A    between atoms: N1_3  and  C3_4 
REMARK       I    between atoms: N1_3  and  C9_12 
REMARK    3  A    between atoms: C3_4  and  C4_5 
REMARK    4  A    between atoms: C4_5  and  O2_7 
REMARK    5  A    between atoms: O2_7  and  C5_8 
REMARK       I    between atoms: C9_12  and  N3_16 
REMARK    6  A    between atoms: N3_16  and  C10_18 
REMARK    7  A    between atoms: C15_23  and  O3_24 
REMARK    8  A    between atoms: O3_24  and  C16_25 
ROOT
HETATM    1  N1  UNL     1      -0.612  -1.233   0.074  1.00  0.00    -0.208 N 
HETATM    2  C9  UNL     1       0.538  -0.741  -0.594  1.00  0.00     0.687 C 
HETATM    3  N2  UNL     1       1.315  -1.549  -1.201  1.00  0.00    -0.131 N 
ATOM      4  H2  UNL     1       2.144  -1.202  -1.683  1.00  0.00     0.199 HD
HETATM    5 CL1  UNL     1       0.950  -3.241  -1.199  1.00  0.00     0.026 Cl
HETATM    6  N3  UNL     1       0.858   0.644  -0.620  1.00  0.00    -0.218 N 
ATOM      7  H3  UNL     1       0.066   1.287  -0.596  1.00  0.00     0.178 HD
ENDROOT
BRANCH   1   8
HETATM    8  C2  UNL     1      -0.521  -1.606   1.480  1.00  0.00     0.137 C 
HETATM    9  C1  UNL     1      -0.683  -3.067   1.729  1.00  0.00     0.027 C 
ENDBRANCH   1   8
BRANCH   1  10
HETATM   10  C3  UNL     1      -1.853  -1.341  -0.662  1.00  0.00     0.252 C 
BRANCH  10  11
HETATM   11  C4  UNL     1      -2.881  -0.400  -0.250  1.00  0.00     0.278 C 
HETATM   12  O1  UNL     1      -2.669   0.413   0.672  1.00  0.00    -0.263 OA
BRANCH  11  13
HETATM   13  O2  UNL     1      -4.107  -0.397  -0.879  1.00  0.00    -0.310 OA
BRANCH  13  14
HETATM   14  C5  UNL     1      -5.156   0.487  -0.538  1.00  0.00     0.060 C 
HETATM   15  C6  UNL     1      -4.684   1.916  -0.734  1.00  0.00     0.045 C 
HETATM   16  C7  UNL     1      -6.292   0.260  -1.507  1.00  0.00     0.045 C 
HETATM   17  C8  UNL     1      -5.658   0.225   0.846  1.00  0.00     0.045 C 
ENDBRANCH  13  14
ENDBRANCH  11  13
ENDBRANCH  10  11
ENDBRANCH   1  10
BRANCH   6  18
HETATM   18  C10 UNL     1       2.134   1.238  -0.675  1.00  0.00     0.129 C 
HETATM   19  C11 UNL     1       2.955   0.808  -1.883  1.00  0.00     0.028 C 
HETATM   20  C12 UNL     1       4.003   1.913  -2.072  1.00  0.00     0.002 C 
HETATM   21  C13 UNL     1       4.814   2.137  -0.834  1.00  0.00     0.003 C 
HETATM   22  C14 UNL     1       4.016   2.291   0.421  1.00  0.00     0.035 C 
HETATM   23  C15 UNL     1       2.999   1.134   0.532  1.00  0.00     0.155 C 
BRANCH  23  24
HETATM   24  O3  UNL     1       3.789  -0.036   0.470  1.00  0.00    -0.314 OA
BRANCH  24  25
HETATM   25  C16 UNL     1       3.887  -0.954   1.507  1.00  0.00     0.255 C 
HETATM   26  C17 UNL     1       4.745  -2.181   1.381  1.00  0.00     0.126 C 
HETATM   27  O4  UNL     1       3.230  -0.714   2.549  1.00  0.00    -0.266 OA
ENDBRANCH  24  25
ENDBRANCH  23  24
ENDBRANCH   6  18
TORSDOF 8
