REMARK  7 active torsions:
REMARK  status: ('A' for Active; 'I' for Inactive)
REMARK    1  A    between atoms: C2_2  and  N1_5 
REMARK    2  A    between atoms: N1_5  and  C5_7 
REMARK    3  A    between atoms: C5_7  and  C6_8 
REMARK    4  A    between atoms: C5_7  and  C7_11 
REMARK    5  A    between atoms: C6_8  and  O1_9 
REMARK    6  A    between atoms: C10_15  and  N3_16 
REMARK    7  A    between atoms: N3_16  and  C11_19 
ROOT
HETATM    1  C7  UNL     1      -1.721   0.208  -0.064  1.00  0.00     0.085 C 
HETATM    2  N2  UNL     1      -0.395   0.029   0.154  1.00  0.00    -0.391 N 
HETATM    3  C8  UNL     1       0.309  -0.779   1.012  1.00  0.00     0.124 C 
HETATM    4  C9  UNL     1       1.730  -1.120   0.542  1.00  0.00     0.052 C 
HETATM    5  C10 UNL     1       2.402   0.057  -0.128  1.00  0.00     0.189 C 
HETATM    6  C16 UNL     1       1.489   0.664  -1.197  1.00  0.00     0.052 C 
HETATM    7  C17 UNL     1       0.242  -0.181  -1.212  1.00  0.00     0.124 C 
ENDROOT
BRANCH   1   8
HETATM    8  C5  UNL     1      -2.733   0.780   0.857  1.00  0.00     0.139 C 
BRANCH   8   9
HETATM    9  N1  UNL     1      -3.987   0.978   0.214  1.00  0.00    -0.403 N 
ATOM     10  H1  UNL     1      -4.224   1.966   0.125  1.00  0.00     0.154 HD
BRANCH   9  11
HETATM   11  C2  UNL     1      -4.925   0.187  -0.299  1.00  0.00     0.015 C 
HETATM   12  C1  UNL     1      -6.294   0.659   0.287  1.00  0.00     0.037 C 
HETATM   13  C3  UNL     1      -4.998  -1.280  -0.234  1.00  0.00     0.037 C 
HETATM   14  C4  UNL     1      -5.055   0.535  -1.816  1.00  0.00     0.037 C 
ENDBRANCH   9  11
ENDBRANCH   8   9
BRANCH   8  15
HETATM   15  C6  UNL     1      -3.003  -0.010   2.139  1.00  0.00     0.194 C 
BRANCH  15  16
HETATM   16  O1  UNL     1      -1.949  -0.255   2.953  1.00  0.00    -0.398 OA
ATOM     17  H1  UNL     1      -2.117  -0.746   3.749  1.00  0.00     0.209 HD
ENDBRANCH  15  16
ENDBRANCH   8  15
ENDBRANCH   1   8
BRANCH   5  18
HETATM   18  N3  UNL     1       3.611  -0.344  -0.771  1.00  0.00    -0.067 N 
ATOM     19  H32 UNL     1       3.417  -1.029  -1.501  1.00  0.00     0.278 HD
ATOM     20  H31 UNL     1       3.982   0.416  -1.341  1.00  0.00     0.278 HD
BRANCH  18  21
HETATM   21  C11 UNL     1       4.622  -0.839   0.131  1.00  0.00     0.186 C 
HETATM   22  C12 UNL     1       5.735  -1.411  -0.716  1.00  0.00     0.033 C 
HETATM   23  C13 UNL     1       6.791  -0.347  -0.838  1.00  0.00     0.002 C 
HETATM   24  C14 UNL     1       6.173   0.900  -0.259  1.00  0.00     0.002 C 
HETATM   25  C15 UNL     1       5.296   0.316   0.841  1.00  0.00     0.033 C 
ENDBRANCH  18  21
ENDBRANCH   5  18
TORSDOF 7
