REMARK  10 active torsions:
REMARK  status: ('A' for Active; 'I' for Inactive)
REMARK    1  A    between atoms: C2_2  and  C3_3 
REMARK    2  A    between atoms: C2_2  and  C7_10 
REMARK    3  A    between atoms: C3_3  and  C4_4 
REMARK    4  A    between atoms: C4_4  and  C5_5 
REMARK    5  A    between atoms: C5_5  and  C6_7 
REMARK    6  A    between atoms: C7_10  and  O4_11 
REMARK    7  A    between atoms: C9_14  and  O5_16 
REMARK    8  A    between atoms: C11_18  and  C12_19 
REMARK    9  A    between atoms: C12_19  and  O6_20 
REMARK   10  A    between atoms: C18_28  and  O8_29 
ROOT
HETATM    1  C7  UNL     1       0.263  -0.159   0.093  1.00  0.00     0.074 C 
HETATM    2  C8  UNL     1      -0.563   0.960  -0.386  1.00  0.00     0.079 C 
HETATM    3  C9  UNL     1      -1.599   1.081  -1.357  1.00  0.00     0.085 C 
HETATM    4  C10 UNL     1      -1.991   2.595  -1.177  1.00  0.00     0.049 C 
HETATM    5  C11 UNL     1      -2.822   0.381  -1.603  1.00  0.00     0.180 C 
HETATM    6  O7  UNL     1      -3.453  -0.514  -0.759  1.00  0.00    -0.362 OA
HETATM    7  C13 UNL     1      -2.543  -1.150  -0.036  1.00  0.00     0.128 C 
HETATM    8  C14 UNL     1      -1.683  -1.811  -0.947  1.00  0.00     0.047 C 
HETATM    9  C15 UNL     1      -0.447  -2.452  -0.300  1.00  0.00     0.019 C 
HETATM   10  C16 UNL     1      -0.248  -1.348   0.777  1.00  0.00     0.026 C 
HETATM   11  C17 UNL     1       0.803  -2.094   1.615  1.00  0.00     0.022 C 
HETATM   12  C18 UNL     1      -1.454  -1.420   1.578  1.00  0.00     0.134 C 
HETATM   13  C19 UNL     1      -2.677  -2.209   1.001  1.00  0.00     0.093 C 
HETATM   14  C20 UNL     1      -2.382  -0.407   1.173  1.00  0.00     0.196 C 
HETATM   15  O9  UNL     1      -2.770   0.588   1.716  1.00  0.00    -0.291 OA
ENDROOT
BRANCH   1  16
HETATM   16  C2  UNL     1       1.461   0.513   0.808  1.00  0.00     0.017 C 
HETATM   17  C1  UNL     1       1.164   1.100   2.121  1.00  0.00     0.013 C 
BRANCH  16  18
HETATM   18  C3  UNL     1       2.788  -0.107   0.586  1.00  0.00     0.015 C 
BRANCH  18  19
HETATM   19  C4  UNL     1       3.899   0.962   0.777  1.00  0.00     0.091 C 
BRANCH  19  20
HETATM   20  C5  UNL     1       5.217   0.374   0.563  1.00  0.00     0.225 C 
HETATM   21  O1  UNL     1       5.780  -0.351   1.441  1.00  0.00    -0.286 OA
BRANCH  20  22
HETATM   22  C6  UNL     1       5.928   0.610  -0.682  1.00  0.00     0.246 C 
HETATM   23  O2  UNL     1       5.376   1.324  -1.551  1.00  0.00    -0.642 OA
HETATM   24  O3  UNL     1       7.174   0.093  -0.962  1.00  0.00    -0.642 OA
ENDBRANCH  20  22
ENDBRANCH  19  20
ENDBRANCH  18  19
ENDBRANCH  16  18
ENDBRANCH   1  16
BRANCH   1  25
HETATM   25  O4  UNL     1       0.942  -0.599  -1.092  1.00  0.00    -0.388 OA
ATOM     26  H4  UNL     1       0.207  -1.011  -1.531  1.00  0.00     0.210 HD
ENDBRANCH   1  25
BRANCH   3  27
HETATM   27  O5  UNL     1      -1.015   1.264  -2.674  1.00  0.00    -0.387 OA
ATOM     28  H5  UNL     1      -1.706   1.345  -3.321  1.00  0.00     0.210 HD
ENDBRANCH   3  27
BRANCH  12  29
HETATM   29  O8  UNL     1      -1.357  -1.763   2.917  1.00  0.00    -0.381 OA
ATOM     30  H8  UNL     1      -2.147  -1.810   3.442  1.00  0.00     0.211 HD
ENDBRANCH  12  29
BRANCH   5  31
HETATM   31  C12 UNL     1      -4.022   1.270  -2.023  1.00  0.00     0.199 C 
BRANCH  31  32
HETATM   32  O6  UNL     1      -4.600   1.902  -0.962  1.00  0.00    -0.398 OA
ATOM     33  H6  UNL     1      -5.335   2.446  -1.219  1.00  0.00     0.209 HD
ENDBRANCH  31  32
ENDBRANCH   5  31
TORSDOF 10
