REMARK  4 active torsions:
REMARK  status: ('A' for Active; 'I' for Inactive)
REMARK    1  A    between atoms: C3_4  and  C4_5 
REMARK    2  A    between atoms: C4_5  and  N2_6 
REMARK    3  A    between atoms: C8_10  and  C9_11 
REMARK    4  A    between atoms: C13_21  and  C14_22 
ROOT
HETATM    1  C1  UNL     1       2.195  -0.443  -3.110  1.00  0.00     0.157 C 
HETATM    2  N1  UNL     1       1.430  -0.203  -1.897  1.00  0.00    -0.348 N 
HETATM    3  C2  UNL     1       0.098  -0.129  -1.773  1.00  0.00     0.122 A 
HETATM    4  C3  UNL     1      -0.176   0.107  -0.463  1.00  0.00     0.065 A 
HETATM    5  N5  UNL     1       0.999   0.171   0.184  1.00  0.00    -0.343 N 
ATOM      6  H5  UNL     1       1.115   0.338   1.184  1.00  0.00     0.167 HD
HETATM    7  C13 UNL     1       1.994  -0.019  -0.690  1.00  0.00     0.087 A 
ENDROOT
BRANCH   4   8
HETATM    8  C4  UNL     1      -1.485   0.271   0.187  1.00  0.00     0.121 C 
BRANCH   8   9
HETATM    9  N2  UNL     1      -2.600   0.164  -0.648  1.00  0.00    -0.367 N 
HETATM   10  C5  UNL     1      -2.824  -1.033  -1.353  1.00  0.00     0.127 C 
HETATM   11  C6  UNL     1      -4.074  -1.671  -0.727  1.00  0.00     0.021 C 
HETATM   12  C7  UNL     1      -5.223  -0.790  -1.144  1.00  0.00     0.018 C 
HETATM   13  C8  UNL     1      -5.025   0.569  -0.516  1.00  0.00     0.075 C 
HETATM   14  C12 UNL     1      -3.648   1.095  -0.531  1.00  0.00     0.074 C 
BRANCH  13  15
HETATM   15  C9  UNL     1      -5.644   0.537   0.832  1.00  0.00     0.036 A 
HETATM   16  C10 UNL     1      -6.801   1.211   1.162  1.00  0.00     0.046 A 
HETATM   17  C11 UNL     1      -7.114   0.982   2.490  1.00  0.00     0.109 A 
HETATM   18  N3  UNL     1      -6.134   0.170   2.936  1.00  0.00    -0.312 N 
HETATM   19  N4  UNL     1      -5.278  -0.085   1.955  1.00  0.00    -0.304 N 
ATOM     20  H3  UNL     1      -6.062  -0.194   3.886  1.00  0.00     0.186 HD
ATOM     21  H4  UNL     1      -4.452  -0.676   2.046  1.00  0.00     0.186 HD
ENDBRANCH  13  15
ENDBRANCH   8   9
ENDBRANCH   4   8
BRANCH   7  22
HETATM   22  C14 UNL     1       3.467  -0.028  -0.394  1.00  0.00     0.054 C 
HETATM   23  C15 UNL     1       3.804  -1.193   0.522  1.00  0.00     0.015 C 
HETATM   24  C16 UNL     1       5.062  -0.862   1.285  1.00  0.00     0.044 C 
HETATM   25  C17 UNL     1       6.023  -0.071   0.425  1.00  0.00     0.100 C 
HETATM   26  C18 UNL     1       7.332   0.050   1.203  1.00  0.00     0.051 C 
HETATM   27  F1  UNL     1       6.327  -0.847  -0.687  1.00  0.00    -0.243 F 
HETATM   28  C19 UNL     1       5.473   1.277   0.046  1.00  0.00     0.044 C 
HETATM   29  C20 UNL     1       3.944   1.281   0.155  1.00  0.00     0.015 C 
ENDBRANCH   7  22
TORSDOF 4
