REMARK  3 active torsions:
REMARK  status: ('A' for Active; 'I' for Inactive)
REMARK    1  A    between atoms: C8_12  and  N2_13 
REMARK    2  A    between atoms: C10_15  and  C11_16 
REMARK    3  A    between atoms: C11_16  and  O1_17 
ROOT
HETATM    1  C1  UNL     1      -0.325   2.962  -0.944  1.00  0.00     0.012 C 
HETATM    2  C2  UNL     1      -0.804   1.873  -0.720  1.00  0.00    -0.107 C 
HETATM    3  C3  UNL     1      -1.369   0.556  -0.438  1.00  0.00     0.124 C 
HETATM    4  C4  UNL     1      -2.803   0.724   0.014  1.00  0.00     0.189 C 
HETATM    5  F1  UNL     1      -3.562   1.038  -1.083  1.00  0.00    -0.248 F 
HETATM    6  C5  UNL     1      -3.332  -0.512   0.698  1.00  0.00     0.066 C 
HETATM    7  C6  UNL     1      -2.944  -1.727  -0.085  1.00  0.00     0.235 C 
HETATM    8  N1  UNL     1      -1.806  -2.329   0.578  1.00  0.00    -0.073 N 
ATOM      9  H11 UNL     1      -1.773  -3.336   0.417  1.00  0.00     0.277 HD
ATOM     10  H12 UNL     1      -1.926  -2.333   1.591  1.00  0.00     0.277 HD
HETATM   11  C7  UNL     1      -0.561  -1.693   0.198  1.00  0.00     0.260 C 
HETATM   12  C8  UNL     1      -0.547  -0.215   0.540  1.00  0.00     0.151 C 
ENDROOT
BRANCH  12  13
HETATM   13  N2  UNL     1       0.847   0.236   0.574  1.00  0.00    -0.295 N 
HETATM   14  C9  UNL     1       1.879  -0.289  -0.113  1.00  0.00     0.121 A 
HETATM   15  C10 UNL     1       3.034   0.407   0.182  1.00  0.00    -0.001 A 
HETATM   16  C12 UNL     1       2.648   1.380   1.082  1.00  0.00     0.118 A 
HETATM   17  N3  UNL     1       1.342   1.228   1.275  1.00  0.00    -0.309 N 
ATOM     18  H3  UNL     1       0.788   1.816   1.897  1.00  0.00     0.186 HD
BRANCH  15  19
HETATM   19  C11 UNL     1       4.417   0.173  -0.350  1.00  0.00     0.205 C 
BRANCH  19  20
HETATM   20  O1  UNL     1       4.636   0.915  -1.515  1.00  0.00    -0.396 OA
ATOM     21  H1  UNL     1       5.512   0.767  -1.852  1.00  0.00     0.209 HD
ENDBRANCH  19  20
ENDBRANCH  15  19
ENDBRANCH  12  13
TORSDOF 3
