REMARK  4 active torsions:
REMARK  status: ('A' for Active; 'I' for Inactive)
REMARK    1  A    between atoms: C5_7  and  N2_8 
REMARK    2  A    between atoms: N2_8  and  C6_10 
REMARK    3  A    between atoms: C6_10  and  C7_11 
REMARK    4  A    between atoms: C7_11  and  C8_12 
ROOT
HETATM    1  C1  UNL     1       5.273   0.444   1.043  1.00  0.00     0.002 A 
HETATM    2  C2  UNL     1       4.967  -0.325  -0.053  1.00  0.00     0.002 A 
HETATM    3  C3  UNL     1       3.643  -0.665  -0.353  1.00  0.00     0.032 A 
HETATM    4  C4  UNL     1       2.641  -0.211   0.478  1.00  0.00     0.077 A 
HETATM    5  N1  UNL     1       1.339  -0.499   0.252  1.00  0.00    -0.188 N 
ATOM      6  H1  UNL     1       1.102  -1.070  -0.559  1.00  0.00     0.184 HD
HETATM    7  C5  UNL     1       0.341  -0.069   1.046  1.00  0.00     0.693 A 
HETATM    8  N4  UNL     1       0.672   0.688   2.120  1.00  0.00    -0.132 N 
ATOM      9  H4  UNL     1      -0.061   1.030   2.742  1.00  0.00     0.205 HD
HETATM   10  N5  UNL     1       1.936   0.988   2.370  1.00  0.00    -0.284 N 
ATOM     11  H5  UNL     1       2.157   1.559   3.186  1.00  0.00     0.187 HD
HETATM   12  C12 UNL     1       2.937   0.563   1.582  1.00  0.00     0.075 A 
HETATM   13  C13 UNL     1       4.262   0.877   1.843  1.00  0.00     0.033 A 
ENDROOT
BRANCH   7  14
HETATM   14  N2  UNL     1      -0.882  -0.378   0.777  1.00  0.00    -0.224 N 
ATOM     15  H2  UNL     1      -1.635  -0.050   1.382  1.00  0.00     0.177 HD
BRANCH  14  16
HETATM   16  C6  UNL     1      -1.185  -1.181  -0.370  1.00  0.00     0.142 C 
BRANCH  16  17
HETATM   17  C7  UNL     1      -2.654  -1.526  -0.465  1.00  0.00     0.060 C 
BRANCH  17  18
HETATM   18  C8  UNL     1      -3.396  -0.243  -0.557  1.00  0.00    -0.040 A 
HETATM   19  C9  UNL     1      -3.905   0.534   0.467  1.00  0.00     0.025 A 
HETATM   20  C10 UNL     1      -4.525   1.649  -0.049  1.00  0.00     0.088 A 
HETATM   21  N3  UNL     1      -4.405   1.567  -1.386  1.00  0.00    -0.375 N 
HETATM   22  C11 UNL     1      -3.737   0.450  -1.715  1.00  0.00     0.094 A 
ATOM     23  H3  UNL     1      -4.767   2.251  -2.050  1.00  0.00     0.164 HD
ENDBRANCH  17  18
ENDBRANCH  16  17
ENDBRANCH  14  16
ENDBRANCH   7  14
TORSDOF 4
