REMARK  16 active torsions:
REMARK  status: ('A' for Active; 'I' for Inactive)
REMARK    1  A    between atoms: C2_2  and  C4_4 
REMARK    2  A    between atoms: C4_4  and  C5_5 
REMARK    3  A    between atoms: C5_5  and  C6_6 
REMARK    4  A    between atoms: C6_6  and  C7_7 
REMARK    5  A    between atoms: C7_7  and  C8_8 
REMARK    6  A    between atoms: C8_8  and  C9_9 
REMARK    7  A    between atoms: C10_12  and  C11_13 
REMARK    8  A    between atoms: C17_21  and  C18_22 
REMARK    9  A    between atoms: C18_22  and  C19_23 
REMARK   10  A    between atoms: C19_23  and  C20_24 
REMARK   11  A    between atoms: C20_24  and  C21_25 
REMARK   12  A    between atoms: C21_25  and  N3_26 
REMARK   13  A    between atoms: C24_34  and  C25_35 
REMARK   14  A    between atoms: C25_35  and  C26_36 
REMARK   15  A    between atoms: C30_43  and  C31_44 
REMARK   16  A    between atoms: C31_44  and  C32_45 
ROOT
HETATM    1  C9  UNL     1       1.930   0.854  -0.357  1.00  0.00     0.169 C 
HETATM    2  N1  UNL     1       1.917  -0.463  -0.794  1.00  0.00    -0.403 N 
ATOM      3  H1  UNL     1       2.796  -0.829  -1.160  1.00  0.00     0.154 HD
HETATM    4  C10 UNL     1       0.837  -1.337  -0.787  1.00  0.00     0.098 C 
HETATM    5  C14 UNL     1       0.330  -1.952   0.437  1.00  0.00     0.150 C 
HETATM    6  N2  UNL     1      -0.680  -2.954   0.107  1.00  0.00    -0.353 N 
HETATM    7  C15 UNL     1      -0.388  -4.344   0.341  1.00  0.00     0.152 C 
HETATM    8  C16 UNL     1      -1.943  -2.591  -0.448  1.00  0.00     0.242 C 
HETATM    9  O1  UNL     1      -2.442  -3.370  -1.336  1.00  0.00    -0.271 OA
HETATM   10  C17 UNL     1      -2.704  -1.407  -0.093  1.00  0.00     0.179 C 
HETATM   11  N4  UNL     1      -3.647  -0.996  -1.134  1.00  0.00    -0.341 N 
HETATM   12  C22 UNL     1      -4.639  -1.931  -1.581  1.00  0.00     0.153 C 
HETATM   13  C23 UNL     1      -3.638   0.289  -1.738  1.00  0.00     0.243 C 
HETATM   14  O2  UNL     1      -4.241   0.418  -2.836  1.00  0.00    -0.271 OA
HETATM   15  C24 UNL     1      -2.979   1.475  -1.177  1.00  0.00     0.177 C 
HETATM   16  N5  UNL     1      -1.696   1.663  -1.808  1.00  0.00    -0.346 N 
ATOM     17  H5  UNL     1      -1.427   1.021  -2.554  1.00  0.00     0.163 HD
HETATM   18  C29 UNL     1      -0.786   2.692  -1.448  1.00  0.00     0.241 C 
HETATM   19  O3  UNL     1      -0.164   3.254  -2.376  1.00  0.00    -0.271 OA
HETATM   20  C30 UNL     1      -0.522   3.149  -0.055  1.00  0.00     0.177 C 
HETATM   21  N6  UNL     1       0.016   2.180   0.818  1.00  0.00    -0.346 N 
ATOM     22  H6  UNL     1      -0.509   2.087   1.688  1.00  0.00     0.163 HD
HETATM   23  C35 UNL     1       1.117   1.319   0.744  1.00  0.00     0.240 C 
HETATM   24  O4  UNL     1       1.514   0.823   1.875  1.00  0.00    -0.271 OA
ENDROOT
BRANCH   1  25
HETATM   25  C8  UNL     1       3.425   1.203  -0.131  1.00  0.00     0.034 C 
BRANCH  25  26
HETATM   26  C7  UNL     1       4.246   1.083  -1.365  1.00  0.00     0.002 C 
BRANCH  26  27
HETATM   27  C6  UNL     1       5.670   1.478  -0.999  1.00  0.00     0.000 C 
BRANCH  27  28
HETATM   28  C5  UNL     1       6.264   0.611   0.061  1.00  0.00     0.000 C 
BRANCH  28  29
HETATM   29  C4  UNL     1       6.317  -0.851  -0.379  1.00  0.00     0.004 C 
BRANCH  29  30
HETATM   30  C2  UNL     1       6.934  -1.685   0.748  1.00  0.00    -0.023 C 
HETATM   31  C1  UNL     1       7.015  -3.130   0.381  1.00  0.00     0.009 C 
HETATM   32  C3  UNL     1       8.290  -1.145   1.132  1.00  0.00     0.009 C 
ENDBRANCH  29  30
ENDBRANCH  28  29
ENDBRANCH  27  28
ENDBRANCH  26  27
ENDBRANCH  25  26
ENDBRANCH   1  25
BRANCH   4  33
HETATM   33  C11 UNL     1       1.185  -2.477  -1.771  1.00  0.00     0.001 C 
HETATM   34  C12 UNL     1       1.400  -1.866  -3.167  1.00  0.00     0.011 C 
HETATM   35  C13 UNL     1       2.521  -3.105  -1.409  1.00  0.00     0.011 C 
ENDBRANCH   4  33
BRANCH  20  36
HETATM   36  C31 UNL     1       0.124   4.510  -0.055  1.00  0.00     0.038 C 
BRANCH  36  37
HETATM   37  C32 UNL     1       0.432   5.140   1.230  1.00  0.00    -0.020 C 
HETATM   38  C33 UNL     1       1.383   4.426   2.139  1.00  0.00     0.009 C 
HETATM   39  C34 UNL     1      -0.780   5.547   2.042  1.00  0.00     0.009 C 
ENDBRANCH  36  37
ENDBRANCH  20  36
BRANCH  10  40
HETATM   40  C18 UNL     1      -3.272  -1.398   1.270  1.00  0.00     0.035 C 
BRANCH  40  41
HETATM   41  C19 UNL     1      -4.237  -2.366   1.765  1.00  0.00     0.004 C 
BRANCH  41  42
HETATM   42  C20 UNL     1      -3.885  -3.813   1.853  1.00  0.00     0.027 C 
BRANCH  42  43
HETATM   43  C21 UNL     1      -5.079  -4.608   2.443  1.00  0.00     0.229 C 
BRANCH  43  44
HETATM   44  N3  UNL     1      -5.404  -4.129   3.762  1.00  0.00    -0.079 N 
ATOM     45  H33 UNL     1      -4.594  -4.147   4.382  1.00  0.00     0.274 HD
ATOM     46  H32 UNL     1      -5.578  -3.124   3.768  1.00  0.00     0.274 HD
ATOM     47  H31 UNL     1      -6.189  -4.652   4.150  1.00  0.00     0.274 HD
ENDBRANCH  43  44
ENDBRANCH  42  43
ENDBRANCH  41  42
ENDBRANCH  40  41
ENDBRANCH  10  40
BRANCH  15  48
HETATM   48  C25 UNL     1      -3.844   2.672  -1.518  1.00  0.00     0.038 C 
BRANCH  48  49
HETATM   49  C26 UNL     1      -5.233   2.543  -0.934  1.00  0.00    -0.020 C 
HETATM   50  C27 UNL     1      -6.004   3.789  -1.337  1.00  0.00     0.009 C 
HETATM   51  C28 UNL     1      -5.224   2.476   0.566  1.00  0.00     0.009 C 
ENDBRANCH  48  49
ENDBRANCH  15  48
TORSDOF 16
