REMARK  4 active torsions:
REMARK  status: ('A' for Active; 'I' for Inactive)
REMARK    1  A    between atoms: C2_2  and  C6_7 
REMARK    2  A    between atoms: C3_3  and  N1_4 
REMARK    3  A    between atoms: C6_7  and  N2_8 
REMARK       I    between atoms: N4_15  and  C10_17 
REMARK    4  A    between atoms: C10_17  and  C11_19 
ROOT
HETATM    1  N2  UNL     1      -0.126  -1.903   0.626  1.00  0.00    -0.272 N 
HETATM    2  N3  UNL     1      -0.333  -3.200   0.565  1.00  0.00    -0.306 N 
ATOM      3  H3  UNL     1      -0.006  -3.869   1.262  1.00  0.00     0.186 HD
HETATM    4  C7  UNL     1      -1.026  -3.528  -0.526  1.00  0.00     0.130 A 
HETATM    5  C8  UNL     1      -1.255  -2.323  -1.178  1.00  0.00     0.073 A 
HETATM    6 BR1  UNL     1      -2.211  -2.194  -2.815  1.00  0.00    -0.045 Br
HETATM    7  C9  UNL     1      -0.678  -1.290  -0.437  1.00  0.00     0.144 A 
HETATM    8  N4  UNL     1      -0.687  -0.041  -0.722  1.00  0.00    -0.310 N 
ATOM      9  H4  UNL     1      -0.216   0.577  -0.061  1.00  0.00     0.170 HD
HETATM   10  C10 UNL     1      -1.270   0.571  -1.838  1.00  0.00     0.226 C 
HETATM   11  O1  UNL     1      -0.712   0.605  -2.982  1.00  0.00    -0.273 OA
ENDROOT
BRANCH   1  12
HETATM   12  C6  UNL     1       0.605  -1.283   1.713  1.00  0.00     0.186 C 
BRANCH  12  13
HETATM   13  C2  UNL     1       2.050  -1.192   1.501  1.00  0.00    -0.049 C 
HETATM   14  C1  UNL     1       2.882  -2.417   1.215  1.00  0.00     0.046 C 
HETATM   15  C3  UNL     1       2.676  -0.046   1.531  1.00  0.00     0.088 C 
BRANCH  15  16
HETATM   16  N1  UNL     1       2.084   1.231   1.785  1.00  0.00    -0.398 N 
HETATM   17  C4  UNL     1       1.976   2.169   0.693  1.00  0.00     0.148 C 
HETATM   18  C5  UNL     1       1.646   1.517   3.123  1.00  0.00     0.148 C 
ENDBRANCH  15  16
ENDBRANCH  12  13
ENDBRANCH   1  12
BRANCH  10  19
HETATM   19  C11 UNL     1      -2.604   1.230  -1.736  1.00  0.00     0.070 C 
HETATM   20  C12 UNL     1      -2.539   2.380  -0.720  1.00  0.00     0.019 C 
HETATM   21  C13 UNL     1      -2.978   1.860  -3.050  1.00  0.00     0.019 C 
ENDBRANCH  10  19
TORSDOF 4
