REMARK  0 active torsions:
REMARK  status: ('A' for Active; 'I' for Inactive)
ROOT
HETATM    1  N1  UNL     1       2.408   1.643  -0.509  1.00  0.00    -0.389 N 
ATOM      2  H11 UNL     1       2.175   2.634  -0.575  1.00  0.00     0.157 HD
ATOM      3  H12 UNL     1       3.222   1.086  -0.768  1.00  0.00     0.157 HD
HETATM    4  C1  UNL     1       1.474   0.924   0.017  1.00  0.00     0.070 C 
HETATM    5  C2  UNL     1       1.817  -0.534   0.114  1.00  0.00     0.075 C 
HETATM    6  C3  UNL     1       0.708  -1.283  -0.633  1.00  0.00     0.007 C 
HETATM    7  C4  UNL     1      -0.464  -1.536   0.269  1.00  0.00     0.000 C 
HETATM    8  C5  UNL     1      -1.726  -0.866  -0.171  1.00  0.00     0.002 C 
HETATM    9  C6  UNL     1      -1.639   0.608  -0.342  1.00  0.00     0.020 C 
HETATM   10  C7  UNL     1      -0.988   1.334   0.793  1.00  0.00     0.121 C 
HETATM   11  N2  UNL     1       0.355   1.689   0.373  1.00  0.00    -0.380 N 
ATOM     12  H2  UNL     1       0.517   2.695   0.328  1.00  0.00     0.160 HD
ENDROOT
TORSDOF 0
