REMARK  1 active torsions:
REMARK  status: ('A' for Active; 'I' for Inactive)
REMARK    1  A    between atoms: C2_2  and  C3_3 
ROOT
HETATM    1  C3  UNL     1       1.159   0.381  -0.569  1.00  0.00     0.189 C 
HETATM    2  O1  UNL     1       0.711   1.339   0.303  1.00  0.00    -0.230 OA
HETATM    3  O2  UNL     1      -0.393   1.049   0.914  1.00  0.00    -0.201 OA
HETATM    4  C4  UNL     1      -1.436   0.678   0.117  1.00  0.00     0.194 C 
HETATM    5  C5  UNL     1      -2.338   1.890  -0.117  1.00  0.00     0.082 C 
HETATM    6  C6  UNL     1      -2.217  -0.416   0.857  1.00  0.00     0.071 C 
HETATM    7  C7  UNL     1      -1.726  -1.731   0.262  1.00  0.00     0.008 C 
HETATM    8  C8  UNL     1      -0.225  -1.600   0.103  1.00  0.00     0.035 C 
HETATM    9  C9  UNL     1       0.075  -0.574  -0.954  1.00  0.00     0.157 C 
HETATM   10  O3  UNL     1      -1.081   0.220  -1.138  1.00  0.00    -0.345 OA
ENDROOT
BRANCH   1  11
HETATM   11  C2  UNL     1       2.410  -0.318  -0.089  1.00  0.00     0.033 C 
HETATM   12  C1  UNL     1       3.532   0.684   0.091  1.00  0.00     0.007 C 
ENDBRANCH   1  11
TORSDOF 1
