REMARK  2 active torsions:
REMARK  status: ('A' for Active; 'I' for Inactive)
REMARK    1  A    between atoms: O1_2  and  C2_3 
REMARK    2  A    between atoms: C2_3  and  C3_5 
ROOT
HETATM    1  C3  UNL     1       0.541   0.051  -0.246  1.00  0.00     0.046 C 
HETATM    2  C4  UNL     1      -0.128  -0.507   0.733  1.00  0.00     0.026 C 
HETATM    3  C5  UNL     1      -1.583  -0.500   0.467  1.00  0.00     0.138 C 
HETATM    4  C6  UNL     1      -2.263   0.105   1.670  1.00  0.00     0.050 C 
HETATM    5  C7  UNL     1      -2.126  -1.901   0.278  1.00  0.00     0.050 C 
HETATM    6  N1  UNL     1      -1.742   0.266  -0.730  1.00  0.00    -0.056 N 
ATOM      7  H11 UNL     1      -2.266   1.130  -0.587  1.00  0.00     0.279 HD
ATOM      8  H12 UNL     1      -2.381  -0.163  -1.400  1.00  0.00     0.279 HD
HETATM    9  C8  UNL     1      -0.423   0.485  -1.265  1.00  0.00     0.221 C 
HETATM   10  C9  UNL     1      -0.307   1.937  -1.634  1.00  0.00     0.045 C 
ENDROOT
BRANCH   1  11
HETATM   11  C2  UNL     1       1.974   0.207  -0.302  1.00  0.00     0.290 C 
HETATM   12  O2  UNL     1       2.526   0.765  -1.300  1.00  0.00    -0.260 OA
BRANCH  11  13
HETATM   13  O1  UNL     1       2.837  -0.225   0.697  1.00  0.00    -0.323 OA
HETATM   14  C1  UNL     1       4.242  -0.052   0.604  1.00  0.00     0.213 C 
ENDBRANCH  11  13
ENDBRANCH   1  11
TORSDOF 2
