REMARK  3 active torsions:
REMARK  status: ('A' for Active; 'I' for Inactive)
REMARK       I    between atoms: C2_2  and  N1_4 
REMARK    1  A    between atoms: N1_4  and  N2_6 
REMARK    2  A    between atoms: N3_8  and  O2_9 
REMARK    3  A    between atoms: N3_8  and  C3_11 
ROOT
HETATM    1  N2  UNL     1       0.860   0.164  -0.514  1.00  0.00    -0.218 N 
ATOM      2  H2  UNL     1       0.743   0.531  -1.459  1.00  0.00     0.210 HD
HETATM    3  N3  UNL     1      -0.148  -0.367  -0.007  1.00  0.00    -0.178 N 
ENDROOT
BRANCH   1   4
HETATM    4  N1  UNL     1       2.103   0.317   0.036  1.00  0.00    -0.254 N 
HETATM    5  C2  UNL     1       2.378   1.139   1.152  1.00  0.00     0.233 C 
HETATM    6  C1  UNL     1       3.741   1.263   1.700  1.00  0.00     0.119 C 
HETATM    7  O1  UNL     1       1.429   1.766   1.671  1.00  0.00    -0.272 OA
ATOM      8  H1  UNL     1       2.879  -0.194  -0.385  1.00  0.00     0.191 HD
ENDBRANCH   1   4
BRANCH   3   9
HETATM    9  O2  UNL     1       0.028  -0.857   1.269  1.00  0.00    -0.270 OA
ATOM     10  H2  UNL     1      -0.740  -1.262   1.655  1.00  0.00     0.246 HD
ENDBRANCH   3   9
BRANCH   3  11
HETATM   11  C3  UNL     1      -1.436  -0.519  -0.594  1.00  0.00     0.067 C 
HETATM   12  C4  UNL     1      -1.819  -2.002  -0.693  1.00  0.00     0.042 C 
HETATM   13  C5  UNL     1      -1.578   0.103  -1.953  1.00  0.00     0.042 C 
HETATM   14  C6  UNL     1      -2.437   0.206   0.307  1.00  0.00     0.042 C 
ENDBRANCH   3  11
TORSDOF 3
