REMARK  2 active torsions:
REMARK  status: ('A' for Active; 'I' for Inactive)
REMARK    1  A    between atoms: C2_2  and  C4_4 
REMARK    2  A    between atoms: C6_8  and  N2_9 
ROOT
HETATM    1  C4  UNL     1      -1.091  -0.146   0.482  1.00  0.00     0.076 C 
HETATM    2  C5  UNL     1      -0.377   1.171   0.701  1.00  0.00     0.137 C 
HETATM    3  N1  UNL     1       1.027   0.991   0.706  1.00  0.00    -0.370 N 
ATOM      4  H1  UNL     1       1.623   1.627   1.236  1.00  0.00     0.161 HD
HETATM    5  C6  UNL     1       1.537   0.041   0.053  1.00  0.00     0.137 C 
HETATM    6  S1  UNL     1       0.151  -0.831  -0.700  1.00  0.00    -0.087 SA
ENDROOT
BRANCH   1   7
HETATM    7  C2  UNL     1      -2.394   0.124  -0.198  1.00  0.00    -0.007 C 
HETATM    8  C1  UNL     1      -3.186  -1.129  -0.462  1.00  0.00     0.011 C 
HETATM    9  C3  UNL     1      -3.225   0.984   0.735  1.00  0.00     0.011 C 
ENDBRANCH   1   7
BRANCH   5  10
HETATM   10  N2  UNL     1       2.916  -0.288  -0.057  1.00  0.00    -0.371 N 
HETATM   11  C7  UNL     1       3.791   0.727  -0.612  1.00  0.00     0.151 C 
HETATM   12  C8  UNL     1       3.459  -1.568   0.357  1.00  0.00     0.151 C 
ENDBRANCH   5  10
TORSDOF 2
