REMARK  11 active torsions:
REMARK  status: ('A' for Active; 'I' for Inactive)
REMARK    1  A    between atoms: C5_7  and  O3_8 
REMARK    2  A    between atoms: C7_12  and  O5_13 
REMARK    3  A    between atoms: C7_12  and  C8_15 
REMARK    4  A    between atoms: C8_15  and  O6_16 
REMARK    5  A    between atoms: C8_15  and  C9_18 
REMARK    6  A    between atoms: C9_18  and  O7_19 
REMARK    7  A    between atoms: C9_18  and  O8_21 
REMARK    8  A    between atoms: C9_18  and  C10_23 
REMARK    9  A    between atoms: C10_23  and  O9_24 
REMARK   10  A    between atoms: C11_26  and  O10_27 
REMARK   11  A    between atoms: C11_26  and  O11_29 
ROOT
HETATM    1  C1  UNL     1       4.285  -1.078   1.200  1.00  0.00     0.028 C 
HETATM    2  C2  UNL     1       3.597  -0.198   0.511  1.00  0.00     0.022 A 
HETATM    3  C3  UNL     1       4.280   0.947  -0.132  1.00  0.00     0.234 A 
HETATM    4  O1  UNL     1       5.533   1.023   0.018  1.00  0.00    -0.283 OA
HETATM    5  C4  UNL     1       3.519   1.907  -0.884  1.00  0.00     0.258 A 
HETATM    6  O2  UNL     1       4.096   2.875  -1.429  1.00  0.00    -0.281 OA
HETATM    7  C5  UNL     1       2.099   1.768  -1.017  1.00  0.00     0.155 A 
HETATM    8  C6  UNL     1       1.443   0.760  -0.459  1.00  0.00     0.121 A 
HETATM    9  O4  UNL     1       0.053   0.604  -0.571  1.00  0.00    -0.302 OA
HETATM   10  C7  UNL     1      -0.561  -0.010   0.566  1.00  0.00     0.261 C 
HETATM   11  C11 UNL     1      -0.017  -1.376   0.671  1.00  0.00     0.242 C 
HETATM   12  C12 UNL     1       1.483  -1.275   0.856  1.00  0.00     0.061 C 
HETATM   13  C13 UNL     1       2.144  -0.273   0.328  1.00  0.00     0.015 A 
ENDROOT
BRANCH  10  14
HETATM   14  O5  UNL     1      -0.059   0.697   1.713  1.00  0.00    -0.358 OA
ATOM     15  H5  UNL     1      -0.467   0.289   2.468  1.00  0.00     0.213 HD
ENDBRANCH  10  14
BRANCH  10  16
HETATM   16  C8  UNL     1      -2.031   0.198   0.630  1.00  0.00     0.251 C 
BRANCH  16  17
HETATM   17  O6  UNL     1      -2.154   1.633   0.698  1.00  0.00    -0.384 OA
ATOM     18  H6  UNL     1      -3.094   1.766   0.739  1.00  0.00     0.210 HD
ENDBRANCH  16  17
BRANCH  16  19
HETATM   19  C9  UNL     1      -2.872  -0.336  -0.455  1.00  0.00     0.213 C 
BRANCH  19  20
HETATM   20  O7  UNL     1      -2.827  -1.717  -0.485  1.00  0.00    -0.362 OA
ATOM     21  H7  UNL     1      -3.369  -2.061  -1.185  1.00  0.00     0.213 HD
ENDBRANCH  19  20
BRANCH  19  22
HETATM   22  O8  UNL     1      -2.432   0.068  -1.739  1.00  0.00    -0.362 OA
ATOM     23  H8  UNL     1      -2.974  -0.276  -2.439  1.00  0.00     0.213 HD
ENDBRANCH  19  22
BRANCH  19  24
HETATM   24  C10 UNL     1      -4.320   0.058  -0.388  1.00  0.00     0.235 C 
BRANCH  24  25
HETATM   25  O9  UNL     1      -4.538   1.413  -0.352  1.00  0.00    -0.395 OA
ATOM     26  H9  UNL     1      -5.454   1.662  -0.310  1.00  0.00     0.209 HD
ENDBRANCH  24  25
ENDBRANCH  19  24
ENDBRANCH  16  19
ENDBRANCH  10  16
BRANCH  11  27
HETATM   27  O10 UNL     1      -0.509  -2.127   1.709  1.00  0.00    -0.358 OA
ATOM     28  H10 UNL     1      -0.158  -3.007   1.777  1.00  0.00     0.213 HD
ENDBRANCH  11  27
BRANCH  11  29
HETATM   29  O11 UNL     1      -0.130  -2.140  -0.505  1.00  0.00    -0.358 OA
ATOM     30  H11 UNL     1       0.221  -3.020  -0.437  1.00  0.00     0.213 HD
ENDBRANCH  11  29
BRANCH   7  31
HETATM   31  O3  UNL     1       1.356   2.709  -1.752  1.00  0.00    -0.355 OA
ATOM     32  H3  UNL     1       0.415   2.617  -1.840  1.00  0.00     0.218 HD
ENDBRANCH   7  31
TORSDOF 11
