REMARK  12 active torsions:
REMARK  status: ('A' for Active; 'I' for Inactive)
REMARK    1  A    between atoms: C3_3  and  N1_4 
REMARK    2  A    between atoms: N1_4  and  C4_5 
REMARK    3  A    between atoms: C7_8  and  O1_9 
REMARK    4  A    between atoms: C7_8  and  N2_11 
REMARK    5  A    between atoms: C8_12  and  C9_13 
REMARK    6  A    between atoms: C9_13  and  N3_14 
REMARK    7  A    between atoms: N3_14  and  N4_16 
REMARK    8  A    between atoms: N5_22  and  C14_23 
REMARK    9  A    between atoms: C14_23  and  C16_25 
REMARK   10  A    between atoms: C16_25  and  O2_26 
REMARK   11  A    between atoms: C22_34  and  C23_35 
REMARK   12  A    between atoms: C29_43  and  C30_44 
ROOT
HETATM    1  C1  UNL     1      -5.220   2.322   1.644  1.00  0.00     0.013 C 
HETATM    2  C2  UNL     1      -4.605   2.178   0.618  1.00  0.00    -0.089 C 
HETATM    3  C3  UNL     1      -3.879   2.034  -0.618  1.00  0.00     0.337 C 
ENDROOT
BRANCH   3   4
HETATM    4  N1  UNL     1      -2.934   0.942  -0.723  1.00  0.00    -0.014 N 
HETATM    5  C6  UNL     1      -2.354   0.523   0.538  1.00  0.00     0.167 C 
HETATM    6  C7  UNL     1      -0.957   0.577   0.859  1.00  0.00     0.174 C 
HETATM    7  C24 UNL     1      -3.080  -0.563   1.272  1.00  0.00     0.079 C 
HETATM    8  C25 UNL     1      -4.166  -1.316   0.623  1.00  0.00    -0.040 C 
HETATM    9  C26 UNL     1      -3.748  -2.770   0.315  1.00  0.00     0.015 C 
HETATM   10  C27 UNL     1      -5.377  -1.534   1.552  1.00  0.00     0.015 C 
HETATM   11  C28 UNL     1      -4.673  -0.732  -0.641  1.00  0.00     0.052 C 
HETATM   12  C29 UNL     1      -3.426  -0.223  -1.392  1.00  0.00     0.304 C 
BRANCH   4  13
HETATM   13  C4  UNL     1      -1.856   1.534  -1.528  1.00  0.00     0.241 C 
HETATM   14  C5  UNL     1      -2.238   2.581  -2.510  1.00  0.00     0.035 C 
ENDBRANCH   4  13
BRANCH   6  15
HETATM   15  O1  UNL     1      -0.687   1.754   1.367  1.00  0.00    -0.344 OA
ATOM     16  H1  UNL     1       0.238   1.790   1.580  1.00  0.00     0.219 HD
ENDBRANCH   6  15
BRANCH   6  17
HETATM   17  N2  UNL     1       0.238  -0.174   0.830  1.00  0.00    -0.317 N 
HETATM   18  C8  UNL     1       1.479   0.402   1.278  1.00  0.00     0.112 C 
HETATM   19  C11 UNL     1       2.328   1.003   0.156  1.00  0.00     0.024 C 
HETATM   20  C12 UNL     1       2.416   2.518   0.265  1.00  0.00     0.014 C 
HETATM   21  C13 UNL     1       3.742   0.505   0.157  1.00  0.00     0.132 C 
HETATM   22  N5  UNL     1       4.087  -0.069  -1.120  1.00  0.00    -0.345 N 
HETATM   23  C17 UNL     1       3.190  -1.062  -1.645  1.00  0.00     0.221 C 
HETATM   24  O3  UNL     1       3.053  -1.084  -2.896  1.00  0.00    -0.273 OA
HETATM   25  C18 UNL     1       2.472  -2.010  -0.751  1.00  0.00     0.118 C 
HETATM   26  C19 UNL     1       1.018  -2.003  -0.778  1.00  0.00     0.010 C 
HETATM   27  C20 UNL     1       0.621  -3.532  -0.836  1.00  0.00     0.022 C 
HETATM   28  C21 UNL     1       0.501  -1.587  -2.141  1.00  0.00     0.022 C 
HETATM   29  C22 UNL     1       0.198  -1.541   0.375  1.00  0.00     0.099 C 
BRANCH  18  30
HETATM   30  C9  UNL     1       1.512   1.376   2.403  1.00  0.00     0.138 C 
BRANCH  30  31
HETATM   31  N3  UNL     1       1.033   0.944   3.690  1.00  0.00    -0.240 NA
HETATM   32  C10 UNL     1       0.957   2.169   4.532  1.00  0.00     0.135 C 
BRANCH  31  33
HETATM   33  N4  UNL     1       2.087   0.223   4.344  1.00  0.00    -0.364 NA
ATOM     34  H42 UNL     1       2.139  -0.616   3.767  1.00  0.00     0.171 HD
ATOM     35  H41 UNL     1       1.748  -0.083   5.256  1.00  0.00     0.171 HD
ENDBRANCH  31  33
ENDBRANCH  30  31
ENDBRANCH  18  30
BRANCH  22  36
HETATM   36  C14 UNL     1       5.294   0.294  -1.859  1.00  0.00     0.106 C 
HETATM   37  C15 UNL     1       6.482  -0.107  -1.037  1.00  0.00     0.034 C 
BRANCH  36  38
HETATM   38  C16 UNL     1       5.401   1.724  -2.232  1.00  0.00     0.189 C 
BRANCH  38  39
HETATM   39  O2  UNL     1       6.599   1.893  -2.922  1.00  0.00    -0.399 OA
ATOM     40  H2  UNL     1       6.668   2.810  -3.161  1.00  0.00     0.209 HD
ENDBRANCH  38  39
ENDBRANCH  36  38
ENDBRANCH  22  36
BRANCH  29  41
HETATM   41  C23 UNL     1       0.286  -2.542   1.501  1.00  0.00     0.223 C 
HETATM   42  O4  UNL     1       1.008  -2.403   2.509  1.00  0.00    -0.643 OA
HETATM   43  O5  UNL     1      -0.446  -3.725   1.522  1.00  0.00    -0.643 OA
ENDBRANCH  29  41
ENDBRANCH   6  17
BRANCH  12  44
HETATM   44  C30 UNL     1      -3.792  -0.312  -2.789  1.00  0.00     0.416 C 
HETATM   45  F1  UNL     1      -4.814   0.480  -3.269  1.00  0.00    -0.169 F 
HETATM   46  F2  UNL     1      -4.308  -1.608  -2.976  1.00  0.00    -0.169 F 
HETATM   47  F3  UNL     1      -2.744  -0.374  -3.704  1.00  0.00    -0.169 F 
ENDBRANCH  12  44
ENDBRANCH   3   4
TORSDOF 12
