REMARK  10 active torsions:
REMARK  status: ('A' for Active; 'I' for Inactive)
REMARK    1  A    between atoms: C2_2  and  C3_3 
REMARK    2  A    between atoms: C3_3  and  C4_4 
REMARK    3  A    between atoms: C5_5  and  C6_6 
REMARK    4  A    between atoms: C6_6  and  C7_7 
REMARK    5  A    between atoms: C7_7  and  C8_8 
REMARK    6  A    between atoms: C8_8  and  O1_9 
REMARK    7  A    between atoms: C8_8  and  C9_11 
REMARK    8  A    between atoms: C9_11  and  C10_12 
REMARK    9  A    between atoms: C11_13  and  C12_14 
REMARK   10  A    between atoms: C14_16  and  N1_17 
ROOT
HETATM    1  C10 UNL     1       1.007  -0.078  -1.630  1.00  0.00    -0.026 C 
HETATM    2  C11 UNL     1       2.209  -0.597  -1.700  1.00  0.00    -0.006 C 
ENDROOT
BRANCH   1   3
HETATM    3  C9  UNL     1       0.587   0.733  -0.476  1.00  0.00     0.058 C 
BRANCH   3   4
HETATM    4  C8  UNL     1      -0.603   0.157   0.259  1.00  0.00     0.121 C 
BRANCH   4   5
HETATM    5  C7  UNL     1      -1.769   0.073  -0.701  1.00  0.00     0.036 C 
BRANCH   5   6
HETATM    6  C6  UNL     1      -3.000  -0.503   0.005  1.00  0.00     0.029 C 
BRANCH   6   7
HETATM    7  C5  UNL     1      -4.077  -0.544  -1.007  1.00  0.00    -0.030 C 
HETATM    8  C4  UNL     1      -5.210   0.081  -0.912  1.00  0.00    -0.027 C 
BRANCH   8   9
HETATM    9  C3  UNL     1      -5.605   0.929   0.212  1.00  0.00     0.053 C 
BRANCH   9  10
HETATM   10  C2  UNL     1      -6.853   0.324   0.800  1.00  0.00    -0.033 C 
HETATM   11  C1  UNL     1      -6.824  -0.063   2.056  1.00  0.00     0.007 C 
ENDBRANCH   9  10
ENDBRANCH   8   9
ENDBRANCH   6   7
ENDBRANCH   5   6
ENDBRANCH   4   5
BRANCH   4  12
HETATM   12  O1  UNL     1      -0.289  -1.108   0.737  1.00  0.00    -0.395 OA
ATOM     13  H1  UNL     1       0.443  -1.055   1.340  1.00  0.00     0.210 HD
ENDBRANCH   4  12
ENDBRANCH   3   4
ENDBRANCH   1   3
BRANCH   2  14
HETATM   14  C12 UNL     1       3.186  -0.393  -0.634  1.00  0.00     0.106 C 
HETATM   15  C13 UNL     1       4.389  -1.342  -0.783  1.00  0.00     0.068 C 
HETATM   16  C14 UNL     1       5.338  -0.612   0.186  1.00  0.00     0.230 C 
HETATM   17  C15 UNL     1       5.018   0.803  -0.221  1.00  0.00     0.009 C 
HETATM   18  C16 UNL     1       5.972   1.944  -0.112  1.00  0.00     0.065 C 
HETATM   19  N2  UNL     1       3.832   0.871  -0.663  1.00  0.00    -0.387 N 
ATOM     20  H2  UNL     1       3.395   1.729  -0.999  1.00  0.00     0.159 HD
BRANCH  16  21
HETATM   21  N1  UNL     1       4.836  -0.848   1.506  1.00  0.00    -0.070 N 
ATOM     22  H13 UNL     1       3.859  -0.579   1.620  1.00  0.00     0.275 HD
ATOM     23  H12 UNL     1       4.722  -1.838   1.723  1.00  0.00     0.275 HD
ATOM     24  H11 UNL     1       5.464  -0.365   2.148  1.00  0.00     0.275 HD
ENDBRANCH  16  21
ENDBRANCH   2  14
TORSDOF 10
