REMARK  10 active torsions:
REMARK  status: ('A' for Active; 'I' for Inactive)
REMARK    1  A    between atoms: C6_6  and  C7_7 
REMARK    2  A    between atoms: C7_7  and  O1_8 
REMARK    3  A    between atoms: C16_19  and  C17_20 
REMARK    4  A    between atoms: C17_20  and  N1_21 
REMARK    5  A    between atoms: N1_21  and  C18_22 
REMARK       I    between atoms: N1_21  and  C21_27 
REMARK    6  A    between atoms: C18_22  and  C19_23 
REMARK    7  A    between atoms: C19_23  and  C20_24 
REMARK    8  A    between atoms: C20_24  and  O3_25 
REMARK    9  A    between atoms: C21_27  and  C22_29 
REMARK   10  A    between atoms: C22_29  and  C23_30 
ROOT
HETATM    1  C1  UNL     1       1.086  -0.636   2.879  1.00  0.00     0.011 C 
HETATM    2  C2  UNL     1       1.361   0.008   1.528  1.00  0.00     0.000 C 
HETATM    3  C3  UNL     1       1.981  -1.035   0.671  1.00  0.00     0.023 C 
HETATM    4  C4  UNL     1       3.368  -1.298   1.206  1.00  0.00     0.012 C 
HETATM    5  C5  UNL     1       4.249  -1.973   0.182  1.00  0.00     0.036 C 
HETATM    6  C6  UNL     1       4.281  -1.129  -1.048  1.00  0.00    -0.058 C 
HETATM    7  C8  UNL     1       3.182  -0.591  -1.468  1.00  0.00     0.010 C 
HETATM    8  C9  UNL     1       1.873  -0.778  -0.774  1.00  0.00     0.150 C 
HETATM    9  O2  UNL     1       1.040   0.181  -1.240  1.00  0.00    -0.370 OA
HETATM   10  C10 UNL     1       0.462   1.089  -0.407  1.00  0.00     0.070 C 
HETATM   11  C11 UNL     1       1.612   2.040  -0.028  1.00  0.00     0.039 C 
HETATM   12  C12 UNL     1       1.882   3.103  -1.060  1.00  0.00     0.003 C 
HETATM   13  C13 UNL     1       0.631   3.979  -1.070  1.00  0.00     0.000 C 
HETATM   14  C14 UNL     1      -0.378   3.104  -1.755  1.00  0.00     0.003 C 
HETATM   15  C15 UNL     1      -0.638   1.795  -1.104  1.00  0.00     0.039 C 
HETATM   16  C16 UNL     1       0.037   0.518   0.910  1.00  0.00     0.063 C 
ENDROOT
BRANCH  16  17
HETATM   17  C17 UNL     1      -0.987  -0.507   1.058  1.00  0.00     0.075 C 
BRANCH  17  18
HETATM   18  N1  UNL     1      -2.322  -0.395   0.602  1.00  0.00    -0.331 N 
HETATM   19  C21 UNL     1      -2.747  -0.893  -0.663  1.00  0.00     0.224 C 
HETATM   20  O4  UNL     1      -1.896  -1.506  -1.360  1.00  0.00    -0.273 OA
BRANCH  18  21
HETATM   21  C18 UNL     1      -3.314   0.273   1.394  1.00  0.00     0.133 C 
BRANCH  21  22
HETATM   22  C19 UNL     1      -4.225  -0.494   2.243  1.00  0.00     0.046 C 
BRANCH  22  23
HETATM   23  C20 UNL     1      -3.670  -1.413   3.282  1.00  0.00     0.165 C 
BRANCH  23  24
HETATM   24  O3  UNL     1      -2.941  -2.476   2.822  1.00  0.00    -0.401 OA
ATOM     25  H3  UNL     1      -2.588  -3.060   3.483  1.00  0.00     0.209 HD
ENDBRANCH  23  24
ENDBRANCH  22  23
ENDBRANCH  21  22
ENDBRANCH  18  21
BRANCH  19  26
HETATM   26  C22 UNL     1      -4.108  -0.746  -1.219  1.00  0.00     0.114 C 
BRANCH  26  27
HETATM   27  C23 UNL     1      -4.096  -1.272  -2.661  1.00  0.00     0.095 C 
HETATM   28  S1  UNL     1      -5.713  -1.138  -3.431  1.00  0.00    -0.097 SA
ENDBRANCH  26  27
ENDBRANCH  19  26
ENDBRANCH  17  18
ENDBRANCH  16  17
BRANCH   6  29
HETATM   29  C7  UNL     1       5.612  -0.943  -1.750  1.00  0.00     0.198 C 
BRANCH  29  30
HETATM   30  O1  UNL     1       5.481  -0.147  -2.859  1.00  0.00    -0.397 OA
ATOM     31  H1  UNL     1       6.315  -0.030  -3.299  1.00  0.00     0.209 HD
ENDBRANCH  29  30
ENDBRANCH   6  29
TORSDOF 10
