REMARK  6 active torsions:
REMARK  status: ('A' for Active; 'I' for Inactive)
REMARK    1  A    between atoms: C2_2  and  O1_4 
REMARK    2  A    between atoms: O1_4  and  C4_5 
REMARK    3  A    between atoms: C4_5  and  C5_6 
REMARK    4  A    between atoms: C5_6  and  O2_7 
REMARK    5  A    between atoms: C5_6  and  C6_9 
REMARK    6  A    between atoms: C6_9  and  N1_10 
ROOT
HETATM    1  N1  UNL     1       1.972   0.858   0.038  1.00  0.00     0.091 N 
HETATM    2  C7  UNL     1       1.206   0.158   1.002  1.00  0.00     0.275 C 
HETATM    3  C8  UNL     1      -0.259   0.359   1.022  1.00  0.00     0.073 C 
HETATM    4  C9  UNL     1      -0.847   1.277   0.015  1.00  0.00     0.121 C 
HETATM    5  C10 UNL     1       0.166   2.255  -0.557  1.00  0.00     0.073 C 
HETATM    6  C11 UNL     1       1.284   1.353  -1.109  1.00  0.00     0.275 C 
HETATM    7  C12 UNL     1      -1.973   2.060   0.634  1.00  0.00     0.213 C 
HETATM    8  O3  UNL     1      -3.194   1.900   0.025  1.00  0.00    -0.349 OA
HETATM    9  C13 UNL     1      -3.471   0.590  -0.272  1.00  0.00     0.204 C 
HETATM   10  O4  UNL     1      -2.351  -0.139  -0.715  1.00  0.00    -0.199 OA
HETATM   11  O5  UNL     1      -1.376   0.616  -1.119  1.00  0.00    -0.224 OA
HETATM   12  C14 UNL     1      -4.044  -0.211   0.868  1.00  0.00     0.052 C 
HETATM   13  C15 UNL     1      -5.454   0.131   1.221  1.00  0.00     0.014 C 
HETATM   14  C16 UNL     1      -6.366  -0.017   0.014  1.00  0.00    -0.013 C 
HETATM   15  C17 UNL     1      -6.332  -1.440  -0.483  1.00  0.00     0.009 C 
HETATM   16  C18 UNL     1      -4.912  -1.828  -0.824  1.00  0.00    -0.013 C 
HETATM   17  C19 UNL     1      -4.049  -1.671   0.392  1.00  0.00     0.014 C 
HETATM   18  C20 UNL     1      -4.452  -0.895  -1.944  1.00  0.00     0.014 C 
HETATM   19  C21 UNL     1      -4.471   0.507  -1.414  1.00  0.00     0.052 C 
HETATM   20  C22 UNL     1      -5.851   0.949  -1.025  1.00  0.00     0.014 C 
ENDROOT
BRANCH   1  21
HETATM   21  C6  UNL     1       3.174   0.107  -0.270  1.00  0.00     0.306 C 
BRANCH  21  22
HETATM   22  C5  UNL     1       4.047   0.145   0.954  1.00  0.00     0.170 C 
BRANCH  22  23
HETATM   23  C4  UNL     1       5.270  -0.734   0.850  1.00  0.00     0.201 C 
BRANCH  23  24
HETATM   24  O1  UNL     1       6.143  -0.292  -0.113  1.00  0.00    -0.384 OA
BRANCH  24  25
HETATM   25  C2  UNL     1       7.242  -1.171  -0.098  1.00  0.00     0.113 C 
HETATM   26  C1  UNL     1       7.360  -1.758  -1.485  1.00  0.00     0.039 C 
HETATM   27  C3  UNL     1       8.465  -0.306   0.152  1.00  0.00     0.039 C 
ENDBRANCH  24  25
ENDBRANCH  23  24
ENDBRANCH  22  23
BRANCH  22  28
HETATM   28  O2  UNL     1       4.388   1.460   1.300  1.00  0.00    -0.392 OA
ATOM     29  H2  UNL     1       3.618   2.013   1.365  1.00  0.00     0.210 HD
ENDBRANCH  22  28
ENDBRANCH  21  22
ENDBRANCH   1  21
TORSDOF 6
