REMARK  5 active torsions:
REMARK  status: ('A' for Active; 'I' for Inactive)
REMARK    1  A    between atoms: C2_2  and  C3_3 
REMARK    2  A    between atoms: C4_5  and  N1_6 
REMARK    3  A    between atoms: N2_9  and  C7_10 
REMARK    4  A    between atoms: C7_10  and  C8_11 
REMARK    5  A    between atoms: C14_23  and  C15_24 
ROOT
HETATM    1  C3  UNL     1      -3.521   0.957  -0.925  1.00  0.00     0.022 A 
HETATM    2  S1  UNL     1      -1.843   1.340  -1.223  1.00  0.00    -0.056 SA
HETATM    3  C4  UNL     1      -1.118  -0.051  -0.543  1.00  0.00     0.147 A 
HETATM    4  N4  UNL     1      -2.167  -0.708  -0.142  1.00  0.00    -0.335 N 
ATOM      5  H4  UNL     1      -2.046  -1.610   0.319  1.00  0.00     0.168 HD
HETATM    6  C14 UNL     1      -3.378  -0.233  -0.319  1.00  0.00     0.058 A 
ENDROOT
BRANCH   3   7
HETATM    7  N1  UNL     1       0.271  -0.362  -0.462  1.00  0.00    -0.358 N 
HETATM    8  C5  UNL     1       1.223   0.550  -1.015  1.00  0.00     0.155 C 
HETATM    9  C6  UNL     1       2.361   0.631   0.014  1.00  0.00     0.292 C 
HETATM   10  N2  UNL     1       3.015  -0.628   0.103  1.00  0.00     0.094 N 
HETATM   11  C12 UNL     1       2.203  -1.789   0.019  1.00  0.00     0.292 C 
HETATM   12  C13 UNL     1       0.721  -1.566   0.165  1.00  0.00     0.155 C 
BRANCH  10  13
HETATM   13  C7  UNL     1       4.195  -0.679  -0.692  1.00  0.00     0.306 C 
BRANCH  13  14
HETATM   14  C8  UNL     1       5.296   0.206  -0.163  1.00  0.00     0.175 C 
HETATM   15  C9  UNL     1       5.648  -0.242   1.233  1.00  0.00     0.265 C 
HETATM   16  N3  UNL     1       6.975  -0.822   1.232  1.00  0.00    -0.071 N 
HETATM   17  C10 UNL     1       7.972   0.129   0.795  1.00  0.00     0.258 C 
ATOM     18  H32 UNL     1       7.210  -1.216   2.143  1.00  0.00     0.277 HD
ATOM     19  H31 UNL     1       7.007  -1.677   0.677  1.00  0.00     0.277 HD
HETATM   20  C11 UNL     1       7.473   0.837  -0.437  1.00  0.00     0.196 C 
HETATM   21  O1  UNL     1       6.436   0.113  -0.981  1.00  0.00    -0.381 OA
ENDBRANCH  13  14
ENDBRANCH  10  13
ENDBRANCH   3   7
BRANCH   1  22
HETATM   22  C2  UNL     1      -4.596   1.892  -1.265  1.00  0.00    -0.008 A 
HETATM   23  C1  UNL     1      -4.066   3.153  -2.036  1.00  0.00     0.021 C 
HETATM   24  C21 UNL     1      -5.274   2.393   0.071  1.00  0.00     0.015 A 
HETATM   25  C22 UNL     1      -6.012   1.858  -1.136  1.00  0.00     0.015 A 
ENDBRANCH   1  22
BRANCH   6  26
HETATM   26  C15 UNL     1      -4.511  -1.063   0.180  1.00  0.00    -0.008 A 
HETATM   27  C16 UNL     1      -5.507  -1.463  -0.660  1.00  0.00     0.014 A 
HETATM   28  C17 UNL     1      -6.547  -2.231  -0.175  1.00  0.00     0.001 A 
HETATM   29  C18 UNL     1      -6.606  -2.607   1.147  1.00  0.00     0.000 A 
HETATM   30  C19 UNL     1      -5.573  -2.180   1.974  1.00  0.00     0.001 A 
HETATM   31  C20 UNL     1      -4.541  -1.420   1.497  1.00  0.00     0.014 A 
ENDBRANCH   6  26
TORSDOF 5
