REMARK  5 active torsions:
REMARK  status: ('A' for Active; 'I' for Inactive)
REMARK    1  A    between atoms: N3_9  and  C6_11 
REMARK    2  A    between atoms: C9_14  and  N4_15 
REMARK    3  A    between atoms: N4_15  and  C10_16 
REMARK    4  A    between atoms: C16_27  and  N8_28 
REMARK    5  A    between atoms: N9_31  and  C19_32 
ROOT
HETATM    1  N1  UNL     1       8.940   4.967   0.658  1.00  0.00    -0.191 NA
HETATM    2  C1  UNL     1       7.975   4.342   0.498  1.00  0.00     0.099 C 
HETATM    3  C2  UNL     1       6.785   3.549   0.323  1.00  0.00     0.049 A 
HETATM    4  C3  UNL     1       5.562   4.165   0.393  1.00  0.00     0.040 A 
HETATM    5  C4  UNL     1       4.441   3.390   0.227  1.00  0.00     0.091 A 
HETATM    6  N2  UNL     1       4.519   2.051  -0.003  1.00  0.00    -0.352 N 
ATOM      7  H2  UNL     1       3.661   1.512  -0.122  1.00  0.00     0.166 HD
HETATM    8  C5  UNL     1       5.706   1.427  -0.076  1.00  0.00     0.106 A 
HETATM    9  N3  UNL     1       5.758   0.178  -0.279  1.00  0.00    -0.342 N 
ATOM     10  H3  UNL     1       6.673  -0.270  -0.331  1.00  0.00     0.167 HD
HETATM   11  C29 UNL     1       6.840   2.177   0.086  1.00  0.00     0.071 A 
ENDROOT
BRANCH   9  12
HETATM   12  C6  UNL     1       4.594  -0.628  -0.438  1.00  0.00     0.033 A 
HETATM   13  C7  UNL     1       4.118  -1.402   0.592  1.00  0.00     0.033 A 
HETATM   14  C8  UNL     1       2.981  -2.147   0.438  1.00  0.00     0.047 A 
HETATM   15  C9  UNL     1       2.240  -2.167  -0.767  1.00  0.00     0.107 A 
HETATM   16  C27 UNL     1       2.765  -1.363  -1.792  1.00  0.00     0.047 A 
HETATM   17  C28 UNL     1       3.906  -0.619  -1.629  1.00  0.00     0.033 A 
BRANCH  15  18
HETATM   18  N4  UNL     1       1.145  -2.879  -0.879  1.00  0.00    -0.402 NA
BRANCH  18  19
HETATM   19  C10 UNL     1       0.149  -3.502  -0.965  1.00  0.00     0.159 A 
HETATM   20  C11 UNL     1       0.082  -4.691  -1.689  1.00  0.00     0.102 A 
HETATM   21  C12 UNL     1       1.244  -5.200  -2.401  1.00  0.00     0.104 C 
HETATM   22  C13 UNL     1      -1.106  -5.370  -1.713  1.00  0.00     0.114 A 
HETATM   23  N5  UNL     1       2.165  -5.600  -2.976  1.00  0.00    -0.191 NA
HETATM   24  N6  UNL     1      -2.202  -4.956  -1.082  1.00  0.00    -0.361 N 
HETATM   25  C14 UNL     1      -2.201  -3.828  -0.375  1.00  0.00     0.079 A 
ATOM     26  H6  UNL     1      -3.056  -5.511  -1.141  1.00  0.00     0.165 HD
HETATM   27  C15 UNL     1      -3.348  -3.385   0.296  1.00  0.00     0.138 A 
HETATM   28  C26 UNL     1      -1.041  -3.107  -0.316  1.00  0.00     0.119 A 
HETATM   29  N7  UNL     1      -3.251  -2.243   0.983  1.00  0.00    -0.200 N 
HETATM   30  C16 UNL     1      -2.129  -1.496   1.070  1.00  0.00     0.680 A 
ATOM     31  H7  UNL     1      -4.081  -1.913   1.475  1.00  0.00     0.183 HD
HETATM   32  N11 UNL     1      -1.051  -1.964   0.408  1.00  0.00    -0.186 N 
ATOM     33  H11 UNL     1      -0.188  -1.422   0.456  1.00  0.00     0.184 HD
BRANCH  30  34
HETATM   34  N8  UNL     1      -2.096  -0.293   1.829  1.00  0.00    -0.214 N 
HETATM   35  C17 UNL     1      -3.027  -0.170   2.932  1.00  0.00     0.161 C 
HETATM   36  C18 UNL     1      -4.055   0.865   2.585  1.00  0.00     0.145 C 
HETATM   37  N9  UNL     1      -3.528   1.679   1.477  1.00  0.00    -0.364 N 
HETATM   38  C24 UNL     1      -2.151   2.050   1.440  1.00  0.00     0.145 C 
HETATM   39  C25 UNL     1      -1.220   0.827   1.567  1.00  0.00     0.161 C 
BRANCH  37  40
HETATM   40  C19 UNL     1      -4.471   2.064   0.484  1.00  0.00     0.102 A 
HETATM   41  C20 UNL     1      -4.090   2.827  -0.584  1.00  0.00     0.048 A 
HETATM   42  C21 UNL     1      -5.033   3.197  -1.541  1.00  0.00     0.005 A 
HETATM   43  C22 UNL     1      -6.325   2.790  -1.398  1.00  0.00     0.017 A 
HETATM   44  C23 UNL     1      -6.650   2.025  -0.306  1.00  0.00     0.089 A 
HETATM   45  N10 UNL     1      -5.777   1.661   0.615  1.00  0.00    -0.352 N 
ATOM     46  H10 UNL     1      -6.067   1.091   1.409  1.00  0.00     0.166 HD
ENDBRANCH  37  40
ENDBRANCH  30  34
ENDBRANCH  18  19
ENDBRANCH  15  18
ENDBRANCH   9  12
TORSDOF 5
