REMARK  6 active torsions:
REMARK  status: ('A' for Active; 'I' for Inactive)
REMARK    1  A    between atoms: C2_2  and  N1_3 
REMARK    2  A    between atoms: N1_3  and  C3_5 
REMARK       I    between atoms: N3_12  and  C6_14 
REMARK    3  A    between atoms: C6_14  and  C7_16 
REMARK    4  A    between atoms: N4_19  and  C10_20 
REMARK    5  A    between atoms: C14_28  and  O3_29 
REMARK    6  A    between atoms: C18_34  and  N7_35 
ROOT
HETATM    1  C7  UNL     1       2.097  -1.130  -1.434  1.00  0.00     0.081 C 
HETATM    2  C8  UNL     1       1.835  -1.728  -0.076  1.00  0.00     0.034 C 
HETATM    3  C9  UNL     1       0.318  -1.735   0.141  1.00  0.00     0.142 C 
HETATM    4  N4  UNL     1      -0.207  -0.430  -0.199  1.00  0.00    -0.218 N 
HETATM    5  C23 UNL     1       0.668   0.664  -0.484  1.00  0.00     0.142 C 
HETATM    6  C24 UNL     1       1.809   0.354  -1.383  1.00  0.00     0.034 C 
ENDROOT
BRANCH   4   7
HETATM    7  C10 UNL     1      -1.611  -0.238  -0.223  1.00  0.00     0.680 A 
HETATM    8  N5  UNL     1      -2.248   0.345  -1.250  1.00  0.00    -0.201 N 
HETATM    9  C11 UNL     1      -3.565   0.568  -1.291  1.00  0.00     0.117 A 
ATOM     10  H5  UNL     1      -1.690   0.637  -2.052  1.00  0.00     0.183 HD
HETATM   11  C12 UNL     1      -4.313   0.158  -0.179  1.00  0.00     0.017 A 
HETATM   12  C13 UNL     1      -3.676  -0.438   0.878  1.00  0.00     0.065 A 
HETATM   13  C18 UNL     1      -5.771   0.366  -0.123  1.00  0.00     0.263 C 
HETATM   14  N6  UNL     1      -2.355  -0.622   0.834  1.00  0.00    -0.192 N 
HETATM   15  C14 UNL     1      -4.524  -0.835   2.035  1.00  0.00     0.169 C 
ATOM     16  H6  UNL     1      -1.893  -1.068   1.626  1.00  0.00     0.184 HD
HETATM   17  C15 UNL     1      -5.656  -1.655   1.398  1.00  0.00     0.044 C 
HETATM   18  C16 UNL     1      -6.469  -0.807   0.451  1.00  0.00     0.022 C 
HETATM   19  C17 UNL     1      -7.663  -0.295   1.258  1.00  0.00     0.012 C 
BRANCH  15  20
HETATM   20  O3  UNL     1      -3.864  -1.661   2.916  1.00  0.00    -0.389 OA
ATOM     21  H3  UNL     1      -4.405  -1.914   3.654  1.00  0.00     0.210 HD
ENDBRANCH  15  20
BRANCH  13  22
HETATM   22  N7  UNL     1      -6.243   0.869  -1.365  1.00  0.00     0.098 N 
HETATM   23  C19 UNL     1      -6.312   2.316  -1.370  1.00  0.00     0.273 C 
HETATM   24  C20 UNL     1      -7.717   2.714  -1.024  1.00  0.00     0.032 C 
HETATM   25  C21 UNL     1      -8.519   1.576  -1.594  1.00  0.00     0.032 C 
HETATM   26  C22 UNL     1      -7.510   0.472  -1.832  1.00  0.00     0.273 C 
ENDBRANCH  13  22
ENDBRANCH   4   7
BRANCH   1  27
HETATM   27  C6  UNL     1       3.552  -1.343  -1.757  1.00  0.00     0.227 C 
HETATM   28  N3  UNL     1       4.493  -0.759  -0.929  1.00  0.00    -0.313 N 
HETATM   29  C5  UNL     1       5.746  -0.764  -0.885  1.00  0.00     0.108 A 
ATOM     30  H3  UNL     1       4.074  -0.198  -0.187  1.00  0.00     0.170 HD
HETATM   31  N2  UNL     1       6.556  -1.403  -1.718  1.00  0.00    -0.334 N 
HETATM   32  C25 UNL     1       6.408  -0.038   0.119  1.00  0.00     0.050 A 
HETATM   33  C4  UNL     1       7.926  -1.366  -1.618  1.00  0.00     0.114 A 
ATOM     34  H2  UNL     1       6.141  -1.950  -2.472  1.00  0.00     0.168 HD
HETATM   35  S1  UNL     1       9.210  -2.054  -2.506  1.00  0.00     0.057 SA
HETATM   36  C27 UNL     1       8.600  -0.668  -0.651  1.00  0.00     0.052 A 
HETATM   37  O1  UNL     1      10.472  -1.474  -1.680  1.00  0.00    -0.254 OA
HETATM   38  C3  UNL     1       9.957  -0.724  -0.681  1.00  0.00     0.169 A 
HETATM   39  C26 UNL     1       7.767   0.027   0.255  1.00  0.00     0.022 A 
HETATM   40  O2  UNL     1       3.833  -2.031  -2.747  1.00  0.00    -0.273 OA
BRANCH  38  41
HETATM   41  N1  UNL     1      10.838  -0.198   0.064  1.00  0.00    -0.349 N 
ATOM     42  H1  UNL     1      11.773  -0.457  -0.252  1.00  0.00     0.167 HD
BRANCH  41  43
HETATM   43  C2  UNL     1      10.912   0.610   1.161  1.00  0.00     0.059 C 
HETATM   44  C1  UNL     1      10.826   2.107   0.874  1.00  0.00     0.055 C 
ENDBRANCH  41  43
ENDBRANCH  38  41
ENDBRANCH   1  27
TORSDOF 6
