REMARK  6 active torsions:
REMARK  status: ('A' for Active; 'I' for Inactive)
REMARK    1  A    between atoms: N1_1  and  C1_4 
REMARK    2  A    between atoms: C5_11  and  C6_12 
REMARK    3  A    between atoms: C6_12  and  C7_13 
REMARK    4  A    between atoms: N4_16  and  C8_17 
REMARK    5  A    between atoms: C8_17  and  C9_18 
REMARK    6  A    between atoms: C9_18  and  C10_19 
ROOT
HETATM    1  C1  UNL     1       5.723   2.456   0.209  1.00  0.00     0.142 A 
HETATM    2  N2  UNL     1       4.432   2.755   0.335  1.00  0.00    -0.339 N 
ATOM      3  H2  UNL     1       4.143   3.637   0.759  1.00  0.00     0.168 HD
HETATM    4  C2  UNL     1       3.545   1.904  -0.091  1.00  0.00     0.026 A 
HETATM    5  C3  UNL     1       4.001   0.739  -0.649  1.00  0.00     0.011 A 
HETATM    6  S1  UNL     1       5.692   0.922  -0.535  1.00  0.00    -0.057 SA
HETATM    7  C4  UNL     1       3.227  -0.420  -1.224  1.00  0.00     0.074 C 
HETATM    8  C5  UNL     1       1.964  -0.532  -0.398  1.00  0.00     0.096 C 
HETATM    9  N4  UNL     1       0.967   0.249  -1.058  1.00  0.00    -0.388 N 
HETATM   10  C17 UNL     1       1.342   1.628  -1.190  1.00  0.00     0.128 C 
HETATM   11  C18 UNL     1       2.048   2.187   0.024  1.00  0.00     0.078 C 
ENDROOT
BRANCH   9  12
HETATM   12  C8  UNL     1      -0.381   0.017  -0.743  1.00  0.00     0.059 C 
BRANCH  12  13
HETATM   13  C9  UNL     1      -0.864   0.395   0.611  1.00  0.00     0.049 C 
BRANCH  13  14
HETATM   14  C10 UNL     1      -2.355   0.046   0.679  1.00  0.00    -0.010 C 
HETATM   15  C11 UNL     1      -2.557  -1.441   0.446  1.00  0.00     0.005 C 
HETATM   16  C12 UNL     1      -3.925  -1.842   0.956  1.00  0.00     0.000 C 
HETATM   17  C13 UNL     1      -5.015  -1.211   0.105  1.00  0.00     0.000 C 
HETATM   18  C14 UNL     1      -5.243   0.177   0.660  1.00  0.00     0.000 C 
HETATM   19  C15 UNL     1      -4.456   1.173  -0.122  1.00  0.00     0.000 C 
HETATM   20  C16 UNL     1      -3.058   0.763  -0.440  1.00  0.00     0.005 C 
ENDBRANCH  13  14
ENDBRANCH  12  13
ENDBRANCH   9  12
BRANCH   8  21
HETATM   21  C6  UNL     1       1.592  -1.953  -0.187  1.00  0.00     0.125 C 
BRANCH  21  22
HETATM   22  C7  UNL     1       2.650  -2.690   0.546  1.00  0.00     0.233 C 
HETATM   23  N3  UNL     1       2.477  -4.093   0.771  1.00  0.00    -0.062 NA
HETATM   24  O1  UNL     1       3.690  -2.096   0.968  1.00  0.00    -0.277 OA
ENDBRANCH  21  22
ENDBRANCH   8  21
BRANCH   1  25
HETATM   25  N1  UNL     1       6.766   3.168   0.568  1.00  0.00    -0.380 N 
ATOM     26  H12 UNL     1       6.785   4.086   1.013  1.00  0.00     0.158 HD
ATOM     27  H11 UNL     1       7.755   2.939   0.471  1.00  0.00     0.158 HD
ENDBRANCH   1  25
TORSDOF 6
