REMARK  7 active torsions:
REMARK  status: ('A' for Active; 'I' for Inactive)
REMARK    1  A    between atoms: C2_2  and  C3_3 
REMARK    2  A    between atoms: C5_6  and  N1_7 
REMARK       I    between atoms: N1_7  and  C6_9 
REMARK    3  A    between atoms: C6_9  and  C7_11 
REMARK    4  A    between atoms: C7_11  and  C8_12 
REMARK    5  A    between atoms: C15_23  and  C16_24 
REMARK    6  A    between atoms: C16_24  and  C17_25 
REMARK    7  A    between atoms: C17_25  and  O3_28 
ROOT
HETATM    1  C3  UNL     1      -2.708   1.435   0.446  1.00  0.00     0.087 C 
HETATM    2  C4  UNL     1      -2.685   2.358  -0.756  1.00  0.00     0.049 C 
HETATM    3  O1  UNL     1      -1.395   1.078   0.737  1.00  0.00    -0.309 OA
HETATM    4  C5  UNL     1      -1.075   0.024  -0.149  1.00  0.00     0.223 C 
HETATM    5  N3  UNL     1      -2.162  -0.533  -0.565  1.00  0.00    -0.348 N 
ATOM      6  H3  UNL     1      -2.207  -1.319  -1.214  1.00  0.00     0.163 HD
HETATM    7  C15 UNL     1      -3.311   0.126   0.028  1.00  0.00     0.122 C 
ENDROOT
BRANCH   4   8
HETATM    8  N1  UNL     1       0.235  -0.379  -0.537  1.00  0.00    -0.293 N 
HETATM    9  C6  UNL     1       1.402   0.273  -0.045  1.00  0.00     0.226 C 
HETATM   10  O2  UNL     1       1.229   1.231   0.755  1.00  0.00    -0.273 OA
ATOM     11  H1  UNL     1       0.341  -1.158  -1.187  1.00  0.00     0.172 HD
BRANCH   9  12
HETATM   12  C7  UNL     1       2.733  -0.197  -0.490  1.00  0.00     0.128 C 
BRANCH  12  13
HETATM   13  C8  UNL     1       3.872   0.554   0.129  1.00  0.00     0.093 C 
HETATM   14  N2  UNL     1       3.915   0.465   1.548  1.00  0.00    -0.416 N 
HETATM   15  C9  UNL     1       3.892  -0.851   2.075  1.00  0.00     0.114 C 
ATOM     16  H2  UNL     1       3.959   1.291   2.145  1.00  0.00     0.153 HD
HETATM   17  C10 UNL     1       4.820  -1.817   1.436  1.00  0.00     0.020 C 
HETATM   18  C11 UNL     1       5.292  -1.505   0.067  1.00  0.00     0.012 C 
HETATM   19  C12 UNL     1       5.202  -0.058  -0.344  1.00  0.00    -0.027 C 
HETATM   20  C13 UNL     1       6.327   0.688   0.340  1.00  0.00     0.017 C 
HETATM   21  C14 UNL     1       5.354   0.103  -1.826  1.00  0.00     0.017 C 
ENDBRANCH  12  13
ENDBRANCH   9  12
ENDBRANCH   4   8
BRANCH   1  22
HETATM   22  C2  UNL     1      -3.436   2.120   1.549  1.00  0.00     0.036 C 
HETATM   23  C1  UNL     1      -3.548   1.341   2.813  1.00  0.00     0.008 C 
ENDBRANCH   1  22
BRANCH   7  24
HETATM   24  C16 UNL     1      -4.422   0.356  -0.961  1.00  0.00     0.065 C 
BRANCH  24  25
HETATM   25  C17 UNL     1      -5.067  -0.918  -1.417  1.00  0.00     0.052 C 
HETATM   26  C18 UNL     1      -5.681  -1.711  -0.291  1.00  0.00     0.045 C 
HETATM   27  C19 UNL     1      -4.161  -1.806  -2.204  1.00  0.00     0.045 C 
BRANCH  25  28
HETATM   28  O3  UNL     1      -6.131  -0.553  -2.268  1.00  0.00    -0.391 OA
ATOM     29  H3  UNL     1      -6.540  -1.360  -2.557  1.00  0.00     0.210 HD
ENDBRANCH  25  28
ENDBRANCH  24  25
ENDBRANCH   7  24
TORSDOF 7
