REMARK  9 active torsions:
REMARK  status: ('A' for Active; 'I' for Inactive)
REMARK    1  A    between atoms: N1_2  and  C2_4 
REMARK    2  A    between atoms: C2_4  and  N2_6 
REMARK    3  A    between atoms: N3_9  and  C5_10 
REMARK    4  A    between atoms: C5_10  and  C6_11 
REMARK       I    between atoms: C6_11  and  N4_13 
REMARK    5  A    between atoms: N4_13  and  C7_15 
REMARK    6  A    between atoms: C7_15  and  C8_16 
REMARK    7  A    between atoms: C8_16  and  N5_17 
REMARK    8  A    between atoms: N6_20  and  C11_21 
REMARK    9  A    between atoms: C11_21  and  C12_22 
ROOT
HETATM    1  C12 UNL     1      -7.197   0.696   0.711  1.00  0.00     0.143 C 
HETATM    2  C13 UNL     1      -8.655   0.914   0.827  1.00  0.00     0.060 C 
HETATM    3  N7  UNL     1      -9.804   1.070   0.921  1.00  0.00    -0.197 NA
ENDROOT
BRANCH   1   4
HETATM    4  C11 UNL     1      -7.011  -0.772   0.480  1.00  0.00     0.131 C 
BRANCH   4   5
HETATM    5  N6  UNL     1      -5.661  -1.206   0.340  1.00  0.00    -0.408 N 
HETATM    6  C10 UNL     1      -4.974  -0.797  -0.835  1.00  0.00     0.147 C 
HETATM    7  C9  UNL     1      -3.985   0.300  -0.668  1.00  0.00     0.291 C 
HETATM    8  N5  UNL     1      -3.302   0.234   0.609  1.00  0.00     0.093 N 
HETATM    9  C15 UNL     1      -3.441  -1.093   1.189  1.00  0.00     0.291 C 
HETATM   10  C14 UNL     1      -4.904  -1.229   1.549  1.00  0.00     0.147 C 
BRANCH   8  11
HETATM   11  C8  UNL     1      -1.913   0.596   0.427  1.00  0.00     0.292 C 
BRANCH  11  12
HETATM   12  C7  UNL     1      -1.114  -0.423  -0.301  1.00  0.00     0.153 C 
BRANCH  12  13
HETATM   13  N4  UNL     1       0.261   0.006  -0.491  1.00  0.00    -0.355 N 
HETATM   14  C6  UNL     1       0.648   1.131  -1.258  1.00  0.00     0.256 C 
HETATM   15  O1  UNL     1      -0.294   1.797  -1.814  1.00  0.00    -0.267 OA
ATOM     16  H4  UNL     1       0.996  -0.540  -0.042  1.00  0.00     0.162 HD
BRANCH  14  17
HETATM   17  C5  UNL     1       2.033   1.583  -1.456  1.00  0.00     0.164 C 
BRANCH  17  18
HETATM   18  N3  UNL     1       3.065   0.858  -0.867  1.00  0.00    -0.362 N 
HETATM   19  C4  UNL     1       3.406  -0.427  -1.314  1.00  0.00     0.083 C 
HETATM   20  C3  UNL     1       4.248  -1.159  -0.275  1.00  0.00     0.169 C 
HETATM   21  N2  UNL     1       5.314  -0.267   0.104  1.00  0.00    -0.352 N 
HETATM   22  C17 UNL     1       4.949   1.025   0.637  1.00  0.00     0.145 C 
HETATM   23  C16 UNL     1       3.458   1.240   0.445  1.00  0.00     0.147 C 
BRANCH  21  24
HETATM   24  C2  UNL     1       6.670  -0.656  -0.047  1.00  0.00     0.169 C 
HETATM   25  S1  UNL     1       7.053  -2.121  -0.652  1.00  0.00    -0.041 SA
BRANCH  24  26
HETATM   26  N1  UNL     1       7.732   0.234   0.330  1.00  0.00    -0.371 N 
HETATM   27  C1  UNL     1       9.113  -0.166   0.181  1.00  0.00     0.148 C 
ATOM     28  H1  UNL     1       7.510   1.156   0.706  1.00  0.00     0.161 HD
ENDBRANCH  24  26
ENDBRANCH  21  24
ENDBRANCH  17  18
ENDBRANCH  14  17
ENDBRANCH  12  13
ENDBRANCH  11  12
ENDBRANCH   8  11
ENDBRANCH   4   5
ENDBRANCH   1   4
TORSDOF 9
