REMARK  10 active torsions:
REMARK  status: ('A' for Active; 'I' for Inactive)
REMARK       I    between atoms: C1_2  and  N1_3 
REMARK    1  A    between atoms: C1_2  and  C2_7 
REMARK    2  A    between atoms: N1_3  and  O2_5 
REMARK    3  A    between atoms: C7_12  and  O3_13 
REMARK    4  A    between atoms: O3_13  and  C8_14 
REMARK    5  A    between atoms: C8_14  and  N2_15 
REMARK    6  A    between atoms: C11_18  and  C12_19 
REMARK    7  A    between atoms: C12_19  and  N3_20 
REMARK    8  A    between atoms: C15_23  and  C16_24 
REMARK    9  A    between atoms: C16_24  and  N4_25 
REMARK   10  A    between atoms: N4_25  and  O4_27 
ROOT
HETATM    1  N2  UNL     1      -1.165   1.643   0.475  1.00  0.00    -0.344 N 
HETATM    2  C9  UNL     1      -0.296   1.588   1.498  1.00  0.00     0.093 A 
HETATM    3  C10 UNL     1       1.059   1.805   1.350  1.00  0.00     0.026 A 
HETATM    4  C11 UNL     1       1.570   2.093   0.102  1.00  0.00    -0.037 A 
HETATM    5  C18 UNL     1       0.687   2.152  -0.952  1.00  0.00     0.026 A 
HETATM    6  C19 UNL     1      -0.681   1.923  -0.749  1.00  0.00     0.093 A 
ENDROOT
BRANCH   1   7
HETATM    7  C8  UNL     1      -2.590   1.408   0.671  1.00  0.00     0.305 C 
BRANCH   7   8
HETATM    8  O3  UNL     1      -2.910   0.060   0.520  1.00  0.00    -0.331 OA
BRANCH   8   9
HETATM    9  C7  UNL     1      -4.186  -0.403   0.658  1.00  0.00     0.086 A 
HETATM   10  C2  UNL     1      -4.513  -1.715   0.514  1.00  0.00     0.067 A 
HETATM   11  C3  UNL     1      -5.857  -2.119   0.672  1.00  0.00     0.020 A 
HETATM   12  C4  UNL     1      -6.808  -1.183   0.967  1.00  0.00     0.001 A 
HETATM   13  C5  UNL     1      -6.510   0.134   1.116  1.00  0.00     0.003 A 
HETATM   14  C6  UNL     1      -5.199   0.515   0.961  1.00  0.00     0.038 A 
BRANCH  10  15
HETATM   15  C1  UNL     1      -3.546  -2.739   0.203  1.00  0.00     0.277 C 
HETATM   16  O1  UNL     1      -4.003  -3.944   0.096  1.00  0.00    -0.265 OA
HETATM   17  N1  UNL     1      -2.179  -2.521   0.014  1.00  0.00    -0.233 N 
ATOM     18  H1  UNL     1      -1.753  -1.597   0.084  1.00  0.00     0.197 HD
BRANCH  17  19
HETATM   19  O2  UNL     1      -1.440  -3.675  -0.280  1.00  0.00    -0.287 OA
ATOM     20  H2  UNL     1      -0.510  -3.527  -0.409  1.00  0.00     0.244 HD
ENDBRANCH  17  19
ENDBRANCH  10  15
ENDBRANCH   8   9
ENDBRANCH   7   8
ENDBRANCH   1   7
BRANCH   4  21
HETATM   21  C12 UNL     1       3.009   2.329  -0.063  1.00  0.00     0.171 C 
BRANCH  21  22
HETATM   22  N3  UNL     1       3.808   1.169  -0.283  1.00  0.00    -0.305 N 
HETATM   23  C13 UNL     1       4.305   0.524   0.770  1.00  0.00     0.098 A 
HETATM   24  C14 UNL     1       5.074  -0.596   0.596  1.00  0.00     0.048 A 
HETATM   25  C15 UNL     1       5.320  -1.036  -0.686  1.00  0.00     0.054 A 
HETATM   26  N5  UNL     1       4.810  -0.372  -1.738  1.00  0.00    -0.307 N 
HETATM   27  C17 UNL     1       4.062   0.721  -1.515  1.00  0.00     0.327 A 
ATOM     28  H5  UNL     1       4.988  -0.693  -2.690  1.00  0.00     0.170 HD
HETATM   29  O5  UNL     1       3.620   1.289  -2.562  1.00  0.00    -0.246 OA
BRANCH  25  30
HETATM   30  C16 UNL     1       6.141  -2.234  -0.906  1.00  0.00     0.143 C 
BRANCH  30  31
HETATM   31  N4  UNL     1       6.400  -2.683  -2.066  1.00  0.00    -0.278 N 
ATOM     32  H4  UNL     1       6.980  -3.520  -2.126  1.00  0.00     0.193 HD
BRANCH  31  33
HETATM   33  O4  UNL     1       5.966  -2.137  -3.236  1.00  0.00    -0.290 OA
ATOM     34  H4  UNL     1       6.160  -2.473  -4.103  1.00  0.00     0.244 HD
ENDBRANCH  31  33
ENDBRANCH  30  31
ENDBRANCH  25  30
ENDBRANCH  21  22
ENDBRANCH   4  21
TORSDOF 10
