REMARK  3 active torsions:
REMARK  status: ('A' for Active; 'I' for Inactive)
REMARK    1  A    between atoms: C1_4  and  C2_5 
REMARK    2  A    between atoms: C2_5  and  N2_6 
REMARK    3  A    between atoms: N2_6  and  C3_9 
ROOT
HETATM    1  N2  UNL     1      -0.762  -0.659   0.130  1.00  0.00    -0.065 N 
ATOM      2  H21 UNL     1      -0.650  -1.389  -0.574  1.00  0.00     0.278 HD
ATOM      3  H22 UNL     1      -0.932  -1.241   0.950  1.00  0.00     0.278 HD
ENDROOT
BRANCH   1   4
HETATM    4  C2  UNL     1      -1.898   0.153  -0.159  1.00  0.00     0.276 C 
BRANCH   4   5
HETATM    5  C1  UNL     1      -3.179  -0.592  -0.005  1.00  0.00     0.080 C 
HETATM    6  N1  UNL     1      -4.186  -0.234  -0.710  1.00  0.00    -0.410 N 
ATOM      7  H12 UNL     1      -4.096   0.548  -1.359  1.00  0.00     0.155 HD
ATOM      8  H11 UNL     1      -5.063  -0.744  -0.605  1.00  0.00     0.155 HD
ENDBRANCH   4   5
ENDBRANCH   1   4
BRANCH   1   9
HETATM    9  C3  UNL     1       0.435   0.085   0.279  1.00  0.00     0.213 C 
HETATM   10  C4  UNL     1       1.588  -0.812   0.749  1.00  0.00     0.062 C 
HETATM   11  C5  UNL     1       2.782  -0.009   0.347  1.00  0.00     0.234 C 
HETATM   12  N3  UNL     1       2.311   1.154  -0.390  1.00  0.00    -0.073 N 
HETATM   13  C6  UNL     1       1.063   0.623  -0.982  1.00  0.00     0.265 C 
ATOM     14  H32 UNL     1       2.208   2.009   0.157  1.00  0.00     0.277 HD
ATOM     15  H31 UNL     1       2.976   1.553  -1.052  1.00  0.00     0.277 HD
ENDBRANCH   1   9
TORSDOF 3
