REMARK  3 active torsions:
REMARK  status: ('A' for Active; 'I' for Inactive)
REMARK    1  A    between atoms: C2_2  and  N1_3 
REMARK    2  A    between atoms: N1_3  and  N2_5 
REMARK    3  A    between atoms: N2_5  and  C3_7 
ROOT
HETATM    1  C3  UNL     1       1.162  -0.722   0.583  1.00  0.00     0.725 A 
HETATM    2  N3  UNL     1       1.802  -1.024   1.726  1.00  0.00    -0.117 N 
ATOM      3  H3  UNL     1       1.437  -1.576   2.502  1.00  0.00     0.207 HD
HETATM    4  N4  UNL     1       2.993  -0.467   1.648  1.00  0.00    -0.211 N 
ATOM      5  H4  UNL     1       3.722  -0.512   2.360  1.00  0.00     0.206 HD
HETATM    6  N5  UNL     1       3.080   0.160   0.487  1.00  0.00     0.009 NA
HETATM    7  N6  UNL     1       1.959   0.023  -0.202  1.00  0.00    -0.112 N 
ATOM      8  H6  UNL     1       1.746   0.400  -1.126  1.00  0.00     0.203 HD
ENDROOT
BRANCH   1   9
HETATM    9  N2  UNL     1      -0.030  -1.102   0.314  1.00  0.00    -0.134 N 
ATOM     10  H2  UNL     1      -0.520  -1.666   1.008  1.00  0.00     0.205 HD
BRANCH   9  11
HETATM   11  N1  UNL     1      -0.699  -0.794  -0.866  1.00  0.00    -0.323 N 
ATOM     12  H1  UNL     1      -0.649  -1.447  -1.648  1.00  0.00     0.180 HD
BRANCH  11  13
HETATM   13  C2  UNL     1      -1.457   0.413  -1.018  1.00  0.00     0.135 C 
HETATM   14  C1  UNL     1      -2.592   0.504   0.000  1.00  0.00     0.028 C 
ENDBRANCH  11  13
ENDBRANCH   9  11
ENDBRANCH   1   9
TORSDOF 3
