REMARK  10 active torsions:
REMARK  status: ('A' for Active; 'I' for Inactive)
REMARK    1  A    between atoms: O1_2  and  C2_3 
REMARK    2  A    between atoms: C5_6  and  C6_7 
REMARK    3  A    between atoms: C7_8  and  C8_9 
REMARK    4  A    between atoms: C9_10  and  O2_11 
REMARK    5  A    between atoms: O2_11  and  C10_12 
REMARK    6  A    between atoms: C10_12  and  C11_13 
REMARK    7  A    between atoms: C15_18  and  N1_19 
REMARK    8  A    between atoms: C18_22  and  N2_23 
REMARK    9  A    between atoms: N2_23  and  N3_25 
REMARK   10  A    between atoms: C21_29  and  S1_30 
ROOT
HETATM    1  C11 UNL     1      -0.554  -0.838   0.946  1.00  0.00    -0.023 A 
HETATM    2  C12 UNL     1      -0.785  -2.059   1.540  1.00  0.00     0.052 A 
HETATM    3  C13 UNL     1      -2.011  -2.562   1.778  1.00  0.00     0.119 A 
HETATM    4  F1  UNL     1      -2.182  -3.772   2.371  1.00  0.00    -0.206 F 
HETATM    5  C14 UNL     1      -3.106  -1.866   1.430  1.00  0.00     0.072 A 
HETATM    6  C15 UNL     1      -2.919  -0.575   0.803  1.00  0.00     0.049 A 
HETATM    7  C23 UNL     1      -1.668  -0.121   0.588  1.00  0.00    -0.026 A 
HETATM    8  C24 UNL     1      -1.411   1.160  -0.130  1.00  0.00     0.051 C 
ENDROOT
BRANCH   1   9
HETATM    9  C10 UNL     1       0.872  -0.379   0.925  1.00  0.00     0.215 C 
BRANCH   9  10
HETATM   10  O2  UNL     1       1.637  -1.040   0.061  1.00  0.00    -0.345 OA
BRANCH  10  11
HETATM   11  C9  UNL     1       2.201  -1.966  -0.635  1.00  0.00     0.095 A 
HETATM   12  C8  UNL     1       3.225  -1.610  -1.528  1.00  0.00     0.119 A 
HETATM   13  C28 UNL     1       3.782  -2.623  -2.337  1.00  0.00     0.267 A 
HETATM   14  N4  UNL     1       3.383  -3.889  -2.258  1.00  0.00    -0.326 N 
HETATM   15  O3  UNL     1       4.706  -2.295  -3.169  1.00  0.00    -0.266 OA
HETATM   16  C26 UNL     1       2.421  -4.237  -1.393  1.00  0.00     0.011 A 
ATOM     17  H4  UNL     1       3.810  -4.596  -2.857  1.00  0.00     0.169 HD
HETATM   18  C25 UNL     1       1.834  -3.307  -0.597  1.00  0.00     0.063 A 
HETATM   19  C27 UNL     1       2.049  -5.697  -1.241  1.00  0.00     0.068 C 
BRANCH  12  20
HETATM   20  C7  UNL     1       4.012  -0.410  -1.387  1.00  0.00    -0.053 C 
HETATM   21  C6  UNL     1       4.822   0.429  -1.126  1.00  0.00    -0.061 C 
BRANCH  21  22
HETATM   22  C5  UNL     1       5.939   1.250  -0.735  1.00  0.00     0.018 A 
HETATM   23  C4  UNL     1       7.127   0.538  -0.462  1.00  0.00     0.023 A 
HETATM   24  C3  UNL     1       8.247   1.107   0.047  1.00  0.00     0.038 A 
HETATM   25  C2  UNL     1       8.232   2.471   0.322  1.00  0.00     0.068 A 
HETATM   26  C30 UNL     1       7.067   3.172   0.054  1.00  0.00     0.038 A 
HETATM   27  C29 UNL     1       5.915   2.562  -0.474  1.00  0.00     0.023 A 
BRANCH  25  28
HETATM   28  O1  UNL     1       9.388   2.985   0.837  1.00  0.00    -0.356 OA
HETATM   29  C1  UNL     1       9.671   4.301   1.212  1.00  0.00     0.210 C 
ENDBRANCH  25  28
ENDBRANCH  21  22
ENDBRANCH  12  20
ENDBRANCH  10  11
ENDBRANCH   9  10
ENDBRANCH   1   9
BRANCH   6  30
HETATM   30  N1  UNL     1      -4.179  -0.041   0.438  1.00  0.00    -0.316 N 
HETATM   31  C16 UNL     1      -4.822  -0.684  -0.594  1.00  0.00     0.100 A 
HETATM   32  C17 UNL     1      -6.140  -0.463  -0.909  1.00  0.00     0.049 A 
HETATM   33  C18 UNL     1      -6.863   0.479  -0.144  1.00  0.00     0.053 A 
HETATM   34  C20 UNL     1      -6.206   1.105   0.857  1.00  0.00     0.068 A 
HETATM   35  C21 UNL     1      -4.862   0.822   1.124  1.00  0.00     0.078 A 
BRANCH  33  36
HETATM   36  N2  UNL     1      -8.261   0.628  -0.370  1.00  0.00    -0.303 N 
HETATM   37  C19 UNL     1      -9.094   1.636   0.234  1.00  0.00     0.177 C 
BRANCH  36  38
HETATM   38  N3  UNL     1      -8.915  -0.306  -1.202  1.00  0.00    -0.343 N 
ATOM     39  H32 UNL     1      -8.325  -1.020  -1.630  1.00  0.00     0.177 HD
ATOM     40  H31 UNL     1      -9.916  -0.199  -1.364  1.00  0.00     0.177 HD
ENDBRANCH  36  38
ENDBRANCH  33  36
BRANCH  35  41
HETATM   41  S1  UNL     1      -4.163   1.713   2.497  1.00  0.00    -0.116 SA
HETATM   42  C22 UNL     1      -4.054   3.465   1.969  1.00  0.00     0.097 C 
ENDBRANCH  35  41
ENDBRANCH   6  30
TORSDOF 10
