REMARK  8 active torsions:
REMARK  status: ('A' for Active; 'I' for Inactive)
REMARK    1  A    between atoms: C2_2  and  N1_3 
REMARK       I    between atoms: N1_3  and  C3_5 
REMARK       I    between atoms: C3_5  and  N2_7 
REMARK    2  A    between atoms: N2_7  and  C4_9 
REMARK    3  A    between atoms: N5_18  and  C9_19 
REMARK    4  A    between atoms: C9_19  and  C10_20 
REMARK    5  A    between atoms: C10_20  and  N6_21 
REMARK       I    between atoms: N7_25  and  C14_26 
REMARK    6  A    between atoms: C14_26  and  C15_28 
REMARK    7  A    between atoms: C23_36  and  C24_37 
REMARK    8  A    between atoms: C23_36  and  C26_39 
ROOT
HETATM    1  C4  UNL     1       4.888   0.286   0.156  1.00  0.00     0.132 A 
HETATM    2  N3  UNL     1       5.235   0.173  -1.132  1.00  0.00    -0.285 N 
ATOM      3  H3  UNL     1       5.888   0.784  -1.623  1.00  0.00     0.188 HD
HETATM    4  N4  UNL     1       4.588  -0.871  -1.676  1.00  0.00    -0.300 N 
ATOM      5  H4  UNL     1       4.670  -1.181  -2.644  1.00  0.00     0.186 HD
HETATM    6  C5  UNL     1       3.824  -1.434  -0.745  1.00  0.00     0.064 A 
HETATM    7  C6  UNL     1       3.993  -0.734   0.400  1.00  0.00     0.015 A 
HETATM    8  C7  UNL     1       3.297  -1.079   1.641  1.00  0.00     0.064 C 
HETATM    9  C8  UNL     1       2.102  -1.964   1.457  1.00  0.00     0.123 C 
HETATM   10  N5  UNL     1       1.771  -2.253   0.105  1.00  0.00    -0.393 N 
HETATM   11  C23 UNL     1       2.871  -2.621  -0.700  1.00  0.00     0.072 C 
ENDROOT
BRANCH  10  12
HETATM   12  C9  UNL     1       0.877  -1.367  -0.532  1.00  0.00     0.163 C 
BRANCH  12  13
HETATM   13  C10 UNL     1      -0.533  -1.396   0.007  1.00  0.00     0.087 C 
BRANCH  13  14
HETATM   14  N6  UNL     1      -1.381  -0.499  -0.659  1.00  0.00    -0.351 N 
HETATM   15  C11 UNL     1      -1.739  -0.703  -1.993  1.00  0.00     0.069 C 
HETATM   16  C12 UNL     1      -3.250  -0.682  -2.167  1.00  0.00     0.065 C 
HETATM   17  C13 UNL     1      -3.756   0.751  -2.135  1.00  0.00     0.131 C 
HETATM   18  N7  UNL     1      -4.005   1.073  -0.759  1.00  0.00    -0.347 N 
HETATM   19  C14 UNL     1      -5.202   1.782  -0.514  1.00  0.00     0.224 C 
HETATM   20  C21 UNL     1      -3.197   0.779   0.383  1.00  0.00     0.170 C 
HETATM   21  O2  UNL     1      -5.966   2.105  -1.499  1.00  0.00    -0.273 OA
HETATM   22  C22 UNL     1      -1.725   0.682   0.010  1.00  0.00     0.087 C 
BRANCH  19  23
HETATM   23  C15 UNL     1      -5.670   2.199   0.831  1.00  0.00     0.078 C 
HETATM   24  C16 UNL     1      -6.877   3.100   0.644  1.00  0.00     0.014 C 
HETATM   25  C17 UNL     1      -8.138   2.282   0.463  1.00  0.00     0.001 C 
HETATM   26  C18 UNL     1      -8.479   1.649   1.773  1.00  0.00     0.000 C 
HETATM   27  C19 UNL     1      -7.261   1.172   2.472  1.00  0.00     0.001 C 
HETATM   28  C20 UNL     1      -6.055   0.945   1.589  1.00  0.00     0.014 C 
ENDBRANCH  19  23
ENDBRANCH  13  14
ENDBRANCH  12  13
ENDBRANCH  10  12
BRANCH  11  29
HETATM   29  C24 UNL     1       3.708  -3.738  -0.109  1.00  0.00     0.033 C 
HETATM   30  C25 UNL     1       3.004  -5.034   0.068  1.00  0.00     0.008 C 
ENDBRANCH  11  29
BRANCH  11  31
HETATM   31  C26 UNL     1       2.604  -2.926  -2.129  1.00  0.00     0.033 C 
HETATM   32  C27 UNL     1       1.680  -4.043  -2.432  1.00  0.00     0.008 C 
ENDBRANCH  11  31
BRANCH   1  33
HETATM   33  N2  UNL     1       5.329   1.176   0.969  1.00  0.00    -0.293 N 
HETATM   34  C3  UNL     1       6.260   2.186   0.624  1.00  0.00     0.321 C 
HETATM   35  N1  UNL     1       6.113   3.532   1.043  1.00  0.00    -0.343 N 
HETATM   36  O1  UNL     1       7.259   1.892  -0.079  1.00  0.00    -0.247 OA
ATOM     37  H1  UNL     1       5.312   3.801   1.614  1.00  0.00     0.164 HD
ATOM     38  H2  UNL     1       4.985   1.154   1.929  1.00  0.00     0.172 HD
BRANCH  35  39
HETATM   39  C2  UNL     1       7.084   4.517   0.668  1.00  0.00     0.120 C 
HETATM   40  C1  UNL     1       8.480   4.157   1.189  1.00  0.00     0.026 C 
ENDBRANCH  35  39
ENDBRANCH   1  33
TORSDOF 8
