REMARK  8 active torsions:
REMARK  status: ('A' for Active; 'I' for Inactive)
REMARK    1  A    between atoms: C4_9  and  C5_10 
REMARK    2  A    between atoms: C5_10  and  C6_11 
REMARK    3  A    between atoms: C12_18  and  O2_19 
REMARK    4  A    between atoms: O2_19  and  C13_20 
REMARK    5  A    between atoms: C13_20  and  C14_21 
REMARK    6  A    between atoms: C14_21  and  C15_22 
REMARK    7  A    between atoms: C15_22  and  N3_23 
REMARK    8  A    between atoms: C21_30  and  C22_31 
ROOT
HETATM    1  C6  UNL     1       3.554   1.703  -0.159  1.00  0.00    -0.041 A 
HETATM    2  C7  UNL     1       3.379   3.093  -0.289  1.00  0.00     0.010 A 
HETATM    3  C8  UNL     1       2.166   3.704  -0.351  1.00  0.00     0.025 A 
HETATM    4  C9  UNL     1       1.043   2.953  -0.286  1.00  0.00     0.045 A 
HETATM    5 CL1  UNL     1      -0.560   3.698  -0.355  1.00  0.00    -0.083 Cl
HETATM    6  C10 UNL     1       1.141   1.585  -0.160  1.00  0.00    -0.000 A 
HETATM    7  C11 UNL     1      -0.029   0.836  -0.095  1.00  0.00     0.051 A 
HETATM    8  C12 UNL     1       0.021  -0.508   0.027  1.00  0.00     0.084 A 
HETATM    9  C21 UNL     1       1.241  -1.123   0.085  1.00  0.00     0.048 A 
HETATM   10  C27 UNL     1       2.470  -0.430   0.023  1.00  0.00    -0.034 A 
HETATM   11  C28 UNL     1       3.725  -1.157   0.011  1.00  0.00     0.050 C 
HETATM   12  C29 UNL     1       2.396   0.940  -0.097  1.00  0.00    -0.011 A 
ENDROOT
BRANCH   8  13
HETATM   13  O2  UNL     1      -1.144  -1.248   0.094  1.00  0.00    -0.350 OA
BRANCH  13  14
HETATM   14  C13 UNL     1      -2.435  -0.631   0.032  1.00  0.00     0.177 C 
BRANCH  14  15
HETATM   15  C14 UNL     1      -3.478  -1.700   0.132  1.00  0.00     0.057 C 
BRANCH  15  16
HETATM   16  C15 UNL     1      -4.888  -1.317   0.122  1.00  0.00     0.274 C 
BRANCH  16  17
HETATM   17  N3  UNL     1      -5.457  -0.642  -0.994  1.00  0.00     0.091 N 
HETATM   18  C16 UNL     1      -6.926  -0.608  -0.878  1.00  0.00     0.302 C 
HETATM   19  C17 UNL     1      -7.413   0.308   0.190  1.00  0.00     0.302 C 
HETATM   20  N4  UNL     1      -7.084   1.703  -0.132  1.00  0.00     0.087 N 
HETATM   21  C18 UNL     1      -6.592   2.416   1.016  1.00  0.00     0.310 C 
HETATM   22  C19 UNL     1      -6.154   1.723  -1.237  1.00  0.00     0.302 C 
HETATM   23  C20 UNL     1      -5.010   0.737  -1.064  1.00  0.00     0.302 C 
ENDBRANCH  16  17
ENDBRANCH  15  16
ENDBRANCH  14  15
ENDBRANCH  13  14
ENDBRANCH   8  13
BRANCH   9  24
HETATM   24  C22 UNL     1       1.264  -2.580   0.228  1.00  0.00     0.112 C 
HETATM   25  N5  UNL     1       1.523  -3.119   1.364  1.00  0.00    -0.376 N 
HETATM   26  C23 UNL     1       1.569  -4.536   1.605  1.00  0.00     0.123 C 
ATOM     27  H5  UNL     1       1.709  -2.498   2.152  1.00  0.00     0.161 HD
HETATM   28  C24 UNL     1       2.009  -5.262   0.348  1.00  0.00     0.039 C 
HETATM   29  C25 UNL     1       1.096  -4.828  -0.758  1.00  0.00     0.125 C 
HETATM   30  N6  UNL     1       0.989  -3.396  -0.890  1.00  0.00    -0.371 N 
HETATM   31  C26 UNL     1       0.593  -2.845  -2.187  1.00  0.00     0.151 C 
ENDBRANCH   9  24
BRANCH   1  32
HETATM   32  C5  UNL     1       4.863   1.110  -0.047  1.00  0.00     0.098 C 
BRANCH  32  33
HETATM   33  C4  UNL     1       5.841   2.273   0.113  1.00  0.00     0.040 A 
HETATM   34  C2  UNL     1       6.092   3.008   1.279  1.00  0.00     0.033 A 
HETATM   35  C1  UNL     1       5.408   2.774   2.578  1.00  0.00     0.070 C 
HETATM   36  N1  UNL     1       7.035   3.937   1.027  1.00  0.00    -0.311 N 
HETATM   37  C3  UNL     1       7.386   3.810  -0.264  1.00  0.00     0.324 A 
ATOM     38  H1  UNL     1       7.412   4.611   1.693  1.00  0.00     0.170 HD
HETATM   39  O1  UNL     1       8.234   4.482  -0.906  1.00  0.00    -0.247 OA
HETATM   40  N2  UNL     1       6.668   2.816  -0.797  1.00  0.00    -0.310 N 
ATOM     41  H2  UNL     1       6.739   2.510  -1.767  1.00  0.00     0.170 HD
ENDBRANCH  32  33
ENDBRANCH   1  32
TORSDOF 8
