REMARK  3 active torsions:
REMARK  status: ('A' for Active; 'I' for Inactive)
REMARK    1  A    between atoms: C1_2  and  C2_5 
REMARK    2  A    between atoms: C9_14  and  O1_15 
REMARK    3  A    between atoms: O1_15  and  C10_16 
ROOT
HETATM    1  C2  UNL     1      -0.020  -1.737   1.787  1.00  0.00     0.083 A 
HETATM    2  C3  UNL     1       1.319  -1.986   1.623  1.00  0.00     0.049 A 
HETATM    3  C4  UNL     1       2.117  -1.311   0.721  1.00  0.00     0.045 A 
HETATM    4  N1  UNL     1       3.419  -1.369   0.382  1.00  0.00    -0.342 N 
ATOM      5  H1  UNL     1       4.089  -2.011   0.806  1.00  0.00     0.167 HD
HETATM    6  C5  UNL     1       3.731  -0.496  -0.566  1.00  0.00     0.108 A 
HETATM    7  C6  UNL     1       2.572   0.197  -0.891  1.00  0.00    -0.002 A 
HETATM    8  C7  UNL     1       1.579  -0.324  -0.080  1.00  0.00     0.003 A 
HETATM    9  C8  UNL     1       0.222  -0.069   0.083  1.00  0.00     0.052 A 
HETATM   10  C9  UNL     1      -0.579  -0.738   0.980  1.00  0.00     0.085 A 
HETATM   11  C15 UNL     1       2.496   1.254  -1.901  1.00  0.00     0.045 C 
HETATM   12  C16 UNL     1       3.723   1.317  -2.751  1.00  0.00     0.024 C 
HETATM   13  C17 UNL     1       4.956   1.202  -1.853  1.00  0.00     0.121 C 
HETATM   14  N2  UNL     1       4.915  -0.129  -1.283  1.00  0.00    -0.376 N 
ATOM     15  H2  UNL     1       5.696  -0.777  -1.388  1.00  0.00     0.161 HD
ENDROOT
BRANCH  10  16
HETATM   16  O1  UNL     1      -1.920  -0.511   1.165  1.00  0.00    -0.345 OA
BRANCH  16  17
HETATM   17  C10 UNL     1      -2.716   0.421   0.495  1.00  0.00     0.129 C 
HETATM   18  C11 UNL     1      -3.821  -0.257  -0.317  1.00  0.00     0.032 C 
HETATM   19  C12 UNL     1      -4.933   0.766  -0.378  1.00  0.00     0.002 C 
HETATM   20  C13 UNL     1      -4.926   1.303   1.026  1.00  0.00     0.002 C 
HETATM   21  C14 UNL     1      -3.491   1.313   1.439  1.00  0.00     0.032 C 
ENDBRANCH  16  17
ENDBRANCH  10  16
BRANCH   1  22
HETATM   22  C1  UNL     1      -0.855  -2.481   2.768  1.00  0.00     0.420 C 
HETATM   23  F1  UNL     1      -1.861  -3.124   2.084  1.00  0.00    -0.166 F 
HETATM   24  F2  UNL     1      -0.062  -3.322   3.483  1.00  0.00    -0.166 F 
HETATM   25  F3  UNL     1      -1.466  -1.619   3.673  1.00  0.00    -0.166 F 
ENDBRANCH   1  22
TORSDOF 3
