REMARK  3 active torsions:
REMARK  status: ('A' for Active; 'I' for Inactive)
REMARK    1  A    between atoms: N1_1  and  C1_4 
REMARK    2  A    between atoms: C2_7  and  N3_8 
REMARK    3  A    between atoms: N3_8  and  C3_10 
ROOT
HETATM    1  C1  UNL     1      -0.363   1.693   1.144  1.00  0.00     0.113 A 
HETATM    2  N2  UNL     1       0.786   1.082   0.708  1.00  0.00    -0.328 N 
ATOM      3  H2  UNL     1       1.681   1.502   0.958  1.00  0.00     0.169 HD
HETATM    4  C2  UNL     1       0.794  -0.032  -0.025  1.00  0.00     0.108 A 
HETATM    5  C9  UNL     1      -0.488  -0.541  -0.325  1.00  0.00     0.063 A 
HETATM    6  C10 UNL     1      -1.663   0.017   0.075  1.00  0.00     0.005 A 
HETATM    7  C11 UNL     1      -3.007  -0.319  -0.109  1.00  0.00     0.022 A 
HETATM    8  N4  UNL     1      -3.715   0.604   0.519  1.00  0.00    -0.358 N 
HETATM    9  C12 UNL     1      -2.896   1.514   1.098  1.00  0.00     0.107 A 
HETATM   10  C13 UNL     1      -1.592   1.166   0.832  1.00  0.00     0.035 A 
HETATM   11  C14 UNL     1      -5.142   0.284   0.347  1.00  0.00     0.128 C 
HETATM   12  C15 UNL     1      -5.202  -1.136  -0.110  1.00  0.00     0.026 C 
HETATM   13  C16 UNL     1      -3.853  -1.354  -0.767  1.00  0.00     0.059 C 
ENDROOT
BRANCH   4  14
HETATM   14  N3  UNL     1       1.925  -0.679  -0.556  1.00  0.00    -0.340 N 
ATOM     15  H3  UNL     1       1.688  -1.482  -1.139  1.00  0.00     0.167 HD
BRANCH  14  16
HETATM   16  C3  UNL     1       3.290  -0.464  -0.460  1.00  0.00     0.075 A 
HETATM   17  C4  UNL     1       3.891   0.144   0.603  1.00  0.00     0.078 A 
HETATM   18  C5  UNL     1       5.275   0.254   0.661  1.00  0.00     0.157 A 
HETATM   19  F1  UNL     1       5.855   0.865   1.729  1.00  0.00    -0.203 F 
HETATM   20  C6  UNL     1       6.070  -0.235  -0.328  1.00  0.00     0.157 A 
HETATM   21  F2  UNL     1       7.408  -0.154  -0.319  1.00  0.00    -0.203 F 
HETATM   22  C7  UNL     1       5.465  -0.855  -1.408  1.00  0.00     0.090 A 
HETATM   23  C8  UNL     1       4.123  -0.973  -1.487  1.00  0.00     0.146 A 
HETATM   24  F3  UNL     1       3.550  -1.572  -2.540  1.00  0.00    -0.204 F 
ENDBRANCH  14  16
ENDBRANCH   4  14
BRANCH   1  25
HETATM   25  N1  UNL     1      -0.248   2.752   1.840  1.00  0.00    -0.385 N 
ATOM     26  H12 UNL     1       0.665   3.143   2.072  1.00  0.00     0.157 HD
ATOM     27  H11 UNL     1      -1.102   3.206   2.164  1.00  0.00     0.157 HD
ENDBRANCH   1  25
TORSDOF 3
