REMARK  6 active torsions:
REMARK  status: ('A' for Active; 'I' for Inactive)
REMARK    1  A    between atoms: N1_1  and  C1_5 
REMARK    2  A    between atoms: C1_5  and  N2_6 
REMARK    3  A    between atoms: C1_5  and  C2_10 
REMARK    4  A    between atoms: C5_13  and  N3_14 
REMARK    5  A    between atoms: C6_15  and  O1_16 
REMARK    6  A    between atoms: C9_20  and  O2_21 
ROOT
HETATM    1  N3  UNL     1      -0.099  -0.960   0.428  1.00  0.00    -0.302 N 
HETATM    2  C6  UNL     1      -0.600  -2.219   0.279  1.00  0.00     0.164 A 
HETATM    3  C7  UNL     1      -1.861  -2.148  -0.223  1.00  0.00     0.093 A 
HETATM    4  C8  UNL     1      -2.158  -0.819  -0.392  1.00  0.00     0.052 A 
HETATM    5  C9  UNL     1      -1.044  -0.099   0.021  1.00  0.00     0.155 A 
HETATM    6  C10 UNL     1      -3.514  -0.582  -0.920  1.00  0.00     0.109 C 
HETATM    7  C11 UNL     1      -3.520   0.672  -1.770  1.00  0.00     0.045 C 
HETATM    8  C12 UNL     1      -4.135   1.768  -0.958  1.00  0.00     0.004 C 
HETATM    9  C13 UNL     1      -4.567   1.177   0.360  1.00  0.00     0.004 C 
HETATM   10  C14 UNL     1      -4.507  -0.324   0.196  1.00  0.00     0.045 C 
HETATM   11  O3  UNL     1      -3.911  -1.613  -1.743  1.00  0.00    -0.298 OA
HETATM   12  S1  UNL     1      -3.335  -2.969  -0.791  1.00  0.00     0.035 SA
ENDROOT
BRANCH   1  13
HETATM   13  C5  UNL     1       1.179  -0.588   0.921  1.00  0.00     0.094 C 
HETATM   14  C4  UNL     1       2.171  -1.710   1.047  1.00  0.00     0.026 C 
HETATM   15  C3  UNL     1       3.514  -0.968   1.085  1.00  0.00     0.010 C 
HETATM   16  C2  UNL     1       3.270   0.434   0.654  1.00  0.00     0.045 C 
HETATM   17  C15 UNL     1       1.900   0.354  -0.016  1.00  0.00     0.034 C 
BRANCH  16  18
HETATM   18  C1  UNL     1       4.253   0.868  -0.423  1.00  0.00     0.382 C 
BRANCH  18  19
HETATM   19  N1  UNL     1       3.961   2.228  -0.791  1.00  0.00    -0.050 N 
ATOM     20  H13 UNL     1       4.097   2.889  -0.026  1.00  0.00     0.276 HD
ATOM     21  H12 UNL     1       4.648   2.628  -1.430  1.00  0.00     0.276 HD
ATOM     22  H11 UNL     1       3.012   2.236  -1.165  1.00  0.00     0.276 HD
ENDBRANCH  18  19
BRANCH  18  23
HETATM   23  N2  UNL     1       5.615   0.857   0.114  1.00  0.00    -0.050 N 
ATOM     24  H23 UNL     1       6.302   1.257  -0.525  1.00  0.00     0.276 HD
ATOM     25  H22 UNL     1       5.751   1.518   0.879  1.00  0.00     0.276 HD
ATOM     26  H21 UNL     1       5.822  -0.107   0.375  1.00  0.00     0.276 HD
ENDBRANCH  18  23
ENDBRANCH  16  18
ENDBRANCH   1  13
BRANCH   2  27
HETATM   27  O1  UNL     1       0.016  -3.431   0.571  1.00  0.00    -0.345 OA
ATOM     28  H1  UNL     1      -0.333  -4.308   0.467  1.00  0.00     0.219 HD
ENDBRANCH   2  27
BRANCH   5  29
HETATM   29  O2  UNL     1      -0.960   1.310  -0.000  1.00  0.00    -0.345 OA
ATOM     30  H2  UNL     1      -1.629   1.920  -0.288  1.00  0.00     0.219 HD
ENDBRANCH   5  29
TORSDOF 6
