REMARK  7 active torsions:
REMARK  status: ('A' for Active; 'I' for Inactive)
REMARK    1  A    between atoms: N1_2  and  C2_3 
REMARK    2  A    between atoms: N1_2  and  C17_27 
REMARK    3  A    between atoms: C9_13  and  N4_14 
REMARK    4  A    between atoms: N4_14  and  C10_16 
REMARK    5  A    between atoms: C10_16  and  C11_17 
REMARK    6  A    between atoms: C11_17  and  C12_18 
REMARK    7  A    between atoms: C12_18  and  N5_19 
ROOT
HETATM    1  C2  UNL     1      -1.978  -1.143  -0.341  1.00  0.00     0.106 A 
HETATM    2  C3  UNL     1      -2.472  -2.408  -0.580  1.00  0.00     0.079 A 
HETATM    3  C4  UNL     1      -1.665  -3.533  -0.412  1.00  0.00     0.051 A 
HETATM    4  N2  UNL     1      -1.849  -4.860  -0.560  1.00  0.00    -0.363 N 
ATOM      5  H2  UNL     1      -2.722  -5.297  -0.856  1.00  0.00     0.165 HD
HETATM    6  C5  UNL     1      -0.712  -5.531  -0.260  1.00  0.00     0.112 A 
HETATM    7  C6  UNL     1       0.218  -4.575   0.091  1.00  0.00     0.076 A 
HETATM    8  C7  UNL     1       1.564  -4.895   0.479  1.00  0.00     0.102 C 
HETATM    9  N3  UNL     1       2.667  -5.142   0.797  1.00  0.00    -0.191 NA
HETATM   10  C8  UNL     1      -0.347  -3.316   0.006  1.00  0.00     0.057 A 
HETATM   11  C9  UNL     1       0.126  -2.042   0.239  1.00  0.00     0.116 A 
HETATM   12  N6  UNL     1      -0.706  -1.002   0.057  1.00  0.00    -0.328 N 
ATOM     13  H6  UNL     1      -0.353  -0.061   0.230  1.00  0.00     0.169 HD
ENDROOT
BRANCH  11  14
HETATM   14  N4  UNL     1       1.352  -1.923   0.622  1.00  0.00    -0.375 N 
ATOM     15  H4  UNL     1       1.906  -2.773   0.732  1.00  0.00     0.161 HD
BRANCH  14  16
HETATM   16  C10 UNL     1       1.982  -0.664   0.902  1.00  0.00     0.123 C 
BRANCH  16  17
HETATM   17  C11 UNL     1       2.629  -0.150  -0.368  1.00  0.00     0.050 C 
BRANCH  17  18
HETATM   18  C12 UNL     1       3.316   1.181  -0.150  1.00  0.00     0.274 C 
BRANCH  18  19
HETATM   19  N5  UNL     1       4.359   1.088   0.852  1.00  0.00     0.092 N 
HETATM   20  C13 UNL     1       4.963   2.399   0.999  1.00  0.00     0.298 C 
HETATM   21  C14 UNL     1       5.820   2.744  -0.207  1.00  0.00     0.198 C 
HETATM   22  O1  UNL     1       6.791   1.796  -0.462  1.00  0.00    -0.388 OA
HETATM   23  C15 UNL     1       6.190   0.581  -0.715  1.00  0.00     0.198 C 
HETATM   24  C16 UNL     1       5.388   0.151   0.487  1.00  0.00     0.298 C 
ENDBRANCH  18  19
ENDBRANCH  17  18
ENDBRANCH  16  17
ENDBRANCH  14  16
ENDBRANCH  11  14
BRANCH   1  25
HETATM   25  N1  UNL     1      -2.855  -0.043  -0.534  1.00  0.00    -0.367 N 
HETATM   26  C1  UNL     1      -2.863   0.561  -1.851  1.00  0.00     0.151 C 
BRANCH  25  27
HETATM   27  C17 UNL     1      -3.675   0.410   0.568  1.00  0.00     0.085 C 
HETATM   28  C18 UNL     1      -5.139   0.363   0.256  1.00  0.00     0.025 C 
HETATM   29  C19 UNL     1      -5.780   1.631  -0.148  1.00  0.00     0.002 C 
HETATM   30  C20 UNL     1      -5.152   2.882   0.345  1.00  0.00     0.000 C 
HETATM   31  C21 UNL     1      -3.660   2.881   0.373  1.00  0.00     0.002 C 
HETATM   32  C22 UNL     1      -3.188   1.702   1.152  1.00  0.00     0.025 C 
ENDBRANCH  25  27
ENDBRANCH   1  25
TORSDOF 7
