REMARK  3 active torsions:
REMARK  status: ('A' for Active; 'I' for Inactive)
REMARK    1  A    between atoms: C6_7  and  N1_8 
REMARK       I    between atoms: N1_8  and  C7_10 
REMARK       I    between atoms: C7_10  and  N2_12 
REMARK    2  A    between atoms: N2_12  and  C8_14 
REMARK    3  A    between atoms: C13_22  and  C15_24 
ROOT
HETATM    1  C8  UNL     1       6.617  -1.205  -0.546  1.00  0.00     0.248 C 
HETATM    2  C9  UNL     1       7.874  -0.690  -0.024  1.00  0.00     0.078 C 
HETATM    3  N3  UNL     1       8.866  -0.267   0.403  1.00  0.00    -0.196 NA
ENDROOT
BRANCH   1   4
HETATM    4  N2  UNL     1       5.532  -0.353  -0.124  1.00  0.00    -0.331 N 
HETATM    5  C7  UNL     1       4.180  -0.589  -0.472  1.00  0.00     0.321 C 
HETATM    6  N1  UNL     1       3.148   0.249  -0.051  1.00  0.00    -0.302 N 
HETATM    7  O1  UNL     1       3.951  -1.607  -1.189  1.00  0.00    -0.247 OA
ATOM      8  H1  UNL     1       3.356   1.063   0.527  1.00  0.00     0.171 HD
ATOM      9  H2  UNL     1       5.750   0.459   0.453  1.00  0.00     0.165 HD
BRANCH   6  10
HETATM   10  C6  UNL     1       1.788  -0.035  -0.432  1.00  0.00     0.100 A 
HETATM   11  S1  UNL     1       1.196  -1.319  -1.380  1.00  0.00    -0.072 SA
HETATM   12  C5  UNL     1      -0.463  -0.942  -1.356  1.00  0.00     0.021 A 
HETATM   13  C4  UNL     1      -0.504   0.207  -0.588  1.00  0.00     0.012 A 
HETATM   14  C12 UNL     1      -1.693  -1.582  -1.945  1.00  0.00     0.216 C 
HETATM   15  C3  UNL     1      -1.924   0.732  -0.445  1.00  0.00    -0.015 C 
HETATM   16  C10 UNL     1       0.659   0.671  -0.113  1.00  0.00     0.090 A 
HETATM   17  C2  UNL     1      -2.127   2.010  -0.474  1.00  0.00    -0.020 C 
HETATM   18  C13 UNL     1      -2.889  -0.357  -0.327  1.00  0.00     0.085 C 
HETATM   19  C1  UNL     1      -3.348   2.807  -0.363  1.00  0.00     0.036 C 
HETATM   20  O2  UNL     1      -2.841  -1.044  -1.540  1.00  0.00    -0.371 OA
HETATM   21  C14 UNL     1      -4.331   0.031  -0.134  1.00  0.00     0.051 C 
HETATM   22  C11 UNL     1       0.789   1.867   0.745  1.00  0.00     0.103 C 
HETATM   23  N4  UNL     1       0.898   2.805   1.449  1.00  0.00    -0.191 NA
BRANCH  18  24
HETATM   24  C15 UNL     1      -2.597  -1.320   0.820  1.00  0.00     0.038 C 
HETATM   25  C16 UNL     1      -2.592  -0.643   2.146  1.00  0.00     0.008 C 
ENDBRANCH  18  24
ENDBRANCH   6  10
ENDBRANCH   1   4
TORSDOF 3
