REMARK  8 active torsions:
REMARK  status: ('A' for Active; 'I' for Inactive)
REMARK    1  A    between atoms: C2_2  and  O2_4 
REMARK    2  A    between atoms: O2_4  and  C3_5 
REMARK    3  A    between atoms: C3_5  and  C4_6 
REMARK    4  A    between atoms: C4_6  and  O3_7 
REMARK    5  A    between atoms: C4_6  and  C5_9 
REMARK    6  A    between atoms: C5_9  and  O4_10 
REMARK    7  A    between atoms: C5_9  and  C6_12 
REMARK    8  A    between atoms: C8_14  and  C9_15 
ROOT
HETATM    1  C6  UNL     1       1.857  -1.616   0.644  1.00  0.00    -0.053 C 
HETATM    2  C7  UNL     1       1.585  -2.713   1.585  1.00  0.00     0.046 C 
HETATM    3  C8  UNL     1       0.919  -0.710   0.427  1.00  0.00     0.007 C 
ENDROOT
BRANCH   3   4
HETATM    4  C9  UNL     1      -0.378  -0.748   1.081  1.00  0.00     0.033 C 
HETATM    5  C10 UNL     1      -1.278   0.199   0.814  1.00  0.00     0.054 C 
HETATM    6  O5  UNL     1      -2.535   0.280   1.359  1.00  0.00    -0.318 OA
HETATM    7  C19 UNL     1      -1.105   1.325  -0.105  1.00  0.00     0.048 C 
HETATM    8  C11 UNL     1      -3.308   1.271   0.706  1.00  0.00     0.171 C 
HETATM    9  C12 UNL     1      -3.331   2.505   1.619  1.00  0.00     0.080 C 
HETATM   10  O6  UNL     1      -4.573   0.837   0.547  1.00  0.00    -0.344 OA
HETATM   11  C18 UNL     1      -2.548   1.606  -0.533  1.00  0.00     0.058 C 
HETATM   12  C13 UNL     1      -4.864   0.003  -0.487  1.00  0.00     0.057 C 
HETATM   13  C14 UNL     1      -5.519  -1.250   0.117  1.00  0.00     0.045 C 
HETATM   14  C15 UNL     1      -5.938   0.588  -1.415  1.00  0.00     0.045 C 
HETATM   15  C16 UNL     1      -3.708  -0.477  -1.301  1.00  0.00     0.038 C 
HETATM   16  C17 UNL     1      -2.833   0.686  -1.689  1.00  0.00     0.014 C 
HETATM   17  C20 UNL     1      -0.444   2.521   0.491  1.00  0.00     0.017 C 
ENDBRANCH   3   4
BRANCH   1  18
HETATM   18  C5  UNL     1       3.146  -1.476  -0.080  1.00  0.00     0.177 C 
BRANCH  18  19
HETATM   19  C4  UNL     1       4.253  -1.259   0.892  1.00  0.00     0.175 C 
BRANCH  19  20
HETATM   20  C3  UNL     1       5.592  -1.098   0.203  1.00  0.00     0.213 C 
BRANCH  20  21
HETATM   21  O2  UNL     1       5.553   0.012  -0.705  1.00  0.00    -0.319 OA
BRANCH  21  22
HETATM   22  C2  UNL     1       6.631   0.383  -1.461  1.00  0.00     0.254 C 
HETATM   23  C1  UNL     1       6.633   1.527  -2.414  1.00  0.00     0.126 C 
HETATM   24  O1  UNL     1       7.693  -0.278  -1.349  1.00  0.00    -0.266 OA
ENDBRANCH  21  22
ENDBRANCH  20  21
ENDBRANCH  19  20
BRANCH  19  25
HETATM   25  O3  UNL     1       4.373  -2.346   1.747  1.00  0.00    -0.391 OA
ATOM     26  H3  UNL     1       3.533  -2.447   2.179  1.00  0.00     0.210 HD
ENDBRANCH  19  25
ENDBRANCH  18  19
BRANCH  18  27
HETATM   27  O4  UNL     1       3.324  -2.603  -0.869  1.00  0.00    -0.389 OA
ATOM     28  H4  UNL     1       2.618  -2.741  -1.489  1.00  0.00     0.210 HD
ENDBRANCH  18  27
ENDBRANCH   1  18
TORSDOF 8
