REMARK  2 active torsions:
REMARK  status: ('A' for Active; 'I' for Inactive)
REMARK    1  A    between atoms: N5_14  and  S1_16 
REMARK    2  A    between atoms: S1_16  and  N6_17 
ROOT
HETATM    1  N1  UNL     1      -0.977   1.756   0.875  1.00  0.00    -0.382 N 
ATOM      2  H11 UNL     1      -0.007   2.064   0.938  1.00  0.00     0.157 HD
ATOM      3  H12 UNL     1      -1.694   2.417   1.174  1.00  0.00     0.157 HD
HETATM    4  C1  UNL     1      -1.142   0.590   0.432  1.00  0.00     0.149 A 
HETATM    5  N2  UNL     1      -2.448   0.176   0.347  1.00  0.00    -0.291 N 
ATOM      6  H2  UNL     1      -3.176   0.827   0.643  1.00  0.00     0.172 HD
HETATM    7  C2  UNL     1      -2.824  -1.019  -0.096  1.00  0.00     0.340 A 
HETATM    8  O1  UNL     1      -4.039  -1.341  -0.149  1.00  0.00    -0.245 OA
HETATM    9  N3  UNL     1      -1.854  -1.864  -0.481  1.00  0.00    -0.250 N 
ATOM     10  H3  UNL     1      -2.113  -2.789  -0.825  1.00  0.00     0.192 HD
HETATM   11  N4  UNL     1      -0.596  -1.543  -0.430  1.00  0.00    -0.278 N 
ATOM     12  H4  UNL     1       0.102  -2.221  -0.735  1.00  0.00     0.189 HD
HETATM   13  C3  UNL     1      -0.177  -0.299   0.029  1.00  0.00     0.175 A 
HETATM   14  N5  UNL     1       1.036  -0.053   0.053  1.00  0.00    -0.249 N 
ATOM     15  H5  UNL     1       1.525  -0.877  -0.297  1.00  0.00     0.182 HD
ENDROOT
BRANCH  14  16
HETATM   16  S1  UNL     1       2.162   1.071   0.424  1.00  0.00     0.318 S 
HETATM   17  O2  UNL     1       2.135   2.367  -0.374  1.00  0.00    -0.183 OA
HETATM   18  O3  UNL     1       2.220   1.378   1.923  1.00  0.00    -0.183 OA
BRANCH  16  19
HETATM   19  N6  UNL     1       3.754   0.367   0.034  1.00  0.00    -0.311 N 
ATOM     20  H62 UNL     1       3.915  -0.565  -0.349  1.00  0.00     0.170 HD
ATOM     21  H61 UNL     1       4.457   1.069   0.266  1.00  0.00     0.170 HD
ENDBRANCH  16  19
ENDBRANCH  14  16
TORSDOF 2
