REMARK  0 active torsions:
REMARK  status: ('A' for Active; 'I' for Inactive)
ROOT
HETATM    1  O1  UNL     1      -3.407  -1.455   0.081  1.00  0.00    -0.247 OA
HETATM    2  C1  UNL     1      -2.328  -0.814   0.037  1.00  0.00     0.328 A 
HETATM    3  N1  UNL     1      -2.402   0.521  -0.102  1.00  0.00    -0.275 N 
ATOM      4  H1  UNL     1      -3.313   0.976  -0.167  1.00  0.00     0.173 HD
HETATM    5  C2  UNL     1      -1.265   1.268  -0.156  1.00  0.00     0.267 A 
HETATM    6  O2  UNL     1      -1.312   2.501  -0.283  1.00  0.00    -0.267 OA
HETATM    7  C3  UNL     1      -0.034   0.667  -0.069  1.00  0.00     0.133 A 
HETATM    8  C4  UNL     1       1.145   1.377  -0.118  1.00  0.00     0.260 A 
HETATM    9  O3  UNL     1       1.117   2.636  -0.248  1.00  0.00    -0.281 OA
HETATM   10  C5  UNL     1       2.379   0.753  -0.029  1.00  0.00     0.311 A 
HETATM   11  O4  UNL     1       3.450   1.396  -0.074  1.00  0.00    -0.262 OA
HETATM   12  N2  UNL     1       2.354  -0.584   0.107  1.00  0.00    -0.262 N 
ATOM     13  H2  UNL     1       3.241  -1.082   0.175  1.00  0.00     0.190 HD
HETATM   14  N3  UNL     1       1.233  -1.284   0.157  1.00  0.00    -0.281 N 
ATOM     15  H3  UNL     1       1.286  -2.297   0.263  1.00  0.00     0.188 HD
HETATM   16  C6  UNL     1       0.029  -0.699   0.072  1.00  0.00     0.144 A 
HETATM   17  N4  UNL     1      -1.122  -1.407   0.122  1.00  0.00    -0.292 N 
ATOM     18  H4  UNL     1      -1.075  -2.420   0.227  1.00  0.00     0.172 HD
ENDROOT
TORSDOF 0
