REMARK  6 active torsions:
REMARK  status: ('A' for Active; 'I' for Inactive)
REMARK    1  A    between atoms: C4_5  and  O2_6 
REMARK    2  A    between atoms: C6_11  and  O5_13 
REMARK    3  A    between atoms: C11_19  and  O7_20 
REMARK    4  A    between atoms: C11_19  and  C12_22 
REMARK    5  A    between atoms: C12_22  and  O8_23 
REMARK    6  A    between atoms: C14_27  and  O10_28 
ROOT
HETATM    1  C1  UNL     1       3.433   1.888   0.343  1.00  0.00     0.078 C 
HETATM    2  C2  UNL     1       2.649   0.705  -0.241  1.00  0.00     0.164 C 
HETATM    3  C3  UNL     1       3.364  -0.538   0.220  1.00  0.00     0.078 C 
HETATM    4  O1  UNL     1       2.536   0.821  -1.599  1.00  0.00    -0.321 OA
HETATM    5  C4  UNL     1       1.371   0.078  -1.905  1.00  0.00     0.327 C 
HETATM    6  C5  UNL     1       0.530   0.081  -0.649  1.00  0.00     0.263 C 
HETATM    7  O3  UNL     1       1.366   0.815   0.206  1.00  0.00    -0.312 OA
HETATM    8  O4  UNL     1       0.472  -1.155  -0.039  1.00  0.00    -0.311 OA
HETATM    9  C6  UNL     1      -0.618  -1.919  -0.130  1.00  0.00     0.170 C 
HETATM   10  C7  UNL     1      -0.708  -2.846   1.075  1.00  0.00     0.079 C 
HETATM   11  C8  UNL     1      -1.932  -1.152  -0.348  1.00  0.00     0.115 C 
HETATM   12  C9  UNL     1      -2.639  -0.836   0.894  1.00  0.00     0.042 C 
HETATM   13  C10 UNL     1      -2.013  -0.005   1.933  1.00  0.00     0.172 C 
HETATM   14  O6  UNL     1      -0.873   0.695   1.566  1.00  0.00    -0.351 OA
HETATM   15  C11 UNL     1      -1.244   1.470   0.473  1.00  0.00     0.227 C 
HETATM   16  C13 UNL     1      -0.722   0.835  -0.757  1.00  0.00     0.240 A 
HETATM   17  O9  UNL     1      -1.584   1.031  -1.756  1.00  0.00    -0.323 OA
HETATM   18  C14 UNL     1      -1.665  -0.205  -1.399  1.00  0.00     0.215 A 
ENDROOT
BRANCH   5  19
HETATM   19  O2  UNL     1       1.804  -1.170  -2.285  1.00  0.00    -0.366 OA
ATOM     20  H2  UNL     1       1.022  -1.669  -2.490  1.00  0.00     0.212 HD
ENDBRANCH   5  19
BRANCH   9  21
HETATM   21  O5  UNL     1      -0.441  -2.799  -1.225  1.00  0.00    -0.365 OA
ATOM     22  H5  UNL     1      -1.217  -3.343  -1.290  1.00  0.00     0.213 HD
ENDBRANCH   9  21
BRANCH  15  23
HETATM   23  O7  UNL     1      -2.653   1.663   0.464  1.00  0.00    -0.361 OA
ATOM     24  H7  UNL     1      -2.907   2.193  -0.283  1.00  0.00     0.213 HD
ENDBRANCH  15  23
BRANCH  15  25
HETATM   25  C12 UNL     1      -0.709   2.893   0.553  1.00  0.00     0.236 C 
BRANCH  25  26
HETATM   26  O8  UNL     1      -1.199   3.536   1.704  1.00  0.00    -0.395 OA
ATOM     27  H8  UNL     1      -0.865   4.424   1.754  1.00  0.00     0.209 HD
ENDBRANCH  25  26
ENDBRANCH  15  25
BRANCH  18  28
HETATM   28  O10 UNL     1      -1.059  -0.912  -2.499  1.00  0.00    -0.362 OA
ATOM     29  H10 UNL     1      -0.883  -0.287  -3.193  1.00  0.00     0.213 HD
ENDBRANCH  18  28
TORSDOF 6
