REMARK  19 active torsions:
REMARK  status: ('A' for Active; 'I' for Inactive)
REMARK    1  A    between atoms: N1_1  and  C1_5 
REMARK    2  A    between atoms: C1_5  and  C2_6 
REMARK    3  A    between atoms: C2_6  and  N2_7 
REMARK    4  A    between atoms: N2_7  and  C3_9 
REMARK    5  A    between atoms: C3_9  and  C4_10 
REMARK    6  A    between atoms: C4_10  and  C5_11 
REMARK    7  A    between atoms: C5_11  and  N3_12 
REMARK    8  A    between atoms: N3_12  and  S1_14 
REMARK    9  A    between atoms: S1_14  and  O3_17 
REMARK   10  A    between atoms: O3_17  and  C6_18 
REMARK   11  A    between atoms: C6_18  and  C7_19 
REMARK   12  A    between atoms: C7_19  and  C8_20 
REMARK   13  A    between atoms: C8_20  and  O4_21 
REMARK   14  A    between atoms: C10_24  and  C11_25 
REMARK   15  A    between atoms: C11_25  and  N4_26 
REMARK   16  A    between atoms: C14_31  and  N6_32 
REMARK   17  A    between atoms: N6_32  and  C15_34 
REMARK   18  A    between atoms: C17_36  and  O5_37 
REMARK   19  A    between atoms: C20_41  and  O6_42 
ROOT
HETATM    1  C7  UNL     1      -0.720   0.762   1.789  1.00  0.00     0.107 C 
HETATM    2  C9  UNL     1       0.662   0.465   1.213  1.00  0.00     0.076 C 
HETATM    3  C10 UNL     1       0.354   1.621   0.344  1.00  0.00     0.144 C 
HETATM    4  O7  UNL     1      -0.669   1.994   1.186  1.00  0.00    -0.369 OA
ENDROOT
BRANCH   3   5
HETATM    5  C11 UNL     1       1.385   2.651   0.053  1.00  0.00     0.163 C 
BRANCH   5   6
HETATM    6  N4  UNL     1       2.526   2.059  -0.619  1.00  0.00    -0.325 N 
HETATM    7  C12 UNL     1       2.591   1.862  -1.978  1.00  0.00     0.185 A 
HETATM    8  N5  UNL     1       3.769   1.284  -2.246  1.00  0.00    -0.346 N 
HETATM    9  C13 UNL     1       4.446   1.111  -1.112  1.00  0.00     0.122 A 
ATOM     10  H5  UNL     1       4.097   1.018  -3.174  1.00  0.00     0.167 HD
HETATM   11  C14 UNL     1       5.688   0.588  -0.773  1.00  0.00     0.138 A 
HETATM   12  C22 UNL     1       3.657   1.601  -0.098  1.00  0.00     0.140 A 
HETATM   13  N7  UNL     1       6.052   0.588   0.510  1.00  0.00    -0.337 N 
HETATM   14  C21 UNL     1       5.276   1.069   1.500  1.00  0.00     0.183 A 
ATOM     15  H7  UNL     1       6.965   0.204   0.754  1.00  0.00     0.168 HD
HETATM   16  N8  UNL     1       4.091   1.570   1.199  1.00  0.00    -0.336 N 
ATOM     17  H8  UNL     1       3.494   1.937   1.940  1.00  0.00     0.168 HD
BRANCH  11  18
HETATM   18  N6  UNL     1       6.397   0.143  -1.731  1.00  0.00    -0.338 N 
ATOM     19  H6  UNL     1       6.046   0.181  -2.688  1.00  0.00     0.167 HD
BRANCH  18  20
HETATM   20  C15 UNL     1       7.671  -0.404  -1.467  1.00  0.00     0.070 A 
HETATM   21  C16 UNL     1       8.785   0.366  -1.151  1.00  0.00     0.069 A 
HETATM   22  C17 UNL     1       9.965  -0.265  -0.919  1.00  0.00     0.068 A 
HETATM   23  C18 UNL     1      10.069  -1.644  -0.992  1.00  0.00     0.039 A 
HETATM   24  C19 UNL     1       8.966  -2.385  -1.303  1.00  0.00     0.041 A 
HETATM   25  C20 UNL     1       7.757  -1.799  -1.545  1.00  0.00     0.092 A 
BRANCH  22  26
HETATM   26  O5  UNL     1      11.085   0.502  -0.602  1.00  0.00    -0.361 OA
ATOM     27  H5  UNL     1      11.910   0.061  -0.440  1.00  0.00     0.217 HD
ENDBRANCH  22  26
BRANCH  25  28
HETATM   28  O6  UNL     1       6.661  -2.578  -1.857  1.00  0.00    -0.358 OA
ATOM     29  H6  UNL     1       6.719  -3.525  -1.910  1.00  0.00     0.217 HD
ENDBRANCH  25  28
ENDBRANCH  18  20
ENDBRANCH  11  18
ENDBRANCH   5   6
ENDBRANCH   3   5
BRANCH   1  30
HETATM   30  C6  UNL     1      -1.826  -0.090   1.248  1.00  0.00     0.232 C 
BRANCH  30  31
HETATM   31  O3  UNL     1      -1.747  -0.366  -0.089  1.00  0.00    -0.257 OA
BRANCH  31  32
HETATM   32  S1  UNL     1      -2.974  -1.302  -0.677  1.00  0.00     0.357 S 
HETATM   33  O1  UNL     1      -2.513  -2.694  -1.000  1.00  0.00    -0.176 OA
HETATM   34  O2  UNL     1      -3.443  -0.715  -2.003  1.00  0.00    -0.176 OA
BRANCH  32  35
HETATM   35  N3  UNL     1      -4.337  -1.398   0.344  1.00  0.00    -0.297 N 
ATOM     36  H3  UNL     1      -4.486  -2.087   1.081  1.00  0.00     0.174 HD
BRANCH  35  37
HETATM   37  C5  UNL     1      -5.254  -0.322  -0.022  1.00  0.00     0.139 C 
BRANCH  37  38
HETATM   38  C4  UNL     1      -6.489  -0.337   0.837  1.00  0.00     0.065 C 
BRANCH  38  39
HETATM   39  C3  UNL     1      -7.263  -1.603   0.737  1.00  0.00     0.061 C 
BRANCH  39  40
HETATM   40  N2  UNL     1      -7.717  -1.922  -0.529  1.00  0.00    -0.381 N 
ATOM     41  H2  UNL     1      -7.264  -2.708  -0.995  1.00  0.00     0.164 HD
BRANCH  40  42
HETATM   42  C2  UNL     1      -8.725  -1.280  -1.226  1.00  0.00     0.087 C 
BRANCH  42  43
HETATM   43  C1  UNL     1      -8.544   0.100  -1.746  1.00  0.00     0.274 C 
BRANCH  43  44
HETATM   44  N1  UNL     1      -9.784   0.484  -2.471  1.00  0.00    -0.075 N 
ATOM     45  H13 UNL     1     -10.037  -0.183  -3.200  1.00  0.00     0.274 HD
ATOM     46  H12 UNL     1     -10.622   0.385  -1.899  1.00  0.00     0.274 HD
ATOM     47  H11 UNL     1      -9.660   1.431  -2.828  1.00  0.00     0.274 HD
ENDBRANCH  43  44
ENDBRANCH  42  43
ENDBRANCH  40  42
ENDBRANCH  39  40
ENDBRANCH  38  39
ENDBRANCH  37  38
ENDBRANCH  35  37
ENDBRANCH  32  35
ENDBRANCH  31  32
ENDBRANCH  30  31
ENDBRANCH   1  30
BRANCH   1  48
HETATM   48  C8  UNL     1      -0.636   0.784   3.306  1.00  0.00     0.204 C 
BRANCH  48  49
HETATM   49  O4  UNL     1       0.560   1.364   3.722  1.00  0.00    -0.398 OA
ATOM     50  H4  UNL     1       0.613   1.378   4.670  1.00  0.00     0.209 HD
ENDBRANCH  48  49
ENDBRANCH   1  48
TORSDOF 19
