REMARK  5 active torsions:
REMARK  status: ('A' for Active; 'I' for Inactive)
REMARK    1  A    between atoms: C5_7  and  N2_8 
REMARK    2  A    between atoms: N2_8  and  C6_10 
REMARK    3  A    between atoms: C6_10  and  C7_11 
REMARK    4  A    between atoms: C7_11  and  C8_12 
REMARK    5  A    between atoms: C8_12  and  N3_13 
ROOT
HETATM    1  N2  UNL     1      -0.906   1.113  -0.485  1.00  0.00    -0.417 N 
ATOM      2  H2  UNL     1      -0.839   2.111  -0.683  1.00  0.00     0.153 HD
ENDROOT
BRANCH   1   3
HETATM    3  C5  UNL     1      -2.131   0.517  -0.124  1.00  0.00     0.078 C 
HETATM    4  C4  UNL     1      -2.646  -0.533  -1.069  1.00  0.00     0.044 C 
HETATM    5  C3  UNL     1      -4.144  -0.741  -0.940  1.00  0.00     0.115 C 
HETATM    6  N1  UNL     1      -4.509  -1.047   0.408  1.00  0.00    -0.421 N 
HETATM    7  C2  UNL     1      -4.561   0.081   1.293  1.00  0.00     0.113 C 
ATOM      8  H1  UNL     1      -4.717  -1.996   0.717  1.00  0.00     0.153 HD
HETATM    9  C1  UNL     1      -4.392   1.396   0.621  1.00  0.00     0.021 C 
HETATM   10  C13 UNL     1      -3.171   1.634  -0.154  1.00  0.00     0.026 C 
ENDBRANCH   1   3
BRANCH   1  11
HETATM   11  C6  UNL     1       0.257   0.247  -0.564  1.00  0.00     0.119 C 
BRANCH  11  12
HETATM   12  C7  UNL     1       0.695  -0.279   0.739  1.00  0.00     0.063 C 
BRANCH  12  13
HETATM   13  C8  UNL     1       1.849  -1.206   0.667  1.00  0.00     0.060 C 
BRANCH  13  14
HETATM   14  N3  UNL     1       3.036  -0.717   0.168  1.00  0.00    -0.390 N 
HETATM   15  C9  UNL     1       3.317  -0.423  -1.162  1.00  0.00     0.141 C 
HETATM   16  C10 UNL     1       4.083   0.916  -1.214  1.00  0.00     0.133 C 
HETATM   17  N4  UNL     1       5.252   0.748  -0.407  1.00  0.00    -0.418 N 
HETATM   18  C11 UNL     1       5.423  -0.553   0.161  1.00  0.00     0.133 C 
ATOM     19  H4  UNL     1       5.918   1.504  -0.248  1.00  0.00     0.153 HD
HETATM   20  C12 UNL     1       4.227  -1.064   0.929  1.00  0.00     0.141 C 
ENDBRANCH  13  14
ENDBRANCH  12  13
ENDBRANCH  11  12
ENDBRANCH   1  11
TORSDOF 5
