REMARK  2 active torsions:
REMARK  status: ('A' for Active; 'I' for Inactive)
REMARK    1  A    between atoms: N1_2  and  C2_4 
REMARK    2  A    between atoms: C6_8  and  O1_9 
ROOT
HETATM    1  C2  UNL     1      -0.916  -0.379  -0.083  1.00  0.00     0.026 C 
HETATM    2  C3  UNL     1      -0.104  -1.162  -1.112  1.00  0.00     0.038 C 
HETATM    3  C4  UNL     1       0.884  -1.402  -0.014  1.00  0.00     0.019 C 
HETATM    4  C5  UNL     1      -0.105  -0.991   1.043  1.00  0.00     0.038 C 
HETATM    5  C6  UNL     1       2.039  -0.492  -0.192  1.00  0.00     0.127 C 
HETATM    6  C7  UNL     1       1.832   0.804  -0.805  1.00  0.00     0.019 A 
HETATM    7  C8  UNL     1       1.686   1.974   0.188  1.00  0.00     0.012 A 
HETATM    8  C9  UNL     1       0.606   1.514  -0.831  1.00  0.00    -0.005 A 
HETATM    9  C10 UNL     1      -0.634   1.066  -0.235  1.00  0.00     0.035 C 
ENDROOT
BRANCH   1  10
HETATM   10  N1  UNL     1      -2.255  -0.825  -0.091  1.00  0.00    -0.417 N 
HETATM   11  C1  UNL     1      -3.202  -0.077   0.640  1.00  0.00     0.140 C 
ATOM     12  H1  UNL     1      -2.529  -1.660  -0.608  1.00  0.00     0.153 HD
ENDBRANCH   1  10
BRANCH   5  13
HETATM   13  O1  UNL     1       2.629  -0.324   1.087  1.00  0.00    -0.395 OA
ATOM     14  H1  UNL     1       3.370   0.260   0.973  1.00  0.00     0.210 HD
ENDBRANCH   5  13
TORSDOF 2
