REMARK  6 active torsions:
REMARK  status: ('A' for Active; 'I' for Inactive)
REMARK    1  A    between atoms: O1_2  and  C2_3 
REMARK    2  A    between atoms: C6_7  and  O2_8 
REMARK    3  A    between atoms: O2_8  and  C7_9 
REMARK    4  A    between atoms: C10_13  and  O4_14 
REMARK    5  A    between atoms: C11_16  and  O5_17 
REMARK    6  A    between atoms: C12_19  and  O6_20 
ROOT
HETATM    1  C7  UNL     1      -1.489   0.129  -0.537  1.00  0.00     0.292 C 
HETATM    2  O3  UNL     1      -2.323  -0.868  -1.039  1.00  0.00    -0.351 OA
HETATM    3  C8  UNL     1      -3.584  -0.897  -0.557  1.00  0.00     0.152 C 
HETATM    4  C9  UNL     1      -3.578  -1.704   0.735  1.00  0.00     0.042 C 
HETATM    5  C10 UNL     1      -4.280   0.373  -0.308  1.00  0.00     0.178 C 
HETATM    6  C11 UNL     1      -3.346   1.352   0.417  1.00  0.00     0.183 C 
HETATM    7  C12 UNL     1      -2.167   1.478  -0.562  1.00  0.00     0.204 C 
ENDROOT
BRANCH   1   8
HETATM    8  O2  UNL     1      -0.308   0.234  -1.181  1.00  0.00    -0.347 OA
BRANCH   8   9
HETATM    9  C6  UNL     1       0.864  -0.087  -0.555  1.00  0.00     0.069 C 
HETATM   10  C5  UNL     1       1.262   0.606   0.695  1.00  0.00     0.042 C 
HETATM   11  C4  UNL     1       2.141  -0.221   1.617  1.00  0.00     0.032 C 
HETATM   12  C3  UNL     1       3.478  -0.491   1.112  1.00  0.00     0.006 C 
HETATM   13  C2  UNL     1       3.888  -0.618  -0.147  1.00  0.00     0.047 C 
HETATM   14  C15 UNL     1       3.215  -0.542  -1.424  1.00  0.00     0.054 A 
HETATM   15  C14 UNL     1       2.017  -1.342  -1.766  1.00  0.00     0.007 A 
HETATM   16  C16 UNL     1       1.985   0.187  -1.558  1.00  0.00     0.036 A 
HETATM   17  C13 UNL     1       1.075  -1.574  -0.620  1.00  0.00     0.044 C 
BRANCH  13  18
HETATM   18  O1  UNL     1       5.254  -0.875  -0.197  1.00  0.00    -0.360 OA
HETATM   19  C1  UNL     1       6.233   0.038   0.248  1.00  0.00     0.209 C 
ENDBRANCH  13  18
ENDBRANCH   8   9
ENDBRANCH   1   8
BRANCH   7  20
HETATM   20  O6  UNL     1      -1.330   2.504  -0.166  1.00  0.00    -0.388 OA
ATOM     21  H6  UNL     1      -1.757   3.353  -0.182  1.00  0.00     0.210 HD
ENDBRANCH   7  20
BRANCH   6  22
HETATM   22  O5  UNL     1      -3.967   2.595   0.476  1.00  0.00    -0.390 OA
ATOM     23  H5  UNL     1      -3.389   3.201   0.925  1.00  0.00     0.210 HD
ENDBRANCH   6  22
BRANCH   5  24
HETATM   24  O4  UNL     1      -5.489   0.260   0.331  1.00  0.00    -0.390 OA
ATOM     25  H4  UNL     1      -5.939   1.081   0.492  1.00  0.00     0.210 HD
ENDBRANCH   5  24
TORSDOF 6
