REMARK  5 active torsions:
REMARK  status: ('A' for Active; 'I' for Inactive)
REMARK    1  A    between atoms: O1_2  and  C2_3 
REMARK    2  A    between atoms: C2_3  and  C3_5 
REMARK    3  A    between atoms: N2_13  and  O6_15 
REMARK    4  A    between atoms: O6_15  and  C5_16 
REMARK    5  A    between atoms: C7_21  and  O7_22 
ROOT
HETATM    1  C3  UNL     1       2.058  -0.718  -0.616  1.00  0.00     0.268 C 
HETATM    2  O3  UNL     1       1.571  -1.612   0.287  1.00  0.00    -0.242 OA
HETATM    3  S1  UNL     1       0.890  -1.007   1.661  1.00  0.00     0.364 S 
HETATM    4  O4  UNL     1       0.770  -2.140   2.664  1.00  0.00    -0.175 OA
HETATM    5  O5  UNL     1       1.635   0.087   2.314  1.00  0.00    -0.175 OA
HETATM    6  N1  UNL     1      -0.675  -0.401   1.234  1.00  0.00    -0.246 N 
ATOM      7  H1  UNL     1      -1.409  -0.459   1.939  1.00  0.00     0.182 HD
HETATM    8  C4  UNL     1      -1.017   0.170  -0.021  1.00  0.00     0.152 C 
HETATM    9  N2  UNL     1      -2.251   0.517  -0.117  1.00  0.00    -0.243 N 
ATOM     10  H2  UNL     1      -2.578   0.935  -0.988  1.00  0.00     0.196 HD
HETATM   11  C7  UNL     1      -0.188   0.407  -1.167  1.00  0.00     0.164 C 
HETATM   12  C8  UNL     1      -0.393  -0.503  -2.361  1.00  0.00     0.243 C 
HETATM   13  O8  UNL     1       0.646  -0.134  -3.185  1.00  0.00    -0.282 OA
HETATM   14  N4  UNL     1       1.550   0.598  -2.527  1.00  0.00    -0.089 NA
HETATM   15  C9  UNL     1       1.263   0.401  -1.084  1.00  0.00     0.191 C 
ENDROOT
BRANCH   9  16
HETATM   16  O6  UNL     1      -3.150   0.343   0.919  1.00  0.00    -0.224 OA
BRANCH  16  17
HETATM   17  C5  UNL     1      -4.468   0.673   0.769  1.00  0.00     0.136 C 
HETATM   18  C6  UNL     1      -5.511   0.466   1.805  1.00  0.00     0.099 C 
HETATM   19  N3  UNL     1      -4.835   1.203  -0.354  1.00  0.00    -0.382 N 
ATOM     20  H32 UNL     1      -4.118   1.345  -1.066  1.00  0.00     0.158 HD
ATOM     21  H31 UNL     1      -5.818   1.449  -0.466  1.00  0.00     0.158 HD
ENDBRANCH  16  17
ENDBRANCH   9  16
BRANCH  11  22
HETATM   22  O7  UNL     1      -0.557   1.691  -1.671  1.00  0.00    -0.378 OA
ATOM     23  H7  UNL     1      -0.008   1.848  -2.430  1.00  0.00     0.211 HD
ENDBRANCH  11  22
BRANCH   1  24
HETATM   24  C2  UNL     1       3.443  -0.311  -0.170  1.00  0.00     0.291 C 
HETATM   25  O2  UNL     1       4.054   0.516  -0.876  1.00  0.00    -0.262 OA
BRANCH  24  26
HETATM   26  O1  UNL     1       4.019  -0.825   0.970  1.00  0.00    -0.324 OA
HETATM   27  C1  UNL     1       5.325  -0.455   1.408  1.00  0.00     0.213 C 
ENDBRANCH  24  26
ENDBRANCH   1  24
TORSDOF 5
