REMARK  5 active torsions:
REMARK  status: ('A' for Active; 'I' for Inactive)
REMARK    1  A    between atoms: C2_2  and  C3_3 
REMARK    2  A    between atoms: C3_3  and  C9_16 
REMARK    3  A    between atoms: N1_4  and  N2_6 
REMARK       I    between atoms: N2_6  and  C4_8 
REMARK       I    between atoms: C4_8  and  N3_10 
REMARK    4  A    between atoms: N3_10  and  O2_11 
REMARK    5  A    between atoms: O2_11  and  C5_12 
ROOT
HETATM    1  N2  UNL     1      -0.433   0.638   0.344  1.00  0.00    -0.238 N 
ATOM      2  H2  UNL     1      -0.013   1.161   1.113  1.00  0.00     0.193 HD
HETATM    3  C4  UNL     1       0.485  -0.069  -0.437  1.00  0.00     0.437 C 
HETATM    4  O1  UNL     1       0.012  -0.753  -1.435  1.00  0.00    -0.226 OA
HETATM    5  N3  UNL     1       1.893  -0.111  -0.213  1.00  0.00    -0.215 NA
ENDROOT
BRANCH   1   6
HETATM    6  N1  UNL     1      -1.743   0.751   0.266  1.00  0.00    -0.304 N 
HETATM    7  C3  UNL     1      -2.754   0.092   0.049  1.00  0.00     0.007 C 
ATOM      8  H1  UNL     1      -2.007   1.719   0.449  1.00  0.00     0.186 HD
BRANCH   7   9
HETATM    9  C2  UNL     1      -2.741  -1.378  -0.267  1.00  0.00     0.050 C 
HETATM   10  C1  UNL     1      -3.588  -2.209   0.715  1.00  0.00     0.011 C 
ENDBRANCH   7   9
BRANCH   7  11
HETATM   11  C9  UNL     1      -4.110   0.754   0.143  1.00  0.00     0.025 C 
HETATM   12  C10 UNL     1      -3.922   2.214   0.433  1.00  0.00     0.016 C 
HETATM   13  C11 UNL     1      -4.998   0.482  -0.987  1.00  0.00     0.016 C 
ENDBRANCH   7  11
ENDBRANCH   1   6
BRANCH   5  14
HETATM   14  O2  UNL     1       3.057  -0.156  -0.039  1.00  0.00    -0.194 OA
BRANCH  14  15
HETATM   15  C5  UNL     1       4.285   0.000   0.128  1.00  0.00     0.092 C 
HETATM   16  C6  UNL     1       4.954   0.748   1.274  1.00  0.00     0.049 C 
HETATM   17  C7  UNL     1       5.118  -1.313   0.077  1.00  0.00     0.049 C 
HETATM   18  C8  UNL     1       4.803   0.846  -1.113  1.00  0.00     0.049 C 
ENDBRANCH  14  15
ENDBRANCH   5  14
TORSDOF 5
