REMARK  5 active torsions:
REMARK  status: ('A' for Active; 'I' for Inactive)
REMARK    1  A    between atoms: O1_2  and  C2_3 
REMARK    2  A    between atoms: C6_10  and  N3_11 
REMARK    3  A    between atoms: N3_11  and  O2_13 
REMARK    4  A    between atoms: C7_15  and  C8_16 
REMARK    5  A    between atoms: C8_16  and  N4_17 
ROOT
HETATM    1  C2  UNL     1      -1.772  -0.669   0.668  1.00  0.00     0.107 A 
HETATM    2  C3  UNL     1      -3.109  -0.399   0.672  1.00  0.00     0.104 A 
HETATM    3  N1  UNL     1      -4.075  -1.362   1.047  1.00  0.00    -0.098 NA
HETATM    4  C4  UNL     1      -3.562   0.849   0.301  1.00  0.00     0.087 A 
HETATM    5 CL1  UNL     1      -5.304   1.194   0.308  1.00  0.00    -0.080 Cl
HETATM    6  C5  UNL     1      -2.653   1.794  -0.063  1.00  0.00     0.099 A 
HETATM    7  N2  UNL     1      -3.095   3.076  -0.445  1.00  0.00    -0.098 NA
HETATM    8  C6  UNL     1      -1.291   1.492  -0.058  1.00  0.00     0.094 A 
HETATM    9  C7  UNL     1      -0.802   0.276   0.298  1.00  0.00     0.040 A 
ENDROOT
BRANCH   9  10
HETATM   10  C8  UNL     1       0.581  -0.149   0.394  1.00  0.00     0.076 C 
BRANCH  10  11
HETATM   11  N4  UNL     1       1.638   0.676  -0.025  1.00  0.00    -0.288 NA
HETATM   12  C9  UNL     1       1.843   0.787  -1.455  1.00  0.00     0.095 C 
HETATM   13  C10 UNL     1       3.067  -0.094  -1.724  1.00  0.00     0.016 C 
HETATM   14  C11 UNL     1       3.905   0.250  -0.506  1.00  0.00     0.021 C 
HETATM   15  C12 UNL     1       2.882   0.363   0.589  1.00  0.00     0.058 C 
HETATM   16  C13 UNL     1       2.899  -0.937   1.363  1.00  0.00     0.026 C 
ENDBRANCH  10  11
ENDBRANCH   9  10
BRANCH   1  17
HETATM   17  O1  UNL     1      -1.371  -1.931   1.047  1.00  0.00    -0.353 OA
HETATM   18  C1  UNL     1      -1.277  -2.953   0.090  1.00  0.00     0.210 C 
ENDBRANCH   1  17
BRANCH   8  19
HETATM   19  N3  UNL     1      -0.398   2.554  -0.404  1.00  0.00    -0.267 N 
ATOM     20  H3  UNL     1       0.499   2.673   0.067  1.00  0.00     0.194 HD
BRANCH  19  21
HETATM   21  O2  UNL     1      -0.770   3.329  -1.312  1.00  0.00    -0.289 OA
ATOM     22  H2  UNL     1      -0.177   4.035  -1.542  1.00  0.00     0.244 HD
ENDBRANCH  19  21
ENDBRANCH   8  19
TORSDOF 5
