REMARK  15 active torsions:
REMARK  status: ('A' for Active; 'I' for Inactive)
REMARK    1  A    between atoms: N1_5  and  C5_7 
REMARK    2  A    between atoms: C5_7  and  C6_8 
REMARK    3  A    between atoms: C6_8  and  C7_9 
REMARK    4  A    between atoms: C7_9  and  N2_10 
REMARK    5  A    between atoms: N2_10  and  C8_13 
REMARK    6  A    between atoms: C8_13  and  C9_14 
REMARK    7  A    between atoms: C9_14  and  C10_15 
REMARK    8  A    between atoms: C10_15  and  N3_16 
REMARK    9  A    between atoms: N3_16  and  C11_19 
REMARK   10  A    between atoms: C11_19  and  C12_20 
REMARK   11  A    between atoms: C13_24  and  N5_25 
REMARK   12  A    between atoms: N5_25  and  C14_27 
REMARK   13  A    between atoms: C14_27  and  C15_28 
REMARK   14  A    between atoms: C15_28  and  C16_29 
REMARK   15  A    between atoms: C16_29  and  O1_30 
ROOT
HETATM    1  C1  UNL     1       5.450  -4.187   1.385  1.00  0.00     0.069 C 
HETATM    2  C2  UNL     1       4.668  -2.973   1.037  1.00  0.00     0.026 A 
HETATM    3  C3  UNL     1       3.299  -3.069   0.824  1.00  0.00     0.073 A 
HETATM    4  C4  UNL     1       2.506  -2.004   0.504  1.00  0.00     0.118 A 
HETATM    5  N1  UNL     1       1.258  -2.010   0.306  1.00  0.00    -0.376 N 
ATOM      6  H1  UNL     1       0.852  -1.103   0.074  1.00  0.00     0.161 HD
HETATM    7  N4  UNL     1       3.140  -0.794   0.397  1.00  0.00    -0.177 N 
ATOM      8  H4  UNL     1       2.595   0.035   0.160  1.00  0.00     0.185 HD
HETATM    9  C13 UNL     1       4.461  -0.673   0.597  1.00  0.00     0.679 A 
HETATM   10  N6  UNL     1       5.221  -1.760   0.916  1.00  0.00    -0.196 N 
ATOM     11  H6  UNL     1       6.224  -1.647   1.064  1.00  0.00     0.184 HD
ENDROOT
BRANCH   5  12
HETATM   12  C5  UNL     1       0.335  -3.088   0.358  1.00  0.00     0.123 C 
BRANCH  12  13
HETATM   13  C6  UNL     1      -0.538  -3.174  -0.856  1.00  0.00     0.047 C 
BRANCH  13  14
HETATM   14  C7  UNL     1      -1.365  -1.962  -1.100  1.00  0.00     0.234 C 
BRANCH  14  15
HETATM   15  N2  UNL     1      -2.269  -1.643  -0.003  1.00  0.00    -0.075 N 
ATOM     16  H22 UNL     1      -2.862  -2.428   0.267  1.00  0.00     0.277 HD
ATOM     17  H21 UNL     1      -1.789  -1.528   0.890  1.00  0.00     0.277 HD
BRANCH  15  18
HETATM   18  C8  UNL     1      -3.019  -0.478  -0.394  1.00  0.00     0.233 C 
BRANCH  18  19
HETATM   19  C9  UNL     1      -3.986   0.000   0.653  1.00  0.00     0.055 C 
BRANCH  19  20
HETATM   20  C10 UNL     1      -4.693   1.223   0.054  1.00  0.00     0.234 C 
BRANCH  20  21
HETATM   21  N3  UNL     1      -5.639   1.782   0.953  1.00  0.00    -0.074 N 
ATOM     22  H32 UNL     1      -6.319   1.087   1.261  1.00  0.00     0.277 HD
ATOM     23  H31 UNL     1      -5.216   1.997   1.856  1.00  0.00     0.277 HD
BRANCH  21  24
HETATM   24  C11 UNL     1      -6.280   2.931   0.384  1.00  0.00     0.243 C 
BRANCH  24  25
HETATM   25  C12 UNL     1      -7.176   2.540  -0.738  1.00  0.00     0.113 C 
HETATM   26  S1  UNL     1      -8.024   3.972  -1.470  1.00  0.00    -0.096 SA
ENDBRANCH  24  25
ENDBRANCH  21  24
ENDBRANCH  20  21
ENDBRANCH  19  20
ENDBRANCH  18  19
ENDBRANCH  15  18
ENDBRANCH  14  15
ENDBRANCH  13  14
ENDBRANCH  12  13
ENDBRANCH   5  12
BRANCH   9  27
HETATM   27  N5  UNL     1       5.041   0.470   0.498  1.00  0.00    -0.226 N 
ATOM     28  H5  UNL     1       6.045   0.561   0.651  1.00  0.00     0.177 HD
BRANCH  27  29
HETATM   29  C14 UNL     1       4.236   1.623   0.165  1.00  0.00     0.140 C 
BRANCH  29  30
HETATM   30  C15 UNL     1       5.113   2.861   0.237  1.00  0.00     0.046 C 
BRANCH  30  31
HETATM   31  C16 UNL     1       4.281   4.092  -0.115  1.00  0.00     0.165 C 
BRANCH  31  32
HETATM   32  O1  UNL     1       3.766   3.975  -1.401  1.00  0.00    -0.401 OA
ATOM     33  H1  UNL     1       3.248   4.741  -1.620  1.00  0.00     0.209 HD
ENDBRANCH  31  32
ENDBRANCH  30  31
ENDBRANCH  29  30
ENDBRANCH  27  29
ENDBRANCH   9  27
TORSDOF 15
