REMARK  5 active torsions:
REMARK  status: ('A' for Active; 'I' for Inactive)
REMARK    1  A    between atoms: C5_6  and  O1_7 
REMARK    2  A    between atoms: O1_7  and  C6_8 
REMARK    3  A    between atoms: C9_12  and  S1_13 
REMARK    4  A    between atoms: S1_13  and  N1_16 
REMARK    5  A    between atoms: N1_16  and  C10_18 
ROOT
HETATM    1  C6  UNL     1      -0.580   0.764  -0.065  1.00  0.00     0.149 A 
HETATM    2  C7  UNL     1      -0.094   0.130  -1.181  1.00  0.00     0.081 A 
HETATM    3  C8  UNL     1       1.201  -0.412  -1.176  1.00  0.00     0.062 A 
HETATM    4 CL2  UNL     1       1.808  -1.214  -2.595  1.00  0.00    -0.083 Cl
HETATM    5  C9  UNL     1       2.022  -0.333  -0.077  1.00  0.00     0.117 A 
HETATM    6  C13 UNL     1       1.494   0.314   1.025  1.00  0.00     0.117 A 
HETATM    7  N3  UNL     1       0.264   0.822   1.003  1.00  0.00    -0.345 N 
ATOM      8  H3  UNL     1      -0.071   1.288   1.846  1.00  0.00     0.167 HD
ENDROOT
BRANCH   1   9
HETATM    9  O1  UNL     1      -1.838   1.325   0.021  1.00  0.00    -0.290 OA
BRANCH   9  10
HETATM   10  C5  UNL     1      -3.012   0.707   0.346  1.00  0.00     0.123 A 
HETATM   11  C4  UNL     1      -3.297   0.544   1.708  1.00  0.00     0.070 A 
HETATM   12  C3  UNL     1      -4.467  -0.074   2.071  1.00  0.00     0.035 A 
HETATM   13 CL1  UNL     1      -2.215   1.117   2.968  1.00  0.00    -0.081 Cl
HETATM   14  C2  UNL     1      -5.344  -0.524   1.110  1.00  0.00    -0.034 A 
HETATM   15  C1  UNL     1      -6.615  -1.198   1.543  1.00  0.00     0.050 C 
HETATM   16  C15 UNL     1      -5.088  -0.374  -0.235  1.00  0.00     0.076 A 
HETATM   17  C14 UNL     1      -3.894   0.257  -0.603  1.00  0.00     0.094 A 
HETATM   18  N4  UNL     1      -5.994  -0.840  -1.220  1.00  0.00    -0.100 NA
HETATM   19 CL3  UNL     1      -3.637   0.461  -2.335  1.00  0.00    -0.079 Cl
ENDBRANCH   9  10
ENDBRANCH   1   9
BRANCH   5  20
HETATM   20  S1  UNL     1       3.634  -1.004  -0.052  1.00  0.00     0.267 S 
HETATM   21  O2  UNL     1       3.563  -2.498  -0.269  1.00  0.00    -0.200 OA
HETATM   22  O3  UNL     1       4.210  -0.752   1.329  1.00  0.00    -0.200 OA
BRANCH  20  23
HETATM   23  N1  UNL     1       4.598  -0.259  -1.277  1.00  0.00    -0.260 N 
ATOM     24  H1  UNL     1       4.228  -0.026  -2.198  1.00  0.00     0.181 HD
BRANCH  23  25
HETATM   25  C10 UNL     1       5.846  -0.014  -0.934  1.00  0.00     0.158 A 
HETATM   26  N2  UNL     1       6.798   0.548  -1.678  1.00  0.00    -0.345 N 
HETATM   27  C11 UNL     1       7.981   0.710  -1.165  1.00  0.00     0.097 A 
ATOM     28  H2  UNL     1       6.602   0.846  -2.634  1.00  0.00     0.167 HD
HETATM   29  C12 UNL     1       8.185   0.292   0.123  1.00  0.00     0.070 A 
HETATM   30  S2  UNL     1       6.646  -0.324   0.541  1.00  0.00    -0.064 SA
ENDBRANCH  23  25
ENDBRANCH  20  23
ENDBRANCH   5  20
TORSDOF 5
