REMARK  5 active torsions:
REMARK  status: ('A' for Active; 'I' for Inactive)
REMARK    1  A    between atoms: N1_2  and  C1_4 
REMARK    2  A    between atoms: C3_8  and  N3_9 
REMARK    3  A    between atoms: N3_9  and  C4_11 
REMARK    4  A    between atoms: C4_11  and  C5_12 
REMARK    5  A    between atoms: N5_22  and  C12_24 
ROOT
HETATM    1  C1  UNL     1       2.267  -1.056  -1.276  1.00  0.00     0.163 A 
HETATM    2  C2  UNL     1       1.149  -1.763  -1.768  1.00  0.00     0.146 A 
HETATM    3  N2  UNL     1      -0.083  -1.513  -1.365  1.00  0.00    -0.199 N 
ATOM      4  H2  UNL     1      -0.879  -2.034  -1.733  1.00  0.00     0.183 HD
HETATM    5  C3  UNL     1      -0.244  -0.549  -0.455  1.00  0.00     0.679 A 
HETATM    6  N4  UNL     1       0.759   0.149   0.044  1.00  0.00    -0.174 N 
ATOM      7  H4  UNL     1       0.561   0.872   0.736  1.00  0.00     0.186 HD
HETATM    8  C11 UNL     1       2.080  -0.069  -0.343  1.00  0.00     0.157 A 
HETATM    9  N5  UNL     1       2.891   0.653   0.157  1.00  0.00    -0.320 N 
ATOM     10  H5  UNL     1       2.308   1.215   0.777  1.00  0.00     0.169 HD
ENDROOT
BRANCH   5  11
HETATM   11  N3  UNL     1      -1.458  -0.314  -0.066  1.00  0.00    -0.222 N 
ATOM     12  H3  UNL     1      -1.601   0.419   0.629  1.00  0.00     0.178 HD
BRANCH  11  13
HETATM   13  C4  UNL     1      -2.614  -1.016  -0.547  1.00  0.00     0.176 C 
BRANCH  13  14
HETATM   14  C5  UNL     1      -3.800  -0.356   0.084  1.00  0.00    -0.039 A 
HETATM   15  C6  UNL     1      -4.454   0.718  -0.499  1.00  0.00     0.009 A 
HETATM   16  C7  UNL     1      -5.539   1.328   0.069  1.00  0.00     0.002 A 
HETATM   17  C8  UNL     1      -6.027   0.882   1.268  1.00  0.00     0.019 A 
HETATM   18  C9  UNL     1      -5.405  -0.181   1.877  1.00  0.00     0.011 A 
HETATM   19 BR1  UNL     1      -6.030  -0.855   3.549  1.00  0.00    -0.051 Br
HETATM   20  C10 UNL     1      -4.305  -0.792   1.291  1.00  0.00     0.027 A 
ENDBRANCH  13  14
ENDBRANCH  11  13
ENDBRANCH   5  11
BRANCH   1  21
HETATM   21  N1  UNL     1       3.521  -1.405  -1.781  1.00  0.00    -0.110 N 
HETATM   22  O1  UNL     1       3.578  -1.843  -2.972  1.00  0.00    -0.532 OA
HETATM   23  O2  UNL     1       4.681  -1.317  -1.124  1.00  0.00    -0.532 OA
ENDBRANCH   1  21
BRANCH   9  24
HETATM   24  C12 UNL     1       4.095   1.163   0.390  1.00  0.00     0.148 A 
HETATM   25  C13 UNL     1       4.861   1.021   1.580  1.00  0.00     0.058 A 
HETATM   26  C14 UNL     1       6.033   1.692   1.424  1.00  0.00     0.029 A 
HETATM   27  C15 UNL     1       5.986   2.236   0.162  1.00  0.00     0.144 A 
HETATM   28  O3  UNL     1       4.867   1.920  -0.411  1.00  0.00    -0.306 OA
ENDBRANCH   9  24
TORSDOF 5
