REMARK  17 active torsions:
REMARK  status: ('A' for Active; 'I' for Inactive)
REMARK    1  A    between atoms: N1_1  and  C1_4 
REMARK    2  A    between atoms: C2_7  and  N3_8 
REMARK       I    between atoms: N3_8  and  C3_10 
REMARK       I    between atoms: C3_10  and  N4_12 
REMARK    3  A    between atoms: N4_12  and  C4_14 
REMARK    4  A    between atoms: C4_14  and  C5_15 
REMARK    5  A    between atoms: C5_15  and  N5_16 
REMARK    6  A    between atoms: C6_21  and  C7_22 
REMARK    7  A    between atoms: C7_22  and  N8_23 
REMARK    8  A    between atoms: N8_23  and  C8_26 
REMARK    9  A    between atoms: C8_26  and  O2_27 
REMARK   10  A    between atoms: C8_26  and  C9_29 
REMARK   11  A    between atoms: C11_31  and  O3_32 
REMARK   12  A    between atoms: C12_35  and  C13_36 
REMARK   13  A    between atoms: C13_36  and  O5_37 
REMARK   14  A    between atoms: C13_36  and  O6_39 
REMARK   15  A    between atoms: C15_44  and  N10_45 
REMARK   16  A    between atoms: N11_47  and  N12_49 
REMARK   17  A    between atoms: N13_52  and  N14_53 
ROOT
HETATM    1  C5  UNL     1       0.168   2.551   0.909  1.00  0.00     0.191 C 
ENDROOT
BRANCH   1   2
HETATM    2  C4  UNL     1       1.113   1.807  -0.040  1.00  0.00     0.147 C 
BRANCH   2   3
HETATM    3  N4  UNL     1       0.595   0.579  -0.478  1.00  0.00    -0.341 N 
HETATM    4  C3  UNL     1       1.010  -0.409  -1.323  1.00  0.00     0.321 C 
HETATM    5  N3  UNL     1       2.559   0.352  -1.664  1.00  0.00    -0.294 N 
HETATM    6  O1  UNL     1       1.366  -1.256  -2.046  1.00  0.00    -0.247 OA
ATOM      7  H3  UNL     1       2.790   0.981  -2.433  1.00  0.00     0.172 HD
ATOM      8  H4  UNL     1      -0.314   0.375  -0.063  1.00  0.00     0.164 HD
BRANCH   5   9
HETATM    9  C2  UNL     1       3.313  -0.051  -0.753  1.00  0.00     0.128 A 
HETATM   10  N2  UNL     1       3.049  -0.873   0.274  1.00  0.00    -0.175 N 
HETATM   11  C1  UNL     1       3.857  -1.132   1.267  1.00  0.00     0.700 A 
ATOM     12  H2  UNL     1       2.140  -1.335   0.280  1.00  0.00     0.186 HD
HETATM   13  N13 UNL     1       5.092  -0.549   1.319  1.00  0.00    -0.075 N 
HETATM   14  C15 UNL     1       5.435   0.294   0.309  1.00  0.00     0.164 A 
HETATM   15  C14 UNL     1       4.575   0.545  -0.707  1.00  0.00     0.101 A 
BRANCH  11  16
HETATM   16  N1  UNL     1       3.507  -1.919   2.223  1.00  0.00    -0.233 N 
ATOM     17  H12 UNL     1       2.585  -2.354   2.184  1.00  0.00     0.174 HD
ATOM     18  H11 UNL     1       4.138  -2.121   2.998  1.00  0.00     0.174 HD
ENDBRANCH  11  16
BRANCH  13  19
HETATM   19  N14 UNL     1       5.969  -0.808   2.347  1.00  0.00    -0.322 N 
ATOM     20 2H14 UNL     1       5.712  -1.440   3.105  1.00  0.00     0.178 HD
ATOM     21 1H14 UNL     1       6.891  -0.373   2.386  1.00  0.00     0.178 HD
ENDBRANCH  13  19
BRANCH  14  22
HETATM   22  N10 UNL     1       6.710   0.945   0.316  1.00  0.00    -0.269 N 
HETATM   23  N11 UNL     1       6.982   1.908   1.081  1.00  0.00    -0.248 N 
ATOM     24  H11 UNL     1       7.906   2.340   1.053  1.00  0.00     0.207 HD
ATOM     25  H10 UNL     1       7.430   0.614  -0.327  1.00  0.00     0.190 HD
BRANCH  23  26
HETATM   26  N12 UNL     1       6.019   2.379   1.963  1.00  0.00    -0.331 N 
ATOM     27 2H12 UNL     1       5.100   1.936   1.979  1.00  0.00     0.178 HD
ATOM     28 1H12 UNL     1       6.239   3.159   2.582  1.00  0.00     0.178 HD
ENDBRANCH  23  26
ENDBRANCH  14  22
ENDBRANCH   5   9
ENDBRANCH   2   3
ENDBRANCH   1   2
BRANCH   1  29
HETATM   29  N5  UNL     1      -1.107   2.805   0.234  1.00  0.00    -0.217 N 
HETATM   30  N6  UNL     1      -1.553   3.796  -0.449  1.00  0.00    -0.225 N 
HETATM   31  N7  UNL     1      -2.794   3.540  -0.920  1.00  0.00    -0.271 N 
ATOM     32  H6  UNL     1      -1.039   4.662  -0.614  1.00  0.00     0.210 HD
HETATM   33  C6  UNL     1      -3.131   2.334  -0.511  1.00  0.00     0.139 A 
ATOM     34  H7  UNL     1      -3.365   4.166  -1.488  1.00  0.00     0.190 HD
HETATM   35  N9  UNL     1      -2.078   1.888   0.208  1.00  0.00    -0.269 N 
ATOM     36  H9  UNL     1      -2.031   0.978   0.667  1.00  0.00     0.190 HD
BRANCH  33  37
HETATM   37  C7  UNL     1      -4.311   1.446  -0.795  1.00  0.00     0.314 C 
BRANCH  37  38
HETATM   38  N8  UNL     1      -4.380   0.467   0.314  1.00  0.00    -0.038 N 
ATOM     39  H82 UNL     1      -3.463   0.172   0.650  1.00  0.00     0.281 HD
ATOM     40  H81 UNL     1      -4.711   0.871   1.190  1.00  0.00     0.281 HD
BRANCH  38  41
HETATM   41  C8  UNL     1      -5.220  -0.658  -0.170  1.00  0.00     0.356 C 
BRANCH  41  42
HETATM   42  O2  UNL     1      -5.593  -1.417   0.925  1.00  0.00    -0.366 OA
ATOM     43  H2  UNL     1      -6.130  -2.137   0.615  1.00  0.00     0.212 HD
ENDBRANCH  41  42
BRANCH  41  44
HETATM   44  C9  UNL     1      -4.376  -1.459  -1.108  1.00  0.00     0.037 A 
HETATM   45  C10 UNL     1      -4.620  -1.583  -2.466  1.00  0.00     0.078 A 
HETATM   46  C11 UNL     1      -3.559  -2.258  -3.002  1.00  0.00     0.183 A 
HETATM   47  O4  UNL     1      -2.723  -2.540  -2.070  1.00  0.00    -0.287 OA
HETATM   48  C12 UNL     1      -3.178  -2.077  -0.885  1.00  0.00     0.121 A 
BRANCH  46  49
HETATM   49  O3  UNL     1      -3.394  -2.600  -4.368  1.00  0.00    -0.341 OA
ATOM     50  H3  UNL     1      -2.657  -3.069  -4.740  1.00  0.00     0.220 HD
ENDBRANCH  46  49
BRANCH  48  51
HETATM   51  C13 UNL     1      -2.416  -2.298   0.339  1.00  0.00     0.313 C 
BRANCH  51  52
HETATM   52  O5  UNL     1      -2.329  -1.327   1.270  1.00  0.00    -0.365 OA
ATOM     53  H5  UNL     1      -1.833  -1.471   2.067  1.00  0.00     0.213 HD
ENDBRANCH  51  52
BRANCH  51  54
HETATM   54  O6  UNL     1      -2.714  -3.578   0.893  1.00  0.00    -0.365 OA
ATOM     55  H6  UNL     1      -2.218  -3.722   1.690  1.00  0.00     0.213 HD
ENDBRANCH  51  54
ENDBRANCH  48  51
ENDBRANCH  41  44
ENDBRANCH  38  41
ENDBRANCH  37  38
ENDBRANCH  33  37
ENDBRANCH   1  29
TORSDOF 17
