REMARK  12 active torsions:
REMARK  status: ('A' for Active; 'I' for Inactive)
REMARK    1  A    between atoms: C3_9  and  O2_10 
REMARK    2  A    between atoms: O2_10  and  N3_11 
REMARK    3  A    between atoms: N3_11  and  C4_13 
REMARK    4  A    between atoms: C5_16  and  N5_17 
REMARK    5  A    between atoms: C6_21  and  O3_22 
REMARK    6  A    between atoms: C6_21  and  C7_24 
REMARK    7  A    between atoms: C8_29  and  O6_30 
REMARK    8  A    between atoms: C9_32  and  N7_33 
REMARK    9  A    between atoms: N7_33  and  O7_35 
REMARK   10  A    between atoms: C11_42  and  O8_43 
REMARK   11  A    between atoms: C11_42  and  C12_45 
REMARK   12  A    between atoms: C12_45  and  O9_46 
ROOT
HETATM    1  C4  UNL     1      -2.186  -0.912  -0.056  1.00  0.00     0.156 C 
HETATM    2  N4  UNL     1      -3.158  -1.328  -0.789  1.00  0.00    -0.341 N 
ATOM      3  H4  UNL     1      -2.907  -2.117  -1.385  1.00  0.00     0.163 HD
HETATM    4  C5  UNL     1      -4.528  -0.910  -0.942  1.00  0.00     0.350 C 
HETATM    5  C6  UNL     1      -4.689   0.591  -0.951  1.00  0.00     0.271 C 
HETATM    6  N6  UNL     1      -4.399   1.199   0.328  1.00  0.00    -0.325 N 
ATOM      7  H6  UNL     1      -5.138   1.761   0.750  1.00  0.00     0.165 HD
HETATM    8  C8  UNL     1      -3.181   1.087   1.053  1.00  0.00     0.172 C 
HETATM    9  C9  UNL     1      -2.239   0.177   0.879  1.00  0.00     0.150 C 
ENDROOT
BRANCH   1  10
HETATM   10  N3  UNL     1      -0.941  -1.578  -0.169  1.00  0.00    -0.244 N 
ATOM     11  H3  UNL     1      -0.919  -2.598  -0.156  1.00  0.00     0.196 HD
BRANCH  10  12
HETATM   12  O2  UNL     1       0.218  -0.895  -0.294  1.00  0.00    -0.224 OA
BRANCH  12  13
HETATM   13  C3  UNL     1       1.317  -1.705  -0.054  1.00  0.00     0.413 C 
HETATM   14  O1  UNL     1       2.064  -1.314   1.042  1.00  0.00    -0.314 OA
HETATM   15  C2  UNL     1       2.643  -0.080   0.881  1.00  0.00     0.255 C 
HETATM   16  N2  UNL     1       3.791   0.123   1.739  1.00  0.00    -0.349 N 
HETATM   17  C10 UNL     1       3.116   0.183  -0.515  1.00  0.00     0.192 C 
HETATM   18  C1  UNL     1       4.855   0.741   1.031  1.00  0.00     0.112 C 
ATOM     19  H2  UNL     1       3.830  -0.143   2.723  1.00  0.00     0.163 HD
HETATM   20  N1  UNL     1       5.950   1.180   1.512  1.00  0.00    -0.386 N 
HETATM   21  C11 UNL     1       4.487   0.799  -0.405  1.00  0.00     0.162 C 
ATOM     22  H12 UNL     1       6.203   1.140   2.499  1.00  0.00     0.157 HD
ATOM     23  H11 UNL     1       6.714   1.624   1.003  1.00  0.00     0.157 HD
HETATM   24  N9  UNL     1       3.178  -0.986  -1.331  1.00  0.00    -0.324 N 
HETATM   25  N8  UNL     1       2.071  -1.803  -1.270  1.00  0.00    -0.287 N 
ATOM     26  H9  UNL     1       3.984  -1.201  -1.917  1.00  0.00     0.180 HD
ATOM     27  H8  UNL     1       1.808  -2.429  -2.031  1.00  0.00     0.185 HD
BRANCH  21  28
HETATM   28  O8  UNL     1       4.489   2.120  -0.828  1.00  0.00    -0.377 OA
ATOM     29  H8  UNL     1       4.253   2.157  -1.748  1.00  0.00     0.211 HD
ENDBRANCH  21  28
BRANCH  21  30
HETATM   30  C12 UNL     1       5.531   0.032  -1.171  1.00  0.00     0.212 C 
BRANCH  30  31
HETATM   31  O9  UNL     1       6.765   0.627  -0.911  1.00  0.00    -0.397 OA
ATOM     32  H9  UNL     1       7.424   0.143  -1.395  1.00  0.00     0.209 HD
ENDBRANCH  30  31
ENDBRANCH  21  30
ENDBRANCH  12  13
ENDBRANCH  10  12
ENDBRANCH   1  10
BRANCH   9  33
HETATM   33  N7  UNL     1      -1.122   0.302   1.747  1.00  0.00    -0.261 N 
ATOM     34  H7  UNL     1      -0.627  -0.510   2.116  1.00  0.00     0.194 HD
BRANCH  33  35
HETATM   35  O7  UNL     1      -0.781   1.484   2.033  1.00  0.00    -0.289 OA
ATOM     36  H7  UNL     1      -0.034   1.568   2.614  1.00  0.00     0.244 HD
ENDBRANCH  33  35
ENDBRANCH   9  33
BRANCH   4  37
HETATM   37  N5  UNL     1      -5.384  -1.540   0.045  1.00  0.00    -0.053 N 
ATOM     38  H53 UNL     1      -5.298  -2.556   0.022  1.00  0.00     0.277 HD
ATOM     39  H52 UNL     1      -5.046  -1.376   0.993  1.00  0.00     0.277 HD
ATOM     40  H51 UNL     1      -6.354  -1.244  -0.063  1.00  0.00     0.277 HD
ENDBRANCH   4  37
BRANCH   8  41
HETATM   41  O6  UNL     1      -2.946   2.026   2.049  1.00  0.00    -0.344 OA
ATOM     42  H6  UNL     1      -2.132   1.951   2.533  1.00  0.00     0.219 HD
ENDBRANCH   8  41
BRANCH   5  43
HETATM   43  O3  UNL     1      -3.767   1.102  -1.863  1.00  0.00    -0.359 OA
ATOM     44  H3  UNL     1      -3.868   2.047  -1.869  1.00  0.00     0.213 HD
ENDBRANCH   5  43
BRANCH   5  45
HETATM   45  C7  UNL     1      -6.050   0.897  -1.402  1.00  0.00     0.235 C 
HETATM   46  O4  UNL     1      -6.231   1.526  -2.465  1.00  0.00    -0.644 OA
HETATM   47  O5  UNL     1      -7.140   0.496  -0.661  1.00  0.00    -0.644 OA
ENDBRANCH   5  45
TORSDOF 12
