REMARK  5 active torsions:
REMARK  status: ('A' for Active; 'I' for Inactive)
REMARK    1  A    between atoms: O1_2  and  C2_3 
REMARK    2  A    between atoms: C4_5  and  C5_6 
REMARK    3  A    between atoms: C7_9  and  C8_10 
REMARK    4  A    between atoms: C15_23  and  O2_24 
REMARK    5  A    between atoms: C17_26  and  O3_27 
ROOT
HETATM    1  C5  UNL     1      -0.066  -0.077   0.972  1.00  0.00    -0.018 A 
HETATM    2  C6  UNL     1       0.119  -0.588   2.243  1.00  0.00     0.062 A 
HETATM    3  S1  UNL     1       1.821  -0.616   2.395  1.00  0.00    -0.103 SA
HETATM    4  C7  UNL     1       2.254   0.008   0.884  1.00  0.00     0.011 A 
HETATM    5  C13 UNL     1       1.050   0.234   0.274  1.00  0.00     0.029 A 
ENDROOT
BRANCH   1   6
HETATM    6  C4  UNL     1      -1.445  -0.051   0.394  1.00  0.00    -0.020 A 
HETATM    7  C3  UNL     1      -1.928   0.921  -0.419  1.00  0.00     0.052 A 
HETATM    8  C2  UNL     1      -3.166   0.809  -1.020  1.00  0.00     0.105 A 
HETATM    9  C17 UNL     1      -3.977  -0.307  -0.822  1.00  0.00     0.135 A 
HETATM   10  C15 UNL     1      -3.481  -1.326   0.019  1.00  0.00     0.105 A 
HETATM   11  C14 UNL     1      -2.250  -1.178   0.600  1.00  0.00     0.052 A 
BRANCH   8  12
HETATM   12  O1  UNL     1      -3.671   1.771  -1.848  1.00  0.00    -0.353 OA
HETATM   13  C1  UNL     1      -2.969   2.944  -2.160  1.00  0.00     0.210 C 
ENDBRANCH   8  12
BRANCH   9  14
HETATM   14  O3  UNL     1      -5.200  -0.498  -1.364  1.00  0.00    -0.351 OA
HETATM   15  C18 UNL     1      -6.464  -0.244  -0.875  1.00  0.00     0.210 C 
ENDBRANCH   9  14
BRANCH  10  16
HETATM   16  O2  UNL     1      -4.294  -2.445   0.205  1.00  0.00    -0.353 OA
HETATM   17  C16 UNL     1      -3.699  -3.457   1.030  1.00  0.00     0.210 C 
ENDBRANCH  10  16
ENDBRANCH   1   6
BRANCH   4  18
HETATM   18  C8  UNL     1       3.630   0.183   0.258  1.00  0.00     0.063 C 
HETATM   19  C9  UNL     1       3.515  -0.433  -1.142  1.00  0.00     0.044 C 
HETATM   20  C10 UNL     1       4.562  -0.623   1.139  1.00  0.00     0.047 C 
HETATM   21  C11 UNL     1       5.948  -0.658   0.614  1.00  0.00     0.085 C 
HETATM   22  S2  UNL     1       6.588   1.024   0.563  1.00  0.00    -0.095 SA
HETATM   23  C12 UNL     1       5.213   2.126   0.311  1.00  0.00     0.134 C 
HETATM   24  N1  UNL     1       5.349   3.399   0.281  1.00  0.00    -0.380 N 
HETATM   25  N2  UNL     1       3.908   1.549   0.132  1.00  0.00    -0.357 N 
ATOM     26  H12 UNL     1       6.275   3.808   0.408  1.00  0.00     0.158 HD
ATOM     27  H11 UNL     1       4.561   4.030   0.137  1.00  0.00     0.158 HD
ATOM     28  H2  UNL     1       3.137   2.174  -0.101  1.00  0.00     0.162 HD
ENDBRANCH   4  18
TORSDOF 5
