REMARK  8 active torsions:
REMARK  status: ('A' for Active; 'I' for Inactive)
REMARK    1  A    between atoms: N1_2  and  C2_3 
REMARK    2  A    between atoms: N1_2  and  C4_9 
REMARK    3  A    between atoms: C2_3  and  C3_4 
REMARK    4  A    between atoms: C3_4  and  N2_5 
REMARK    5  A    between atoms: C4_9  and  C5_10 
REMARK    6  A    between atoms: C5_10  and  N3_11 
REMARK    7  A    between atoms: C8_14  and  C9_15 
REMARK    8  A    between atoms: C9_15  and  N4_16 
ROOT
HETATM    1  N3  UNL     1      -0.073  -1.229  -0.135  1.00  0.00    -0.291 NA
HETATM    2  C6  UNL     1       0.700  -0.993   1.036  1.00  0.00     0.095 C 
HETATM    3  C7  UNL     1       2.066  -1.553   0.622  1.00  0.00     0.022 C 
HETATM    4  C8  UNL     1       2.115  -1.177  -0.842  1.00  0.00     0.018 C 
HETATM    5  C11 UNL     1       0.731  -0.664  -1.195  1.00  0.00     0.101 C 
ENDROOT
BRANCH   1   6
HETATM    6  C5  UNL     1      -1.437  -0.887  -0.118  1.00  0.00     0.076 C 
BRANCH   6   7
HETATM    7  C4  UNL     1      -1.740   0.564  -0.059  1.00  0.00     0.096 C 
BRANCH   7   8
HETATM    8  N1  UNL     1      -3.096   0.937  -0.057  1.00  0.00    -0.392 N 
HETATM    9  C1  UNL     1      -3.318   2.367  -0.009  1.00  0.00     0.148 C 
BRANCH   8  10
HETATM   10  C2  UNL     1      -4.022   0.184   0.702  1.00  0.00     0.148 C 
BRANCH  10  11
HETATM   11  C3  UNL     1      -5.392   0.319   0.008  1.00  0.00     0.249 C 
BRANCH  11  12
HETATM   12  N2  UNL     1      -5.318  -0.192  -1.346  1.00  0.00    -0.078 N 
ATOM     13  H23 UNL     1      -4.573   0.254  -1.882  1.00  0.00     0.274 HD
ATOM     14  H22 UNL     1      -4.969  -1.150  -1.374  1.00  0.00     0.274 HD
ATOM     15  H21 UNL     1      -6.224  -0.103  -1.805  1.00  0.00     0.274 HD
ENDBRANCH  11  12
ENDBRANCH  10  11
ENDBRANCH   8  10
ENDBRANCH   7   8
ENDBRANCH   6   7
ENDBRANCH   1   6
BRANCH   4  16
HETATM   16  C9  UNL     1       3.190  -0.108  -0.988  1.00  0.00     0.127 C 
BRANCH  16  17
HETATM   17  N4  UNL     1       4.461  -0.641  -0.559  1.00  0.00    -0.366 N 
HETATM   18  C10 UNL     1       5.391   0.070  -0.061  1.00  0.00     0.196 C 
HETATM   19  N5  UNL     1       5.233   1.464   0.107  1.00  0.00    -0.067 NA
HETATM   20  N6  UNL     1       6.589  -0.567   0.322  1.00  0.00    -0.067 NA
ATOM     21  H4  UNL     1       4.622  -1.643  -0.661  1.00  0.00     0.161 HD
ENDBRANCH  16  17
ENDBRANCH   4  16
TORSDOF 8
