REMARK  9 active torsions:
REMARK  status: ('A' for Active; 'I' for Inactive)
REMARK    1  A    between atoms: N1_2  and  N2_4 
REMARK       I    between atoms: N2_4  and  C2_6 
REMARK    2  A    between atoms: C2_6  and  C3_8 
REMARK    3  A    between atoms: N3_10  and  C5_11 
REMARK    4  A    between atoms: C6_12  and  C7_13 
REMARK    5  A    between atoms: C8_19  and  N6_20 
REMARK    6  A    between atoms: N6_20  and  N7_22 
REMARK    7  A    between atoms: N9_27  and  C9_28 
REMARK    8  A    between atoms: C11_38  and  C12_39 
REMARK    9  A    between atoms: C12_39  and  O4_41 
ROOT
HETATM    1  C5  UNL     1      -0.326   0.011  -0.476  1.00  0.00     0.115 A 
HETATM    2  C6  UNL     1      -1.015   1.084  -0.007  1.00  0.00     0.112 A 
HETATM    3  N8  UNL     1      -2.262   0.649   0.336  1.00  0.00    -0.287 N 
ATOM      4  H8  UNL     1      -3.001   1.237   0.722  1.00  0.00     0.188 HD
HETATM    5  N9  UNL     1      -2.375  -0.671   0.091  1.00  0.00    -0.234 N 
HETATM    6  C11 UNL     1      -1.219  -1.079  -0.405  1.00  0.00     0.095 A 
ENDROOT
BRANCH   1   7
HETATM    7  N3  UNL     1       1.025  -0.084  -0.967  1.00  0.00    -0.246 N 
HETATM    8  C4  UNL     1       2.123  -0.091  -0.221  1.00  0.00     0.155 A 
HETATM    9  C3  UNL     1       3.222  -0.217  -1.015  1.00  0.00     0.136 A 
HETATM   10  N14 UNL     1       2.744  -0.290  -2.269  1.00  0.00    -0.279 N 
HETATM   11  N13 UNL     1       1.428  -0.209  -2.217  1.00  0.00    -0.235 N 
ATOM     12  H14 UNL     1       3.303  -0.391  -3.116  1.00  0.00     0.189 HD
ATOM     13  H13 UNL     1       0.810  -0.239  -3.028  1.00  0.00     0.209 HD
BRANCH   9  14
HETATM   14  C2  UNL     1       4.658  -0.240  -0.586  1.00  0.00     0.289 C 
HETATM   15  N2  UNL     1       4.882   0.079   0.747  1.00  0.00    -0.269 N 
ATOM     16  H2  UNL     1       4.069   0.304   1.320  1.00  0.00     0.190 HD
HETATM   17  O1  UNL     1       5.497  -0.544  -1.483  1.00  0.00    -0.264 OA
BRANCH  15  18
HETATM   18  N1  UNL     1       6.101   0.115   1.346  1.00  0.00    -0.338 N 
HETATM   19  C1  UNL     1       7.150  -0.495   0.631  1.00  0.00     0.167 C 
ATOM     20  H1  UNL     1       6.247   0.555   2.254  1.00  0.00     0.179 HD
ENDBRANCH  15  18
ENDBRANCH   9  14
ENDBRANCH   1   7
BRANCH   2  21
HETATM   21  C7  UNL     1      -0.588   2.462   0.087  1.00  0.00     0.134 A 
HETATM   22  N4  UNL     1       0.584   3.017  -0.266  1.00  0.00    -0.236 N 
HETATM   23  O2  UNL     1       0.562   4.301  -0.050  1.00  0.00    -0.155 OA
ATOM     24  H4  UNL     1       1.379   2.505  -0.649  1.00  0.00     0.197 HD
HETATM   25  N5  UNL     1      -0.610   4.636   0.449  1.00  0.00    -0.222 N 
HETATM   26  C8  UNL     1      -1.350   3.512   0.549  1.00  0.00     0.173 A 
ATOM     27  H5  UNL     1      -0.905   5.576   0.713  1.00  0.00     0.198 HD
BRANCH  26  28
HETATM   28  N6  UNL     1      -2.550   3.367   0.979  1.00  0.00    -0.289 N 
ATOM     29  H6  UNL     1      -2.961   2.434   0.974  1.00  0.00     0.188 HD
BRANCH  28  30
HETATM   30  N7  UNL     1      -3.311   4.426   1.450  1.00  0.00    -0.344 N 
ATOM     31  H72 UNL     1      -2.884   5.352   1.448  1.00  0.00     0.176 HD
ATOM     32  H71 UNL     1      -4.265   4.311   1.792  1.00  0.00     0.176 HD
ENDBRANCH  28  30
ENDBRANCH  26  28
ENDBRANCH   2  21
BRANCH   6  33
HETATM   33  C12 UNL     1      -0.781  -2.438  -0.802  1.00  0.00     0.168 C 
HETATM   34  C13 UNL     1      -1.766  -2.930  -1.897  1.00  0.00     0.046 C 
BRANCH  33  35
HETATM   35  O4  UNL     1      -1.013  -3.379   0.258  1.00  0.00    -0.390 OA
ATOM     36  H4  UNL     1      -0.732  -4.250   0.004  1.00  0.00     0.210 HD
ENDBRANCH  33  35
ENDBRANCH   6  33
BRANCH   5  37
HETATM   37  C9  UNL     1      -3.536  -1.420   0.446  1.00  0.00     0.195 A 
HETATM   38  N10 UNL     1      -3.554  -2.369   1.438  1.00  0.00    -0.220 N 
HETATM   39  O3  UNL     1      -4.743  -2.841   1.608  1.00  0.00    -0.153 OA
ATOM     40  H10 UNL     1      -2.735  -2.662   1.971  1.00  0.00     0.198 HD
HETATM   41  N11 UNL     1      -5.530  -2.227   0.748  1.00  0.00    -0.222 N 
HETATM   42  C10 UNL     1      -4.842  -1.354   0.018  1.00  0.00     0.169 A 
ATOM     43  H11 UNL     1      -6.531  -2.398   0.655  1.00  0.00     0.198 HD
HETATM   44  N12 UNL     1      -5.258  -0.582  -0.919  1.00  0.00    -0.381 N 
ATOM     45 2H12 UNL     1      -4.730   0.088  -1.479  1.00  0.00     0.157 HD
ATOM     46 1H12 UNL     1      -6.226  -0.533  -1.236  1.00  0.00     0.157 HD
ENDBRANCH   5  37
TORSDOF 9
