REMARK  8 active torsions:
REMARK  status: ('A' for Active; 'I' for Inactive)
REMARK    1  A    between atoms: C2_2  and  C3_3 
REMARK    2  A    between atoms: C2_2  and  C15_15 
REMARK    3  A    between atoms: C3_3  and  C4_4 
REMARK    4  A    between atoms: C5_5  and  C6_6 
REMARK    5  A    between atoms: C6_6  and  C7_7 
REMARK    6  A    between atoms: C8_8  and  C9_9 
REMARK    7  A    between atoms: C9_9  and  C12_12 
REMARK    8  A    between atoms: C16_16  and  O1_17 
ROOT
HETATM    1  C12 UNL     1       6.661  -1.564   0.010  1.00  0.00    -0.094 C 
HETATM    2  C13 UNL     1       7.181  -1.245  -1.043  1.00  0.00    -0.110 C 
HETATM    3  C14 UNL     1       7.771  -0.872  -2.320  1.00  0.00     0.112 C 
ENDROOT
BRANCH   1   4
HETATM    4  C9  UNL     1       6.004  -1.957   1.272  1.00  0.00     0.034 C 
HETATM    5  C10 UNL     1       5.320  -3.296   1.034  1.00  0.00     0.033 C 
HETATM    6  C11 UNL     1       7.128  -2.172   2.282  1.00  0.00     0.033 C 
BRANCH   4   7
HETATM    7  C8  UNL     1       5.055  -0.961   1.752  1.00  0.00    -0.008 C 
HETATM    8  C7  UNL     1       4.046  -0.358   1.238  1.00  0.00    -0.017 C 
BRANCH   8   9
HETATM    9  C6  UNL     1       3.549  -0.580  -0.147  1.00  0.00     0.120 C 
BRANCH   9  10
HETATM   10  C5  UNL     1       2.106  -1.017  -0.041  1.00  0.00    -0.103 C 
HETATM   11  C4  UNL     1       0.958  -1.343   0.095  1.00  0.00    -0.102 C 
BRANCH  11  12
HETATM   12  C3  UNL     1      -0.434  -1.718   0.328  1.00  0.00     0.129 C 
BRANCH  12  13
HETATM   13  C2  UNL     1      -1.351  -0.653  -0.137  1.00  0.00    -0.053 C 
HETATM   14  C1  UNL     1      -0.884   0.263  -0.939  1.00  0.00     0.017 C 
BRANCH  13  15
HETATM   15  C15 UNL     1      -2.701  -0.645   0.386  1.00  0.00     0.140 C 
HETATM   16  C16 UNL     1      -2.540  -0.256   1.889  1.00  0.00     0.149 C 
HETATM   17  C17 UNL     1      -2.760   1.278   1.827  1.00  0.00     0.087 C 
HETATM   18  C18 UNL     1      -3.843   1.341   0.811  1.00  0.00     0.223 C 
HETATM   19  O2  UNL     1      -3.731   2.363  -0.128  1.00  0.00    -0.354 OA
HETATM   20  N1  UNL     1      -3.697   0.171  -0.030  1.00  0.00    -0.374 N 
HETATM   21  C19 UNL     1      -4.568   1.932  -1.179  1.00  0.00     0.079 C 
HETATM   22  C20 UNL     1      -4.357   2.662  -2.451  1.00  0.00     0.040 C 
HETATM   23  C23 UNL     1      -6.006   2.078  -0.790  1.00  0.00     0.040 C 
HETATM   24  C24 UNL     1      -4.159   0.450  -1.288  1.00  0.00     0.158 C 
HETATM   25  C21 UNL     1      -5.663   3.346  -2.760  1.00  0.00     0.003 C 
HETATM   26  C22 UNL     1      -6.742   2.742  -1.906  1.00  0.00     0.003 C 
BRANCH  16  27
HETATM   27  O1  UNL     1      -3.599  -0.842   2.566  1.00  0.00    -0.393 OA
ATOM     28  H1  UNL     1      -3.501  -0.605   3.481  1.00  0.00     0.210 HD
ENDBRANCH  16  27
ENDBRANCH  13  15
ENDBRANCH  12  13
ENDBRANCH  11  12
ENDBRANCH   9  10
ENDBRANCH   8   9
ENDBRANCH   4   7
ENDBRANCH   1   4
TORSDOF 8
