REMARK  2 active torsions:
REMARK  status: ('A' for Active; 'I' for Inactive)
REMARK    1  A    between atoms: C2_2  and  C4_4 
REMARK    2  A    between atoms: C7_7  and  N1_8 
REMARK       I    between atoms: N1_8  and  C8_10 
REMARK       I    between atoms: C8_10  and  N2_12 
ROOT
HETATM    1  N1  UNL     1       0.381   0.304   0.273  1.00  0.00    -0.308 N 
ATOM      2  H1  UNL     1      -0.075   0.301   1.185  1.00  0.00     0.170 HD
HETATM    3  C8  UNL     1      -0.452   0.429  -0.839  1.00  0.00     0.341 C 
HETATM    4  O1  UNL     1       0.090   0.406  -2.001  1.00  0.00    -0.245 OA
HETATM    5  N2  UNL     1      -1.822   0.569  -0.813  1.00  0.00    -0.185 N 
HETATM    6  C9  UNL     1      -2.574   0.954   0.311  1.00  0.00     0.066 A 
HETATM    7  C10 UNL     1      -2.013   1.852   1.209  1.00  0.00     0.032 A 
HETATM    8  C11 UNL     1      -2.619   2.229   2.383  1.00  0.00     0.002 A 
HETATM    9  C12 UNL     1      -3.833   1.675   2.647  1.00  0.00     0.001 A 
HETATM   10  C13 UNL     1      -4.449   0.765   1.774  1.00  0.00     0.014 A 
HETATM   11  C14 UNL     1      -3.826   0.397   0.593  1.00  0.00     0.004 A 
HETATM   12  C15 UNL     1      -4.570  -0.410  -0.358  1.00  0.00    -0.000 A 
HETATM   13  C16 UNL     1      -5.761  -1.033   0.013  1.00  0.00     0.014 A 
HETATM   14  C17 UNL     1      -6.456  -1.881  -0.843  1.00  0.00     0.001 A 
HETATM   15  C18 UNL     1      -5.990  -2.140  -2.103  1.00  0.00     0.002 A 
HETATM   16  C19 UNL     1      -4.817  -1.533  -2.486  1.00  0.00     0.026 A 
HETATM   17  C20 UNL     1      -4.148  -0.703  -1.637  1.00  0.00     0.091 A 
HETATM   18  S1  UNL     1      -2.718   0.118  -2.242  1.00  0.00     0.274 S 
HETATM   19  O2  UNL     1      -3.042   1.346  -3.007  1.00  0.00    -0.200 OA
HETATM   20  O3  UNL     1      -1.946  -0.866  -3.075  1.00  0.00    -0.200 OA
ENDROOT
BRANCH   1  21
HETATM   21  C7  UNL     1       1.808   0.180   0.271  1.00  0.00     0.036 A 
HETATM   22  C6  UNL     1       2.640   0.570  -0.734  1.00  0.00     0.030 A 
HETATM   23  C5  UNL     1       4.012   0.369  -0.634  1.00  0.00     0.010 A 
HETATM   24  C4  UNL     1       4.574  -0.219   0.461  1.00  0.00    -0.055 A 
HETATM   25  C22 UNL     1       3.750  -0.615   1.478  1.00  0.00     0.010 A 
HETATM   26  C21 UNL     1       2.386  -0.424   1.397  1.00  0.00     0.030 A 
BRANCH  24  27
HETATM   27  C2  UNL     1       6.021  -0.423   0.549  1.00  0.00     0.010 C 
HETATM   28  C1  UNL     1       6.682   0.948   0.470  1.00  0.00     0.015 C 
HETATM   29  C3  UNL     1       6.502  -1.315  -0.580  1.00  0.00     0.015 C 
ENDBRANCH  24  27
ENDBRANCH   1  21
TORSDOF 2
