REMARK  6 active torsions:
REMARK  status: ('A' for Active; 'I' for Inactive)
REMARK    1  A    between atoms: N1_1  and  C1_5 
REMARK    2  A    between atoms: C1_5  and  C2_6 
REMARK    3  A    between atoms: C1_5  and  C7_12 
REMARK    4  A    between atoms: C2_6  and  C3_7 
REMARK       I    between atoms: C7_12  and  N2_14 
REMARK    5  A    between atoms: N3_23  and  C16_24 
REMARK    6  A    between atoms: C19_29  and  C20_30 
ROOT
HETATM    1  C7  UNL     1       0.920   0.001   0.547  1.00  0.00     0.269 C 
HETATM    2  O2  UNL     1       0.576   1.013   1.201  1.00  0.00    -0.269 OA
HETATM    3  N2  UNL     1      -0.003  -0.614  -0.327  1.00  0.00    -0.256 N 
HETATM    4  C8  UNL     1       0.380  -1.854  -1.012  1.00  0.00     0.153 C 
HETATM    5  C9  UNL     1      -0.360  -3.029  -0.441  1.00  0.00     0.031 C 
HETATM    6  C10 UNL     1      -1.819  -2.911  -0.306  1.00  0.00    -0.037 C 
HETATM    7  C11 UNL     1      -2.487  -4.290  -0.427  1.00  0.00     0.010 C 
HETATM    8  C12 UNL     1      -2.222  -4.454   1.068  1.00  0.00     0.002 C 
HETATM    9  C13 UNL     1      -2.249  -2.932   1.147  1.00  0.00     0.010 C 
HETATM   10  C14 UNL     1      -2.524  -1.928  -1.165  1.00  0.00     0.031 C 
HETATM   11  C15 UNL     1      -2.577  -0.540  -0.554  1.00  0.00     0.152 C 
HETATM   12  N3  UNL     1      -1.224   0.026  -0.471  1.00  0.00    -0.271 N 
ENDROOT
BRANCH   1  13
HETATM   13  C1  UNL     1       2.302  -0.473   0.756  1.00  0.00     0.282 C 
BRANCH  13  14
HETATM   14  N1  UNL     1       2.818   0.192   1.968  1.00  0.00    -0.066 N 
ATOM     15  H13 UNL     1       3.802   0.005   2.158  1.00  0.00     0.275 HD
ATOM     16  H12 UNL     1       2.910   1.204   1.881  1.00  0.00     0.275 HD
ATOM     17  H11 UNL     1       2.186  -0.106   2.711  1.00  0.00     0.275 HD
ENDBRANCH  13  14
BRANCH  13  18
HETATM   18  C2  UNL     1       3.239  -0.031  -0.346  1.00  0.00     0.107 C 
BRANCH  18  19
HETATM   19  C3  UNL     1       4.620  -0.471  -0.017  1.00  0.00     0.055 A 
HETATM   20  C4  UNL     1       5.749  -0.253  -0.780  1.00  0.00     0.034 A 
HETATM   21  C5  UNL     1       6.830  -0.822  -0.123  1.00  0.00     0.027 A 
HETATM   22  C6  UNL     1       6.279  -1.367   1.034  1.00  0.00     0.142 A 
HETATM   23  O1  UNL     1       4.989  -1.131   1.041  1.00  0.00    -0.327 OA
ENDBRANCH  18  19
ENDBRANCH  13  18
ENDBRANCH   1  13
BRANCH  12  24
HETATM   24  C16 UNL     1      -1.223   1.427  -0.582  1.00  0.00     0.138 A 
HETATM   25  C17 UNL     1      -0.313   2.059  -1.393  1.00  0.00     0.138 A 
HETATM   26  N4  UNL     1      -0.261   3.387  -1.541  1.00  0.00    -0.370 N 
HETATM   27  C18 UNL     1      -1.141   4.146  -0.865  1.00  0.00     0.113 A 
ATOM     28  H4  UNL     1       0.432   3.815  -2.154  1.00  0.00     0.164 HD
HETATM   29  C19 UNL     1      -2.078   3.563  -0.036  1.00  0.00     0.030 A 
HETATM   30  N5  UNL     1      -2.094   2.234   0.083  1.00  0.00    -0.342 N 
ATOM     31  H5  UNL     1      -2.787   1.806   0.697  1.00  0.00     0.167 HD
BRANCH  29  32
HETATM   32  C20 UNL     1      -3.022   4.461   0.683  1.00  0.00     0.037 A 
HETATM   33  C21 UNL     1      -3.594   5.611  -0.059  1.00  0.00     0.011 A 
HETATM   34  C22 UNL     1      -2.598   5.849   1.013  1.00  0.00     0.011 A 
ENDBRANCH  29  32
ENDBRANCH  12  24
TORSDOF 6
