REMARK  11 active torsions:
REMARK  status: ('A' for Active; 'I' for Inactive)
REMARK    1  A    between atoms: C2_2  and  C3_3 
REMARK    2  A    between atoms: C3_3  and  C4_4 
REMARK    3  A    between atoms: C4_4  and  O1_5 
REMARK    4  A    between atoms: O1_5  and  C5_6 
REMARK    5  A    between atoms: C8_9  and  S1_10 
REMARK    6  A    between atoms: S1_10  and  N1_13 
REMARK    7  A    between atoms: N1_13  and  C9_15 
REMARK    8  A    between atoms: C13_23  and  N3_24 
REMARK       I    between atoms: N3_24  and  C14_26 
REMARK    9  A    between atoms: C14_26  and  O6_28 
REMARK   10  A    between atoms: C16_30  and  O7_31 
REMARK   11  A    between atoms: O7_31  and  C17_32 
ROOT
HETATM    1  C5  UNL     1      -1.928  -0.063   0.158  1.00  0.00     0.104 A 
HETATM    2  C6  UNL     1      -1.367  -1.326   0.028  1.00  0.00     0.041 A 
HETATM    3  C7  UNL     1       0.005  -1.463   0.011  1.00  0.00     0.030 A 
HETATM    4  C8  UNL     1       0.781  -0.329   0.124  1.00  0.00     0.109 A 
HETATM    5  C13 UNL     1       0.230   0.942   0.254  1.00  0.00     0.096 A 
HETATM    6  C16 UNL     1      -1.140   1.069   0.271  1.00  0.00     0.130 A 
ENDROOT
BRANCH   4   7
HETATM    7  S1  UNL     1       2.552  -0.503   0.124  1.00  0.00     0.267 S 
HETATM    8  O2  UNL     1       3.084   0.204   1.345  1.00  0.00    -0.200 OA
HETATM    9  O3  UNL     1       3.011   0.234  -1.101  1.00  0.00    -0.200 OA
BRANCH   7  10
HETATM   10  N1  UNL     1       3.004  -2.114  -0.013  1.00  0.00    -0.257 N 
ATOM     11  H1  UNL     1       2.229  -2.777  -0.039  1.00  0.00     0.181 HD
BRANCH  10  12
HETATM   12  C9  UNL     1       4.149  -2.634  -0.089  1.00  0.00     0.199 A 
HETATM   13  O4  UNL     1       4.310  -3.949  -0.195  1.00  0.00    -0.217 OA
HETATM   14  N2  UNL     1       5.547  -4.263  -0.258  1.00  0.00    -0.262 N 
HETATM   15  C10 UNL     1       6.332  -3.177  -0.199  1.00  0.00     0.050 A 
ATOM     16  H2  UNL     1       5.894  -5.219  -0.342  1.00  0.00     0.194 HD
HETATM   17  C11 UNL     1       7.814  -3.067  -0.237  1.00  0.00     0.072 C 
HETATM   18  C12 UNL     1       5.416  -2.116  -0.089  1.00  0.00     0.088 A 
HETATM   19 BR1  UNL     1       5.927  -0.295   0.034  1.00  0.00    -0.044 Br
ENDBRANCH  10  12
ENDBRANCH   7  10
ENDBRANCH   4   7
BRANCH   5  20
HETATM   20  N3  UNL     1       1.049   2.096   0.333  1.00  0.00    -0.299 N 
HETATM   21  C14 UNL     1       1.316   2.895  -0.789  1.00  0.00     0.364 C 
HETATM   22  O5  UNL     1       0.864   2.666  -1.917  1.00  0.00    -0.238 OA
ATOM     23  H3  UNL     1       1.456   2.353   1.232  1.00  0.00     0.171 HD
BRANCH  21  24
HETATM   24  O6  UNL     1       2.139   4.025  -0.661  1.00  0.00    -0.309 OA
HETATM   25  C15 UNL     1       2.423   4.846  -1.779  1.00  0.00     0.215 C 
ENDBRANCH  21  24
ENDBRANCH   5  20
BRANCH   6  26
HETATM   26  O7  UNL     1      -1.743   2.270   0.392  1.00  0.00    -0.346 OA
BRANCH  26  27
HETATM   27  C17 UNL     1      -2.183   2.965   1.501  1.00  0.00     0.171 C 
HETATM   28  C18 UNL     1      -1.177   3.323   2.534  1.00  0.00     0.034 C 
ENDBRANCH  26  27
ENDBRANCH   6  26
BRANCH   1  29
HETATM   29  O1  UNL     1      -3.295   0.090   0.177  1.00  0.00    -0.348 OA
BRANCH  29  30
HETATM   30  C4  UNL     1      -4.222  -0.949   0.074  1.00  0.00     0.176 C 
BRANCH  30  31
HETATM   31  C3  UNL     1      -5.610  -0.326   0.141  1.00  0.00     0.026 C 
BRANCH  31  32
HETATM   32  C2  UNL     1      -6.685  -1.382   0.037  1.00  0.00    -0.002 C 
HETATM   33  C1  UNL     1      -6.609  -2.149  -1.244  1.00  0.00     0.005 C 
ENDBRANCH  31  32
ENDBRANCH  30  31
ENDBRANCH  29  30
ENDBRANCH   1  29
TORSDOF 11
