REMARK  5 active torsions:
REMARK  status: ('A' for Active; 'I' for Inactive)
REMARK    1  A    between atoms: C3_5  and  C4_6 
REMARK    2  A    between atoms: C4_6  and  S1_7 
REMARK    3  A    between atoms: S1_7  and  C5_10 
REMARK    4  A    between atoms: C8_13  and  O5_14 
REMARK    5  A    between atoms: C9_16  and  N1_17 
ROOT
HETATM    1  C4  UNL     1      -0.179   0.675   0.683  1.00  0.00     0.166 C 
ENDROOT
BRANCH   1   2
HETATM    2  C3  UNL     1      -1.335   1.047   1.540  1.00  0.00     0.153 C 
HETATM    3  C2  UNL     1      -1.781   0.016   2.497  1.00  0.00     0.212 C 
HETATM    4  C1  UNL     1      -2.787  -0.942   2.024  1.00  0.00     0.229 C 
HETATM    5  O2  UNL     1      -1.357  -0.087   3.670  1.00  0.00    -0.288 OA
HETATM    6  O1  UNL     1      -2.939  -2.031   2.639  1.00  0.00    -0.283 OA
HETATM    7  C17 UNL     1      -3.627  -0.683   0.862  1.00  0.00     0.032 A 
HETATM    8  C12 UNL     1      -3.474   0.497   0.182  1.00  0.00     0.025 A 
HETATM    9  C16 UNL     1      -4.578  -1.607   0.430  1.00  0.00     0.016 A 
HETATM   10  C11 UNL     1      -2.480   1.446   0.646  1.00  0.00     0.173 C 
HETATM   11  C13 UNL     1      -4.271   0.756  -0.931  1.00  0.00     0.016 A 
HETATM   12  O8  UNL     1      -2.561   2.641   0.301  1.00  0.00    -0.291 OA
HETATM   13  C14 UNL     1      -5.207  -0.168  -1.345  1.00  0.00     0.001 A 
HETATM   14  C15 UNL     1      -5.372  -1.362  -0.669  1.00  0.00     0.001 A 
ENDBRANCH   1   2
BRANCH   1  15
HETATM   15  S1  UNL     1       1.280   0.288   1.570  1.00  0.00     0.176 S 
HETATM   16  O3  UNL     1       1.111  -0.890   2.486  1.00  0.00    -0.223 OA
HETATM   17  O4  UNL     1       1.701   1.520   2.335  1.00  0.00    -0.223 OA
BRANCH  15  18
HETATM   18  C5  UNL     1       2.588  -0.123   0.493  1.00  0.00     0.061 A 
HETATM   19  C6  UNL     1       2.848  -1.404   0.071  1.00  0.00     0.026 A 
HETATM   20  C7  UNL     1       3.912  -1.669  -0.795  1.00  0.00     0.040 A 
HETATM   21  C8  UNL     1       4.715  -0.640  -1.237  1.00  0.00     0.098 A 
HETATM   22  C9  UNL     1       4.467   0.637  -0.825  1.00  0.00     0.137 A 
HETATM   23  C10 UNL     1       3.403   0.883   0.038  1.00  0.00     0.062 A 
BRANCH  21  24
HETATM   24  O5  UNL     1       5.792  -0.846  -2.103  1.00  0.00    -0.358 OA
ATOM     25  H5  UNL     1       6.346  -0.137  -2.408  1.00  0.00     0.217 HD
ENDBRANCH  21  24
BRANCH  22  26
HETATM   26  N1  UNL     1       5.278   1.726  -1.262  1.00  0.00    -0.113 N 
HETATM   27  O6  UNL     1       5.441   2.764  -0.604  1.00  0.00    -0.532 OA
HETATM   28  O7  UNL     1       5.908   1.616  -2.474  1.00  0.00    -0.532 OA
ENDBRANCH  22  26
ENDBRANCH  15  18
ENDBRANCH   1  15
TORSDOF 5
