REMARK  4 active torsions:
REMARK  status: ('A' for Active; 'I' for Inactive)
REMARK    1  A    between atoms: C5_5  and  C6_6 
REMARK    2  A    between atoms: C6_6  and  O1_7 
REMARK    3  A    between atoms: C7_10  and  C8_11 
REMARK    4  A    between atoms: C11_15  and  C12_16 
ROOT
HETATM    1  C8  UNL     1       1.223  -0.740  -0.262  1.00  0.00     0.316 C 
HETATM    2  O3  UNL     1       0.655  -0.576  -1.532  1.00  0.00    -0.348 OA
HETATM    3  C9  UNL     1      -0.722  -0.586  -1.350  1.00  0.00     0.157 C 
HETATM    4  C10 UNL     1      -1.497   0.244  -2.306  1.00  0.00     0.049 C 
HETATM    5  C11 UNL     1      -2.819   0.689  -1.664  1.00  0.00     0.089 C 
HETATM    6  C14 UNL     1      -3.084  -0.237  -0.551  1.00  0.00     0.168 C 
HETATM    7  O5  UNL     1      -4.231  -0.088   0.157  1.00  0.00    -0.347 OA
HETATM    8  C15 UNL     1      -3.935  -0.684   1.383  1.00  0.00     0.158 C 
HETATM    9  C16 UNL     1      -4.596   0.098   2.515  1.00  0.00     0.078 C 
HETATM   10  C17 UNL     1      -4.507  -2.082   1.391  1.00  0.00     0.078 C 
HETATM   11  O6  UNL     1      -2.546  -0.688   1.530  1.00  0.00    -0.345 OA
HETATM   12  C18 UNL     1      -2.094   0.142   0.571  1.00  0.00     0.186 C 
HETATM   13  C19 UNL     1      -0.762   0.060   0.046  1.00  0.00     0.185 C 
HETATM   14  O7  UNL     1       0.197  -0.664   0.677  1.00  0.00    -0.346 OA
ENDROOT
BRANCH   1  15
HETATM   15  C7  UNL     1       2.231   0.375  -0.095  1.00  0.00     0.321 C 
HETATM   16  O2  UNL     1       3.176   0.234  -1.111  1.00  0.00    -0.348 OA
HETATM   17  C5  UNL     1       4.241  -0.529  -0.680  1.00  0.00     0.154 C 
HETATM   18  C4  UNL     1       5.089   0.331   0.241  1.00  0.00     0.098 C 
HETATM   19  C3  UNL     1       4.165   0.740   1.358  1.00  0.00     0.048 C 
HETATM   20  C2  UNL     1       4.612   1.387   2.396  1.00  0.00     0.001 C 
HETATM   21  O8  UNL     1       2.830   0.375   1.183  1.00  0.00    -0.320 OA
HETATM   22  C1  UNL     1       6.042   1.730   2.492  1.00  0.00     0.038 C 
BRANCH  17  23
HETATM   23  C6  UNL     1       5.055  -1.088  -1.822  1.00  0.00     0.196 C 
BRANCH  23  24
HETATM   24  O1  UNL     1       4.224  -1.883  -2.591  1.00  0.00    -0.398 OA
ATOM     25  H1  UNL     1       4.736  -2.235  -3.310  1.00  0.00     0.209 HD
ENDBRANCH  23  24
ENDBRANCH  17  23
ENDBRANCH   1  15
BRANCH   5  26
HETATM   26  C12 UNL     1      -3.897   0.767  -2.681  1.00  0.00     0.129 C 
HETATM   27  C13 UNL     1      -5.253   1.184  -2.230  1.00  0.00     0.091 C 
HETATM   28  O4  UNL     1      -3.677   0.496  -3.851  1.00  0.00    -0.298 OA
ENDBRANCH   5  26
TORSDOF 4
