REMARK  8 active torsions:
REMARK  status: ('A' for Active; 'I' for Inactive)
REMARK    1  A    between atoms: N1_1  and  C1_5 
REMARK    2  A    between atoms: C1_5  and  C2_6 
REMARK    3  A    between atoms: C2_6  and  C3_7 
REMARK    4  A    between atoms: C3_7  and  C4_8 
REMARK    5  A    between atoms: C4_8  and  N2_9 
REMARK    6  A    between atoms: N2_9  and  C5_11 
REMARK    7  A    between atoms: C6_14  and  C7_15 
REMARK    8  A    between atoms: C7_15  and  N4_16 
ROOT
HETATM    1  C5  UNL     1      -1.144  -0.567   0.299  1.00  0.00     0.694 A 
HETATM    2  N3  UNL     1      -2.163   0.331   0.464  1.00  0.00    -0.176 N 
ATOM      3  H3  UNL     1      -2.068   1.227   0.942  1.00  0.00     0.185 HD
HETATM    4  C6  UNL     1      -3.291  -0.111  -0.077  1.00  0.00     0.138 A 
HETATM    5  N5  UNL     1      -3.001  -1.313  -0.600  1.00  0.00    -0.273 N 
ATOM      6  H5  UNL     1      -3.657  -1.921  -1.091  1.00  0.00     0.189 HD
HETATM    7  N6  UNL     1      -1.703  -1.585  -0.371  1.00  0.00    -0.131 N 
ATOM      8  H6  UNL     1      -1.219  -2.434  -0.662  1.00  0.00     0.205 HD
ENDROOT
BRANCH   1   9
HETATM    9  N2  UNL     1       0.066  -0.427   0.711  1.00  0.00    -0.225 N 
ATOM     10  H2  UNL     1       0.312   0.428   1.211  1.00  0.00     0.177 HD
BRANCH   9  11
HETATM   11  C4  UNL     1       1.079  -1.404   0.505  1.00  0.00     0.138 C 
BRANCH  11  12
HETATM   12  C3  UNL     1       2.234  -0.891  -0.336  1.00  0.00     0.022 C 
BRANCH  12  13
HETATM   13  C2  UNL     1       2.911   0.296   0.305  1.00  0.00     0.029 C 
BRANCH  13  14
HETATM   14  C1  UNL     1       4.043   0.749  -0.584  1.00  0.00     0.229 C 
BRANCH  14  15
HETATM   15  N1  UNL     1       4.669   1.893   0.067  1.00  0.00    -0.079 N 
ATOM     16  H13 UNL     1       4.009   2.639   0.286  1.00  0.00     0.274 HD
ATOM     17  H12 UNL     1       4.965   1.696   1.023  1.00  0.00     0.274 HD
ATOM     18  H11 UNL     1       5.434   2.199  -0.534  1.00  0.00     0.274 HD
ENDBRANCH  14  15
ENDBRANCH  13  14
ENDBRANCH  12  13
ENDBRANCH  11  12
ENDBRANCH   9  11
ENDBRANCH   1   9
BRANCH   4  19
HETATM   19  C7  UNL     1      -4.637   0.503  -0.147  1.00  0.00     0.307 C 
BRANCH  19  20
HETATM   20  N4  UNL     1      -4.693   1.790   0.486  1.00  0.00    -0.073 N 
ATOM     21  H43 UNL     1      -4.364   1.738   1.450  1.00  0.00     0.274 HD
ATOM     22  H42 UNL     1      -3.985   2.417   0.104  1.00  0.00     0.274 HD
ATOM     23  H41 UNL     1      -5.620   2.213   0.438  1.00  0.00     0.274 HD
ENDBRANCH  19  20
ENDBRANCH   4  19
TORSDOF 8
