REMARK  14 active torsions:
REMARK  status: ('A' for Active; 'I' for Inactive)
REMARK    1  A    between atoms: C2_2  and  C3_3 
REMARK    2  A    between atoms: C3_3  and  C4_4 
REMARK    3  A    between atoms: C4_4  and  C5_5 
REMARK    4  A    between atoms: C5_5  and  C6_6 
REMARK    5  A    between atoms: C5_5  and  C7_12 
REMARK    6  A    between atoms: C6_6  and  N1_7 
REMARK       I    between atoms: C7_12  and  N3_14 
REMARK    7  A    between atoms: N3_14  and  C8_16 
REMARK    8  A    between atoms: C8_16  and  C9_17 
REMARK    9  A    between atoms: C8_16  and  C25_42 
REMARK   10  A    between atoms: C9_17  and  S1_18 
REMARK   11  A    between atoms: S1_18  and  C10_20 
REMARK       I    between atoms: C10_20  and  N4_22 
REMARK   12  A    between atoms: N4_22  and  C11_24 
REMARK   13  A    between atoms: C14_29  and  C15_30 
REMARK   14  A    between atoms: C16_31  and  C17_32 
ROOT
HETATM    1  S1  UNL     1       1.911   0.982   2.356  1.00  0.00     0.110 S 
HETATM    2  O2  UNL     1       2.554   1.288   3.869  1.00  0.00    -0.248 OA
ENDROOT
BRANCH   1   3
HETATM    3  C9  UNL     1       1.880  -0.733   1.998  1.00  0.00     0.153 C 
BRANCH   3   4
HETATM    4  C8  UNL     1       3.261  -1.356   2.016  1.00  0.00     0.185 C 
BRANCH   4   5
HETATM    5  N3  UNL     1       4.093  -0.707   1.018  1.00  0.00    -0.347 N 
HETATM    6  C7  UNL     1       5.261   0.005   1.350  1.00  0.00     0.224 C 
HETATM    7  O1  UNL     1       5.572   0.066   2.585  1.00  0.00    -0.273 OA
ATOM      8  H3  UNL     1       3.820  -0.770   0.037  1.00  0.00     0.163 HD
BRANCH   6   9
HETATM    9  C5  UNL     1       6.085   0.650   0.308  1.00  0.00     0.097 C 
BRANCH   9  10
HETATM   10  C4  UNL     1       6.560  -0.436  -0.643  1.00  0.00     0.019 C 
BRANCH  10  11
HETATM   11  C3  UNL     1       7.401   0.151  -1.759  1.00  0.00     0.027 C 
BRANCH  11  12
HETATM   12  C2  UNL     1       8.605   0.851  -1.252  1.00  0.00    -0.037 C 
HETATM   13  C1  UNL     1       9.822   0.472  -1.597  1.00  0.00     0.007 C 
ENDBRANCH  11  12
ENDBRANCH  10  11
ENDBRANCH   9  10
BRANCH   9  14
HETATM   14  C6  UNL     1       5.254   1.664  -0.413  1.00  0.00     0.152 C 
BRANCH  14  15
HETATM   15  N1  UNL     1       4.837   2.661   0.527  1.00  0.00    -0.342 N 
HETATM   16  N2  UNL     1       5.636   3.290   1.237  1.00  0.00    -0.349 N 
ATOM     17  H22 UNL     1       6.628   3.076   1.135  1.00  0.00     0.176 HD
ATOM     18  H21 UNL     1       5.339   4.000   1.906  1.00  0.00     0.176 HD
ATOM     19  H1  UNL     1       3.841   2.862   0.616  1.00  0.00     0.179 HD
ENDBRANCH  14  15
ENDBRANCH   9  14
ENDBRANCH   6   9
ENDBRANCH   4   5
BRANCH   4  20
HETATM   20  C25 UNL     1       3.167  -2.792   1.690  1.00  0.00     0.254 C 
HETATM   21  N7  UNL     1       2.411  -3.703   2.501  1.00  0.00    -0.060 NA
HETATM   22  O4  UNL     1       3.763  -3.233   0.675  1.00  0.00    -0.275 OA
ENDBRANCH   4  20
ENDBRANCH   3   4
ENDBRANCH   1   3
BRANCH   1  23
HETATM   23  C10 UNL     1       0.298   1.620   2.251  1.00  0.00     0.327 C 
HETATM   24  O3  UNL     1      -0.162   2.309   3.197  1.00  0.00    -0.257 OA
HETATM   25  N4  UNL     1      -0.489   1.373   1.119  1.00  0.00    -0.148 N 
ATOM     26  H4  UNL     1      -0.043   1.436   0.204  1.00  0.00     0.188 HD
BRANCH  25  27
HETATM   27  C11 UNL     1      -1.744   1.070   1.161  1.00  0.00     0.686 A 
HETATM   28  N5  UNL     1      -2.559   0.926   2.227  1.00  0.00    -0.193 N 
HETATM   29  C12 UNL     1      -3.783   0.611   1.752  1.00  0.00     0.058 A 
ATOM     30  H5  UNL     1      -2.299   1.035   3.207  1.00  0.00     0.184 HD
HETATM   31  C13 UNL     1      -4.988   0.363   2.590  1.00  0.00     0.072 C 
HETATM   32  C14 UNL     1      -3.737   0.557   0.359  1.00  0.00     0.126 A 
HETATM   33  N6  UNL     1      -2.469   0.844   0.032  1.00  0.00    -0.182 N 
ATOM     34  H6  UNL     1      -2.103   0.887  -0.919  1.00  0.00     0.185 HD
BRANCH  32  35
HETATM   35  C15 UNL     1      -4.851   0.251  -0.509  1.00  0.00    -0.041 C 
HETATM   36  C16 UNL     1      -5.793   0.008  -1.242  1.00  0.00    -0.059 C 
BRANCH  36  37
HETATM   37  C17 UNL     1      -6.896  -0.267  -2.129  1.00  0.00     0.030 A 
HETATM   38  C18 UNL     1      -7.292   0.682  -3.062  1.00  0.00    -0.043 A 
HETATM   39  C19 UNL     1      -6.562   1.982  -3.131  1.00  0.00     0.049 C 
HETATM   40  C20 UNL     1      -8.356   0.416  -3.918  1.00  0.00     0.008 A 
HETATM   41  C21 UNL     1      -9.033  -0.782  -3.858  1.00  0.00     0.001 A 
HETATM   42  C22 UNL     1      -8.647  -1.728  -2.936  1.00  0.00     0.008 A 
HETATM   43  C23 UNL     1      -7.580  -1.465  -2.075  1.00  0.00    -0.043 A 
HETATM   44  C24 UNL     1      -7.152  -2.469  -1.078  1.00  0.00     0.049 C 
ENDBRANCH  36  37
ENDBRANCH  32  35
ENDBRANCH  25  27
ENDBRANCH   1  23
TORSDOF 14
