REMARK  8 active torsions:
REMARK  status: ('A' for Active; 'I' for Inactive)
REMARK    1  A    between atoms: C2_2  and  C3_3 
REMARK    2  A    between atoms: C3_3  and  C4_4 
REMARK    3  A    between atoms: C4_4  and  N1_5 
REMARK    4  A    between atoms: N2_8  and  C7_9 
REMARK    5  A    between atoms: C7_9  and  C8_10 
REMARK    6  A    between atoms: C8_10  and  C9_11 
REMARK    7  A    between atoms: N3_12  and  C10_14 
REMARK    8  A    between atoms: C19_26  and  C20_27 
ROOT
HETATM    1  C10 UNL     1       2.628   1.103  -0.399  1.00  0.00     0.058 A 
HETATM    2  C11 UNL     1       3.025   2.387  -0.791  1.00  0.00     0.018 A 
HETATM    3  C12 UNL     1       2.118   3.373  -1.145  1.00  0.00     0.017 A 
HETATM    4  C13 UNL     1       2.518   4.643  -1.517  1.00  0.00     0.020 A 
HETATM    5  C14 UNL     1       3.850   4.934  -1.534  1.00  0.00     0.013 A 
HETATM    6 BR1  UNL     1       4.517   6.643  -2.026  1.00  0.00    -0.051 Br
HETATM    7  C15 UNL     1       4.765   3.967  -1.185  1.00  0.00     0.049 A 
HETATM    8  C16 UNL     1       4.370   2.678  -0.807  1.00  0.00     0.046 A 
HETATM    9  N4  UNL     1       5.307   1.775  -0.461  1.00  0.00    -0.355 N 
ATOM     10  H4  UNL     1       6.293   2.033  -0.489  1.00  0.00     0.166 HD
HETATM   11  C17 UNL     1       4.951   0.534  -0.078  1.00  0.00     0.047 A 
HETATM   12  C18 UNL     1       5.961  -0.371   0.285  1.00  0.00     0.038 A 
HETATM   13  C19 UNL     1       5.677  -1.650   0.697  1.00  0.00    -0.051 A 
HETATM   14  C23 UNL     1       4.348  -1.994   0.734  1.00  0.00     0.027 A 
HETATM   15  C24 UNL     1       3.347  -1.104   0.376  1.00  0.00     0.026 A 
HETATM   16 BR2  UNL     1       1.570  -1.721   0.514  1.00  0.00    -0.050 Br
HETATM   17  C25 UNL     1       3.630   0.176  -0.038  1.00  0.00     0.036 A 
ENDROOT
BRANCH   1  18
HETATM   18  N3  UNL     1       1.443   0.766  -0.403  1.00  0.00    -0.368 N 
HETATM   19  C9  UNL     1       0.120   0.995  -0.611  1.00  0.00     0.063 C 
ATOM     20  H3  UNL     1       1.469  -0.200  -0.076  1.00  0.00     0.165 HD
BRANCH  19  21
HETATM   21  C8  UNL     1      -0.712   1.544   0.551  1.00  0.00     0.074 C 
BRANCH  21  22
HETATM   22  C7  UNL     1      -2.117   1.681   0.024  1.00  0.00     0.277 C 
BRANCH  22  23
HETATM   23  N2  UNL     1      -2.662   0.423  -0.410  1.00  0.00     0.092 N 
HETATM   24  C6  UNL     1      -3.961   0.596  -0.995  1.00  0.00     0.302 C 
HETATM   25  C5  UNL     1      -5.014   0.854   0.032  1.00  0.00     0.302 C 
HETATM   26  N1  UNL     1      -5.002  -0.115   1.087  1.00  0.00     0.091 N 
HETATM   27  C27 UNL     1      -4.106  -1.212   0.752  1.00  0.00     0.302 C 
HETATM   28  C26 UNL     1      -2.710  -0.593   0.607  1.00  0.00     0.302 C 
BRANCH  26  29
HETATM   29  C4  UNL     1      -6.320  -0.606   1.433  1.00  0.00     0.272 C 
BRANCH  29  30
HETATM   30  C3  UNL     1      -6.909  -1.456   0.329  1.00  0.00     0.030 C 
BRANCH  30  31
HETATM   31  C2  UNL     1      -8.291  -1.954   0.738  1.00  0.00    -0.003 C 
HETATM   32  C1  UNL     1      -8.888  -2.815  -0.343  1.00  0.00     0.005 C 
ENDBRANCH  30  31
ENDBRANCH  29  30
ENDBRANCH  26  29
ENDBRANCH  22  23
ENDBRANCH  21  22
ENDBRANCH  19  21
ENDBRANCH   1  18
BRANCH  13  33
HETATM   33  C20 UNL     1       6.756  -2.613   1.070  1.00  0.00     0.010 C 
HETATM   34  C21 UNL     1       7.400  -3.141  -0.225  1.00  0.00     0.015 C 
HETATM   35  C22 UNL     1       7.863  -1.942   1.836  1.00  0.00     0.015 C 
ENDBRANCH  13  33
TORSDOF 8
