REMARK  1 active torsions:
REMARK  status: ('A' for Active; 'I' for Inactive)
REMARK    1  A    between atoms: C1_2  and  C2_4 
REMARK       I    between atoms: N3_9  and  C5_10 
ROOT
HETATM    1  C2  UNL     1      -1.179  -0.305  -0.120  1.00  0.00     0.184 A 
HETATM    2  N2  UNL     1      -0.476  -1.504  -0.155  1.00  0.00    -0.330 N 
ATOM      3  H2  UNL     1      -0.891  -2.433  -0.221  1.00  0.00     0.168 HD
HETATM    4  C3  UNL     1       0.806  -1.245  -0.089  1.00  0.00     0.150 A 
HETATM    5  C4  UNL     1       0.939   0.135  -0.013  1.00  0.00     0.163 A 
HETATM    6  N3  UNL     1      -0.316   0.705  -0.033  1.00  0.00    -0.229 N 
HETATM    7  C5  UNL     1      -0.465   2.092   0.036  1.00  0.00     0.342 C 
HETATM    8  N4  UNL     1      -1.661   2.831   0.014  1.00  0.00    -0.039 NA
HETATM    9  O2  UNL     1       0.571   2.850   0.131  1.00  0.00    -0.250 OA
HETATM   10  N5  UNL     1       2.262   0.658   0.048  1.00  0.00    -0.267 N 
ATOM     11  H5  UNL     1       2.473   1.578  -0.338  1.00  0.00     0.186 HD
HETATM   12  N6  UNL     1       3.287  -0.123   0.657  1.00  0.00    -0.018 NA
HETATM   13  N7  UNL     1       3.265  -1.396   0.038  1.00  0.00    -0.248 N 
ATOM     14  H7  UNL     1       4.122  -1.813  -0.326  1.00  0.00     0.187 HD
HETATM   15  C6  UNL     1       2.026  -2.078  -0.065  1.00  0.00     0.289 C 
HETATM   16  O3  UNL     1       1.926  -3.324  -0.135  1.00  0.00    -0.264 OA
ENDROOT
BRANCH   1  17
HETATM   17  C1  UNL     1      -2.623  -0.279  -0.176  1.00  0.00     0.299 C 
HETATM   18  N1  UNL     1      -3.346  -1.533  -0.275  1.00  0.00    -0.054 NA
HETATM   19  O1  UNL     1      -3.332   0.712  -0.148  1.00  0.00    -0.268 OA
ENDBRANCH   1  17
TORSDOF 1
