REMARK  4 active torsions:
REMARK  status: ('A' for Active; 'I' for Inactive)
REMARK    1  A    between atoms: C2_2  and  C3_3 
REMARK    2  A    between atoms: C3_3  and  N1_4 
REMARK    3  A    between atoms: N1_4  and  N2_5 
REMARK    4  A    between atoms: N2_5  and  C4_7 
ROOT
HETATM    1  C4  UNL     1       0.712   0.431   0.332  1.00  0.00     0.131 A 
HETATM    2  C5  UNL     1       0.375  -0.904   0.311  1.00  0.00     0.052 A 
HETATM    3  C6  UNL     1       1.352  -1.844  -0.037  1.00  0.00     0.023 A 
HETATM    4  C7  UNL     1       2.601  -1.344  -0.337  1.00  0.00     0.110 A 
HETATM    5  N3  UNL     1       2.907  -0.036  -0.310  1.00  0.00    -0.306 N 
HETATM    6  C8  UNL     1       4.259   0.391  -0.645  1.00  0.00     0.177 C 
HETATM    7  N4  UNL     1       1.960   0.826   0.022  1.00  0.00    -0.283 N 
ATOM      8  H4  UNL     1       2.183   1.821   0.044  1.00  0.00     0.189 HD
ENDROOT
BRANCH   1   9
HETATM    9  N2  UNL     1      -0.272   1.395   0.683  1.00  0.00    -0.288 N 
ATOM     10  H2  UNL     1      -0.008   2.380   0.693  1.00  0.00     0.184 HD
BRANCH   9  11
HETATM   11  N1  UNL     1      -1.585   1.052   1.015  1.00  0.00    -0.136 NA
BRANCH  11  12
HETATM   12  C3  UNL     1      -2.372   0.921  -0.185  1.00  0.00     0.161 C 
BRANCH  12  13
HETATM   13  C2  UNL     1      -3.779   0.553   0.157  1.00  0.00    -0.019 C 
HETATM   14  C1  UNL     1      -4.345  -0.563  -0.275  1.00  0.00     0.008 C 
ENDBRANCH  12  13
ENDBRANCH  11  12
ENDBRANCH   9  11
ENDBRANCH   1   9
TORSDOF 4
