REMARK  8 active torsions:
REMARK  status: ('A' for Active; 'I' for Inactive)
REMARK    1  A    between atoms: N1_11  and  C10_12 
REMARK    2  A    between atoms: C10_12  and  C11_13 
REMARK    3  A    between atoms: C11_13  and  C12_14 
REMARK    4  A    between atoms: C17_22  and  C19_24 
REMARK    5  A    between atoms: C19_24  and  C20_25 
REMARK       I    between atoms: C20_25  and  N3_27 
REMARK    6  A    between atoms: N3_27  and  C21_29 
REMARK    7  A    between atoms: C21_29  and  C22_30 
REMARK    8  A    between atoms: C22_30  and  C23_31 
ROOT
HETATM    1  C1  UNL     1      -3.579  -3.293  -2.042  1.00  0.00     0.049 C 
HETATM    2  C2  UNL     1      -2.945  -2.007  -2.489  1.00  0.00    -0.046 A 
HETATM    3  C3  UNL     1      -3.205  -1.504  -3.742  1.00  0.00     0.008 A 
HETATM    4  C4  UNL     1      -2.609  -0.340  -4.114  1.00  0.00     0.008 A 
HETATM    5  C5  UNL     1      -1.733   0.373  -3.268  1.00  0.00    -0.053 A 
HETATM    6  C6  UNL     1      -1.156   1.598  -3.788  1.00  0.00     0.049 C 
HETATM    7  C7  UNL     1      -1.457  -0.120  -2.001  1.00  0.00    -0.018 A 
HETATM    8  C8  UNL     1      -2.077  -1.305  -1.639  1.00  0.00     0.046 A 
HETATM    9  C9  UNL     1      -1.917  -1.826  -0.286  1.00  0.00     0.261 C 
HETATM   10  O1  UNL     1      -2.453  -2.906   0.064  1.00  0.00    -0.267 OA
HETATM   11  N1  UNL     1      -1.144  -1.109   0.652  1.00  0.00    -0.283 N 
HETATM   12  C16 UNL     1      -0.571   0.094   0.216  1.00  0.00     0.240 C 
HETATM   13  O2  UNL     1      -0.112   0.815   1.178  1.00  0.00    -0.272 OA
HETATM   14  C17 UNL     1      -0.439   0.610  -1.171  1.00  0.00     0.074 C 
HETATM   15  C18 UNL     1      -0.686   2.053  -1.007  1.00  0.00     0.031 C 
ENDROOT
BRANCH  14  16
HETATM   16  C19 UNL     1       0.940   0.167  -1.552  1.00  0.00     0.126 C 
BRANCH  16  17
HETATM   17  C20 UNL     1       2.107   0.754  -0.953  1.00  0.00     0.219 C 
HETATM   18  O3  UNL     1       1.949   1.812  -0.284  1.00  0.00    -0.274 OA
HETATM   19  N3  UNL     1       3.426   0.275  -1.030  1.00  0.00    -0.361 N 
ATOM     20  H3  UNL     1       3.605  -0.576  -1.562  1.00  0.00     0.162 HD
BRANCH  19  21
HETATM   21  C21 UNL     1       4.521   0.923  -0.400  1.00  0.00     0.123 C 
BRANCH  21  22
HETATM   22  C22 UNL     1       4.450   1.048   1.093  1.00  0.00     0.023 C 
BRANCH  22  23
HETATM   23  C23 UNL     1       5.695   1.744   1.644  1.00  0.00    -0.021 C 
HETATM   24  C24 UNL     1       5.613   1.874   3.148  1.00  0.00     0.009 C 
HETATM   25  C25 UNL     1       5.845   3.137   1.076  1.00  0.00     0.009 C 
ENDBRANCH  22  23
ENDBRANCH  21  22
ENDBRANCH  19  21
ENDBRANCH  16  17
ENDBRANCH  14  16
BRANCH  11  26
HETATM   26  C10 UNL     1      -0.955  -1.576   2.013  1.00  0.00     0.140 C 
BRANCH  26  27
HETATM   27  C11 UNL     1      -1.901  -1.063   3.021  1.00  0.00     0.060 C 
BRANCH  27  28
HETATM   28  C12 UNL     1      -3.330  -1.360   2.811  1.00  0.00    -0.040 A 
HETATM   29  C13 UNL     1      -4.012  -2.489   3.280  1.00  0.00     0.025 A 
HETATM   30  C14 UNL     1      -5.312  -2.374   2.890  1.00  0.00     0.088 A 
HETATM   31  N2  UNL     1      -5.469  -1.234   2.205  1.00  0.00    -0.375 N 
HETATM   32  C15 UNL     1      -4.285  -0.614   2.149  1.00  0.00     0.094 A 
ATOM     33  H2  UNL     1      -6.341  -0.897   1.797  1.00  0.00     0.164 HD
ENDBRANCH  27  28
ENDBRANCH  26  27
ENDBRANCH  11  26
TORSDOF 8
