REMARK  14 active torsions:
REMARK  status: ('A' for Active; 'I' for Inactive)
REMARK    1  A    between atoms: C2_2  and  O1_3 
REMARK    2  A    between atoms: O1_3  and  C3_4 
REMARK    3  A    between atoms: C3_4  and  O2_5 
REMARK    4  A    between atoms: C6_8  and  O3_9 
REMARK    5  A    between atoms: C7_11  and  O4_13 
REMARK    6  A    between atoms: C9_15  and  O5_17 
REMARK    7  A    between atoms: C11_19  and  O6_20 
REMARK    8  A    between atoms: C11_19  and  N1_22 
REMARK    9  A    between atoms: N1_22  and  C12_24 
REMARK   10  A    between atoms: C13_26  and  O8_28 
REMARK   11  A    between atoms: N2_31  and  N3_33 
REMARK   12  A    between atoms: C16_36  and  O9_37 
REMARK   13  A    between atoms: C16_36  and  C17_39 
REMARK   14  A    between atoms: C17_39  and  O10_40 
ROOT
HETATM    1  C3  UNL     1      -2.866   0.708   0.792  1.00  0.00     0.190 C 
HETATM    2  C5  UNL     1      -2.153  -0.412   0.552  1.00  0.00     0.067 C 
HETATM    3  C6  UNL     1      -2.669  -1.778   0.783  1.00  0.00     0.194 C 
HETATM    4  C7  UNL     1      -1.923  -2.562  -0.288  1.00  0.00     0.119 C 
HETATM    5  C8  UNL     1      -2.030  -4.043  -0.076  1.00  0.00     0.052 C 
HETATM    6  C9  UNL     1      -0.508  -2.047  -0.020  1.00  0.00     0.141 C 
HETATM    7  C10 UNL     1      -0.072  -2.617   1.293  1.00  0.00     0.054 C 
HETATM    8  C11 UNL     1      -0.762  -0.535   0.043  1.00  0.00     0.198 C 
ENDROOT
BRANCH   8   9
HETATM    9  O6  UNL     1      -0.733  -0.036  -1.243  1.00  0.00    -0.364 OA
ATOM     10  H6  UNL     1       0.156  -0.115  -1.568  1.00  0.00     0.213 HD
ENDBRANCH   8   9
BRANCH   8  11
HETATM   11  N1  UNL     1       0.090   0.107   0.982  1.00  0.00    -0.338 N 
ATOM     12  H1  UNL     1      -0.245   0.338   1.917  1.00  0.00     0.161 HD
BRANCH  11  13
HETATM   13  C12 UNL     1       1.413   0.419   0.591  1.00  0.00     0.375 C 
HETATM   14  O7  UNL     1       1.535   1.303  -0.481  1.00  0.00    -0.302 OA
HETATM   15  C13 UNL     1       2.772   1.966  -0.349  1.00  0.00     0.209 C 
HETATM   16  C14 UNL     1       2.776   2.876   0.847  1.00  0.00     0.086 C 
HETATM   17  C15 UNL     1       3.793   0.908  -0.157  1.00  0.00     0.129 C 
HETATM   18  N2  UNL     1       4.992   1.269   0.102  1.00  0.00    -0.305 N 
HETATM   19  C16 UNL     1       3.359  -0.492  -0.290  1.00  0.00     0.234 C 
ATOM     20  H2  UNL     1       5.677   0.524   0.230  1.00  0.00     0.186 HD
HETATM   21  O11 UNL     1       2.196  -0.700   0.441  1.00  0.00    -0.299 OA
BRANCH  15  22
HETATM   22  O8  UNL     1       2.978   2.687  -1.517  1.00  0.00    -0.361 OA
ATOM     23  H8  UNL     1       3.812   3.134  -1.428  1.00  0.00     0.213 HD
ENDBRANCH  15  22
BRANCH  18  24
HETATM   24  N3  UNL     1       5.454   2.564   0.226  1.00  0.00    -0.345 N 
ATOM     25  H32 UNL     1       4.755   3.295   0.095  1.00  0.00     0.176 HD
ATOM     26  H31 UNL     1       6.410   2.852   0.433  1.00  0.00     0.176 HD
ENDBRANCH  18  24
BRANCH  19  27
HETATM   27  O9  UNL     1       3.122  -0.714  -1.652  1.00  0.00    -0.359 OA
ATOM     28  H9  UNL     1       2.842  -1.618  -1.738  1.00  0.00     0.213 HD
ENDBRANCH  19  27
BRANCH  19  29
HETATM   29  C17 UNL     1       4.376  -1.487   0.185  1.00  0.00     0.239 C 
BRANCH  29  30
HETATM   30  O10 UNL     1       5.587  -1.390  -0.485  1.00  0.00    -0.395 OA
ATOM     31  H10 UNL     1       6.231  -2.020  -0.184  1.00  0.00     0.209 HD
ENDBRANCH  29  30
ENDBRANCH  19  29
ENDBRANCH  11  13
ENDBRANCH   8  11
BRANCH   6  32
HETATM   32  O5  UNL     1       0.252  -2.417  -1.101  1.00  0.00    -0.382 OA
ATOM     33  H5  UNL     1       1.131  -2.097  -0.935  1.00  0.00     0.211 HD
ENDBRANCH   6  32
BRANCH   1  34
HETATM   34  O1  UNL     1      -2.298   1.924   0.544  1.00  0.00    -0.331 OA
BRANCH  34  35
HETATM   35  C2  UNL     1      -2.827   3.024  -0.110  1.00  0.00     0.173 C 
HETATM   36  C1  UNL     1      -3.224   2.793  -1.532  1.00  0.00     0.034 C 
ENDBRANCH  34  35
ENDBRANCH   1  34
BRANCH   1  37
HETATM   37  O2  UNL     1      -4.141   0.609   1.280  1.00  0.00    -0.335 OA
HETATM   38  C4  UNL     1      -5.345   0.976   0.716  1.00  0.00     0.212 C 
ENDBRANCH   1  37
BRANCH   3  39
HETATM   39  O3  UNL     1      -4.037  -1.902   0.654  1.00  0.00    -0.388 OA
ATOM     40  H3  UNL     1      -4.369  -2.780   0.802  1.00  0.00     0.210 HD
ENDBRANCH   3  39
BRANCH   4  41
HETATM   41  O4  UNL     1      -2.315  -2.140  -1.535  1.00  0.00    -0.384 OA
ATOM     42  H4  UNL     1      -1.850  -2.629  -2.203  1.00  0.00     0.210 HD
ENDBRANCH   4  41
TORSDOF 14
