REMARK  4 active torsions:
REMARK  status: ('A' for Active; 'I' for Inactive)
REMARK    1  A    between atoms: C10_11  and  O1_12 
REMARK    2  A    between atoms: C10_11  and  C11_14 
REMARK    3  A    between atoms: C11_14  and  N1_15 
REMARK    4  A    between atoms: N1_15  and  S1_17 
ROOT
HETATM    1  C1  UNL     1      -1.463  -2.135  -0.637  1.00  0.00     0.012 C 
HETATM    2  C2  UNL     1      -1.803  -1.005   0.273  1.00  0.00     0.012 C 
HETATM    3  C3  UNL     1      -2.623   0.058  -0.405  1.00  0.00     0.095 C 
HETATM    4 CL1  UNL     1      -2.971  -0.340  -2.107  1.00  0.00    -0.124 Cl
HETATM    5  C4  UNL     1      -1.838   1.362  -0.301  1.00  0.00    -0.024 C 
HETATM    6  C5  UNL     1      -2.516   2.428  -1.085  1.00  0.00     0.016 C 
HETATM    7  C6  UNL     1      -1.753   1.719   1.158  1.00  0.00     0.011 C 
HETATM    8  C7  UNL     1      -1.222   0.589   1.994  1.00  0.00     0.013 C 
HETATM    9  C8  UNL     1      -0.613  -0.424   1.003  1.00  0.00    -0.007 C 
HETATM   10  C9  UNL     1       0.014  -1.481   1.852  1.00  0.00     0.019 C 
HETATM   11  C10 UNL     1       0.319   0.345   0.153  1.00  0.00     0.083 C 
HETATM   12  C13 UNL     1      -0.478   1.081  -0.906  1.00  0.00     0.051 C 
ENDROOT
BRANCH  11  13
HETATM   13  O1  UNL     1       0.920   1.372   0.919  1.00  0.00    -0.387 OA
ATOM     14  H1  UNL     1       1.519   1.867   0.372  1.00  0.00     0.210 HD
ENDBRANCH  11  13
BRANCH  11  15
HETATM   15  C11 UNL     1       1.445  -0.445  -0.451  1.00  0.00     0.170 C 
BRANCH  15  16
HETATM   16  N1  UNL     1       2.248   0.410  -1.281  1.00  0.00    -0.317 N 
ATOM     17  H1  UNL     1       2.057   1.402  -1.421  1.00  0.00     0.172 HD
BRANCH  16  18
HETATM   18  S1  UNL     1       3.564  -0.418  -2.013  1.00  0.00     0.222 S 
HETATM   19  C12 UNL     1       4.618  -1.040  -0.741  1.00  0.00     0.185 C 
HETATM   20  O2  UNL     1       3.136  -1.525  -2.897  1.00  0.00    -0.206 OA
HETATM   21  O3  UNL     1       4.358   0.553  -2.832  1.00  0.00    -0.206 OA
ENDBRANCH  16  18
ENDBRANCH  15  16
ENDBRANCH  11  15
TORSDOF 4
