REMARK  1 active torsions:
REMARK  status: ('A' for Active; 'I' for Inactive)
REMARK    1  A    between atoms: C2_2  and  C3_3 
ROOT
HETATM    1  C3  UNL     1       1.196   0.096   0.615  1.00  0.00     0.102 C 
HETATM    2  C4  UNL     1       0.858   1.530   0.747  1.00  0.00     0.048 C 
HETATM    3  C5  UNL     1      -0.528   1.940   0.458  1.00  0.00     0.118 C 
HETATM    4  N1  UNL     1      -1.516   0.914   0.448  1.00  0.00    -0.397 N 
ATOM      5  H1  UNL     1      -2.471   1.075   0.769  1.00  0.00     0.155 HD
HETATM    6  C6  UNL     1      -1.079  -0.356  -0.042  1.00  0.00     0.088 C 
HETATM    7  C7  UNL     1      -0.917  -0.413  -1.533  1.00  0.00     0.062 C 
HETATM    8  C8  UNL     1      -2.208  -1.332   0.315  1.00  0.00     0.062 C 
HETATM    9  N2  UNL     1       0.094  -0.813   0.607  1.00  0.00    -0.390 N 
ATOM     10  H2  UNL     1       0.149  -1.734   1.042  1.00  0.00     0.156 HD
ENDROOT
BRANCH   1  11
HETATM   11  C2  UNL     1       2.086  -0.169  -0.554  1.00  0.00    -0.012 C 
HETATM   12  C1  UNL     1       2.813  -1.276  -0.622  1.00  0.00     0.009 C 
ENDBRANCH   1  11
TORSDOF 1
