REMARK  4 active torsions:
REMARK  status: ('A' for Active; 'I' for Inactive)
REMARK    1  A    between atoms: C1_4  and  N2_5 
REMARK       I    between atoms: N2_5  and  C2_7 
REMARK       I    between atoms: C2_7  and  N3_8 
REMARK       I    between atoms: C2_7  and  N4_12 
REMARK       I    between atoms: N4_12  and  C3_14 
REMARK       I    between atoms: C3_14  and  N7_20 
REMARK    2  A    between atoms: N5_15  and  N6_17 
REMARK    3  A    between atoms: C5_22  and  N8_23 
REMARK    4  A    between atoms: N8_23  and  N9_25 
ROOT
HETATM    1  N2  UNL     1      -3.187   0.827  -0.913  1.00  0.00    -0.343 N 
ATOM      2  H2  UNL     1      -3.783   1.648  -1.014  1.00  0.00     0.164 HD
HETATM    3  C2  UNL     1      -1.986   0.897  -0.128  1.00  0.00     0.401 C 
HETATM    4  N3  UNL     1      -2.119  -0.082   0.942  1.00  0.00    -0.040 N 
ATOM      5  H31 UNL     1      -1.266  -0.032   1.499  1.00  0.00     0.279 HD
ATOM      6  H32 UNL     1      -2.321  -1.022   0.602  1.00  0.00     0.279 HD
ATOM      7  H33 UNL     1      -2.967   0.042   1.495  1.00  0.00     0.279 HD
HETATM    8  N4  UNL     1      -0.799   0.617  -0.902  1.00  0.00    -0.177 N 
ATOM      9  H4  UNL     1      -0.857   0.398  -1.896  1.00  0.00     0.181 HD
HETATM   10  C3  UNL     1       0.448   0.657  -0.233  1.00  0.00     0.717 C 
HETATM   11  N5  UNL     1       1.012   1.812  -0.045  1.00  0.00    -0.137 N 
ATOM     12  H5  UNL     1       1.910   1.857   0.436  1.00  0.00     0.205 HD
HETATM   13  N7  UNL     1       1.124  -0.498   0.249  1.00  0.00    -0.081 N 
HETATM   14  C4  UNL     1       1.290  -1.094   1.565  1.00  0.00     0.233 C 
HETATM   15  C5  UNL     1       2.287  -2.002   0.915  1.00  0.00     0.288 C 
HETATM   16  O1  UNL     1       1.868  -1.484  -0.325  1.00  0.00    -0.235 OA
ENDROOT
BRANCH  11  17
HETATM   17  N6  UNL     1       0.413   2.995  -0.488  1.00  0.00    -0.331 N 
ATOM     18  H62 UNL     1      -0.485   2.932  -0.967  1.00  0.00     0.177 HD
ATOM     19  H61 UNL     1       0.856   3.902  -0.340  1.00  0.00     0.177 HD
ENDBRANCH  11  17
BRANCH   1  20
HETATM   20  C1  UNL     1      -3.535  -0.383  -1.541  1.00  0.00     0.171 C 
HETATM   21  N1  UNL     1      -4.466  -1.168  -1.072  1.00  0.00    -0.395 N 
ATOM     22  H12 UNL     1      -4.948  -0.880  -0.220  1.00  0.00     0.156 HD
ATOM     23  H11 UNL     1      -4.718  -2.045  -1.527  1.00  0.00     0.156 HD
ENDBRANCH   1  20
BRANCH  15  24
HETATM   24  N8  UNL     1       3.667  -1.603   1.148  1.00  0.00    -0.290 N 
ATOM     25  H8  UNL     1       4.287  -2.258   1.625  1.00  0.00     0.184 HD
BRANCH  24  26
HETATM   26  N9  UNL     1       4.177  -0.384   0.756  1.00  0.00    -0.251 N 
HETATM   27  N10 UNL     1       4.204  -0.057  -0.470  1.00  0.00    -0.331 N 
ATOM     28 2H10 UNL     1       3.841  -0.715  -1.160  1.00  0.00     0.178 HD
ATOM     29 1H10 UNL     1       4.581   0.845  -0.760  1.00  0.00     0.178 HD
ATOM     30  H9  UNL     1       4.537   0.262   1.459  1.00  0.00     0.207 HD
ENDBRANCH  24  26
ENDBRANCH  15  24
TORSDOF 4
