REMARK  7 active torsions:
REMARK  status: ('A' for Active; 'I' for Inactive)
REMARK    1  A    between atoms: N1_1  and  C1_5 
REMARK    2  A    between atoms: C1_5  and  C2_6 
REMARK    3  A    between atoms: C2_6  and  C3_7 
REMARK    4  A    between atoms: C3_7  and  N2_8 
REMARK    5  A    between atoms: N2_8  and  C4_11 
REMARK    6  A    between atoms: C4_11  and  C5_12 
REMARK    7  A    between atoms: C8_23  and  O1_24 
ROOT
HETATM    1  C5  UNL     1       0.577  -0.437   0.321  1.00  0.00     0.208 C 
HETATM    2  N3  UNL     1       1.006   0.321  -0.811  1.00  0.00    -0.342 N 
ATOM      3  H3  UNL     1       0.361   0.146  -1.581  1.00  0.00     0.164 HD
HETATM    4  C6  UNL     1       1.911   1.146  -1.215  1.00  0.00     0.192 C 
HETATM    5  N4  UNL     1       1.814   1.600  -2.557  1.00  0.00    -0.063 NA
HETATM    6  N5  UNL     1       3.033   1.683  -0.481  1.00  0.00    -0.305 N 
ATOM      7  H5  UNL     1       3.282   2.641  -0.727  1.00  0.00     0.171 HD
HETATM    8  C7  UNL     1       3.789   1.142   0.453  1.00  0.00     0.193 C 
HETATM    9  N6  UNL     1       4.804   1.981   0.945  1.00  0.00    -0.063 NA
HETATM   10  N7  UNL     1       3.773  -0.159   1.070  1.00  0.00    -0.322 N 
ATOM     11  H7  UNL     1       4.532  -0.343   1.726  1.00  0.00     0.166 HD
HETATM   12  C8  UNL     1       2.813  -1.261   0.886  1.00  0.00     0.326 C 
HETATM   13  N8  UNL     1       1.521  -0.868   1.255  1.00  0.00    -0.358 N 
ATOM     14  H8  UNL     1       1.260  -0.898   2.241  1.00  0.00     0.159 HD
ENDROOT
BRANCH   1  15
HETATM   15  C4  UNL     1      -0.266  -1.590  -0.160  1.00  0.00     0.278 C 
BRANCH  15  16
HETATM   16  N2  UNL     1      -1.435  -1.183  -0.858  1.00  0.00    -0.071 N 
ATOM     17  H22 UNL     1      -1.840  -1.964  -1.374  1.00  0.00     0.277 HD
ATOM     18  H21 UNL     1      -1.197  -0.571  -1.639  1.00  0.00     0.277 HD
BRANCH  16  19
HETATM   19  C3  UNL     1      -2.413  -0.570  -0.009  1.00  0.00     0.234 C 
BRANCH  19  20
HETATM   20  C2  UNL     1      -3.675  -0.238  -0.812  1.00  0.00     0.055 C 
BRANCH  20  21
HETATM   21  C1  UNL     1      -4.701   0.396   0.127  1.00  0.00     0.231 C 
BRANCH  21  22
HETATM   22  N1  UNL     1      -5.872   0.698  -0.633  1.00  0.00    -0.079 N 
ATOM     23  H13 UNL     1      -5.674   1.278  -1.448  1.00  0.00     0.274 HD
ATOM     24  H12 UNL     1      -6.240  -0.114  -1.128  1.00  0.00     0.274 HD
ATOM     25  H11 UNL     1      -6.557   1.121  -0.006  1.00  0.00     0.274 HD
ENDBRANCH  21  22
ENDBRANCH  20  21
ENDBRANCH  19  20
ENDBRANCH  16  19
ENDBRANCH  15  16
ENDBRANCH   1  15
BRANCH  12  26
HETATM   26  O1  UNL     1       2.862  -1.735  -0.406  1.00  0.00    -0.360 OA
ATOM     27  H1  UNL     1       2.243  -2.446  -0.525  1.00  0.00     0.214 HD
ENDBRANCH  12  26
TORSDOF 7
