REMARK  10 active torsions:
REMARK  status: ('A' for Active; 'I' for Inactive)
REMARK    1  A    between atoms: N1_1  and  C1_5 
REMARK    2  A    between atoms: C1_5  and  C2_6 
REMARK    3  A    between atoms: C2_6  and  C3_7 
REMARK    4  A    between atoms: C3_7  and  C4_8 
REMARK    5  A    between atoms: C4_8  and  C5_9 
REMARK    6  A    between atoms: C5_9  and  N2_10 
REMARK    7  A    between atoms: N2_10  and  C6_12 
REMARK    8  A    between atoms: C7_17  and  N5_18 
REMARK    9  A    between atoms: N7_23  and  O1_24 
REMARK   10  A    between atoms: O1_24  and  N8_25 
ROOT
HETATM    1  C6  UNL     1      -1.377  -0.050  -0.739  1.00  0.00     0.733 C 
HETATM    2  N3  UNL     1      -1.082  -1.290  -0.588  1.00  0.00    -0.131 N 
ATOM      3  H3  UNL     1      -0.197  -1.662  -0.932  1.00  0.00     0.205 HD
HETATM    4  N4  UNL     1      -2.008  -2.122   0.063  1.00  0.00    -0.277 N 
ATOM      5  H4  UNL     1      -1.721  -3.031   0.425  1.00  0.00     0.184 HD
HETATM    6  C7  UNL     1      -3.385  -1.667   0.214  1.00  0.00     0.414 C 
HETATM    7  N6  UNL     1      -3.408  -0.283   0.670  1.00  0.00    -0.038 NA
HETATM    8  N7  UNL     1      -2.630   0.431  -0.242  1.00  0.00     0.041 N 
ENDROOT
BRANCH   1   9
HETATM    9  N2  UNL     1      -0.540   0.891  -1.372  1.00  0.00    -0.222 N 
ATOM     10  H2  UNL     1      -0.435   0.859  -2.386  1.00  0.00     0.177 HD
BRANCH   9  11
HETATM   11  C5  UNL     1       0.166   1.890  -0.630  1.00  0.00     0.138 C 
BRANCH  11  12
HETATM   12  C4  UNL     1       1.250   1.267   0.192  1.00  0.00     0.020 C 
BRANCH  12  13
HETATM   13  C3  UNL     1       2.276   0.534  -0.653  1.00  0.00     0.003 C 
BRANCH  13  14
HETATM   14  C2  UNL     1       3.310  -0.029   0.281  1.00  0.00     0.027 C 
BRANCH  14  15
HETATM   15  C1  UNL     1       4.408  -0.784  -0.435  1.00  0.00     0.229 C 
BRANCH  15  16
HETATM   16  N1  UNL     1       5.324  -1.273   0.554  1.00  0.00    -0.079 N 
ATOM     17  H13 UNL     1       5.682  -0.535   1.160  1.00  0.00     0.274 HD
ATOM     18  H12 UNL     1       4.866  -1.831   1.275  1.00  0.00     0.274 HD
ATOM     19  H11 UNL     1       6.064  -1.782   0.071  1.00  0.00     0.274 HD
ENDBRANCH  15  16
ENDBRANCH  14  15
ENDBRANCH  13  14
ENDBRANCH  12  13
ENDBRANCH  11  12
ENDBRANCH   9  11
ENDBRANCH   1   9
BRANCH   8  20
HETATM   20  O1  UNL     1      -3.098   1.625  -0.668  1.00  0.00    -0.129 OA
BRANCH  20  21
HETATM   21  N8  UNL     1      -3.709   2.303   0.324  1.00  0.00    -0.284 N 
ATOM     22  H82 UNL     1      -3.799   1.945   1.275  1.00  0.00     0.186 HD
ATOM     23  H81 UNL     1      -4.062   3.204   0.002  1.00  0.00     0.186 HD
ENDBRANCH  20  21
ENDBRANCH   8  20
BRANCH   6  24
HETATM   24  N5  UNL     1      -4.103  -2.493   1.126  1.00  0.00    -0.041 N 
ATOM     25  H53 UNL     1      -4.060  -3.476   0.856  1.00  0.00     0.278 HD
ATOM     26  H52 UNL     1      -3.629  -2.558   2.027  1.00  0.00     0.278 HD
ATOM     27  H51 UNL     1      -5.066  -2.175   1.232  1.00  0.00     0.278 HD
ENDBRANCH   6  24
TORSDOF 10
