REMARK  5 active torsions:
REMARK  status: ('A' for Active; 'I' for Inactive)
REMARK    1  A    between atoms: C2_2  and  C3_3 
REMARK    2  A    between atoms: C3_3  and  O1_4 
REMARK    3  A    between atoms: O1_4  and  C4_5 
REMARK    4  A    between atoms: C4_5  and  C5_7 
REMARK       I    between atoms: N2_12  and  C7_13 
REMARK       I    between atoms: C7_13  and  N3_15 
REMARK    5  A    between atoms: N3_15  and  C8_17 
ROOT
HETATM    1  C5  UNL     1       3.374  -0.143  -1.628  1.00  0.00     0.178 C 
HETATM    2  C6  UNL     1       2.782  -1.479  -1.768  1.00  0.00     0.111 C 
HETATM    3 CL1  UNL     1       3.647  -2.832  -2.515  1.00  0.00    -0.067 Cl
HETATM    4  N1  UNL     1       1.602  -1.476  -1.279  1.00  0.00    -0.286 N 
ATOM      5  H1  UNL     1       0.994  -2.294  -1.263  1.00  0.00     0.188 HD
HETATM    6  N2  UNL     1       1.238  -0.233  -0.770  1.00  0.00    -0.231 N 
HETATM    7  C7  UNL     1      -0.084   0.140  -0.360  1.00  0.00     0.338 C 
HETATM    8  O3  UNL     1      -0.299   1.294   0.086  1.00  0.00    -0.245 OA
HETATM    9  N3  UNL     1      -1.167  -0.776  -0.449  1.00  0.00    -0.337 N 
ATOM     10  H3  UNL     1      -0.988  -1.712  -0.812  1.00  0.00     0.164 HD
HETATM   11  C17 UNL     1       2.414   0.588  -0.735  1.00  0.00     0.070 C 
HETATM   12  C18 UNL     1       2.940   0.786   0.669  1.00  0.00     0.041 C 
HETATM   13  C19 UNL     1       2.053   1.955  -1.285  1.00  0.00     0.041 C 
ENDROOT
BRANCH   9  14
HETATM   14  C8  UNL     1      -2.492  -0.439  -0.051  1.00  0.00     0.091 C 
HETATM   15  C9  UNL     1      -2.992  -1.294   1.112  1.00  0.00     0.055 C 
HETATM   16  C10 UNL     1      -4.247  -0.614   1.606  1.00  0.00     0.021 C 
HETATM   17  C11 UNL     1      -4.832  -1.537   2.682  1.00  0.00     0.037 C 
HETATM   18  C12 UNL     1      -3.783   0.633   2.367  1.00  0.00     0.037 C 
HETATM   19  N4  UNL     1      -5.224  -0.360   0.632  1.00  0.00    -0.405 N 
HETATM   20  C13 UNL     1      -4.834  -0.051  -0.680  1.00  0.00     0.021 C 
ATOM     21  H4  UNL     1      -6.213  -0.400   0.876  1.00  0.00     0.154 HD
HETATM   22  C14 UNL     1      -4.842   1.455  -0.973  1.00  0.00     0.037 C 
HETATM   23  C15 UNL     1      -5.894  -0.632  -1.631  1.00  0.00     0.037 C 
HETATM   24  C16 UNL     1      -3.516  -0.576  -1.136  1.00  0.00     0.055 C 
ENDBRANCH   9  14
BRANCH   1  25
HETATM   25  C4  UNL     1       4.759  -0.194  -1.077  1.00  0.00     0.272 C 
HETATM   26  O2  UNL     1       5.663   0.284  -1.798  1.00  0.00    -0.264 OA
BRANCH  25  27
HETATM   27  O1  UNL     1       5.094  -0.707   0.115  1.00  0.00    -0.321 OA
BRANCH  27  28
HETATM   28  C3  UNL     1       6.230  -0.867   0.843  1.00  0.00     0.178 C 
BRANCH  28  29
HETATM   29  C2  UNL     1       6.977   0.280   1.388  1.00  0.00     0.022 C 
HETATM   30  C1  UNL     1       7.551   1.268   0.437  1.00  0.00     0.007 C 
ENDBRANCH  28  29
ENDBRANCH  27  28
ENDBRANCH  25  27
ENDBRANCH   1  25
TORSDOF 5
