REMARK  1 active torsions:
REMARK  status: ('A' for Active; 'I' for Inactive)
REMARK       I    between atoms: C1_2  and  N2_4 
REMARK    1  A    between atoms: N2_4  and  C2_6 
ROOT
HETATM    1  C2  UNL     1       0.922   0.341  -0.082  1.00  0.00     0.132 A 
HETATM    2  N3  UNL     1       0.699   1.622  -0.430  1.00  0.00    -0.285 N 
ATOM      3  H3  UNL     1       1.414   2.272  -0.756  1.00  0.00     0.188 HD
HETATM    4  N4  UNL     1      -0.582   1.915  -0.287  1.00  0.00    -0.302 N 
ATOM      5  H4  UNL     1      -0.995   2.826  -0.488  1.00  0.00     0.186 HD
HETATM    6  C3  UNL     1      -1.275   0.831   0.167  1.00  0.00     0.047 A 
HETATM    7  C4  UNL     1      -0.311  -0.143   0.288  1.00  0.00     0.013 A 
HETATM    8  C5  UNL     1      -0.719  -1.482   0.768  1.00  0.00     0.057 C 
HETATM    9  C6  UNL     1      -1.735  -2.018  -0.216  1.00  0.00     0.114 C 
HETATM   10  S1  UNL     1      -3.168  -0.993  -0.139  1.00  0.00     0.021 S 
HETATM   11  O2  UNL     1      -3.774  -0.818  -1.698  1.00  0.00    -0.258 OA
HETATM   12  C7  UNL     1      -2.707   0.603   0.496  1.00  0.00     0.168 C 
ENDROOT
BRANCH   1  13
HETATM   13  N2  UNL     1       2.056  -0.317  -0.087  1.00  0.00    -0.296 N 
HETATM   14  C1  UNL     1       3.256   0.287  -0.488  1.00  0.00     0.334 C 
HETATM   15  N1  UNL     1       4.393   0.242   0.362  1.00  0.00    -0.040 NA
HETATM   16  O1  UNL     1       3.301   0.864  -1.606  1.00  0.00    -0.251 OA
ATOM     17  H2  UNL     1       2.065  -1.293   0.208  1.00  0.00     0.171 HD
ENDBRANCH   1  13
TORSDOF 1
