REMARK  4 active torsions:
REMARK  status: ('A' for Active; 'I' for Inactive)
REMARK    1  A    between atoms: C1_2  and  O2_3 
REMARK       I    between atoms: C1_2  and  N2_16 
REMARK    2  A    between atoms: O2_3  and  N1_4 
REMARK    3  A    between atoms: C2_6  and  C3_8 
REMARK    4  A    between atoms: C3_8  and  O3_9 
ROOT
HETATM    1  N1  UNL     1      -0.071  -2.414   0.087  1.00  0.00    -0.250 N 
ATOM      2  H1  UNL     1       0.111  -3.400   0.275  1.00  0.00     0.195 HD
HETATM    3  C2  UNL     1      -1.289  -2.052   0.042  1.00  0.00     0.113 C 
HETATM    4 BR1  UNL     1      -2.668  -3.313   0.315  1.00  0.00    -0.031 Br
ENDROOT
BRANCH   1   5
HETATM    5  O2  UNL     1       1.013  -1.610  -0.092  1.00  0.00    -0.180 OA
BRANCH   5   6
HETATM    6  C1  UNL     1       1.941  -1.346   0.902  1.00  0.00     0.396 C 
HETATM    7  O1  UNL     1       1.770  -1.879   2.026  1.00  0.00    -0.235 OA
HETATM    8  N2  UNL     1       3.073  -0.491   0.670  1.00  0.00    -0.232 N 
HETATM    9  C9  UNL     1       3.266   0.083  -0.524  1.00  0.00     0.129 A 
HETATM   10  C13 UNL     1       3.948  -0.263   1.664  1.00  0.00     0.256 A 
HETATM   11  C10 UNL     1       4.348   0.908  -0.765  1.00  0.00     0.050 A 
HETATM   12 CL1  UNL     1       4.584   1.656  -2.351  1.00  0.00    -0.083 Cl
HETATM   13  C11 UNL     1       5.244   1.139   0.259  1.00  0.00     0.031 A 
HETATM   14  C12 UNL     1       5.048   0.552   1.484  1.00  0.00     0.077 A 
HETATM   15  O4  UNL     1       3.785  -0.792   2.794  1.00  0.00    -0.268 OA
ENDBRANCH   5   6
ENDBRANCH   1   5
BRANCH   3  16
HETATM   16  C3  UNL     1      -1.643  -0.650  -0.222  1.00  0.00     0.108 C 
HETATM   17  C4  UNL     1      -2.407  -0.615  -1.530  1.00  0.00     0.045 C 
HETATM   18  C5  UNL     1      -2.830   0.825  -1.740  1.00  0.00     0.003 C 
HETATM   19  C6  UNL     1      -3.937   1.064  -0.705  1.00  0.00     0.000 C 
HETATM   20  C7  UNL     1      -3.284   1.047   0.639  1.00  0.00     0.003 C 
HETATM   21  C8  UNL     1      -2.481  -0.162   0.934  1.00  0.00     0.045 C 
BRANCH  16  22
HETATM   22  O3  UNL     1      -0.523   0.173  -0.405  1.00  0.00    -0.383 OA
ATOM     23  H3  UNL     1      -0.752   1.079  -0.576  1.00  0.00     0.211 HD
ENDBRANCH  16  22
ENDBRANCH   3  16
TORSDOF 4
