REMARK  7 active torsions:
REMARK  status: ('A' for Active; 'I' for Inactive)
REMARK    1  A    between atoms: C4_4  and  N1_5 
REMARK       I    between atoms: N1_5  and  C5_7 
REMARK    2  A    between atoms: C5_7  and  C6_9 
REMARK    3  A    between atoms: C9_12  and  C10_13 
REMARK    4  A    between atoms: C10_13  and  N2_14 
REMARK    5  A    between atoms: N2_14  and  S1_16 
REMARK    6  A    between atoms: S1_16  and  N3_19 
REMARK    7  A    between atoms: N3_19  and  C11_21 
ROOT
HETATM    1  C6  UNL     1      -1.203  -1.082   1.497  1.00  0.00     0.078 C 
HETATM    2  C7  UNL     1      -0.690   0.334   1.673  1.00  0.00     0.014 C 
HETATM    3  C8  UNL     1       0.812   0.242   1.685  1.00  0.00     0.007 C 
HETATM    4  C9  UNL     1       1.266  -0.080   0.285  1.00  0.00     0.004 C 
HETATM    5  C18 UNL     1       0.240  -0.781  -0.524  1.00  0.00     0.007 C 
HETATM    6  C19 UNL     1      -0.660  -1.714   0.244  1.00  0.00     0.014 C 
ENDROOT
BRANCH   4   7
HETATM    7  C10 UNL     1       2.476  -0.990   0.405  1.00  0.00     0.138 C 
BRANCH   7   8
HETATM    8  N2  UNL     1       3.546  -0.362   1.121  1.00  0.00    -0.302 N 
ATOM      9  H2  UNL     1       3.486   0.584   1.498  1.00  0.00     0.173 HD
BRANCH   8  10
HETATM   10  S1  UNL     1       4.928  -1.344   1.283  1.00  0.00     0.315 S 
HETATM   11  O2  UNL     1       5.669  -0.921   2.523  1.00  0.00    -0.183 OA
HETATM   12  O3  UNL     1       4.540  -2.803   1.476  1.00  0.00    -0.183 OA
BRANCH  10  13
HETATM   13  N3  UNL     1       6.016  -1.196  -0.037  1.00  0.00    -0.296 N 
ATOM     14  H3  UNL     1       5.972  -1.781  -0.871  1.00  0.00     0.174 HD
BRANCH  13  15
HETATM   15  C11 UNL     1       7.000  -0.157   0.157  1.00  0.00     0.117 C 
HETATM   16  C12 UNL     1       8.357  -0.825   0.270  1.00  0.00     0.028 C 
HETATM   17  C13 UNL     1       9.495   0.170   0.277  1.00  0.00     0.002 C 
HETATM   18  C14 UNL     1       9.390   1.135  -0.887  1.00  0.00     0.002 C 
HETATM   19  C15 UNL     1       8.191   0.790  -1.763  1.00  0.00     0.027 C 
HETATM   20  C16 UNL     1       6.960   0.913  -0.883  1.00  0.00     0.054 C 
HETATM   21  C17 UNL     1       5.693   0.815  -1.711  1.00  0.00     0.035 C 
HETATM   22 CL1  UNL     1       6.988   2.500  -0.122  1.00  0.00    -0.117 Cl
ENDBRANCH  13  15
ENDBRANCH  10  13
ENDBRANCH   8  10
ENDBRANCH   7   8
ENDBRANCH   4   7
BRANCH   1  23
HETATM   23  C5  UNL     1      -2.677  -0.992   1.361  1.00  0.00     0.222 C 
HETATM   24  N1  UNL     1      -3.302  -0.257   0.319  1.00  0.00    -0.356 N 
ATOM     25  H1  UNL     1      -2.726   0.232  -0.366  1.00  0.00     0.162 HD
HETATM   26  O1  UNL     1      -3.369  -1.600   2.216  1.00  0.00    -0.273 OA
BRANCH  24  27
HETATM   27  C4  UNL     1      -4.727  -0.191   0.215  1.00  0.00     0.088 C 
HETATM   28  C3  UNL     1      -5.233  -0.731  -1.124  1.00  0.00     0.049 C 
HETATM   29  C2  UNL     1      -6.713  -0.902  -0.945  1.00  0.00     0.077 C 
HETATM   30  C1  UNL     1      -7.286  -1.470  -2.223  1.00  0.00     0.032 C 
HETATM   31  N4  UNL     1      -7.385   0.249  -0.460  1.00  0.00    -0.405 N 
HETATM   32  C21 UNL     1      -6.632   1.396  -0.179  1.00  0.00     0.022 C 
HETATM   33  C24 UNL     1      -8.394  -0.108   0.493  1.00  0.00     0.144 C 
HETATM   34  C20 UNL     1      -5.240   1.214   0.310  1.00  0.00     0.055 C 
HETATM   35  C22 UNL     1      -6.592   2.264  -1.446  1.00  0.00     0.038 C 
HETATM   36  C23 UNL     1      -7.379   2.229   0.854  1.00  0.00     0.038 C 
ENDBRANCH  24  27
ENDBRANCH   1  23
TORSDOF 7
