REMARK  10 active torsions:
REMARK  status: ('A' for Active; 'I' for Inactive)
REMARK    1  A    between atoms: C4_4  and  N1_5 
REMARK       I    between atoms: N1_5  and  C5_7 
REMARK    2  A    between atoms: C5_7  and  C6_9 
REMARK    3  A    between atoms: C6_9  and  C7_10 
REMARK    4  A    between atoms: C6_9  and  N3_15 
REMARK    5  A    between atoms: C7_10  and  C8_11 
REMARK    6  A    between atoms: C8_11  and  C9_12 
REMARK       I    between atoms: N3_15  and  C10_17 
REMARK    7  A    between atoms: C10_17  and  C11_19 
REMARK    8  A    between atoms: C13_21  and  C14_22 
REMARK       I    between atoms: N4_27  and  C19_28 
REMARK    9  A    between atoms: C19_28  and  O5_30 
REMARK   10  A    between atoms: O5_30  and  C20_31 
ROOT
HETATM    1  N3  UNL     1       0.055   0.902  -0.161  1.00  0.00    -0.346 N 
ATOM      2  H3  UNL     1       0.085   1.591  -0.912  1.00  0.00     0.163 HD
HETATM    3  C10 UNL     1      -1.134   0.211   0.044  1.00  0.00     0.241 C 
HETATM    4  O3  UNL     1      -1.223  -0.637   0.965  1.00  0.00    -0.271 OA
ENDROOT
BRANCH   1   5
HETATM    5  C6  UNL     1       1.268   0.701   0.636  1.00  0.00     0.177 C 
BRANCH   5   6
HETATM    6  C5  UNL     1       2.354   0.540  -0.326  1.00  0.00     0.240 C 
HETATM    7  N1  UNL     1       3.623   0.097   0.096  1.00  0.00    -0.355 N 
ATOM      8  H1  UNL     1       3.761  -0.117   1.084  1.00  0.00     0.162 HD
HETATM    9  O1  UNL     1       2.187   0.785  -1.533  1.00  0.00    -0.271 OA
BRANCH   7  10
HETATM   10  C4  UNL     1       4.744  -0.069  -0.813  1.00  0.00     0.087 C 
HETATM   11  C3  UNL     1       5.041  -1.570  -0.958  1.00  0.00     0.032 C 
HETATM   12  C2  UNL     1       6.396  -1.505  -1.649  1.00  0.00     0.017 C 
HETATM   13  C1  UNL     1       7.213  -2.739  -1.453  1.00  0.00     0.013 C 
HETATM   14  C25 UNL     1       7.068  -0.251  -1.119  1.00  0.00     0.175 C 
HETATM   15  C24 UNL     1       6.022   0.436  -0.236  1.00  0.00     0.062 C 
HETATM   16  F1  UNL     1       7.283   0.620  -2.197  1.00  0.00    -0.249 F 
ENDBRANCH   7  10
ENDBRANCH   5   6
BRANCH   5  17
HETATM   17  C7  UNL     1       1.426   1.882   1.579  1.00  0.00     0.043 C 
BRANCH  17  18
HETATM   18  C8  UNL     1       2.648   1.856   2.412  1.00  0.00     0.102 C 
BRANCH  18  19
HETATM   19  C9  UNL     1       2.592   3.074   3.297  1.00  0.00     0.231 C 
HETATM   20  N2  UNL     1       3.672   3.232   4.234  1.00  0.00    -0.062 NA
HETATM   21  O2  UNL     1       1.705   3.924   3.274  1.00  0.00    -0.277 OA
ENDBRANCH  18  19
ENDBRANCH  17  18
ENDBRANCH   5  17
ENDBRANCH   1   5
BRANCH   3  22
HETATM   22  C11 UNL     1      -2.346   0.434  -0.801  1.00  0.00     0.182 C 
HETATM   23  C12 UNL     1      -2.145  -0.182  -2.170  1.00  0.00     0.042 C 
HETATM   24  C13 UNL     1      -3.245  -1.157  -2.390  1.00  0.00     0.013 C 
HETATM   25  C18 UNL     1      -3.822  -1.389  -1.029  1.00  0.00     0.134 C 
HETATM   26  N4  UNL     1      -3.523  -0.195  -0.272  1.00  0.00    -0.314 N 
HETATM   27  C19 UNL     1      -4.293   0.268   0.833  1.00  0.00     0.364 C 
HETATM   28  O4  UNL     1      -5.328  -0.386   1.188  1.00  0.00    -0.238 OA
BRANCH  24  29
HETATM   29  C14 UNL     1      -2.786  -2.498  -2.941  1.00  0.00    -0.046 C 
HETATM   30  C15 UNL     1      -4.060  -3.337  -3.090  1.00  0.00     0.015 C 
HETATM   31  C16 UNL     1      -2.195  -2.232  -4.315  1.00  0.00     0.015 C 
HETATM   32  C17 UNL     1      -1.867  -3.234  -2.033  1.00  0.00     0.015 C 
ENDBRANCH  24  29
BRANCH  27  33
HETATM   33  O5  UNL     1      -4.015   1.379   1.562  1.00  0.00    -0.294 OA
BRANCH  33  34
HETATM   34  C20 UNL     1      -4.671   1.938   2.635  1.00  0.00     0.061 C 
HETATM   35  C21 UNL     1      -6.072   2.324   2.223  1.00  0.00     0.046 C 
HETATM   36  C22 UNL     1      -4.824   1.047   3.839  1.00  0.00     0.046 C 
HETATM   37  C23 UNL     1      -3.986   3.202   3.149  1.00  0.00     0.046 C 
ENDBRANCH  33  34
ENDBRANCH  27  33
ENDBRANCH   3  22
TORSDOF 10
