REMARK  4 active torsions:
REMARK  status: ('A' for Active; 'I' for Inactive)
REMARK       I    between atoms: C1_2  and  N1_3 
REMARK    1  A    between atoms: C1_2  and  C8_16 
REMARK    2  A    between atoms: N1_3  and  N2_5 
REMARK    3  A    between atoms: N2_5  and  C2_7 
REMARK    4  A    between atoms: C7_12  and  N3_13 
ROOT
HETATM    1  N2  UNL     1      -0.248  -1.426  -0.032  1.00  0.00    -0.295 N 
ATOM      2  H2  UNL     1      -0.238  -2.384  -0.383  1.00  0.00     0.187 HD
ENDROOT
BRANCH   1   3
HETATM    3  N1  UNL     1       0.969  -0.835   0.276  1.00  0.00    -0.264 N 
HETATM    4  C1  UNL     1       1.470   0.250  -0.463  1.00  0.00     0.293 C 
HETATM    5  O1  UNL     1       0.783   0.688  -1.421  1.00  0.00    -0.264 OA
ATOM      6  H1  UNL     1       1.514  -1.197   1.059  1.00  0.00     0.190 HD
BRANCH   4   7
HETATM    7  C8  UNL     1       2.777   0.869  -0.133  1.00  0.00     0.144 A 
HETATM    8  C9  UNL     1       3.611   0.500   0.901  1.00  0.00     0.045 A 
HETATM    9  C10 UNL     1       4.705   1.332   0.840  1.00  0.00     0.027 A 
HETATM   10  C11 UNL     1       4.506   2.183  -0.228  1.00  0.00     0.143 A 
HETATM   11  O4  UNL     1       3.362   1.856  -0.750  1.00  0.00    -0.317 OA
ENDBRANCH   4   7
ENDBRANCH   1   3
BRANCH   1  12
HETATM   12  C2  UNL     1      -1.491  -0.793   0.107  1.00  0.00     0.081 A 
HETATM   13  C3  UNL     1      -1.505   0.437   0.766  1.00  0.00     0.033 A 
HETATM   14  C4  UNL     1      -2.658   1.168   0.970  1.00  0.00     0.002 A 
HETATM   15  C5  UNL     1      -3.853   0.650   0.494  1.00  0.00     0.003 A 
HETATM   16  C6  UNL     1      -3.872  -0.556  -0.157  1.00  0.00     0.038 A 
HETATM   17  C7  UNL     1      -2.683  -1.290  -0.358  1.00  0.00     0.130 A 
BRANCH  17  18
HETATM   18  N3  UNL     1      -2.775  -2.521  -1.051  1.00  0.00    -0.113 N 
HETATM   19  O2  UNL     1      -1.899  -2.921  -1.797  1.00  0.00    -0.532 OA
HETATM   20  O3  UNL     1      -3.964  -3.233  -0.847  1.00  0.00    -0.532 OA
ENDBRANCH  17  18
ENDBRANCH   1  12
TORSDOF 4
