REMARK  5 active torsions:
REMARK  status: ('A' for Active; 'I' for Inactive)
REMARK    1  A    between atoms: N1_1  and  C1_5 
REMARK    2  A    between atoms: C1_5  and  C2_6 
REMARK    3  A    between atoms: C2_6  and  C3_7 
REMARK    4  A    between atoms: N2_8  and  C4_10 
REMARK    5  A    between atoms: N4_14  and  O1_15 
ROOT
HETATM    1  C4  UNL     1      -0.675  -0.848   0.142  1.00  0.00     0.118 A 
HETATM    2  N3  UNL     1      -1.112  -2.152   0.304  1.00  0.00    -0.336 N 
ATOM      3  H3  UNL     1      -0.414  -2.888   0.416  1.00  0.00     0.168 HD
HETATM    4  C5  UNL     1      -2.396  -2.490   0.321  1.00  0.00     0.215 A 
HETATM    5  N4  UNL     1      -3.362  -1.573   0.182  1.00  0.00    -0.220 N 
HETATM    6  C6  UNL     1      -3.024  -0.286   0.020  1.00  0.00     0.077 A 
HETATM    7  C7  UNL     1      -4.000   0.680  -0.127  1.00  0.00     0.033 A 
HETATM    8  C8  UNL     1      -3.685   1.995  -0.292  1.00  0.00     0.002 A 
HETATM    9  C9  UNL     1      -2.352   2.362  -0.313  1.00  0.00     0.001 A 
HETATM   10  C10 UNL     1      -1.346   1.422  -0.169  1.00  0.00     0.017 A 
HETATM   11  C11 UNL     1      -1.668   0.094  -0.002  1.00  0.00     0.037 A 
ENDROOT
BRANCH   1  12
HETATM   12  N2  UNL     1       0.525  -0.610   0.136  1.00  0.00    -0.355 N 
HETATM   13  C3  UNL     1       1.605   0.192   0.053  1.00  0.00     0.064 C 
ATOM     14  H2  UNL     1       0.939  -1.533   0.267  1.00  0.00     0.166 HD
BRANCH  13  15
HETATM   15  C2  UNL     1       2.961  -0.534   0.167  1.00  0.00     0.072 C 
BRANCH  15  16
HETATM   16  C1  UNL     1       4.043   0.521   0.052  1.00  0.00     0.234 C 
BRANCH  16  17
HETATM   17  N1  UNL     1       5.352  -0.051   0.146  1.00  0.00    -0.079 N 
ATOM     18  H13 UNL     1       5.457  -0.601   0.999  1.00  0.00     0.274 HD
ATOM     19  H12 UNL     1       5.483  -0.795  -0.540  1.00  0.00     0.274 HD
ATOM     20  H11 UNL     1       6.080   0.659   0.069  1.00  0.00     0.274 HD
ENDBRANCH  16  17
ENDBRANCH  15  16
ENDBRANCH  13  15
ENDBRANCH   1  12
BRANCH   5  21
HETATM   21  O1  UNL     1      -4.695  -1.874   0.193  1.00  0.00    -0.282 OA
ATOM     22  H1  UNL     1      -5.380  -1.223   0.094  1.00  0.00     0.245 HD
ENDBRANCH   5  21
TORSDOF 5
