REMARK  5 active torsions:
REMARK  status: ('A' for Active; 'I' for Inactive)
REMARK    1  A    between atoms: C2_2  and  N1_3 
REMARK    2  A    between atoms: N1_3  and  C3_5 
REMARK    3  A    between atoms: C6_10  and  N3_11 
REMARK    4  A    between atoms: N3_11  and  C7_13 
REMARK    5  A    between atoms: C7_13  and  C8_14 
ROOT
HETATM    1  C3  UNL     1      -1.705   0.888   0.437  1.00  0.00     0.679 A 
HETATM    2  N2  UNL     1      -2.704   0.563  -0.397  1.00  0.00    -0.202 N 
ATOM      3  H2  UNL     1      -3.425   1.257  -0.596  1.00  0.00     0.183 HD
HETATM    4  C4  UNL     1      -2.788  -0.640  -0.977  1.00  0.00     0.110 A 
HETATM    5  C5  UNL     1      -1.848  -1.616  -0.749  1.00  0.00     0.066 A 
HETATM    6  C6  UNL     1      -0.795  -1.291   0.122  1.00  0.00     0.118 A 
HETATM    7  N5  UNL     1      -0.765  -0.078   0.669  1.00  0.00    -0.177 N 
ATOM      8  H5  UNL     1       0.005   0.145   1.299  1.00  0.00     0.185 HD
ENDROOT
BRANCH   6   9
HETATM    9  N3  UNL     1       0.074  -2.185   0.336  1.00  0.00    -0.372 N 
ATOM     10  H3  UNL     1      -0.047  -3.081  -0.136  1.00  0.00     0.161 HD
BRANCH   9  11
HETATM   11  C7  UNL     1       1.207  -2.039   1.184  1.00  0.00     0.160 C 
BRANCH  11  12
HETATM   12  C8  UNL     1       2.410  -1.708   0.350  1.00  0.00    -0.038 A 
HETATM   13  C9  UNL     1       3.111  -2.762  -0.236  1.00  0.00     0.025 A 
HETATM   14  C10 UNL     1       4.212  -2.429  -0.994  1.00  0.00     0.088 A 
HETATM   15  N4  UNL     1       4.602  -1.153  -1.169  1.00  0.00    -0.375 N 
HETATM   16  C11 UNL     1       3.946  -0.118  -0.617  1.00  0.00     0.088 A 
ATOM     17  H4  UNL     1       5.425  -0.965  -1.741  1.00  0.00     0.164 HD
HETATM   18  C12 UNL     1       2.838  -0.413   0.149  1.00  0.00     0.025 A 
ENDBRANCH  11  12
ENDBRANCH   9  11
ENDBRANCH   6   9
BRANCH   1  19
HETATM   19  N1  UNL     1      -1.601   2.046   1.012  1.00  0.00    -0.226 N 
ATOM     20  H1  UNL     1      -0.816   2.231   1.636  1.00  0.00     0.177 HD
BRANCH  19  21
HETATM   21  C2  UNL     1      -2.588   3.079   0.777  1.00  0.00     0.133 C 
HETATM   22  C1  UNL     1      -2.369   3.708  -0.586  1.00  0.00     0.027 C 
ENDBRANCH  19  21
ENDBRANCH   1  19
TORSDOF 5
