REMARK  5 active torsions:
REMARK  status: ('A' for Active; 'I' for Inactive)
REMARK    1  A    between atoms: C2_2  and  C3_3 
REMARK    2  A    between atoms: C4_4  and  O1_5 
REMARK    3  A    between atoms: C5_7  and  O2_8 
REMARK    4  A    between atoms: C6_10  and  O3_11 
REMARK    5  A    between atoms: C7_13  and  O4_14 
ROOT
HETATM    1  C3  UNL     1      -1.027  -0.440  -0.607  1.00  0.00     0.021 C 
HETATM    2  C4  UNL     1      -1.081   1.023  -0.845  1.00  0.00     0.154 C 
HETATM    3  C5  UNL     1      -0.436   1.833   0.288  1.00  0.00     0.178 C 
HETATM    4  C6  UNL     1       1.048   2.026   0.035  1.00  0.00     0.178 C 
HETATM    5  C7  UNL     1       1.873   0.873   0.526  1.00  0.00     0.154 C 
HETATM    6  C8  UNL     1       1.375  -0.381  -0.194  1.00  0.00     0.021 C 
HETATM    7  C9  UNL     1       2.350  -1.512  -0.102  1.00  0.00     0.007 C 
HETATM    8  C10 UNL     1       1.647  -2.574   0.720  1.00  0.00     0.001 C 
HETATM    9  C11 UNL     1       0.189  -2.348   0.354  1.00  0.00     0.005 C 
HETATM   10  C12 UNL     1       0.069  -0.833   0.371  1.00  0.00    -0.001 C 
ENDROOT
BRANCH   1  11
HETATM   11  C2  UNL     1      -2.327  -1.079  -0.233  1.00  0.00     0.003 C 
HETATM   12  C1  UNL     1      -2.967  -0.573   1.003  1.00  0.00     0.005 C 
ENDBRANCH   1  11
BRANCH   2  13
HETATM   13  O1  UNL     1      -2.372   1.493  -1.101  1.00  0.00    -0.393 OA
ATOM     14  H1  UNL     1      -2.407   2.430  -1.253  1.00  0.00     0.210 HD
ENDBRANCH   2  13
BRANCH   3  15
HETATM   15  O2  UNL     1      -0.998   3.131   0.252  1.00  0.00    -0.390 OA
ATOM     16  H2  UNL     1      -0.599   3.632   0.953  1.00  0.00     0.210 HD
ENDBRANCH   3  15
BRANCH   4  17
HETATM   17  O3  UNL     1       1.487   3.219   0.613  1.00  0.00    -0.390 OA
ATOM     18  H3  UNL     1       2.416   3.340   0.455  1.00  0.00     0.210 HD
ENDBRANCH   4  17
BRANCH   5  19
HETATM   19  O4  UNL     1       3.180   1.075   0.089  1.00  0.00    -0.393 OA
ATOM     20  H4  UNL     1       3.702   0.345   0.400  1.00  0.00     0.210 HD
ENDBRANCH   5  19
TORSDOF 5
