REMARK  9 active torsions:
REMARK  status: ('A' for Active; 'I' for Inactive)
REMARK    1  A    between atoms: C2_2  and  C3_3 
REMARK    2  A    between atoms: C4_6  and  S1_7 
REMARK    3  A    between atoms: S1_7  and  C5_8 
REMARK    4  A    between atoms: C5_8  and  C6_9 
REMARK    5  A    between atoms: C6_9  and  C7_10 
REMARK    6  A    between atoms: C7_10  and  C8_11 
REMARK    7  A    between atoms: C9_13  and  N2_14 
REMARK    8  A    between atoms: C12_21  and  C13_22 
REMARK    9  A    between atoms: C14_25  and  N5_26 
ROOT
HETATM    1  C3  UNL     1      -1.232   2.309  -0.056  1.00  0.00     0.084 A 
HETATM    2  N1  UNL     1      -0.462   1.603  -0.879  1.00  0.00    -0.338 N 
ATOM      3  H1  UNL     1       0.422   1.931  -1.269  1.00  0.00     0.168 HD
HETATM    4  C4  UNL     1      -1.010   0.389  -1.130  1.00  0.00     0.102 A 
HETATM    5  C12 UNL     1      -2.193   0.329  -0.424  1.00  0.00     0.115 A 
HETATM    6  N9  UNL     1      -2.302   1.514   0.221  1.00  0.00    -0.336 N 
HETATM    7  C16 UNL     1      -3.378   1.935   1.093  1.00  0.00     0.158 C 
ENDROOT
BRANCH   5   8
HETATM    8  C13 UNL     1      -3.176  -0.752  -0.340  1.00  0.00     0.166 A 
HETATM    9  N4  UNL     1      -4.298  -0.545   0.414  1.00  0.00    -0.173 N 
HETATM   10  C14 UNL     1      -5.271  -1.445   0.566  1.00  0.00     0.692 A 
ATOM     11  H4  UNL     1      -4.397   0.352   0.889  1.00  0.00     0.186 HD
HETATM   12  N6  UNL     1      -5.165  -2.643  -0.050  1.00  0.00    -0.023 N 
HETATM   13  C15 UNL     1      -4.078  -2.864  -0.789  1.00  0.00     0.692 A 
ATOM     14  H6  UNL     1      -5.891  -3.353   0.047  1.00  0.00     0.203 HD
HETATM   15  N7  UNL     1      -3.942  -4.000  -1.392  1.00  0.00    -0.234 N 
HETATM   16  N8  UNL     1      -3.085  -1.922  -0.935  1.00  0.00    -0.173 N 
ATOM     17  H72 UNL     1      -4.678  -4.698  -1.284  1.00  0.00     0.174 HD
ATOM     18  H71 UNL     1      -3.110  -4.169  -1.958  1.00  0.00     0.174 HD
ATOM     19  H8  UNL     1      -2.270  -2.133  -1.511  1.00  0.00     0.186 HD
BRANCH  10  20
HETATM   20  N5  UNL     1      -6.323  -1.242   1.273  1.00  0.00    -0.234 N 
ATOM     21  H52 UNL     1      -6.403  -0.338   1.738  1.00  0.00     0.174 HD
ATOM     22  H51 UNL     1      -7.067  -1.930   1.389  1.00  0.00     0.174 HD
ENDBRANCH  10  20
ENDBRANCH   5   8
BRANCH   4  23
HETATM   23  S1  UNL     1      -0.286  -0.874  -2.200  1.00  0.00    -0.110 SA
BRANCH  23  24
HETATM   24  C5  UNL     1       0.828  -1.873  -1.130  1.00  0.00     0.081 C 
BRANCH  24  25
HETATM   25  C6  UNL     1       2.009  -1.026  -0.699  1.00  0.00     0.016 C 
BRANCH  25  26
HETATM   26  C7  UNL     1       2.909  -1.836   0.190  1.00  0.00     0.049 C 
BRANCH  26  27
HETATM   27  C8  UNL     1       4.098  -0.999   0.610  1.00  0.00     0.008 A 
HETATM   28  S2  UNL     1       4.439  -0.194   2.076  1.00  0.00    -0.057 SA
HETATM   29  C9  UNL     1       5.949   0.481   1.645  1.00  0.00     0.142 A 
HETATM   30  N3  UNL     1       6.119   0.053   0.391  1.00  0.00    -0.340 N 
HETATM   31  C10 UNL     1       5.198  -0.692  -0.144  1.00  0.00     0.020 A 
ATOM     32  H3  UNL     1       6.955   0.306  -0.136  1.00  0.00     0.168 HD
HETATM   33  C11 UNL     1       5.304  -1.234  -1.563  1.00  0.00     0.069 C 
BRANCH  29  34
HETATM   34  N2  UNL     1       6.750   1.238   2.369  1.00  0.00    -0.380 N 
ATOM     35  H22 UNL     1       6.620   1.565   3.326  1.00  0.00     0.158 HD
ATOM     36  H21 UNL     1       7.651   1.641   2.112  1.00  0.00     0.158 HD
ENDBRANCH  29  34
ENDBRANCH  26  27
ENDBRANCH  25  26
ENDBRANCH  24  25
ENDBRANCH  23  24
ENDBRANCH   4  23
BRANCH   1  37
HETATM   37  C2  UNL     1      -0.999   3.692   0.484  1.00  0.00     0.072 C 
HETATM   38  C1  UNL     1      -1.578   4.766  -0.383  1.00  0.00     0.013 C 
ENDBRANCH   1  37
TORSDOF 9
