REMARK  17 active torsions:
REMARK  status: ('A' for Active; 'I' for Inactive)
REMARK    1  A    between atoms: O1_2  and  C2_3 
REMARK    2  A    between atoms: C5_7  and  O3_8 
REMARK    3  A    between atoms: O3_8  and  C6_9 
REMARK    4  A    between atoms: C7_10  and  O4_11 
REMARK    5  A    between atoms: C8_13  and  O5_14 
REMARK    6  A    between atoms: O5_14  and  C9_15 
REMARK    7  A    between atoms: C13_19  and  O6_20 
REMARK    8  A    between atoms: O6_20  and  C14_21 
REMARK    9  A    between atoms: C15_23  and  C16_24 
REMARK   10  A    between atoms: C16_24  and  O8_25 
REMARK   11  A    between atoms: C17_27  and  O9_28 
REMARK   12  A    between atoms: C18_30  and  O10_31 
REMARK   13  A    between atoms: C19_33  and  O11_34 
REMARK   14  A    between atoms: C20_36  and  O12_37 
REMARK   15  A    between atoms: C23_42  and  S1_43 
REMARK   16  A    between atoms: C25_45  and  O14_46 
REMARK   17  A    between atoms: C26_48  and  O15_49 
ROOT
HETATM    1  C6  UNL     1       2.610   0.214   1.186  1.00  0.00     0.174 C 
HETATM    2  C7  UNL     1       1.420  -0.526   1.743  1.00  0.00     0.203 C 
HETATM    3  C8  UNL     1       0.152   0.331   1.614  1.00  0.00     0.291 C 
HETATM    4  O13 UNL     1       0.188   1.093   0.453  1.00  0.00    -0.352 OA
HETATM    5  C21 UNL     1       1.187   2.056   0.468  1.00  0.00     0.137 C 
HETATM    6  C22 UNL     1       0.654   3.417   0.889  1.00  0.00     0.041 C 
HETATM    7  C23 UNL     1       2.261   1.679   1.423  1.00  0.00     0.107 C 
ENDROOT
BRANCH   3   8
HETATM    8  O5  UNL     1      -0.908  -0.558   1.502  1.00  0.00    -0.351 OA
BRANCH   8   9
HETATM    9  C9  UNL     1      -1.826  -0.390   2.489  1.00  0.00     0.153 C 
HETATM   10  C10 UNL     1      -1.902  -1.593   3.431  1.00  0.00     0.035 C 
HETATM   11  C11 UNL     1      -3.152  -1.201   4.232  1.00  0.00     0.005 C 
HETATM   12  C12 UNL     1      -4.115  -0.829   3.139  1.00  0.00     0.035 C 
HETATM   13  C13 UNL     1      -3.227  -0.160   2.091  1.00  0.00     0.153 C 
BRANCH  13  14
HETATM   14  O6  UNL     1      -3.497  -0.693   0.831  1.00  0.00    -0.351 OA
BRANCH  14  15
HETATM   15  C14 UNL     1      -4.127   0.194  -0.003  1.00  0.00     0.292 C 
HETATM   16  O7  UNL     1      -5.464  -0.337  -0.120  1.00  0.00    -0.348 OA
HETATM   17  C15 UNL     1      -6.250   0.719  -0.509  1.00  0.00     0.179 C 
HETATM   18  C17 UNL     1      -6.332   0.927  -1.989  1.00  0.00     0.180 C 
HETATM   19  C18 UNL     1      -5.716  -0.159  -2.793  1.00  0.00     0.180 C 
HETATM   20  C19 UNL     1      -4.402  -0.652  -2.338  1.00  0.00     0.183 C 
HETATM   21  C20 UNL     1      -3.640   0.271  -1.414  1.00  0.00     0.204 C 
BRANCH  17  22
HETATM   22  C16 UNL     1      -7.638   0.641   0.136  1.00  0.00     0.198 C 
BRANCH  22  23
HETATM   23  O8  UNL     1      -8.312  -0.506  -0.201  1.00  0.00    -0.398 OA
ATOM     24  H8  UNL     1      -9.172  -0.554   0.199  1.00  0.00     0.209 HD
ENDBRANCH  22  23
ENDBRANCH  17  22
BRANCH  18  25
HETATM   25  O9  UNL     1      -5.880   2.209  -2.377  1.00  0.00    -0.390 OA
ATOM     26  H9  UNL     1      -5.932   2.341  -3.316  1.00  0.00     0.210 HD
ENDBRANCH  18  25
BRANCH  19  27
HETATM   27  O10 UNL     1      -6.613  -1.253  -2.774  1.00  0.00    -0.390 OA
ATOM     28  H10 UNL     1      -6.219  -1.948  -3.288  1.00  0.00     0.210 HD
ENDBRANCH  19  27
BRANCH  20  29
HETATM   29  O11 UNL     1      -3.591  -0.904  -3.443  1.00  0.00    -0.390 OA
ATOM     30  H11 UNL     1      -2.745  -1.221  -3.150  1.00  0.00     0.210 HD
ENDBRANCH  20  29
BRANCH  21  31
HETATM   31  O12 UNL     1      -2.320  -0.154  -1.459  1.00  0.00    -0.388 OA
ATOM     32  H12 UNL     1      -2.010  -0.105  -2.356  1.00  0.00     0.210 HD
ENDBRANCH  21  31
ENDBRANCH  14  15
ENDBRANCH  13  14
ENDBRANCH   8   9
ENDBRANCH   3   8
BRANCH   2  33
HETATM   33  O4  UNL     1       1.176  -1.751   1.164  1.00  0.00    -0.388 OA
ATOM     34  H4  UNL     1       0.426  -2.217   1.515  1.00  0.00     0.210 HD
ENDBRANCH   2  33
BRANCH   1  35
HETATM   35  O3  UNL     1       2.743  -0.107  -0.121  1.00  0.00    -0.349 OA
BRANCH  35  36
HETATM   36  C5  UNL     1       3.953  -0.598  -0.541  1.00  0.00     0.292 C 
HETATM   37  O2  UNL     1       4.486   0.510  -1.289  1.00  0.00    -0.351 OA
HETATM   38  C3  UNL     1       5.735   0.307  -1.759  1.00  0.00     0.152 C 
HETATM   39  C2  UNL     1       6.344  -1.027  -1.538  1.00  0.00     0.180 C 
HETATM   40  C4  UNL     1       5.830   0.637  -3.254  1.00  0.00     0.042 C 
HETATM   41  C26 UNL     1       5.409  -2.177  -1.676  1.00  0.00     0.183 C 
HETATM   42  C25 UNL     1       3.952  -1.710  -1.516  1.00  0.00     0.204 C 
BRANCH  39  43
HETATM   43  O1  UNL     1       7.068  -1.111  -0.342  1.00  0.00    -0.385 OA
HETATM   44  C1  UNL     1       8.405  -1.334  -0.550  1.00  0.00     0.202 C 
ENDBRANCH  39  43
BRANCH  41  45
HETATM   45  O15 UNL     1       5.560  -2.873  -2.873  1.00  0.00    -0.390 OA
ATOM     46  H15 UNL     1       4.963  -3.607  -2.961  1.00  0.00     0.210 HD
ENDBRANCH  41  45
BRANCH  42  47
HETATM   47  O14 UNL     1       3.251  -2.839  -1.196  1.00  0.00    -0.388 OA
ATOM     48  H14 UNL     1       3.250  -3.553  -1.822  1.00  0.00     0.210 HD
ENDBRANCH  42  47
ENDBRANCH  35  36
ENDBRANCH   1  35
BRANCH   7  49
HETATM   49  S1  UNL     1       3.692   2.755   1.390  1.00  0.00    -0.163 SA
HETATM   50  C24 UNL     1       4.797   2.395   2.792  1.00  0.00     0.090 C 
ENDBRANCH   7  49
TORSDOF 17
