REMARK  6 active torsions:
REMARK  status: ('A' for Active; 'I' for Inactive)
REMARK    1  A    between atoms: N2_4  and  C1_6 
REMARK    2  A    between atoms: C1_6  and  C2_7 
REMARK    3  A    between atoms: N4_9  and  N5_10 
REMARK    4  A    between atoms: N5_10  and  C3_11 
REMARK    5  A    between atoms: C3_11  and  C4_12 
REMARK    6  A    between atoms: C4_12  and  C5_13 
ROOT
HETATM    1  C2  UNL     1      -1.916  -0.042   0.515  1.00  0.00     0.223 A 
HETATM    2  N3  UNL     1      -1.881  -1.279  -0.284  1.00  0.00    -0.122 NA
HETATM    3  N4  UNL     1      -0.826  -0.282  -0.298  1.00  0.00    -0.124 NA
ENDROOT
BRANCH   3   4
HETATM    4  N5  UNL     1       0.395  -0.760   0.127  1.00  0.00    -0.146 NA
BRANCH   4   5
HETATM    5  C3  UNL     1       1.457   0.112  -0.312  1.00  0.00     0.135 C 
BRANCH   5   6
HETATM    6  C4  UNL     1       2.818  -0.369   0.129  1.00  0.00     0.061 C 
BRANCH   6   7
HETATM    7  C5  UNL     1       3.833   0.595  -0.373  1.00  0.00     0.054 C 
HETATM    8  N6  UNL     1       5.057   0.381  -0.089  1.00  0.00    -0.411 N 
ATOM      9  H62 UNL     1       5.316  -0.433   0.468  1.00  0.00     0.155 HD
ATOM     10  H61 UNL     1       5.753   1.042  -0.433  1.00  0.00     0.155 HD
ENDBRANCH   6   7
ENDBRANCH   5   6
ENDBRANCH   4   5
ENDBRANCH   3   4
BRANCH   1  11
HETATM   11  C1  UNL     1      -2.985   0.915   0.036  1.00  0.00     0.179 C 
BRANCH  11  12
HETATM   12  N2  UNL     1      -4.295   0.333   0.111  1.00  0.00    -0.340 N 
HETATM   13  N1  UNL     1      -4.398  -0.897   0.281  1.00  0.00    -0.349 N 
ATOM     14  H12 UNL     1      -3.556  -1.467   0.364  1.00  0.00     0.176 HD
ATOM     15  H11 UNL     1      -5.329  -1.311   0.334  1.00  0.00     0.176 HD
ATOM     16  H2  UNL     1      -5.127   0.916   0.027  1.00  0.00     0.179 HD
ENDBRANCH  11  12
ENDBRANCH   1  11
TORSDOF 6
