REMARK  14 active torsions:
REMARK  status: ('A' for Active; 'I' for Inactive)
REMARK    1  A    between atoms: C3_4  and  O2_5 
REMARK    2  A    between atoms: O2_5  and  C4_6 
REMARK    3  A    between atoms: C5_8  and  C6_9 
REMARK    4  A    between atoms: C5_8  and  O5_12 
REMARK    5  A    between atoms: C6_9  and  O4_10 
REMARK    6  A    between atoms: O5_12  and  C7_13 
REMARK    7  A    between atoms: C8_15  and  C9_16 
REMARK    8  A    between atoms: C9_16  and  O7_17 
REMARK    9  A    between atoms: C10_19  and  N1_20 
REMARK   10  A    between atoms: C12_25  and  N2_26 
REMARK   11  A    between atoms: C13_30  and  N3_31 
REMARK   12  A    between atoms: C15_36  and  N4_37 
REMARK   13  A    between atoms: C16_42  and  O9_43 
REMARK   14  A    between atoms: C17_45  and  O10_46 
ROOT
HETATM    1  C4  UNL     1       1.036  -1.791   0.174  1.00  0.00     0.299 C 
HETATM    2  O3  UNL     1      -0.350  -1.830   0.216  1.00  0.00    -0.318 OA
HETATM    3  C5  UNL     1      -0.909  -1.936  -1.058  1.00  0.00     0.219 C 
HETATM    4  C13 UNL     1       0.051  -2.638  -2.015  1.00  0.00     0.250 C 
HETATM    5  C14 UNL     1       0.863  -3.700  -1.328  1.00  0.00     0.076 C 
HETATM    6  C15 UNL     1       1.520  -3.206  -0.059  1.00  0.00     0.240 C 
ENDROOT
BRANCH   3   7
HETATM    7  C6  UNL     1      -2.188  -2.702  -0.911  1.00  0.00     0.235 C 
BRANCH   7   8
HETATM    8  O4  UNL     1      -1.953  -3.992  -0.371  1.00  0.00    -0.395 OA
ATOM      9  H4  UNL     1      -2.764  -4.478  -0.278  1.00  0.00     0.209 HD
ENDBRANCH   7   8
ENDBRANCH   3   7
BRANCH   3  10
HETATM   10  O5  UNL     1      -1.046  -0.645  -1.530  1.00  0.00    -0.319 OA
BRANCH  10  11
HETATM   11  C7  UNL     1      -1.840   0.199  -0.817  1.00  0.00     0.294 C 
HETATM   12  O6  UNL     1      -1.085   1.244  -0.221  1.00  0.00    -0.350 OA
HETATM   13  C8  UNL     1      -1.936   1.821   0.719  1.00  0.00     0.178 C 
HETATM   14  C10 UNL     1      -2.881   2.719  -0.014  1.00  0.00     0.216 C 
HETATM   15  C11 UNL     1      -3.660   1.936  -1.014  1.00  0.00     0.073 C 
HETATM   16  C12 UNL     1      -2.853   0.859  -1.706  1.00  0.00     0.240 C 
BRANCH  13  17
HETATM   17  C9  UNL     1      -1.196   2.538   1.824  1.00  0.00     0.198 C 
BRANCH  17  18
HETATM   18  O7  UNL     1      -2.127   3.076   2.707  1.00  0.00    -0.398 OA
ATOM     19  H7  UNL     1      -1.662   3.527   3.402  1.00  0.00     0.209 HD
ENDBRANCH  17  18
ENDBRANCH  13  17
BRANCH  14  20
HETATM   20  N1  UNL     1      -3.823   3.317   0.914  1.00  0.00    -0.072 N 
ATOM     21  H13 UNL     1      -4.315   2.613   1.465  1.00  0.00     0.274 HD
ATOM     22  H12 UNL     1      -3.351   3.802   1.677  1.00  0.00     0.274 HD
ATOM     23  H11 UNL     1      -4.468   3.929   0.414  1.00  0.00     0.274 HD
ENDBRANCH  14  20
BRANCH  16  24
HETATM   24  N2  UNL     1      -3.798  -0.140  -2.146  1.00  0.00    -0.070 N 
ATOM     25  H23 UNL     1      -3.345  -0.937  -2.593  1.00  0.00     0.274 HD
ATOM     26  H22 UNL     1      -4.227  -0.642  -1.369  1.00  0.00     0.274 HD
ATOM     27  H21 UNL     1      -4.487   0.309  -2.750  1.00  0.00     0.274 HD
ENDBRANCH  16  24
ENDBRANCH  10  11
ENDBRANCH   3  10
BRANCH   4  28
HETATM   28  N3  UNL     1      -0.702  -3.253  -3.082  1.00  0.00    -0.070 N 
ATOM     29  H33 UNL     1      -1.426  -3.880  -2.732  1.00  0.00     0.274 HD
ATOM     30  H32 UNL     1      -1.307  -2.587  -3.562  1.00  0.00     0.274 HD
ATOM     31  H31 UNL     1      -0.061  -3.722  -3.721  1.00  0.00     0.274 HD
ENDBRANCH   4  28
BRANCH   1  32
HETATM   32  O2  UNL     1       1.593  -1.227   1.306  1.00  0.00    -0.306 OA
BRANCH  32  33
HETATM   33  C3  UNL     1       2.442  -0.195   1.020  1.00  0.00     0.418 C 
HETATM   34  O1  UNL     1       2.099   1.035   1.575  1.00  0.00    -0.331 OA
HETATM   35  C2  UNL     1       2.789   1.996   0.804  1.00  0.00     0.156 C 
HETATM   36  C1  UNL     1       2.853   3.323   1.514  1.00  0.00     0.042 C 
HETATM   37  C17 UNL     1       4.156   1.501   0.454  1.00  0.00     0.202 C 
HETATM   38  C16 UNL     1       4.598   0.501   1.507  1.00  0.00     0.293 C 
HETATM   39  O8  UNL     1       3.687  -0.523   1.549  1.00  0.00    -0.306 OA
BRANCH  37  40
HETATM   40  O10 UNL     1       5.112   2.517   0.442  1.00  0.00    -0.388 OA
ATOM     41  H10 UNL     1       5.980   2.203   0.220  1.00  0.00     0.210 HD
ENDBRANCH  37  40
BRANCH  38  42
HETATM   42  O9  UNL     1       4.778   1.101   2.749  1.00  0.00    -0.368 OA
ATOM     43  H9  UNL     1       5.409   1.810   2.720  1.00  0.00     0.212 HD
ENDBRANCH  38  42
ENDBRANCH  32  33
ENDBRANCH   1  32
BRANCH   6  44
HETATM   44  N4  UNL     1       1.275  -4.089   1.053  1.00  0.00    -0.070 N 
ATOM     45  H43 UNL     1       1.674  -3.708   1.911  1.00  0.00     0.274 HD
ATOM     46  H42 UNL     1       0.287  -4.083   1.308  1.00  0.00     0.274 HD
ATOM     47  H41 UNL     1       1.601  -5.043   0.896  1.00  0.00     0.274 HD
ENDBRANCH   6  44
TORSDOF 14
