REMARK  6 active torsions:
REMARK  status: ('A' for Active; 'I' for Inactive)
REMARK    1  A    between atoms: O1_2  and  C2_3 
REMARK    2  A    between atoms: C2_3  and  C3_5 
REMARK    3  A    between atoms: C3_5  and  C6_8 
REMARK    4  A    between atoms: C8_10  and  C9_11 
REMARK    5  A    between atoms: C11_13  and  O3_14 
REMARK    6  A    between atoms: C12_18  and  O4_19 
ROOT
HETATM    1  C9  UNL     1       1.532  -0.282  -0.934  1.00  0.00     0.078 A 
HETATM    2  C10 UNL     1       2.168   0.067   0.346  1.00  0.00     0.016 A 
HETATM    3  C11 UNL     1       2.021   0.021   1.741  1.00  0.00     0.149 A 
HETATM    4  N1  UNL     1       3.109   0.584   2.290  1.00  0.00    -0.317 N 
ATOM      5  H1  UNL     1       3.286   0.694   3.288  1.00  0.00     0.170 HD
HETATM    6  C12 UNL     1       3.922   0.977   1.299  1.00  0.00     0.151 A 
HETATM    7  C13 UNL     1       3.366   0.670   0.076  1.00  0.00     0.035 A 
HETATM    8  C14 UNL     1       3.627   0.774  -1.377  1.00  0.00     0.190 A 
HETATM    9  O5  UNL     1       2.760   1.536  -2.157  1.00  0.00    -0.369 OA
HETATM   10  C15 UNL     1       2.396   0.212  -2.031  1.00  0.00     0.168 A 
ENDROOT
BRANCH   1  11
HETATM   11  C8  UNL     1       0.140   0.212  -0.994  1.00  0.00    -0.011 C 
HETATM   12  C6  UNL     1      -0.923  -0.559  -0.826  1.00  0.00    -0.069 C 
HETATM   13  C7  UNL     1      -0.756  -2.025  -0.558  1.00  0.00     0.044 C 
BRANCH  12  14
HETATM   14  C3  UNL     1      -2.302  -0.014  -0.896  1.00  0.00     0.063 C 
HETATM   15  C4  UNL     1      -3.068  -0.649  -2.041  1.00  0.00     0.030 C 
HETATM   16  C5  UNL     1      -2.252   1.478  -1.119  1.00  0.00     0.030 C 
BRANCH  14  17
HETATM   17  C2  UNL     1      -2.982  -0.255   0.403  1.00  0.00     0.270 C 
HETATM   18  O2  UNL     1      -4.055  -0.907   0.509  1.00  0.00    -0.264 OA
BRANCH  17  19
HETATM   19  O1  UNL     1      -2.422   0.252   1.552  1.00  0.00    -0.326 OA
HETATM   20  C1  UNL     1      -3.024   0.053   2.801  1.00  0.00     0.213 C 
ENDBRANCH  17  19
ENDBRANCH  14  17
ENDBRANCH  12  14
ENDBRANCH   1  11
BRANCH   3  21
HETATM   21  O3  UNL     1       0.910  -0.529   2.399  1.00  0.00    -0.346 OA
ATOM     22  H3  UNL     1       0.810  -0.560   3.343  1.00  0.00     0.219 HD
ENDBRANCH   3  21
BRANCH   6  23
HETATM   23  O4  UNL     1       5.153   1.605   1.487  1.00  0.00    -0.346 OA
ATOM     24  H4  UNL     1       5.729   1.883   0.785  1.00  0.00     0.219 HD
ENDBRANCH   6  23
TORSDOF 6
