REMARK  5 active torsions:
REMARK  status: ('A' for Active; 'I' for Inactive)
REMARK    1  A    between atoms: C2_2  and  O1_3 
REMARK    2  A    between atoms: C9_12  and  O3_13 
REMARK    3  A    between atoms: C10_15  and  C11_16 
REMARK    4  A    between atoms: C11_16  and  O4_17 
REMARK    5  A    between atoms: C11_16  and  O5_19 
ROOT
HETATM    1  C1  UNL     1      -2.084  -1.239   0.423  1.00  0.00     0.046 C 
HETATM    2  C2  UNL     1      -1.530  -0.327  -0.615  1.00  0.00     0.065 C 
HETATM    3  C3  UNL     1      -0.602  -1.042  -1.589  1.00  0.00     0.041 C 
HETATM    4  C4  UNL     1       0.513  -1.702  -0.870  1.00  0.00     0.044 C 
HETATM    5  C5  UNL     1       1.656  -0.795  -0.520  1.00  0.00     0.092 A 
HETATM    6  C6  UNL     1       3.001  -1.483  -0.682  1.00  0.00     0.049 C 
HETATM    7  O2  UNL     1       1.687   0.518  -0.905  1.00  0.00    -0.361 OA
HETATM    8  C7  UNL     1       1.497   0.152   0.472  1.00  0.00     0.115 A 
HETATM    9  C8  UNL     1       2.687   0.446   1.393  1.00  0.00     0.052 C 
HETATM   10  C9  UNL     1       0.184   0.614   0.964  1.00  0.00     0.167 C 
HETATM   11  C10 UNL     1      -0.839   0.880  -0.120  1.00  0.00     0.106 C 
ENDROOT
BRANCH  11  12
HETATM   12  C11 UNL     1      -1.768   2.002   0.294  1.00  0.00     0.263 C 
BRANCH  12  13
HETATM   13  O4  UNL     1      -2.523   2.373  -0.808  1.00  0.00    -0.371 OA
ATOM     14  H4  UNL     1      -3.106   3.077  -0.548  1.00  0.00     0.212 HD
ENDBRANCH  12  13
BRANCH  12  15
HETATM   15  O5  UNL     1      -2.628   1.602   1.316  1.00  0.00    -0.371 OA
ATOM     16  H5  UNL     1      -3.211   2.306   1.576  1.00  0.00     0.212 HD
ENDBRANCH  12  15
ENDBRANCH  11  12
BRANCH   2  17
HETATM   17  O1  UNL     1      -2.623   0.089  -1.409  1.00  0.00    -0.390 OA
ATOM     18  H1  UNL     1      -2.269   0.671  -2.071  1.00  0.00     0.210 HD
ENDBRANCH   2  17
BRANCH  10  19
HETATM   19  O3  UNL     1       0.384   1.887   1.561  1.00  0.00    -0.392 OA
ATOM     20  H3  UNL     1      -0.461   2.184   1.878  1.00  0.00     0.210 HD
ENDBRANCH  10  19
TORSDOF 5
