REMARK  3 active torsions:
REMARK  status: ('A' for Active; 'I' for Inactive)
REMARK    1  A    between atoms: C2_2  and  C3_3 
REMARK    2  A    between atoms: C3_3  and  N1_4 
REMARK       I    between atoms: N1_4  and  C4_6 
REMARK       I    between atoms: C4_6  and  N2_8 
REMARK    3  A    between atoms: N2_8  and  C6_10 
ROOT
HETATM    1  C6  UNL     1      -0.889   0.544   0.589  1.00  0.00     0.056 A 
HETATM    2  C7  UNL     1      -1.317   1.804   0.142  1.00  0.00     0.055 A 
HETATM    3  C8  UNL     1      -2.416   1.917  -0.666  1.00  0.00     0.009 A 
HETATM    4  C9  UNL     1      -2.852   3.251  -1.118  1.00  0.00     0.068 C 
HETATM    5  N3  UNL     1      -3.104   0.839  -1.047  1.00  0.00    -0.344 N 
ATOM      6  H3  UNL     1      -3.920   0.951  -1.649  1.00  0.00     0.167 HD
HETATM    7  C10 UNL     1      -2.737  -0.402  -0.647  1.00  0.00     0.136 A 
HETATM    8  C11 UNL     1      -1.617  -0.545   0.180  1.00  0.00     0.060 A 
HETATM    9  C12 UNL     1      -1.504  -1.892   0.412  1.00  0.00     0.038 A 
HETATM   10  C13 UNL     1      -0.485  -2.564   1.238  1.00  0.00     0.071 C 
HETATM   11  N4  UNL     1      -2.531  -2.481  -0.268  1.00  0.00    -0.301 N 
ATOM     12  H4  UNL     1      -2.702  -3.486  -0.281  1.00  0.00     0.187 HD
HETATM   13  N5  UNL     1      -3.262  -1.616  -0.894  1.00  0.00    -0.280 N 
HETATM   14  C14 UNL     1      -4.449  -1.826  -1.732  1.00  0.00     0.179 C 
ENDROOT
BRANCH   1  15
HETATM   15  N2  UNL     1       0.250   0.453   1.418  1.00  0.00    -0.303 N 
HETATM   16  C4  UNL     1       1.585   0.548   0.927  1.00  0.00     0.322 C 
HETATM   17  N1  UNL     1       1.841   0.724  -0.473  1.00  0.00    -0.343 N 
HETATM   18  O1  UNL     1       2.520   0.471   1.760  1.00  0.00    -0.247 OA
ATOM     19  H1  UNL     1       1.070   0.790  -1.138  1.00  0.00     0.164 HD
HETATM   20  C5  UNL     1       0.062   0.287   2.834  1.00  0.00     0.161 C 
BRANCH  17  21
HETATM   21  C3  UNL     1       3.202   0.806  -0.922  1.00  0.00     0.124 C 
BRANCH  21  22
HETATM   22  C2  UNL     1       3.962  -0.450  -0.637  1.00  0.00     0.015 C 
HETATM   23  C1  UNL     1       5.410  -0.357  -1.098  1.00  0.00     0.006 C 
ENDBRANCH  21  22
ENDBRANCH  17  21
ENDBRANCH   1  15
TORSDOF 3
