REMARK  3 active torsions:
REMARK  status: ('A' for Active; 'I' for Inactive)
REMARK       I    between atoms: N3_9  and  C5_11 
REMARK    1  A    between atoms: C5_11  and  C6_13 
REMARK    2  A    between atoms: C6_13  and  C7_14 
REMARK    3  A    between atoms: N4_17  and  C10_18 
ROOT
HETATM    1  C1  UNL     1      -4.747   2.975  -1.005  1.00  0.00     0.089 C 
HETATM    2  C2  UNL     1      -3.528   2.177  -0.714  1.00  0.00     0.082 A 
HETATM    3  N1  UNL     1      -2.285   2.694  -0.603  1.00  0.00    -0.329 N 
ATOM      4  H1  UNL     1      -2.036   3.678  -0.704  1.00  0.00     0.168 HD
HETATM    5  C3  UNL     1      -1.426   1.681  -0.334  1.00  0.00     0.168 A 
HETATM    6  N2  UNL     1      -0.135   1.371  -0.100  1.00  0.00    -0.172 N 
ATOM      7  H2  UNL     1       0.654   2.017  -0.074  1.00  0.00     0.186 HD
HETATM    8  C4  UNL     1      -0.095   0.040   0.092  1.00  0.00     0.691 A 
HETATM    9  N3  UNL     1       0.952  -0.659   0.345  1.00  0.00    -0.159 N 
ATOM     10  H3  UNL     1       0.872  -1.667   0.475  1.00  0.00     0.187 HD
HETATM   11  C5  UNL     1       2.222  -0.030   0.444  1.00  0.00     0.236 C 
HETATM   12  O1  UNL     1       2.397   0.749   1.422  1.00  0.00    -0.273 OA
HETATM   13  N4  UNL     1      -1.350  -0.484  -0.019  1.00  0.00    -0.160 N 
HETATM   14  C13 UNL     1      -2.203   0.538  -0.288  1.00  0.00     0.172 A 
HETATM   15  N5  UNL     1      -3.491   0.846  -0.522  1.00  0.00    -0.324 N 
HETATM   16  C14 UNL     1      -4.607  -0.105  -0.553  1.00  0.00     0.159 C 
ENDROOT
BRANCH  13  17
HETATM   17  C10 UNL     1      -1.775  -1.843   0.109  1.00  0.00     0.101 C 
HETATM   18  C11 UNL     1      -0.726  -2.833  -0.341  1.00  0.00     0.033 C 
HETATM   19  C12 UNL     1      -2.032  -2.141   1.590  1.00  0.00     0.033 C 
ENDBRANCH  13  17
BRANCH  11  20
HETATM   20  C6  UNL     1       3.308  -0.239  -0.512  1.00  0.00     0.107 C 
BRANCH  20  21
HETATM   21  C7  UNL     1       4.519   0.564  -0.134  1.00  0.00    -0.014 C 
HETATM   22  C8  UNL     1       5.611   0.313  -1.152  1.00  0.00     0.010 C 
HETATM   23  C9  UNL     1       5.005   0.289   1.251  1.00  0.00     0.010 C 
ENDBRANCH  20  21
ENDBRANCH  11  20
TORSDOF 3
