REMARK  7 active torsions:
REMARK  status: ('A' for Active; 'I' for Inactive)
REMARK       I    between atoms: C2_2  and  N1_4 
REMARK    1  A    between atoms: N2_7  and  C5_8 
REMARK    2  A    between atoms: C9_12  and  S1_13 
REMARK    3  A    between atoms: S1_13  and  S2_14 
REMARK    4  A    between atoms: S2_14  and  C10_15 
REMARK    5  A    between atoms: C10_15  and  O2_16 
REMARK    6  A    between atoms: C10_15  and  C11_18 
REMARK    7  A    between atoms: C11_18  and  O3_19 
ROOT
HETATM    1  C5  UNL     1      -0.251   0.500   0.569  1.00  0.00     0.018 C 
HETATM    2  C6  UNL     1      -0.429   0.896   1.817  1.00  0.00    -0.001 C 
HETATM    3  C7  UNL     1       0.802   1.527   2.352  1.00  0.00     0.030 C 
HETATM    4  C8  UNL     1       1.888   0.983   1.466  1.00  0.00     0.026 C 
HETATM    5  C9  UNL     1       1.148   0.827   0.131  1.00  0.00     0.108 C 
ENDROOT
BRANCH   1   6
HETATM    6  N2  UNL     1      -1.223  -0.139  -0.239  1.00  0.00    -0.380 N 
HETATM    7  C4  UNL     1      -1.828  -1.412   0.073  1.00  0.00     0.142 C 
HETATM    8  C3  UNL     1      -3.281  -1.473  -0.330  1.00  0.00     0.145 C 
HETATM    9  N1  UNL     1      -3.841  -0.188  -0.637  1.00  0.00    -0.349 N 
HETATM   10  C2  UNL     1      -5.245   0.018  -0.367  1.00  0.00     0.215 C 
HETATM   11  C13 UNL     1      -3.105   0.915  -1.196  1.00  0.00     0.145 C 
HETATM   12  C1  UNL     1      -6.110  -1.030   0.204  1.00  0.00     0.117 C 
HETATM   13  O1  UNL     1      -5.801   1.139  -0.619  1.00  0.00    -0.274 OA
HETATM   14  C12 UNL     1      -1.689   0.482  -1.479  1.00  0.00     0.142 C 
ENDBRANCH   1   6
BRANCH   5  15
HETATM   15  S1  UNL     1       1.834  -0.452  -0.909  1.00  0.00    -0.084 SA
BRANCH  15  16
HETATM   16  S2  UNL     1       3.776   0.086  -1.556  1.00  0.00    -0.063 SA
BRANCH  16  17
HETATM   17  C10 UNL     1       5.046  -0.497  -0.424  1.00  0.00     0.213 C 
BRANCH  17  18
HETATM   18  O2  UNL     1       4.981   0.148   0.806  1.00  0.00    -0.382 OA
ATOM     19  H2  UNL     1       5.652  -0.160   1.404  1.00  0.00     0.211 HD
ENDBRANCH  17  18
BRANCH  17  20
HETATM   20  C11 UNL     1       6.443  -0.300  -1.013  1.00  0.00     0.207 C 
BRANCH  20  21
HETATM   21  O3  UNL     1       7.413  -0.830  -0.165  1.00  0.00    -0.397 OA
ATOM     22  H3  UNL     1       8.281  -0.708  -0.531  1.00  0.00     0.209 HD
ENDBRANCH  20  21
ENDBRANCH  17  20
ENDBRANCH  16  17
ENDBRANCH  15  16
ENDBRANCH   5  15
TORSDOF 7
