REMARK  5 active torsions:
REMARK  status: ('A' for Active; 'I' for Inactive)
REMARK    1  A    between atoms: C1_2  and  C2_3 
REMARK       I    between atoms: C1_2  and  N4_19 
REMARK    2  A    between atoms: C2_3  and  S1_4 
REMARK    3  A    between atoms: S1_4  and  C3_5 
REMARK    4  A    between atoms: C4_8  and  C5_9 
REMARK    5  A    between atoms: N4_19  and  C11_21 
ROOT
HETATM    1  C3  UNL     1      -0.072   1.028   0.083  1.00  0.00     0.160 A 
HETATM    2  N1  UNL     1      -1.202   0.324  -0.219  1.00  0.00    -0.324 N 
ATOM      3  H1  UNL     1      -1.243  -0.681  -0.389  1.00  0.00     0.169 HD
HETATM    4  C4  UNL     1      -2.243   1.156  -0.257  1.00  0.00     0.102 A 
HETATM    5  N2  UNL     1      -1.756   2.376   0.020  1.00  0.00    -0.287 N 
ATOM      6  H2  UNL     1      -2.312   3.230   0.065  1.00  0.00     0.188 HD
HETATM    7  N3  UNL     1      -0.443   2.311   0.227  1.00  0.00    -0.278 N 
ATOM      8  H3  UNL     1       0.171   3.094   0.454  1.00  0.00     0.189 HD
ENDROOT
BRANCH   1   9
HETATM    9  S1  UNL     1       1.600   0.448   0.279  1.00  0.00    -0.083 SA
BRANCH   9  10
HETATM   10  C2  UNL     1       1.907  -0.112   1.974  1.00  0.00     0.185 C 
BRANCH  10  11
HETATM   11  C1  UNL     1       3.312  -0.563   2.063  1.00  0.00     0.228 C 
HETATM   12  O1  UNL     1       3.778  -1.030   3.143  1.00  0.00    -0.273 OA
HETATM   13  N4  UNL     1       4.148  -0.475   0.941  1.00  0.00    -0.347 N 
ATOM     14  H4  UNL     1       3.760  -0.094   0.078  1.00  0.00     0.163 HD
BRANCH  13  15
HETATM   15  C11 UNL     1       5.548  -0.901   0.941  1.00  0.00     0.186 C 
HETATM   16  C12 UNL     1       5.841  -1.686  -0.312  1.00  0.00     0.062 C 
HETATM   17  C13 UNL     1       6.656  -0.777  -1.220  1.00  0.00     0.181 C 
HETATM   18  O2  UNL     1       6.544   0.529  -0.636  1.00  0.00    -0.320 OA
HETATM   19  C14 UNL     1       6.370   0.340   0.745  1.00  0.00     0.281 C 
HETATM   20  O3  UNL     1       6.805   1.054   1.663  1.00  0.00    -0.263 OA
ENDBRANCH  13  15
ENDBRANCH  10  11
ENDBRANCH   9  10
ENDBRANCH   1   9
BRANCH   4  21
HETATM   21  C5  UNL     1      -3.681   0.894  -0.520  1.00  0.00     0.055 C 
HETATM   22  C6  UNL     1      -4.298   0.247   0.706  1.00  0.00     0.012 C 
HETATM   23  C7  UNL     1      -5.804   0.246   0.586  1.00  0.00     0.001 C 
HETATM   24  C8  UNL     1      -6.245   0.046  -0.846  1.00  0.00     0.000 C 
HETATM   25  C9  UNL     1      -5.196  -0.648  -1.675  1.00  0.00     0.001 C 
HETATM   26  C10 UNL     1      -3.857  -0.014  -1.682  1.00  0.00     0.012 C 
ENDBRANCH   4  21
TORSDOF 5
