REMARK  0 active torsions:
REMARK  status: ('A' for Active; 'I' for Inactive)
ROOT
HETATM    1  C1  UNL     1      -2.189   0.004   0.420  1.00  0.00     0.000 C 
HETATM    2  C2  UNL     1      -1.424  -1.076  -0.319  1.00  0.00     0.004 C 
HETATM    3  C3  UNL     1      -0.045  -1.109   0.355  1.00  0.00     0.063 C 
HETATM    4  C4  UNL     1       0.659   0.157  -0.082  1.00  0.00     0.212 C 
HETATM    5  C5  UNL     1      -0.109   1.396   0.265  1.00  0.00     0.063 C 
HETATM    6  C6  UNL     1      -1.570   1.325   0.018  1.00  0.00     0.004 C 
HETATM    7  N1  UNL     1       0.983   0.062  -1.461  1.00  0.00    -0.303 N 
ATOM      8  H1  UNL     1       0.389   0.372  -2.230  1.00  0.00     0.182 HD
HETATM    9  N2  UNL     1       2.090  -0.452  -1.580  1.00  0.00    -0.313 N 
ATOM     10  H2  UNL     1       2.545  -0.629  -2.475  1.00  0.00     0.181 HD
HETATM   11  C7  UNL     1       2.671  -0.776  -0.297  1.00  0.00     0.374 C 
HETATM   12  N3  UNL     1       1.949   0.167   0.573  1.00  0.00    -0.030 N 
ATOM     13  H31 UNL     1       1.947  -0.054   1.569  1.00  0.00     0.282 HD
ATOM     14  H32 UNL     1       2.381   1.083   0.697  1.00  0.00     0.282 HD
ENDROOT
TORSDOF 0
