REMARK  1 active torsions:
REMARK  status: ('A' for Active; 'I' for Inactive)
REMARK    1  A    between atoms: O1_1  and  C1_3 
ROOT
HETATM    1  C1  UNL     1       1.794   0.391   0.555  1.00  0.00     0.190 C 
HETATM    2  C2  UNL     1       1.033  -0.772  -0.014  1.00  0.00     0.043 C 
HETATM    3  C3  UNL     1      -0.365  -0.894   0.544  1.00  0.00     0.004 C 
HETATM    4  C4  UNL     1      -1.427  -0.635  -0.502  1.00  0.00     0.011 C 
HETATM    5  C5  UNL     1      -2.040   0.735  -0.347  1.00  0.00     0.086 C 
HETATM    6  S1  UNL     1      -0.836   2.061  -0.411  1.00  0.00    -0.095 SA
HETATM    7  S2  UNL     1       0.781   1.814   0.893  1.00  0.00    -0.066 SA
ENDROOT
BRANCH   1   8
HETATM    8  O1  UNL     1       2.880   0.649  -0.264  1.00  0.00    -0.384 OA
ATOM      9  H1  UNL     1       3.361   1.385   0.096  1.00  0.00     0.211 HD
ENDBRANCH   1   8
TORSDOF 1
