REMARK  0 active torsions:
REMARK  status: ('A' for Active; 'I' for Inactive)
ROOT
HETATM    1  C1  UNL     1      -2.786   0.316   0.417  1.00  0.00     0.089 C 
HETATM    2  C2  UNL     1      -1.324   0.096   0.111  1.00  0.00     0.079 A 
HETATM    3  N1  UNL     1      -0.287   0.642   0.759  1.00  0.00    -0.330 N 
ATOM      4  H1  UNL     1      -0.372   1.282   1.549  1.00  0.00     0.168 HD
HETATM    5  C3  UNL     1       0.905   0.228   0.221  1.00  0.00     0.142 A 
HETATM    6  N2  UNL     1       2.193   0.419   0.426  1.00  0.00    -0.325 N 
ATOM      7  H2  UNL     1       2.516   1.032   1.175  1.00  0.00     0.169 HD
HETATM    8  C4  UNL     1       3.063  -0.204  -0.363  1.00  0.00     0.146 A 
HETATM    9  S1  UNL     1       4.715  -0.127  -0.307  1.00  0.00    -0.052 SA
HETATM   10  S2  UNL     1       2.052  -1.082  -1.422  1.00  0.00    -0.039 SA
HETATM   11  C5  UNL     1       0.540  -0.601  -0.793  1.00  0.00     0.122 A 
HETATM   12  N3  UNL     1      -0.812  -0.678  -0.856  1.00  0.00    -0.337 N 
ATOM     13  H3  UNL     1      -1.348  -1.231  -1.525  1.00  0.00     0.168 HD
ENDROOT
TORSDOF 0
