REMARK  2 active torsions:
REMARK  status: ('A' for Active; 'I' for Inactive)
REMARK    1  A    between atoms: C2_2  and  C3_3 
REMARK    2  A    between atoms: C6_8  and  C7_9 
ROOT
HETATM    1  C7  UNL     1       1.563  -0.179  -0.119  1.00  0.00     0.091 A 
HETATM    2  N2  UNL     1       2.435  -1.109  -0.499  1.00  0.00    -0.189 N 
ATOM      3  H2  UNL     1       2.201  -2.084  -0.684  1.00  0.00     0.184 HD
HETATM    4  C8  UNL     1       3.681  -0.577  -0.606  1.00  0.00     0.676 A 
HETATM    5  N3  UNL     1       4.769  -1.192  -0.952  1.00  0.00    -0.234 N 
ATOM      6  H31 UNL     1       5.704  -0.793  -1.032  1.00  0.00     0.174 HD
ATOM      7  H32 UNL     1       4.832  -2.180  -1.197  1.00  0.00     0.174 HD
HETATM    8  N4  UNL     1       3.598   0.723  -0.284  1.00  0.00    -0.194 N 
ATOM      9  H4  UNL     1       4.371   1.389  -0.270  1.00  0.00     0.184 HD
HETATM   10  C9  UNL     1       2.301   0.995   0.020  1.00  0.00     0.051 A 
HETATM   11  C10 UNL     1       1.776   2.318   0.429  1.00  0.00     0.071 C 
ENDROOT
BRANCH   1  12
HETATM   12  C6  UNL     1       0.127  -0.267   0.127  1.00  0.00     0.058 A 
HETATM   13  C4  UNL     1      -0.766  -1.295   0.048  1.00  0.00     0.025 A 
HETATM   14  N1  UNL     1      -2.009  -1.048   0.339  1.00  0.00    -0.356 N 
HETATM   15  C5  UNL     1      -0.333  -2.687  -0.366  1.00  0.00     0.070 C 
HETATM   16  C3  UNL     1      -2.380   0.166   0.698  1.00  0.00     0.051 A 
ATOM     17  H1  UNL     1      -2.700  -1.796   0.289  1.00  0.00     0.166 HD
HETATM   18  S1  UNL     1      -0.915   1.029   0.631  1.00  0.00    -0.073 SA
BRANCH  16  19
HETATM   19  C2  UNL     1      -3.740   0.677   1.075  1.00  0.00     0.060 C 
HETATM   20  C1  UNL     1      -4.396   1.158  -0.202  1.00  0.00     0.012 C 
ENDBRANCH  16  19
ENDBRANCH   1  12
TORSDOF 2
