REMARK  2 active torsions:
REMARK  status: ('A' for Active; 'I' for Inactive)
REMARK    1  A    between atoms: N2_4  and  C1_6 
REMARK    2  A    between atoms: C1_6  and  N3_8 
ROOT
HETATM    1  C1  UNL     1       1.593   1.086   0.210  1.00  0.00     0.188 C 
HETATM    2  S1  UNL     1       1.666   2.716   0.344  1.00  0.00    -0.039 SA
ENDROOT
BRANCH   1   3
HETATM    3  N2  UNL     1       2.800   0.295   0.243  1.00  0.00    -0.283 N 
HETATM    4  N1  UNL     1       3.042  -0.364  -0.816  1.00  0.00    -0.343 N 
ATOM      5  H12 UNL     1       2.419  -0.326  -1.622  1.00  0.00     0.176 HD
ATOM      6  H11 UNL     1       3.895  -0.923  -0.793  1.00  0.00     0.176 HD
ATOM      7  H2  UNL     1       3.414   0.267   1.057  1.00  0.00     0.188 HD
ENDBRANCH   1   3
BRANCH   1   8
HETATM    8  N3  UNL     1       0.331   0.462   0.063  1.00  0.00    -0.357 N 
HETATM    9  C2  UNL     1      -0.937   1.153   0.017  1.00  0.00     0.125 C 
HETATM   10  C3  UNL     1      -1.872   0.074   0.584  1.00  0.00     0.021 C 
HETATM   11  C4  UNL     1      -1.399  -1.123  -0.218  1.00  0.00     0.021 C 
HETATM   12  C5  UNL     1       0.102  -0.966  -0.067  1.00  0.00     0.125 C 
ENDBRANCH   1   8
TORSDOF 2
