REMARK  17 active torsions:
REMARK  status: ('A' for Active; 'I' for Inactive)
REMARK    1  A    between atoms: N3_11  and  C5_12 
REMARK    2  A    between atoms: C5_12  and  C6_13 
REMARK    3  A    between atoms: C6_13  and  C7_14 
REMARK    4  A    between atoms: C7_14  and  O4_15 
REMARK    5  A    between atoms: C7_14  and  C8_17 
REMARK    6  A    between atoms: C8_17  and  C9_18 
REMARK    7  A    between atoms: C9_18  and  N4_20 
REMARK    8  A    between atoms: C9_18  and  C18_39 
REMARK    9  A    between atoms: N4_20  and  O5_21 
REMARK   10  A    between atoms: O5_21  and  C11_22 
REMARK   11  A    between atoms: C11_22  and  C12_27 
REMARK   12  A    between atoms: N5_23  and  O6_25 
REMARK   13  A    between atoms: C15_30  and  O7_31 
REMARK   14  A    between atoms: C16_33  and  O8_34 
REMARK   15  A    between atoms: C17_36  and  O9_37 
REMARK       I    between atoms: C18_39  and  N6_41 
REMARK   16  A    between atoms: C19_43  and  C20_44 
REMARK   17  A    between atoms: C20_44  and  N7_45 
ROOT
HETATM    1  C9  UNL     1      -0.643   0.268   0.843  1.00  0.00     0.137 C 
HETATM    2  C10 UNL     1      -0.959  -0.131  -0.566  1.00  0.00     0.047 C 
ENDROOT
BRANCH   1   3
HETATM    3  C8  UNL     1      -1.140  -0.717   1.831  1.00  0.00     0.070 C 
BRANCH   3   4
HETATM    4  C7  UNL     1      -2.568  -1.011   2.006  1.00  0.00     0.122 C 
BRANCH   4   5
HETATM    5  C6  UNL     1      -3.303  -1.549   0.818  1.00  0.00     0.053 C 
BRANCH   5   6
HETATM    6  C5  UNL     1      -4.766  -1.793   1.252  1.00  0.00     0.155 C 
BRANCH   6   7
HETATM    7  N3  UNL     1      -5.569  -2.305   0.179  1.00  0.00    -0.247 N 
HETATM    8  N1  UNL     1      -5.688  -3.595  -0.053  1.00  0.00    -0.242 N 
HETATM    9  C1  UNL     1      -5.000  -4.593   0.778  1.00  0.00     0.183 C 
HETATM   10  C2  UNL     1      -6.451  -4.038  -1.066  1.00  0.00     0.343 A 
HETATM   11  O1  UNL     1      -6.569  -5.264  -1.294  1.00  0.00    -0.245 OA
HETATM   12  N2  UNL     1      -7.117  -3.198  -1.878  1.00  0.00    -0.270 N 
HETATM   13  C3  UNL     1      -7.004  -1.886  -1.653  1.00  0.00     0.319 A 
ATOM     14  H2  UNL     1      -7.691  -3.552  -2.643  1.00  0.00     0.174 HD
HETATM   15  O2  UNL     1      -7.634  -1.096  -2.423  1.00  0.00    -0.262 OA
HETATM   16  C4  UNL     1      -6.228  -1.415  -0.622  1.00  0.00     0.330 A 
HETATM   17  O3  UNL     1      -6.150  -0.175  -0.446  1.00  0.00    -0.260 OA
ENDBRANCH   6   7
ENDBRANCH   5   6
ENDBRANCH   4   5
BRANCH   4  18
HETATM   18  O4  UNL     1      -2.690  -1.971   3.076  1.00  0.00    -0.395 OA
ATOM     19  H4  UNL     1      -2.224  -1.630   3.830  1.00  0.00     0.210 HD
ENDBRANCH   4  18
ENDBRANCH   3   4
ENDBRANCH   1   3
BRANCH   1  20
HETATM   20  N4  UNL     1      -1.257   1.601   1.090  1.00  0.00    -0.073 NA
BRANCH  20  21
HETATM   21  O5  UNL     1      -0.816   2.483   0.137  1.00  0.00    -0.222 OA
BRANCH  21  22
HETATM   22  C11 UNL     1      -0.655   3.844   0.570  1.00  0.00     0.198 C 
HETATM   23  N5  UNL     1      -1.218   4.139   1.594  1.00  0.00    -0.245 N 
ATOM     24  H5  UNL     1      -1.652   3.245   1.823  1.00  0.00     0.196 HD
BRANCH  23  25
HETATM   25  O6  UNL     1      -1.620   4.835   2.568  1.00  0.00    -0.288 OA
ATOM     26  H6  UNL     1      -2.064   5.068   3.375  1.00  0.00     0.244 HD
ENDBRANCH  23  25
BRANCH  22  27
HETATM   27  C12 UNL     1       0.168   4.712  -0.275  1.00  0.00     0.054 A 
HETATM   28  C13 UNL     1       0.727   4.178  -1.437  1.00  0.00     0.022 A 
HETATM   29  C14 UNL     1       1.490   4.981  -2.231  1.00  0.00     0.040 A 
HETATM   30  C15 UNL     1       1.719   6.291  -1.914  1.00  0.00     0.101 A 
HETATM   31  C16 UNL     1       1.179   6.851  -0.768  1.00  0.00     0.133 A 
HETATM   32  C17 UNL     1       0.394   6.023   0.047  1.00  0.00     0.116 A 
BRANCH  30  33
HETATM   33  O7  UNL     1       2.493   7.080  -2.733  1.00  0.00    -0.358 OA
ATOM     34  H7  UNL     1       2.652   7.990  -2.513  1.00  0.00     0.217 HD
ENDBRANCH  30  33
BRANCH  31  35
HETATM   35  O8  UNL     1       1.437   8.167  -0.497  1.00  0.00    -0.356 OA
ATOM     36  H8  UNL     1       1.067   8.551   0.289  1.00  0.00     0.218 HD
ENDBRANCH  31  35
BRANCH  32  37
HETATM   37  O9  UNL     1      -0.140   6.592   1.187  1.00  0.00    -0.357 OA
ATOM     38  H9  UNL     1       0.017   7.502   1.410  1.00  0.00     0.217 HD
ENDBRANCH  32  37
ENDBRANCH  22  27
ENDBRANCH  21  22
ENDBRANCH  20  21
ENDBRANCH   1  20
BRANCH   1  39
HETATM   39  C18 UNL     1       0.827   0.485   1.027  1.00  0.00     0.248 C 
HETATM   40  O10 UNL     1       1.298   1.601   1.292  1.00  0.00    -0.271 OA
HETATM   41  N6  UNL     1       1.780  -0.592   0.910  1.00  0.00    -0.337 N 
HETATM   42  C19 UNL     1       2.622  -0.707   1.856  1.00  0.00     0.084 C 
ATOM     43  H6  UNL     1       1.778  -1.227   0.112  1.00  0.00     0.168 HD
BRANCH  42  44
HETATM   44  C20 UNL     1       3.682  -1.750   1.923  1.00  0.00     0.174 C 
BRANCH  44  45
HETATM   45  N7  UNL     1       3.768  -2.336   0.601  1.00  0.00    -0.338 N 
HETATM   46  C21 UNL     1       2.968  -3.403   0.281  1.00  0.00     0.093 A 
HETATM   47  C22 UNL     1       3.041  -3.964  -0.966  1.00  0.00     0.018 A 
HETATM   48  C23 UNL     1       3.906  -3.472  -1.901  1.00  0.00     0.014 A 
HETATM   49  C24 UNL     1       4.713  -2.404  -1.591  1.00  0.00     0.010 A 
HETATM   50  C25 UNL     1       4.609  -1.863  -0.314  1.00  0.00     0.112 A 
HETATM   51  C28 UNL     1       5.546  -2.055  -2.727  1.00  0.00     0.221 C 
HETATM   52  N8  UNL     1       5.361  -0.775   0.167  1.00  0.00    -0.366 N 
HETATM   53  C26 UNL     1       6.748  -0.444  -0.145  1.00  0.00     0.232 C 
ATOM     54  H8  UNL     1       4.881  -0.144   0.809  1.00  0.00     0.161 HD
HETATM   55  C27 UNL     1       6.951  -0.265  -1.580  1.00  0.00     0.276 C 
HETATM   56  O11 UNL     1       7.864   0.516  -1.926  1.00  0.00    -0.263 OA
HETATM   57  O12 UNL     1       6.259  -0.855  -2.597  1.00  0.00    -0.315 OA
ENDBRANCH  44  45
ENDBRANCH  42  44
ENDBRANCH   1  39
TORSDOF 17
