REMARK  0 active torsions:
REMARK  status: ('A' for Active; 'I' for Inactive)
ROOT
HETATM    1  C1  UNL     1       0.823   1.517   0.277  1.00  0.00     0.001 C 
HETATM    2  C2  UNL     1       1.648   0.312   0.124  1.00  0.00     0.005 C 
HETATM    3  C3  UNL     1       1.171  -0.750  -0.789  1.00  0.00     0.044 C 
HETATM    4  C4  UNL     1       0.410  -1.866  -0.071  1.00  0.00     0.060 C 
HETATM    5  N1  UNL     1      -0.744  -1.455   0.593  1.00  0.00    -0.382 N 
ATOM      6  H1  UNL     1      -0.920  -1.748   1.554  1.00  0.00     0.163 HD
HETATM    7  C5  UNL     1      -1.663  -0.629  -0.082  1.00  0.00     0.060 C 
HETATM    8  C6  UNL     1      -1.551   0.777   0.421  1.00  0.00     0.044 C 
HETATM    9  C7  UNL     1      -0.509   1.528  -0.375  1.00  0.00     0.005 C 
ENDROOT
TORSDOF 0
