REMARK  11 active torsions:
REMARK  status: ('A' for Active; 'I' for Inactive)
REMARK    1  A    between atoms: C2_2  and  O1_4 
REMARK    2  A    between atoms: O1_4  and  C4_5 
REMARK    3  A    between atoms: C8_10  and  O3_11 
REMARK    4  A    between atoms: O3_11  and  C9_12 
REMARK    5  A    between atoms: C10_13  and  N1_14 
REMARK    6  A    between atoms: C12_19  and  N2_20 
REMARK    7  A    between atoms: C13_24  and  O4_25 
REMARK    8  A    between atoms: O4_25  and  C14_26 
REMARK    9  A    between atoms: C16_28  and  N3_29 
REMARK   10  A    between atoms: C17_33  and  O5_34 
REMARK   11  A    between atoms: C20_39  and  O7_40 
ROOT
HETATM    1  C9  UNL     1      -0.831   0.100   1.437  1.00  0.00     0.186 C 
HETATM    2  C10 UNL     1       0.104  -0.350   2.531  1.00  0.00     0.217 C 
HETATM    3  C11 UNL     1       0.840   0.867   3.022  1.00  0.00     0.071 C 
HETATM    4  C12 UNL     1       1.799   1.349   1.956  1.00  0.00     0.217 C 
HETATM    5  C13 UNL     1       1.420   0.850   0.586  1.00  0.00     0.186 C 
HETATM    6  C20 UNL     1      -0.045   0.753   0.362  1.00  0.00     0.180 C 
ENDROOT
BRANCH   5   7
HETATM    7  O4  UNL     1       2.157  -0.268   0.271  1.00  0.00    -0.351 OA
BRANCH   7   8
HETATM    8  C14 UNL     1       3.058  -0.090  -0.765  1.00  0.00     0.263 C 
HETATM    9  C15 UNL     1       2.708  -0.991  -1.931  1.00  0.00     0.096 C 
HETATM   10  C16 UNL     1       3.847  -1.168  -2.882  1.00  0.00     0.219 C 
HETATM   11  C17 UNL     1       4.983  -0.196  -2.659  1.00  0.00     0.177 C 
HETATM   12  C18 UNL     1       5.330  -0.006  -1.223  1.00  0.00     0.151 C 
HETATM   13  C19 UNL     1       5.789   1.413  -0.947  1.00  0.00     0.042 C 
HETATM   14  O6  UNL     1       4.340  -0.420  -0.350  1.00  0.00    -0.354 OA
BRANCH  10  15
HETATM   15  N3  UNL     1       4.407  -2.516  -2.846  1.00  0.00    -0.072 N 
ATOM     16  H33 UNL     1       4.679  -2.774  -1.897  1.00  0.00     0.274 HD
ATOM     17  H32 UNL     1       3.684  -3.217  -3.007  1.00  0.00     0.274 HD
ATOM     18  H31 UNL     1       5.184  -2.637  -3.495  1.00  0.00     0.274 HD
ENDBRANCH  10  15
BRANCH  11  19
HETATM   19  O5  UNL     1       6.096  -0.679  -3.345  1.00  0.00    -0.391 OA
ATOM     20  H5  UNL     1       6.810  -0.068  -3.205  1.00  0.00     0.210 HD
ENDBRANCH  11  19
ENDBRANCH   7   8
ENDBRANCH   5   7
BRANCH   4  21
HETATM   21  N2  UNL     1       1.922   2.773   1.920  1.00  0.00    -0.072 N 
ATOM     22  H23 UNL     1       1.009   3.215   1.816  1.00  0.00     0.274 HD
ATOM     23  H22 UNL     1       2.181   3.140   2.836  1.00  0.00     0.274 HD
ATOM     24  H21 UNL     1       2.569   3.098   1.201  1.00  0.00     0.274 HD
ENDBRANCH   4  21
BRANCH   6  25
HETATM   25  O7  UNL     1      -0.604   2.014   0.035  1.00  0.00    -0.390 OA
ATOM     26  H7  UNL     1      -0.101   2.432  -0.654  1.00  0.00     0.210 HD
ENDBRANCH   6  25
BRANCH   1  27
HETATM   27  O3  UNL     1      -1.646  -0.942   1.000  1.00  0.00    -0.349 OA
BRANCH  27  28
HETATM   28  C8  UNL     1      -2.985  -0.680   1.259  1.00  0.00     0.289 C 
HETATM   29  C4  UNL     1      -3.922  -0.910   0.132  1.00  0.00     0.179 C 
HETATM   30  C5  UNL     1      -5.214  -1.312   0.817  1.00  0.00     0.068 C 
HETATM   31  C6  UNL     1      -4.797  -1.551   2.226  1.00  0.00     0.123 C 
HETATM   32  C7  UNL     1      -5.386  -0.516   3.160  1.00  0.00     0.040 C 
HETATM   33  O2  UNL     1      -3.414  -1.527   2.302  1.00  0.00    -0.354 OA
BRANCH  29  34
HETATM   34  O1  UNL     1      -4.043   0.196  -0.649  1.00  0.00    -0.376 OA
BRANCH  34  35
HETATM   35  C2  UNL     1      -3.752   0.003  -1.989  1.00  0.00     0.114 C 
HETATM   36  C1  UNL     1      -2.856   1.007  -2.613  1.00  0.00     0.039 C 
HETATM   37  C3  UNL     1      -5.113   0.110  -2.704  1.00  0.00     0.039 C 
ENDBRANCH  34  35
ENDBRANCH  29  34
ENDBRANCH  27  28
ENDBRANCH   1  27
BRANCH   2  38
HETATM   38  N1  UNL     1      -0.602  -1.005   3.613  1.00  0.00    -0.072 N 
ATOM     39  H13 UNL     1      -1.346  -0.412   3.982  1.00  0.00     0.274 HD
ATOM     40  H12 UNL     1      -1.169  -1.780   3.269  1.00  0.00     0.274 HD
ATOM     41  H11 UNL     1       0.030  -1.309   4.353  1.00  0.00     0.274 HD
ENDBRANCH   2  38
TORSDOF 11
