REMARK  11 active torsions:
REMARK  status: ('A' for Active; 'I' for Inactive)
REMARK    1  A    between atoms: N1_2  and  C2_4 
REMARK    2  A    between atoms: C5_7  and  O1_8 
REMARK    3  A    between atoms: C8_12  and  N2_13 
REMARK    4  A    between atoms: N2_13  and  O2_14 
REMARK    5  A    between atoms: N2_13  and  C9_16 
REMARK    6  A    between atoms: N3_20  and  O4_22 
REMARK    7  A    between atoms: O4_22  and  C12_23 
REMARK    8  A    between atoms: C12_23  and  C13_24 
REMARK    9  A    between atoms: C13_24  and  O5_25 
REMARK   10  A    between atoms: C13_24  and  C14_27 
REMARK   11  A    between atoms: C14_27  and  O6_28 
ROOT
HETATM    1  C2  UNL     1      -2.044   2.147   0.012  1.00  0.00     0.089 A 
HETATM    2  C3  UNL     1      -3.054   1.325  -0.200  1.00  0.00     0.002 A 
HETATM    3  C4  UNL     1      -4.435   1.863  -0.073  1.00  0.00     0.054 C 
HETATM    4  C5  UNL     1      -2.819  -0.073  -0.550  1.00  0.00     0.082 A 
HETATM    5  C6  UNL     1      -1.613  -0.604  -0.676  1.00  0.00     0.009 A 
HETATM    6  C7  UNL     1      -1.691  -2.043  -1.037  1.00  0.00     0.072 C 
HETATM    7  C8  UNL     1      -0.501  -2.732  -0.388  1.00  0.00     0.128 C 
HETATM    8  C10 UNL     1       0.694  -2.532  -1.300  1.00  0.00     0.106 C 
HETATM    9  C11 UNL     1       1.398  -1.299  -0.836  1.00  0.00     0.104 C 
HETATM   10  N3  UNL     1       2.653  -1.452  -0.729  1.00  0.00    -0.254 N 
ATOM     11  H3  UNL     1       3.033  -2.369  -0.964  1.00  0.00     0.195 HD
HETATM   12  N4  UNL     1       0.834  -0.059  -0.526  1.00  0.00    -0.341 N 
ATOM     13  H4  UNL     1       1.484   0.703  -0.331  1.00  0.00     0.167 HD
HETATM   14  C15 UNL     1      -0.437   0.226  -0.460  1.00  0.00     0.095 A 
HETATM   15  C16 UNL     1      -0.668   1.623  -0.111  1.00  0.00     0.226 A 
HETATM   16  O7  UNL     1       0.256   2.420   0.094  1.00  0.00    -0.283 OA
ENDROOT
BRANCH  10  17
HETATM   17  O4  UNL     1       3.518  -0.516  -0.335  1.00  0.00    -0.276 OA
BRANCH  17  18
HETATM   18  C12 UNL     1       3.803   0.734  -0.869  1.00  0.00     0.235 C 
BRANCH  18  19
HETATM   19  C13 UNL     1       4.895   1.378  -0.033  1.00  0.00     0.167 C 
BRANCH  19  20
HETATM   20  O5  UNL     1       6.040   0.552  -0.083  1.00  0.00    -0.391 OA
ATOM     21  H5  UNL     1       6.723   0.955   0.440  1.00  0.00     0.210 HD
ENDBRANCH  19  20
BRANCH  19  22
HETATM   22  C14 UNL     1       4.438   1.408   1.402  1.00  0.00     0.198 C 
BRANCH  22  23
HETATM   23  O6  UNL     1       3.316   2.206   1.528  1.00  0.00    -0.398 OA
ATOM     24  H6  UNL     1       3.028   2.225   2.433  1.00  0.00     0.209 HD
ENDBRANCH  22  23
ENDBRANCH  19  22
ENDBRANCH  18  19
ENDBRANCH  17  18
ENDBRANCH  10  17
BRANCH   7  25
HETATM   25  N2  UNL     1      -0.731  -4.124  -0.172  1.00  0.00    -0.231 N 
BRANCH  25  26
HETATM   26  O2  UNL     1      -0.678  -4.624   1.081  1.00  0.00    -0.285 OA
ATOM     27  H2  UNL     1      -0.831  -5.550   1.225  1.00  0.00     0.245 HD
ENDBRANCH  25  26
BRANCH  25  28
HETATM   28  C9  UNL     1      -1.021  -5.025  -1.237  1.00  0.00     0.377 C 
HETATM   29  O3  UNL     1      -1.220  -6.246  -1.020  1.00  0.00    -0.281 OA
ENDBRANCH  25  28
ENDBRANCH   7  25
BRANCH   4  30
HETATM   30  O1  UNL     1      -3.977  -0.852  -0.752  1.00  0.00    -0.359 OA
ATOM     31  H1  UNL     1      -3.824  -1.762  -0.980  1.00  0.00     0.217 HD
ENDBRANCH   4  30
BRANCH   1  32
HETATM   32  N1  UNL     1      -2.244   3.522   0.356  1.00  0.00    -0.391 N 
HETATM   33  C1  UNL     1      -2.629   3.942   1.678  1.00  0.00     0.146 C 
ATOM     34  H1  UNL     1      -2.108   4.232  -0.364  1.00  0.00     0.159 HD
ENDBRANCH   1  32
TORSDOF 11
