REMARK  5 active torsions:
REMARK  status: ('A' for Active; 'I' for Inactive)
REMARK    1  A    between atoms: C2_2  and  C3_3 
REMARK    2  A    between atoms: C2_2  and  C4_10 
REMARK    3  A    between atoms: C3_3  and  O1_4 
REMARK    4  A    between atoms: N1_6  and  O2_8 
REMARK    5  A    between atoms: N2_14  and  O3_16 
ROOT
HETATM    1  C4  UNL     1      -0.379   0.260   0.389  1.00  0.00     0.027 C 
HETATM    2  C5  UNL     1       0.188   1.695   0.368  1.00  0.00     0.015 C 
HETATM    3  C6  UNL     1       1.368   1.776   1.318  1.00  0.00     0.055 C 
HETATM    4  C7  UNL     1       2.375   0.853   0.736  1.00  0.00     0.010 C 
HETATM    5  N2  UNL     1       3.545   1.273   0.465  1.00  0.00    -0.277 N 
ATOM      6  H2  UNL     1       3.762   2.251   0.659  1.00  0.00     0.193 HD
HETATM    7  C8  UNL     1       1.992  -0.519   0.491  1.00  0.00     0.064 C 
HETATM    8  C9  UNL     1       0.605  -0.743  -0.075  1.00  0.00    -0.035 C 
HETATM    9  C10 UNL     1       0.187  -2.109   0.439  1.00  0.00     0.016 C 
HETATM   10  C11 UNL     1       0.756  -0.893  -1.550  1.00  0.00     0.016 C 
ENDROOT
BRANCH   1  11
HETATM   11  C2  UNL     1      -1.692   0.364  -0.245  1.00  0.00    -0.026 C 
HETATM   12  C1  UNL     1      -1.706   0.864  -1.676  1.00  0.00     0.048 C 
BRANCH  11  13
HETATM   13  C3  UNL     1      -2.648  -0.726  -0.077  1.00  0.00     0.162 C 
HETATM   14  N1  UNL     1      -3.523  -0.694   0.850  1.00  0.00    -0.247 N 
ATOM     15  H1  UNL     1      -4.173  -1.475   0.933  1.00  0.00     0.196 HD
BRANCH  13  16
HETATM   16  O1  UNL     1      -2.627  -1.813  -0.915  1.00  0.00    -0.345 OA
ATOM     17  H1  UNL     1      -3.249  -2.522  -0.806  1.00  0.00     0.219 HD
ENDBRANCH  13  16
BRANCH  14  18
HETATM   18  O2  UNL     1      -3.630   0.355   1.750  1.00  0.00    -0.288 OA
ATOM     19  H2  UNL     1      -4.282   0.379   2.441  1.00  0.00     0.244 HD
ENDBRANCH  14  18
ENDBRANCH  11  13
ENDBRANCH   1  11
BRANCH   5  20
HETATM   20  O3  UNL     1       4.525   0.492  -0.070  1.00  0.00    -0.290 OA
ATOM     21  H3  UNL     1       5.399   0.806  -0.272  1.00  0.00     0.244 HD
ENDBRANCH   5  20
TORSDOF 5
