REMARK  5 active torsions:
REMARK  status: ('A' for Active; 'I' for Inactive)
REMARK    1  A    between atoms: C2_3  and  S1_4 
REMARK    2  A    between atoms: S1_4  and  C3_5 
REMARK    3  A    between atoms: C9_13  and  N3_14 
REMARK    4  A    between atoms: C14_20  and  S2_21 
REMARK    5  A    between atoms: S2_21  and  C15_22 
ROOT
HETATM    1  C1  UNL     1       1.216   2.030   1.056  1.00  0.00     0.161 C 
HETATM    2  N1  UNL     1       0.380   0.890   0.806  1.00  0.00    -0.298 N 
HETATM    3  C2  UNL     1       0.896  -0.337   0.904  1.00  0.00     0.150 A 
HETATM    4  N2  UNL     1       0.096  -1.387   0.688  1.00  0.00    -0.322 N 
ATOM      5  H2  UNL     1       0.484  -2.327   0.763  1.00  0.00     0.169 HD
HETATM    6  C9  UNL     1      -1.246  -1.238   0.365  1.00  0.00     0.128 A 
HETATM    7  C14 UNL     1      -1.768   0.019   0.266  1.00  0.00     0.117 A 
HETATM    8  C21 UNL     1      -0.934   1.096   0.492  1.00  0.00     0.270 A 
HETATM    9  O2  UNL     1      -1.407   2.244   0.402  1.00  0.00    -0.266 OA
ENDROOT
BRANCH   7  10
HETATM   10  S2  UNL     1      -3.452   0.321  -0.117  1.00  0.00    -0.078 SA
BRANCH  10  11
HETATM   11  C15 UNL     1      -3.943   2.002  -0.202  1.00  0.00     0.044 A 
HETATM   12  C16 UNL     1      -3.856   2.649  -1.416  1.00  0.00     0.022 A 
HETATM   13  C17 UNL     1      -4.236   3.956  -1.528  1.00  0.00     0.002 A 
HETATM   14  C18 UNL     1      -4.709   4.617  -0.407  1.00  0.00     0.003 A 
HETATM   15  C19 UNL     1      -4.794   3.962   0.807  1.00  0.00     0.044 A 
HETATM   16  C20 UNL     1      -4.411   2.645   0.924  1.00  0.00     0.133 A 
HETATM   17  F1  UNL     1      -4.499   2.001   2.136  1.00  0.00    -0.205 F 
ENDBRANCH  10  11
ENDBRANCH   7  10
BRANCH   6  18
HETATM   18  N3  UNL     1      -2.007  -2.394   0.134  1.00  0.00    -0.362 N 
HETATM   19  C10 UNL     1      -1.414  -3.712   0.466  1.00  0.00     0.150 C 
HETATM   20  C11 UNL     1      -2.481  -4.461   1.239  1.00  0.00     0.187 C 
HETATM   21  O1  UNL     1      -3.639  -4.628   0.481  1.00  0.00    -0.388 OA
HETATM   22  C12 UNL     1      -3.595  -3.964  -0.717  1.00  0.00     0.187 C 
HETATM   23  C13 UNL     1      -3.316  -2.476  -0.420  1.00  0.00     0.150 C 
ENDBRANCH   6  18
BRANCH   3  24
HETATM   24  S1  UNL     1       2.630  -0.524   1.286  1.00  0.00    -0.089 SA
BRANCH  24  25
HETATM   25  C3  UNL     1       3.692  -0.650  -0.136  1.00  0.00     0.055 C 
HETATM   26  C4  UNL     1       3.702   0.640  -0.914  1.00  0.00     0.015 C 
HETATM   27  C5  UNL     1       4.796   0.489  -1.967  1.00  0.00     0.001 C 
HETATM   28  C6  UNL     1       6.091   0.823  -1.257  1.00  0.00     0.000 C 
HETATM   29  C7  UNL     1       6.028   0.259   0.146  1.00  0.00     0.001 C 
HETATM   30  C8  UNL     1       5.119  -0.940   0.258  1.00  0.00     0.015 C 
ENDBRANCH  24  25
ENDBRANCH   3  24
TORSDOF 5
