REMARK  10 active torsions:
REMARK  status: ('A' for Active; 'I' for Inactive)
REMARK    1  A    between atoms: C2_2  and  O2_4 
REMARK    2  A    between atoms: O2_4  and  C3_5 
REMARK    3  A    between atoms: C3_5  and  C4_6 
REMARK    4  A    between atoms: C8_11  and  C9_12 
REMARK    5  A    between atoms: C10_13  and  C11_14 
REMARK    6  A    between atoms: C11_14  and  O4_15 
REMARK    7  A    between atoms: N1_17  and  O5_19 
REMARK    8  A    between atoms: C15_24  and  O6_25 
REMARK    9  A    between atoms: O6_25  and  C16_26 
REMARK   10  A    between atoms: C16_26  and  C17_28 
ROOT
HETATM    1  C17 UNL     1      -3.644  -2.532   0.254  1.00  0.00     0.023 C 
HETATM    2  C18 UNL     1      -2.627  -2.963   1.268  1.00  0.00     0.055 C 
HETATM    3  C19 UNL     1      -4.754  -3.228   0.108  1.00  0.00     0.106 C 
HETATM    4  C20 UNL     1      -5.800  -2.939  -0.806  1.00  0.00     0.088 C 
HETATM    5  N2  UNL     1      -6.667  -2.721  -1.547  1.00  0.00    -0.192 NA
ENDROOT
BRANCH   1   6
HETATM    6  C16 UNL     1      -3.383  -1.354  -0.545  1.00  0.00     0.290 C 
HETATM    7  O7  UNL     1      -4.229  -0.992  -1.390  1.00  0.00    -0.260 OA
BRANCH   6   8
HETATM    8  O6  UNL     1      -2.221  -0.648  -0.373  1.00  0.00    -0.309 OA
BRANCH   8   9
HETATM    9  C15 UNL     1      -1.896   0.517  -1.121  1.00  0.00     0.168 C 
HETATM   10  C4  UNL     1      -1.649   1.712  -0.209  1.00  0.00     0.183 C 
HETATM   11  O3  UNL     1      -0.818   1.212   0.822  1.00  0.00    -0.341 OA
HETATM   12  C5  UNL     1       0.388   0.651   0.454  1.00  0.00     0.075 A 
HETATM   13  C6  UNL     1       1.462   0.544   1.301  1.00  0.00     0.038 A 
HETATM   14  C13 UNL     1       0.545   0.170  -0.819  1.00  0.00    -0.021 A 
HETATM   15  C7  UNL     1       2.687  -0.024   0.929  1.00  0.00     0.014 A 
HETATM   16  C8  UNL     1       2.803  -0.496  -0.358  1.00  0.00    -0.035 A 
HETATM   17  C12 UNL     1       1.727  -0.405  -1.255  1.00  0.00     0.021 A 
HETATM   18  C14 UNL     1      -0.580   0.251  -1.808  1.00  0.00     0.076 C 
BRANCH  10  19
HETATM   19  C3  UNL     1      -2.902   2.262   0.365  1.00  0.00     0.213 C 
BRANCH  19  20
HETATM   20  O2  UNL     1      -2.615   3.298   1.263  1.00  0.00    -0.319 OA
BRANCH  20  21
HETATM   21  C2  UNL     1      -1.996   4.469   0.968  1.00  0.00     0.254 C 
HETATM   22  C1  UNL     1      -1.754   5.486   2.048  1.00  0.00     0.126 C 
HETATM   23  O1  UNL     1      -1.622   4.712  -0.203  1.00  0.00    -0.266 OA
ENDBRANCH  20  21
ENDBRANCH  19  20
ENDBRANCH  10  19
BRANCH  16  24
HETATM   24  C9  UNL     1       4.051  -1.091  -0.784  1.00  0.00     0.015 C 
HETATM   25  C10 UNL     1       5.077  -1.199   0.009  1.00  0.00     0.058 C 
BRANCH  25  26
HETATM   26  C11 UNL     1       6.323  -1.815  -0.481  1.00  0.00     0.159 C 
HETATM   27  N1  UNL     1       6.340  -2.228  -1.699  1.00  0.00    -0.248 N 
ATOM     28  H1  UNL     1       5.513  -2.124  -2.287  1.00  0.00     0.196 HD
BRANCH  26  29
HETATM   29  O4  UNL     1       7.429  -1.945   0.333  1.00  0.00    -0.345 OA
ATOM     30  H4  UNL     1       8.232  -2.342   0.017  1.00  0.00     0.219 HD
ENDBRANCH  26  29
BRANCH  27  31
HETATM   31  O5  UNL     1       7.485  -2.813  -2.206  1.00  0.00    -0.288 OA
ATOM     32  H5  UNL     1       7.498  -3.118  -3.106  1.00  0.00     0.244 HD
ENDBRANCH  27  31
ENDBRANCH  25  26
ENDBRANCH  16  24
ENDBRANCH   8   9
ENDBRANCH   6   8
ENDBRANCH   1   6
TORSDOF 10
