REMARK  11 active torsions:
REMARK  status: ('A' for Active; 'I' for Inactive)
REMARK       I    between atoms: N1_2  and  C2_4 
REMARK       I    between atoms: C2_4  and  N2_5 
REMARK       I    between atoms: C2_4  and  N6_24 
REMARK    1  A    between atoms: N2_5  and  C3_7 
REMARK    2  A    between atoms: C3_7  and  C4_8 
REMARK    3  A    between atoms: C4_8  and  C5_9 
REMARK    4  A    between atoms: C5_9  and  C6_10 
REMARK    5  A    between atoms: C6_10  and  C7_11 
REMARK    6  A    between atoms: C7_11  and  C8_12 
REMARK    7  A    between atoms: C8_12  and  C9_13 
REMARK    8  A    between atoms: C9_13  and  N3_14 
REMARK    9  A    between atoms: N3_14  and  C10_16 
REMARK   10  A    between atoms: N6_24  and  C13_26 
REMARK   11  A    between atoms: C13_26  and  C14_27 
ROOT
HETATM    1  C3  UNL     1      -0.501  -0.973   1.855  1.00  0.00     0.138 C 
ENDROOT
BRANCH   1   2
HETATM    2  N2  UNL     1      -1.881  -0.752   1.539  1.00  0.00    -0.227 N 
HETATM    3  C2  UNL     1      -2.431   0.480   1.080  1.00  0.00     0.669 C 
HETATM    4  N1  UNL     1      -2.411   1.510   1.821  1.00  0.00    -0.231 N 
HETATM    5  N6  UNL     1      -3.001   0.491  -0.236  1.00  0.00    -0.226 N 
HETATM    6  C1  UNL     1      -1.889   1.645   3.139  1.00  0.00     0.165 C 
ATOM      7  H1  UNL     1      -2.823   2.352   1.420  1.00  0.00     0.177 HD
ATOM      8  H6  UNL     1      -2.506   0.031  -1.000  1.00  0.00     0.177 HD
ATOM      9  H2  UNL     1      -2.520  -1.539   1.651  1.00  0.00     0.177 HD
BRANCH   5  10
HETATM   10  C13 UNL     1      -4.247   1.133  -0.496  1.00  0.00     0.142 C 
BRANCH  10  11
HETATM   11  C14 UNL     1      -5.421   0.441   0.155  1.00  0.00     0.004 C 
HETATM   12  C15 UNL     1      -6.714   1.130  -0.130  1.00  0.00     0.006 C 
HETATM   13  C16 UNL     1      -7.768   0.184  -0.665  1.00  0.00     0.000 C 
HETATM   14  C17 UNL     1      -7.261  -0.551  -1.885  1.00  0.00     0.000 C 
HETATM   15  C18 UNL     1      -6.042  -1.334  -1.523  1.00  0.00     0.000 C 
HETATM   16  C19 UNL     1      -5.495  -1.014  -0.162  1.00  0.00     0.006 C 
ENDBRANCH  10  11
ENDBRANCH   5  10
ENDBRANCH   1   2
BRANCH   1  17
HETATM   17  C4  UNL     1       0.416  -0.927   0.641  1.00  0.00     0.020 C 
BRANCH  17  18
HETATM   18  C5  UNL     1       1.835  -1.172   1.092  1.00  0.00     0.002 C 
BRANCH  18  19
HETATM   19  C6  UNL     1       2.793  -1.135  -0.080  1.00  0.00     0.000 C 
BRANCH  19  20
HETATM   20  C7  UNL     1       2.763   0.193  -0.777  1.00  0.00     0.002 C 
BRANCH  20  21
HETATM   21  C8  UNL     1       3.730   0.181  -1.919  1.00  0.00     0.020 C 
BRANCH  21  22
HETATM   22  C9  UNL     1       5.154  -0.066  -1.515  1.00  0.00     0.121 C 
BRANCH  22  23
HETATM   23  N3  UNL     1       5.632   0.953  -0.589  1.00  0.00    -0.369 N 
ATOM     24  H3  UNL     1       5.034   1.703  -0.241  1.00  0.00     0.161 HD
BRANCH  23  25
HETATM   25  C10 UNL     1       6.888   0.832  -0.238  1.00  0.00     0.161 A 
HETATM   26  N4  UNL     1       7.584   1.620   0.592  1.00  0.00    -0.279 N 
HETATM   27  N5  UNL     1       8.801   1.343   0.813  1.00  0.00    -0.296 N 
ATOM     28  H4  UNL     1       7.144   2.426   1.037  1.00  0.00     0.189 HD
HETATM   29  C11 UNL     1       9.366   0.296   0.232  1.00  0.00     0.066 A 
ATOM     30  H5  UNL     1       9.348   1.930   1.442  1.00  0.00     0.187 HD
HETATM   31  C12 UNL     1      10.792  -0.179   0.377  1.00  0.00     0.078 C 
HETATM   32  S1  UNL     1       8.065  -0.323  -0.685  1.00  0.00    -0.039 SA
ENDBRANCH  23  25
ENDBRANCH  22  23
ENDBRANCH  21  22
ENDBRANCH  20  21
ENDBRANCH  19  20
ENDBRANCH  18  19
ENDBRANCH  17  18
ENDBRANCH   1  17
TORSDOF 11
