REMARK  11 active torsions:
REMARK  status: ('A' for Active; 'I' for Inactive)
REMARK    1  A    between atoms: C2_2  and  N1_3 
REMARK    2  A    between atoms: N2_6  and  C5_7 
REMARK    3  A    between atoms: C5_7  and  C6_8 
REMARK    4  A    between atoms: C6_8  and  O1_9 
REMARK    5  A    between atoms: C6_8  and  C8_14 
REMARK    6  A    between atoms: O1_9  and  C7_10 
REMARK       I    between atoms: C8_14  and  N3_16 
REMARK    7  A    between atoms: C12_20  and  C13_21 
REMARK    8  A    between atoms: C13_21  and  O3_22 
REMARK    9  A    between atoms: C14_24  and  C15_25 
REMARK   10  A    between atoms: C15_25  and  O4_26 
REMARK   11  A    between atoms: N4_28  and  O5_30 
ROOT
HETATM    1  C8  UNL     1      -1.099  -0.186   0.773  1.00  0.00     0.251 C 
HETATM    2  O2  UNL     1      -0.975   0.369   1.889  1.00  0.00    -0.270 OA
HETATM    3  N3  UNL     1      -2.101   0.100  -0.185  1.00  0.00    -0.337 N 
HETATM    4  C9  UNL     1      -2.162  -0.655  -1.393  1.00  0.00     0.127 C 
HETATM    5  C10 UNL     1      -2.955   0.080  -2.482  1.00  0.00     0.020 C 
HETATM    6  C11 UNL     1      -4.334   0.212  -1.868  1.00  0.00     0.011 C 
HETATM    7  C12 UNL     1      -4.204   1.280  -0.800  1.00  0.00     0.040 C 
HETATM    8  C14 UNL     1      -3.046   1.161   0.094  1.00  0.00     0.169 C 
ENDROOT
BRANCH   1   9
HETATM    9  C6  UNL     1      -0.043  -1.262   0.482  1.00  0.00     0.251 C 
BRANCH   9  10
HETATM   10  C5  UNL     1       1.011  -0.548  -0.274  1.00  0.00     0.314 C 
BRANCH  10  11
HETATM   11  N2  UNL     1       2.234  -1.199  -0.581  1.00  0.00     0.094 N 
HETATM   12  C4  UNL     1       2.933  -0.244  -1.482  1.00  0.00     0.292 C 
HETATM   13  C3  UNL     1       3.736   0.725  -0.639  1.00  0.00     0.147 C 
HETATM   14  N1  UNL     1       4.872   0.001  -0.169  1.00  0.00    -0.409 N 
HETATM   15  C17 UNL     1       4.521  -1.259   0.383  1.00  0.00     0.147 C 
HETATM   16  C16 UNL     1       3.026  -1.427   0.586  1.00  0.00     0.292 C 
BRANCH  14  17
HETATM   17  C2  UNL     1       5.906   0.737   0.451  1.00  0.00     0.112 C 
HETATM   18  C1  UNL     1       6.674   1.642  -0.506  1.00  0.00     0.026 C 
ENDBRANCH  14  17
ENDBRANCH  10  11
ENDBRANCH   9  10
BRANCH   9  19
HETATM   19  O1  UNL     1       0.469  -1.624   1.724  1.00  0.00    -0.281 OA
BRANCH  19  20
HETATM   20  C7  UNL     1       0.095  -2.915   2.088  1.00  0.00     0.525 C 
HETATM   21  F1  UNL     1       0.683  -3.186   3.306  1.00  0.00    -0.144 F 
HETATM   22  F2  UNL     1       0.406  -3.890   1.206  1.00  0.00    -0.144 F 
HETATM   23  F3  UNL     1      -1.274  -2.990   2.322  1.00  0.00    -0.144 F 
ENDBRANCH  19  20
ENDBRANCH   9  19
ENDBRANCH   1   9
BRANCH   8  24
HETATM   24  C15 UNL     1      -3.421   1.172   1.544  1.00  0.00     0.159 C 
HETATM   25  N4  UNL     1      -3.907   0.211   2.201  1.00  0.00    -0.249 N 
ATOM     26  H4  UNL     1      -4.091   0.433   3.179  1.00  0.00     0.196 HD
BRANCH  24  27
HETATM   27  O4  UNL     1      -3.229   2.356   2.284  1.00  0.00    -0.347 OA
ATOM     28  H4  UNL     1      -3.467   2.363   3.204  1.00  0.00     0.219 HD
ENDBRANCH  24  27
BRANCH  25  29
HETATM   29  O5  UNL     1      -4.228  -1.042   1.864  1.00  0.00    -0.288 OA
ATOM     30  H5  UNL     1      -4.594  -1.766   2.359  1.00  0.00     0.244 HD
ENDBRANCH  25  29
ENDBRANCH   8  24
BRANCH   7  31
HETATM   31  C13 UNL     1      -5.565   1.366  -0.152  1.00  0.00     0.171 C 
BRANCH  31  32
HETATM   32  O3  UNL     1      -5.658   2.293   0.845  1.00  0.00    -0.400 OA
ATOM     33  H3  UNL     1      -6.514   2.347   1.253  1.00  0.00     0.209 HD
ENDBRANCH  31  32
ENDBRANCH   7  31
TORSDOF 11
