REMARK  14 active torsions:
REMARK  status: ('A' for Active; 'I' for Inactive)
REMARK    1  A    between atoms: C2_2  and  C4_4 
REMARK    2  A    between atoms: C4_4  and  O1_5 
REMARK    3  A    between atoms: C4_4  and  C5_7 
REMARK    4  A    between atoms: C4_4  and  C7_13 
REMARK    5  A    between atoms: C5_7  and  C6_8 
REMARK    6  A    between atoms: C6_8  and  O2_9 
REMARK    7  A    between atoms: C6_8  and  O3_11 
REMARK    8  A    between atoms: C8_16  and  N2_17 
REMARK    9  A    between atoms: N2_17  and  C9_19 
REMARK   10  A    between atoms: C11_23  and  C12_24 
REMARK       I    between atoms: C12_24  and  N4_26 
REMARK   11  A    between atoms: N4_26  and  N5_27 
REMARK   12  A    between atoms: C15_36  and  O7_37 
REMARK   13  A    between atoms: C16_39  and  N8_40 
REMARK   14  A    between atoms: N8_40  and  C17_42 
ROOT
HETATM    1  C7  UNL     1      -2.627  -0.200   0.079  1.00  0.00     0.090 A 
HETATM    2  N1  UNL     1      -1.320  -0.195   0.012  1.00  0.00    -0.336 N 
ATOM      3  H1  UNL     1      -0.825  -1.081   0.110  1.00  0.00     0.168 HD
HETATM    4  C8  UNL     1      -0.635   0.868  -0.171  1.00  0.00     0.137 A 
HETATM    5  C16 UNL     1      -1.393   2.066  -0.300  1.00  0.00     0.136 A 
HETATM    6  S1  UNL     1      -2.988   1.484  -0.130  1.00  0.00    -0.051 SA
ENDROOT
BRANCH   4   7
HETATM    7  N2  UNL     1       0.777   0.969  -0.189  1.00  0.00    -0.365 N 
ATOM      8  H2  UNL     1       1.067   1.940  -0.306  1.00  0.00     0.161 HD
BRANCH   7   9
HETATM    9  C9  UNL     1       1.889   0.130  -0.094  1.00  0.00     0.140 C 
HETATM   10  C10 UNL     1       2.000  -1.209  -0.659  1.00  0.00     0.231 C 
HETATM   11  O4  UNL     1       3.046  -1.891   0.087  1.00  0.00    -0.254 OA
HETATM   12  N3  UNL     1       4.387  -1.532   0.262  1.00  0.00    -0.131 N 
HETATM   13  C11 UNL     1       5.405  -2.392   0.270  1.00  0.00     0.241 A 
HETATM   14  N7  UNL     1       4.860  -0.313   0.395  1.00  0.00    -0.211 N 
HETATM   15  N6  UNL     1       6.566  -1.642   0.410  1.00  0.00    -0.284 N 
HETATM   16  C13 UNL     1       6.196  -0.361   0.488  1.00  0.00     0.344 A 
ATOM     17  H6  UNL     1       7.520  -2.001   0.446  1.00  0.00     0.172 HD
HETATM   18  O6  UNL     1       7.003   0.605   0.621  1.00  0.00    -0.245 OA
HETATM   19  C14 UNL     1       4.175   0.972   0.439  1.00  0.00     0.190 C 
HETATM   20  C15 UNL     1       3.112   0.942  -0.666  1.00  0.00     0.163 C 
BRANCH  13  21
HETATM   21  C12 UNL     1       5.377  -3.871   0.153  1.00  0.00     0.383 C 
HETATM   22  O5  UNL     1       4.319  -4.445   0.391  1.00  0.00    -0.246 OA
HETATM   23  N4  UNL     1       6.626  -4.452  -0.252  1.00  0.00    -0.285 NA
BRANCH  23  24
HETATM   24  N5  UNL     1       7.688  -4.959  -0.599  1.00  0.00    -0.276 N 
ATOM     25  H52 UNL     1       6.693  -4.982  -0.375  1.00  0.00     0.191 HD
ATOM     26  H51 UNL     1       8.575  -5.372  -0.887  1.00  0.00     0.191 HD
ENDBRANCH  23  24
ENDBRANCH  13  21
BRANCH  20  27
HETATM   27  O7  UNL     1       2.775   2.231  -0.963  1.00  0.00    -0.392 OA
ATOM     28  H7  UNL     1       3.512   2.721  -1.308  1.00  0.00     0.210 HD
ENDBRANCH  20  27
ENDBRANCH   7   9
ENDBRANCH   4   7
BRANCH   5  29
HETATM   29  N8  UNL     1      -0.850   3.333  -0.635  1.00  0.00    -0.181 N 
ATOM     30  H8  UNL     1       0.058   3.329  -1.099  1.00  0.00     0.185 HD
BRANCH  29  31
HETATM   31  C17 UNL     1      -1.409   4.558  -0.405  1.00  0.00     0.692 C 
HETATM   32  N9  UNL     1      -2.627   4.878  -0.321  1.00  0.00    -0.210 N 
HETATM   33  C18 UNL     1      -2.813   6.331  -0.063  1.00  0.00     0.271 C 
ATOM     34  H9  UNL     1      -3.396   4.215  -0.419  1.00  0.00     0.179 HD
HETATM   35  N10 UNL     1      -2.012   6.666   1.089  1.00  0.00    -0.106 NA
HETATM   36  N11 UNL     1      -0.657   6.554   0.806  1.00  0.00    -0.015 NA
HETATM   37  N12 UNL     1      -0.441   5.659  -0.216  1.00  0.00    -0.119 N 
ATOM     38  H12 UNL     1       0.369   5.753  -0.829  1.00  0.00     0.202 HD
ENDBRANCH  29  31
ENDBRANCH   5  29
BRANCH   1  39
HETATM   39  C4  UNL     1      -3.586  -1.352   0.246  1.00  0.00     0.114 C 
BRANCH  39  40
HETATM   40  C2  UNL     1      -4.268  -1.382   1.553  1.00  0.00     0.019 C 
HETATM   41  C1  UNL     1      -5.399  -2.365   1.675  1.00  0.00     0.013 C 
HETATM   42  C3  UNL     1      -4.929   0.005   1.754  1.00  0.00     0.013 C 
ENDBRANCH  39  40
BRANCH  39  43
HETATM   43  O1  UNL     1      -4.614  -1.021  -0.708  1.00  0.00    -0.382 OA
ATOM     44  H1  UNL     1      -4.175  -1.002  -1.550  1.00  0.00     0.211 HD
ENDBRANCH  39  43
BRANCH  39  45
HETATM   45  C5  UNL     1      -2.866  -2.552  -0.236  1.00  0.00     0.105 C 
BRANCH  45  46
HETATM   46  C6  UNL     1      -3.635  -3.788  -0.474  1.00  0.00     0.257 C 
BRANCH  46  47
HETATM   47  O2  UNL     1      -2.687  -4.773  -0.933  1.00  0.00    -0.371 OA
ATOM     48  H2  UNL     1      -3.182  -5.569  -1.086  1.00  0.00     0.212 HD
ENDBRANCH  46  47
BRANCH  46  49
HETATM   49  O3  UNL     1      -4.523  -3.668  -1.566  1.00  0.00    -0.371 OA
ATOM     50  H3  UNL     1      -5.018  -4.464  -1.719  1.00  0.00     0.212 HD
ENDBRANCH  46  49
ENDBRANCH  45  46
ENDBRANCH  39  45
ENDBRANCH   1  39
TORSDOF 14
