REMARK  4 active torsions:
REMARK  status: ('A' for Active; 'I' for Inactive)
REMARK    1  A    between atoms: S1_2  and  N1_5 
REMARK    2  A    between atoms: N1_5  and  C2_7 
REMARK    3  A    between atoms: C3_10  and  C4_11 
REMARK       I    between atoms: C4_11  and  N3_13 
REMARK    4  A    between atoms: N3_13  and  N4_15 
ROOT
HETATM    1  C2  UNL     1      -0.934   0.111  -0.281  1.00  0.00     0.176 A 
HETATM    2  N2  UNL     1       0.274   0.548  -0.535  1.00  0.00    -0.316 N 
ATOM      3  H2  UNL     1       0.409   1.402  -1.077  1.00  0.00     0.169 HD
HETATM    4  C3  UNL     1       1.310  -0.123  -0.086  1.00  0.00     0.184 A 
HETATM    5  N5  UNL     1       1.061  -1.233   0.617  1.00  0.00    -0.305 N 
ATOM      6  H5  UNL     1       1.726  -1.879   1.043  1.00  0.00     0.176 HD
HETATM    7  S2  UNL     1      -0.620  -1.300   0.625  1.00  0.00     0.025 SA
ENDROOT
BRANCH   4   8
HETATM    8  C4  UNL     1       2.699   0.344  -0.356  1.00  0.00     0.304 C 
HETATM    9  O3  UNL     1       2.945   1.385  -1.014  1.00  0.00    -0.263 OA
HETATM   10  N3  UNL     1       3.812  -0.383   0.131  1.00  0.00    -0.270 N 
ATOM     11  H3  UNL     1       3.639  -1.232   0.669  1.00  0.00     0.189 HD
BRANCH  10  12
HETATM   12  N4  UNL     1       5.124   0.003  -0.088  1.00  0.00    -0.342 N 
ATOM     13  H42 UNL     1       5.278   0.854  -0.628  1.00  0.00     0.176 HD
ATOM     14  H41 UNL     1       5.926  -0.521   0.263  1.00  0.00     0.176 HD
ENDBRANCH  10  12
ENDBRANCH   4   8
BRANCH   1  15
HETATM   15  N1  UNL     1      -2.067   0.663  -0.656  1.00  0.00    -0.263 N 
ATOM     16  H1  UNL     1      -2.083   1.523  -1.205  1.00  0.00     0.180 HD
BRANCH  15  17
HETATM   17  S1  UNL     1      -3.525  -0.126  -0.182  1.00  0.00     0.228 S 
HETATM   18  C1  UNL     1      -4.503   0.912   0.879  1.00  0.00     0.186 C 
HETATM   19  O1  UNL     1      -4.341  -0.510  -1.376  1.00  0.00    -0.206 OA
HETATM   20  O2  UNL     1      -3.233  -1.386   0.581  1.00  0.00    -0.206 OA
ENDBRANCH  15  17
ENDBRANCH   1  15
TORSDOF 4
