REMARK  10 active torsions:
REMARK  status: ('A' for Active; 'I' for Inactive)
REMARK    1  A    between atoms: N2_6  and  C5_7 
REMARK    2  A    between atoms: N3_10  and  C8_11 
REMARK    3  A    between atoms: C8_11  and  C9_12 
REMARK    4  A    between atoms: C9_12  and  C10_13 
REMARK    5  A    between atoms: C9_12  and  C13_22 
REMARK       I    between atoms: C10_13  and  N4_15 
REMARK    6  A    between atoms: N4_15  and  C11_17 
REMARK    7  A    between atoms: C11_17  and  C12_18 
REMARK    8  A    between atoms: C18_27  and  C19_28 
REMARK    9  A    between atoms: C19_28  and  O2_29 
REMARK   10  A    between atoms: N5_31  and  O3_33 
ROOT
HETATM    1  N1  UNL     1       7.062   1.558   0.568  1.00  0.00    -0.197 NA
HETATM    2  C1  UNL     1       5.912   1.566   0.688  1.00  0.00     0.067 C 
HETATM    3  C2  UNL     1       4.471   1.599   0.821  1.00  0.00     0.128 C 
HETATM    4  C3  UNL     1       3.812   1.974  -0.491  1.00  0.00     0.066 C 
HETATM    5  C4  UNL     1       2.900   0.807  -0.821  1.00  0.00     0.061 C 
HETATM    6  N2  UNL     1       2.937  -0.092   0.246  1.00  0.00    -0.375 N 
HETATM    7  C18 UNL     1       3.960   0.219   1.160  1.00  0.00     0.178 C 
ENDROOT
BRANCH   7   8
HETATM    8  C19 UNL     1       5.001  -0.829   1.142  1.00  0.00     0.160 C 
HETATM    9  N5  UNL     1       4.923  -1.762   0.267  1.00  0.00    -0.249 N 
ATOM     10  H5  UNL     1       4.130  -1.720  -0.374  1.00  0.00     0.196 HD
BRANCH   8  11
HETATM   11  O2  UNL     1       6.059  -0.849   2.027  1.00  0.00    -0.347 OA
ATOM     12  H2  UNL     1       6.728  -1.523   2.015  1.00  0.00     0.219 HD
ENDBRANCH   8  11
BRANCH   9  13
HETATM   13  O3  UNL     1       5.780  -2.799   0.101  1.00  0.00    -0.288 OA
ATOM     14  H3  UNL     1       5.722  -3.491  -0.548  1.00  0.00     0.244 HD
ENDBRANCH   9  13
ENDBRANCH   7   8
BRANCH   6  15
HETATM   15  C5  UNL     1       1.779  -0.759   0.677  1.00  0.00     0.087 C 
HETATM   16  C6  UNL     1       1.258  -1.670  -0.405  1.00  0.00     0.055 C 
HETATM   17  C7  UNL     1       0.243  -1.110  -1.303  1.00  0.00     0.274 C 
HETATM   18  N3  UNL     1      -0.732  -0.194  -0.605  1.00  0.00     0.089 N 
HETATM   19  C16 UNL     1      -0.651  -0.467   0.766  1.00  0.00     0.274 C 
HETATM   20  C17 UNL     1       0.710   0.108   1.243  1.00  0.00     0.055 C 
BRANCH  18  21
HETATM   21  C8  UNL     1      -1.921  -0.194  -1.341  1.00  0.00     0.286 C 
BRANCH  21  22
HETATM   22  C9  UNL     1      -2.962   0.796  -1.053  1.00  0.00     0.110 C 
BRANCH  22  23
HETATM   23  C10 UNL     1      -3.574   0.725   0.271  1.00  0.00     0.224 C 
HETATM   24  O1  UNL     1      -3.479   1.695   1.051  1.00  0.00    -0.273 OA
HETATM   25  N4  UNL     1      -4.274  -0.445   0.641  1.00  0.00    -0.352 N 
ATOM     26  H4  UNL     1      -4.319  -1.203  -0.040  1.00  0.00     0.162 HD
BRANCH  25  27
HETATM   27  C11 UNL     1      -4.916  -0.645   1.883  1.00  0.00     0.239 C 
BRANCH  27  28
HETATM   28  C12 UNL     1      -4.112  -0.693   3.131  1.00  0.00     0.403 C 
HETATM   29  F1  UNL     1      -3.172  -1.735   3.071  1.00  0.00    -0.169 F 
HETATM   30  F2  UNL     1      -4.944  -1.068   4.221  1.00  0.00    -0.169 F 
HETATM   31  F3  UNL     1      -3.558   0.494   3.489  1.00  0.00    -0.169 F 
ENDBRANCH  27  28
ENDBRANCH  25  27
ENDBRANCH  22  23
BRANCH  22  32
HETATM   32  C13 UNL     1      -4.105   0.663  -2.084  1.00  0.00     0.000 A 
HETATM   33  C14 UNL     1      -3.740   0.866  -3.508  1.00  0.00     0.006 A 
HETATM   34  C15 UNL     1      -4.523   1.907  -2.796  1.00  0.00     0.006 A 
ENDBRANCH  22  32
ENDBRANCH  21  22
ENDBRANCH  18  21
ENDBRANCH   6  15
TORSDOF 10
