REMARK  8 active torsions:
REMARK  status: ('A' for Active; 'I' for Inactive)
REMARK    1  A    between atoms: C2_2  and  S1_3 
REMARK    2  A    between atoms: S1_3  and  N1_6 
REMARK    3  A    between atoms: N1_6  and  C3_8 
REMARK    4  A    between atoms: C3_8  and  C4_9 
REMARK    5  A    between atoms: C5_10  and  C6_11 
REMARK    6  A    between atoms: C6_11  and  O3_12 
REMARK    7  A    between atoms: C13_19  and  C14_20 
REMARK    8  A    between atoms: C19_27  and  C20_29 
ROOT
HETATM    1  C6  UNL     1       0.694  -0.650  -1.742  1.00  0.00     0.131 C 
HETATM    2  C8  UNL     1       0.164   0.382  -2.798  1.00  0.00     0.053 C 
HETATM    3  C9  UNL     1      -0.708   1.267  -1.878  1.00  0.00     0.010 C 
HETATM    4  C10 UNL     1      -1.455   0.170  -1.203  1.00  0.00     0.003 C 
HETATM    5  C11 UNL     1      -2.382   0.543  -0.115  1.00  0.00     0.004 A 
HETATM    6  C12 UNL     1      -3.728   0.939  -0.634  1.00  0.00     0.008 A 
HETATM    7  C13 UNL     1      -4.418   2.100  -0.010  1.00  0.00     0.080 C 
HETATM    8  C15 UNL     1      -5.631   1.520   0.678  1.00  0.00     0.014 C 
HETATM    9  C16 UNL     1      -5.187   0.168   1.137  1.00  0.00     0.006 C 
HETATM   10  C17 UNL     1      -4.303  -0.312   0.013  1.00  0.00    -0.001 A 
HETATM   11  C18 UNL     1      -2.941  -0.733   0.470  1.00  0.00     0.044 A 
HETATM   12  C19 UNL     1      -2.467  -1.989  -0.162  1.00  0.00     0.186 C 
HETATM   13  F1  UNL     1      -3.222  -2.353  -1.289  1.00  0.00    -0.233 F 
HETATM   14  C21 UNL     1      -0.979  -2.054  -0.443  1.00  0.00     0.067 C 
HETATM   15  C22 UNL     1      -0.324  -0.737  -0.690  1.00  0.00     0.006 C 
HETATM   16  C23 UNL     1       0.151  -0.209   0.656  1.00  0.00     0.020 C 
ENDROOT
BRANCH   1  17
HETATM   17  C5  UNL     1       1.945  -0.030  -1.189  1.00  0.00    -0.066 C 
HETATM   18  C4  UNL     1       2.956   0.475  -0.768  1.00  0.00    -0.083 C 
BRANCH  18  19
HETATM   19  C3  UNL     1       4.178   1.108  -0.266  1.00  0.00     0.225 C 
BRANCH  19  20
HETATM   20  N1  UNL     1       4.472   0.574   1.029  1.00  0.00    -0.308 N 
ATOM     21  H1  UNL     1       3.885  -0.131   1.474  1.00  0.00     0.173 HD
BRANCH  20  22
HETATM   22  S1  UNL     1       5.860   1.194   1.769  1.00  0.00     0.227 S 
HETATM   23  O1  UNL     1       5.984   0.593   3.141  1.00  0.00    -0.206 OA
HETATM   24  O2  UNL     1       5.695   2.675   1.955  1.00  0.00    -0.206 OA
BRANCH  22  25
HETATM   25  C2  UNL     1       7.358   0.902   0.905  1.00  0.00     0.158 C 
HETATM   26  C1  UNL     1       7.650  -0.569   0.718  1.00  0.00     0.023 C 
ENDBRANCH  22  25
ENDBRANCH  20  22
ENDBRANCH  19  20
ENDBRANCH  18  19
ENDBRANCH   1  17
BRANCH   1  27
HETATM   27  O3  UNL     1       1.103  -1.776  -2.383  1.00  0.00    -0.371 OA
HETATM   28  C7  UNL     1       1.850  -2.680  -1.668  1.00  0.00     0.204 C 
ENDBRANCH   1  27
BRANCH  12  29
HETATM   29  C20 UNL     1      -2.747  -3.089   0.836  1.00  0.00     0.271 C 
HETATM   30  N3  UNL     1      -2.168  -3.073   2.137  1.00  0.00    -0.059 NA
HETATM   31  O5  UNL     1      -3.496  -4.054   0.560  1.00  0.00    -0.273 OA
ENDBRANCH  12  29
BRANCH   7  32
HETATM   32  C14 UNL     1      -3.601   2.914   0.898  1.00  0.00     0.235 C 
HETATM   33  N2  UNL     1      -2.473   3.658   0.465  1.00  0.00    -0.062 NA
HETATM   34  O4  UNL     1      -3.877   2.986   2.137  1.00  0.00    -0.276 OA
ENDBRANCH   7  32
TORSDOF 8
