REMARK  10 active torsions:
REMARK  status: ('A' for Active; 'I' for Inactive)
REMARK       I    between atoms: C2_2  and  N1_4 
REMARK    1  A    between atoms: N1_4  and  C3_6 
REMARK    2  A    between atoms: C4_7  and  O2_8 
REMARK    3  A    between atoms: C5_10  and  N2_11 
REMARK    4  A    between atoms: C8_17  and  C9_18 
REMARK    5  A    between atoms: C9_18  and  N4_19 
REMARK    6  A    between atoms: C12_25  and  O5_26 
REMARK    7  A    between atoms: N6_30  and  C14_31 
REMARK    8  A    between atoms: C14_31  and  O7_32 
REMARK    9  A    between atoms: C15_34  and  N7_35 
REMARK   10  A    between atoms: N8_38  and  O8_39 
ROOT
HETATM    1  C3  UNL     1      -1.918  -1.095   1.108  1.00  0.00     0.105 A 
HETATM    2  C4  UNL     1      -0.596  -1.113   0.871  1.00  0.00     0.126 A 
HETATM    3  C5  UNL     1       0.015  -0.112   0.126  1.00  0.00     0.113 A 
HETATM    4  C10 UNL     1      -0.722   0.946  -0.402  1.00  0.00     0.130 A 
HETATM    5  C11 UNL     1      -2.114   0.939  -0.135  1.00  0.00     0.100 A 
HETATM    6  C12 UNL     1      -2.714  -0.058   0.605  1.00  0.00     0.113 A 
HETATM    7  C13 UNL     1      -2.863   1.979  -0.657  1.00  0.00     0.279 A 
HETATM    8  O6  UNL     1      -4.105   2.027  -0.452  1.00  0.00    -0.266 OA
HETATM    9  N6  UNL     1      -2.249   2.928  -1.379  1.00  0.00    -0.123 N 
HETATM   10  C15 UNL     1      -0.941   2.913  -1.618  1.00  0.00     0.709 A 
HETATM   11  N8  UNL     1      -0.169   1.918  -1.129  1.00  0.00    -0.049 N 
ENDROOT
BRANCH   3  12
HETATM   12  N2  UNL     1       1.415  -0.193  -0.104  1.00  0.00    -0.287 N 
HETATM   13  C6  UNL     1       2.310   0.353   0.880  1.00  0.00     0.172 C 
HETATM   14  C7  UNL     1       3.742   0.185   0.398  1.00  0.00     0.255 C 
HETATM   15  N3  UNL     1       3.934  -1.194   0.087  1.00  0.00    -0.052 N 
HETATM   16  C8  UNL     1       3.071  -1.609  -0.993  1.00  0.00     0.322 C 
ATOM     17  H32 UNL     1       4.912  -1.401  -0.114  1.00  0.00     0.279 HD
ATOM     18  H31 UNL     1       3.816  -1.784   0.910  1.00  0.00     0.279 HD
HETATM   19  N5  UNL     1       1.926  -0.791  -1.224  1.00  0.00    -0.103 NA
BRANCH  16  20
HETATM   20  C9  UNL     1       3.967  -1.723  -2.214  1.00  0.00     0.253 C 
BRANCH  20  21
HETATM   21  N4  UNL     1       4.977  -2.708  -1.907  1.00  0.00    -0.152 N 
HETATM   22  O3  UNL     1       5.085  -3.741  -2.605  1.00  0.00    -0.536 OA
HETATM   23  O4  UNL     1       5.827  -2.509  -0.841  1.00  0.00    -0.536 OA
ENDBRANCH  20  21
ENDBRANCH  16  20
ENDBRANCH   3  12
BRANCH   2  24
HETATM   24  O2  UNL     1       0.177  -2.124   1.364  1.00  0.00    -0.356 OA
ATOM     25  H2  UNL     1       1.112  -2.137   1.196  1.00  0.00     0.218 HD
ENDBRANCH   2  24
BRANCH   1  26
HETATM   26  N1  UNL     1      -2.551  -2.137   1.883  1.00  0.00    -0.323 N 
HETATM   27  C2  UNL     1      -2.690  -2.048   3.276  1.00  0.00     0.218 C 
HETATM   28  C1  UNL     1      -3.341  -3.128   4.032  1.00  0.00     0.117 C 
HETATM   29  O1  UNL     1      -2.262  -1.049   3.886  1.00  0.00    -0.274 OA
ATOM     30  H1  UNL     1      -2.908  -2.963   1.402  1.00  0.00     0.169 HD
ENDBRANCH   1  26
BRANCH  11  31
HETATM   31  O8  UNL     1       1.173   1.911  -1.401  1.00  0.00    -0.269 OA
ATOM     32  H8  UNL     1       1.567   2.603  -1.919  1.00  0.00     0.245 HD
ENDBRANCH  11  31
BRANCH   6  33
HETATM   33  O5  UNL     1      -4.018  -0.086   0.869  1.00  0.00    -0.357 OA
ATOM     34  H5  UNL     1      -4.558   0.617   0.528  1.00  0.00     0.217 HD
ENDBRANCH   6  33
BRANCH  10  35
HETATM   35  N7  UNL     1      -0.343   3.811  -2.297  1.00  0.00    -0.232 N 
ATOM     36  H72 UNL     1      -0.926   4.562  -2.666  1.00  0.00     0.174 HD
ATOM     37  H71 UNL     1       0.660   3.799  -2.480  1.00  0.00     0.174 HD
ENDBRANCH  10  35
BRANCH   9  38
HETATM   38  C14 UNL     1      -3.106   3.995  -1.896  1.00  0.00     0.317 C 
BRANCH  38  39
HETATM   39  O7  UNL     1      -3.147   5.027  -0.951  1.00  0.00    -0.381 OA
ATOM     40  H7  UNL     1      -3.704   5.720  -1.287  1.00  0.00     0.211 HD
ENDBRANCH  38  39
ENDBRANCH   9  38
TORSDOF 10
