REMARK  10 active torsions:
REMARK  status: ('A' for Active; 'I' for Inactive)
REMARK    1  A    between atoms: C2_2  and  C3_3 
REMARK    2  A    between atoms: C3_3  and  O1_4 
REMARK    3  A    between atoms: O1_4  and  C4_5 
REMARK    4  A    between atoms: C5_6  and  C6_7 
REMARK    5  A    between atoms: C7_8  and  C8_9 
REMARK    6  A    between atoms: C23_25  and  O2_26 
REMARK    7  A    between atoms: C23_25  and  C24_28 
REMARK    8  A    between atoms: C24_28  and  O4_30 
REMARK    9  A    between atoms: C31_37  and  O5_38 
REMARK   10  A    between atoms: C33_40  and  O6_41 
ROOT
HETATM    1  C8  UNL     1       1.158   1.143   0.736  1.00  0.00     0.063 C 
HETATM    2 CL1  UNL     1       1.429   2.758   1.416  1.00  0.00    -0.114 Cl
HETATM    3  C9  UNL     1       0.990   1.136  -0.737  1.00  0.00     0.009 C 
HETATM    4  C10 UNL     1       0.427   2.439  -1.319  1.00  0.00     0.012 C 
HETATM    5  C11 UNL     1       0.244  -0.011  -1.332  1.00  0.00     0.007 C 
HETATM    6  C12 UNL     1      -0.229  -1.057  -0.391  1.00  0.00     0.014 C 
HETATM    7  C13 UNL     1      -0.679  -0.605   0.953  1.00  0.00    -0.015 C 
HETATM    8  C14 UNL     1      -0.265  -1.724   1.939  1.00  0.00     0.020 C 
HETATM    9  C15 UNL     1      -2.183  -0.703   0.980  1.00  0.00    -0.070 C 
HETATM   10  C16 UNL     1      -2.715  -1.902   0.702  1.00  0.00    -0.022 C 
HETATM   11  C17 UNL     1      -4.145  -2.150   0.697  1.00  0.00     0.040 C 
HETATM   12  C18 UNL     1      -5.035  -1.003   0.315  1.00  0.00     0.004 C 
HETATM   13  C19 UNL     1      -6.234  -0.944   1.289  1.00  0.00     0.019 C 
HETATM   14  C20 UNL     1      -4.304   0.286   0.302  1.00  0.00     0.006 C 
HETATM   15  C21 UNL     1      -3.855   0.497  -1.113  1.00  0.00     0.010 C 
HETATM   16  C22 UNL     1      -4.338  -0.718  -1.890  1.00  0.00     0.050 C 
HETATM   17  C23 UNL     1      -5.557  -1.174  -1.089  1.00  0.00     0.153 C 
HETATM   18  C26 UNL     1      -3.117   0.365   1.269  1.00  0.00     0.020 C 
HETATM   19  C27 UNL     1      -2.491   1.685   1.056  1.00  0.00     0.010 C 
HETATM   20  C28 UNL     1      -1.094   1.816   1.523  1.00  0.00     0.009 C 
HETATM   21  C29 UNL     1      -0.175   0.685   1.430  1.00  0.00     0.026 C 
ENDROOT
BRANCH   1  22
HETATM   22  C7  UNL     1       2.238   0.260   1.191  1.00  0.00     0.000 C 
HETATM   23  C6  UNL     1       3.443  -0.028   0.865  1.00  0.00     0.012 C 
BRANCH  23  24
HETATM   24  C5  UNL     1       4.428   0.349  -0.107  1.00  0.00     0.002 A 
HETATM   25  C4  UNL     1       5.262  -0.644  -0.644  1.00  0.00     0.103 A 
HETATM   26  C34 UNL     1       6.261  -0.225  -1.533  1.00  0.00     0.104 A 
HETATM   27  C33 UNL     1       6.422   1.091  -1.863  1.00  0.00     0.123 A 
HETATM   28 CL2  UNL     1       7.318  -1.436  -2.238  1.00  0.00    -0.078 Cl
HETATM   29  C31 UNL     1       5.600   2.049  -1.326  1.00  0.00     0.103 A 
HETATM   30  C30 UNL     1       4.610   1.678  -0.454  1.00  0.00     0.054 A 
BRANCH  25  31
HETATM   31  O1  UNL     1       5.183  -1.993  -0.360  1.00  0.00    -0.348 OA
BRANCH  31  32
HETATM   32  C3  UNL     1       5.975  -2.779   0.441  1.00  0.00     0.175 C 
BRANCH  32  33
HETATM   33  C2  UNL     1       6.159  -2.479   1.872  1.00  0.00     0.022 C 
HETATM   34  C1  UNL     1       7.085  -3.515   2.483  1.00  0.00     0.007 C 
ENDBRANCH  32  33
ENDBRANCH  31  32
ENDBRANCH  25  31
BRANCH  27  35
HETATM   35  O6  UNL     1       7.425   1.500  -2.745  1.00  0.00    -0.356 OA
ATOM     36  H6  UNL     1       7.994   0.837  -3.117  1.00  0.00     0.218 HD
ENDBRANCH  27  35
BRANCH  29  37
HETATM   37  O5  UNL     1       5.726   3.397  -1.632  1.00  0.00    -0.353 OA
HETATM   38  C32 UNL     1       4.864   4.373  -1.069  1.00  0.00     0.210 C 
ENDBRANCH  29  37
ENDBRANCH  23  24
ENDBRANCH   1  22
BRANCH  17  39
HETATM   39  O2  UNL     1      -5.866  -2.499  -1.409  1.00  0.00    -0.379 OA
ATOM     40  H2  UNL     1      -6.195  -2.607  -2.294  1.00  0.00     0.211 HD
ENDBRANCH  17  39
BRANCH  17  41
HETATM   41  C24 UNL     1      -6.642  -0.253  -1.405  1.00  0.00     0.294 C 
HETATM   42  O3  UNL     1      -7.696  -0.672  -2.034  1.00  0.00    -0.262 OA
BRANCH  41  43
HETATM   43  O4  UNL     1      -6.699   1.094  -1.103  1.00  0.00    -0.324 OA
HETATM   44  C25 UNL     1      -7.768   1.930  -1.450  1.00  0.00     0.213 C 
ENDBRANCH  41  43
ENDBRANCH  17  41
TORSDOF 10
