REMARK  10 active torsions:
REMARK  status: ('A' for Active; 'I' for Inactive)
REMARK    1  A    between atoms: N1_2  and  N2_4 
REMARK    2  A    between atoms: C2_5  and  N3_6 
REMARK       I    between atoms: N3_6  and  C3_8 
REMARK    3  A    between atoms: N7_15  and  C4_16 
REMARK    4  A    between atoms: C4_16  and  O1_17 
REMARK    5  A    between atoms: O1_17  and  C5_18 
REMARK    6  A    between atoms: C6_20  and  N8_21 
REMARK    7  A    between atoms: N8_21  and  C7_22 
REMARK    8  A    between atoms: C7_22  and  O3_23 
REMARK    9  A    between atoms: C7_22  and  C8_25 
REMARK   10  A    between atoms: C8_25  and  N9_26 
ROOT
HETATM    1  N2  UNL     1      -2.415  -0.354   0.396  1.00  0.00    -0.042 N 
HETATM    2  C2  UNL     1      -3.445  -0.029   1.207  1.00  0.00     0.724 A 
HETATM    3  N6  UNL     1      -3.133   1.161   1.782  1.00  0.00    -0.122 N 
ATOM      4  H6  UNL     1      -3.737   1.645   2.446  1.00  0.00     0.206 HD
HETATM    5  N7  UNL     1      -1.993   1.608   1.396  1.00  0.00    -0.209 N 
HETATM    6  C6  UNL     1      -1.485   0.661   0.503  1.00  0.00     0.318 A 
ENDROOT
BRANCH   6   7
HETATM    7  N8  UNL     1      -0.349   0.712   0.103  1.00  0.00    -0.345 NA
BRANCH   7   8
HETATM    8  C7  UNL     1       0.883   0.764  -0.332  1.00  0.00     0.212 C 
BRANCH   8   9
HETATM    9  O3  UNL     1       1.609   1.835  -0.137  1.00  0.00    -0.338 OA
ATOM     10  H3  UNL     1       2.504   1.873  -0.453  1.00  0.00     0.220 HD
ENDBRANCH   8   9
BRANCH   8  11
HETATM   11  C8  UNL     1       1.644  -0.294  -1.060  1.00  0.00     0.233 C 
BRANCH  11  12
HETATM   12  N9  UNL     1       3.072  -0.167  -1.040  1.00  0.00    -0.300 N 
HETATM   13  C9  UNL     1       3.734  -0.807  -0.027  1.00  0.00     0.108 A 
HETATM   14  C10 UNL     1       5.099  -0.753   0.008  1.00  0.00     0.022 A 
HETATM   15  C11 UNL     1       5.841  -1.470   1.102  1.00  0.00     0.056 C 
HETATM   16  C12 UNL     1       5.765  -0.059  -0.971  1.00  0.00     0.256 A 
HETATM   17  O4  UNL     1       7.036   0.017  -0.981  1.00  0.00    -0.267 OA
HETATM   18  N10 UNL     1       5.058   0.559  -1.948  1.00  0.00    -0.275 N 
HETATM   19  C13 UNL     1       3.706   0.523  -2.008  1.00  0.00     0.329 A 
ATOM     20  H10 UNL     1       5.566   1.073  -2.668  1.00  0.00     0.173 HD
HETATM   21  O5  UNL     1       3.091   1.117  -2.939  1.00  0.00    -0.246 OA
ENDBRANCH  11  12
ENDBRANCH   8  11
ENDBRANCH   7   8
ENDBRANCH   6   7
BRANCH   1  22
HETATM   22  N1  UNL     1      -2.379  -1.533  -0.348  1.00  0.00    -0.316 N 
HETATM   23  C1  UNL     1      -1.566  -1.779  -1.511  1.00  0.00     0.169 C 
ATOM     24  H1  UNL     1      -2.986  -2.293  -0.039  1.00  0.00     0.180 HD
ENDBRANCH   1  22
BRANCH   5  25
HETATM   25  C4  UNL     1      -1.393   2.872   1.764  1.00  0.00     0.332 C 
BRANCH  25  26
HETATM   26  O1  UNL     1      -1.960   3.966   1.127  1.00  0.00    -0.307 OA
BRANCH  26  27
HETATM   27  C5  UNL     1      -2.071   4.308  -0.164  1.00  0.00     0.399 C 
HETATM   28  O2  UNL     1      -1.612   3.569  -1.062  1.00  0.00    -0.276 OA
ENDBRANCH  26  27
ENDBRANCH  25  26
ENDBRANCH   5  25
BRANCH   2  29
HETATM   29  N3  UNL     1      -4.560  -0.595   1.446  1.00  0.00    -0.161 N 
HETATM   30  C3  UNL     1      -5.155  -1.714   1.006  1.00  0.00     0.200 C 
HETATM   31  N4  UNL     1      -5.775  -1.788  -0.157  1.00  0.00    -0.373 N 
HETATM   32  N5  UNL     1      -5.215  -2.959   1.742  1.00  0.00    -0.063 NA
ATOM     33  H42 UNL     1      -5.733  -0.911  -0.676  1.00  0.00     0.158 HD
ATOM     34  H41 UNL     1      -6.227  -2.639  -0.492  1.00  0.00     0.158 HD
ATOM     35  H3  UNL     1      -5.127  -0.084   2.123  1.00  0.00     0.187 HD
ENDBRANCH   2  29
TORSDOF 10
