REMARK  6 active torsions:
REMARK  status: ('A' for Active; 'I' for Inactive)
REMARK    1  A    between atoms: N3_9  and  C4_10 
REMARK    2  A    between atoms: C4_10  and  C5_11 
REMARK    3  A    between atoms: C5_11  and  N4_12 
REMARK       I    between atoms: N4_12  and  C6_14 
REMARK    4  A    between atoms: C6_14  and  C7_16 
REMARK    5  A    between atoms: C7_16  and  N5_17 
REMARK    6  A    between atoms: N5_17  and  C8_19 
ROOT
HETATM    1  N4  UNL     1      -1.599   1.569  -1.617  1.00  0.00    -0.358 N 
ATOM      2  H4  UNL     1      -1.826   0.975  -2.415  1.00  0.00     0.162 HD
HETATM    3  C6  UNL     1      -0.348   1.362  -0.981  1.00  0.00     0.235 C 
HETATM    4  O3  UNL     1      -0.068   2.100   0.008  1.00  0.00    -0.272 OA
ENDROOT
BRANCH   3   5
HETATM    5  C7  UNL     1       0.624   0.350  -1.406  1.00  0.00     0.224 C 
BRANCH   5   6
HETATM    6  N5  UNL     1       1.784   0.409  -0.545  1.00  0.00    -0.367 N 
ATOM      7  H5  UNL     1       1.767   1.052   0.246  1.00  0.00     0.161 HD
BRANCH   6   8
HETATM    8  C8  UNL     1       2.839  -0.311  -0.727  1.00  0.00     0.121 A 
HETATM    9  N6  UNL     1       2.875  -1.158  -1.756  1.00  0.00    -0.294 N 
HETATM   10  C9  UNL     1       3.966  -1.942  -1.992  1.00  0.00     0.327 A 
ATOM     11  H6  UNL     1       2.070  -1.221  -2.380  1.00  0.00     0.172 HD
HETATM   12  O4  UNL     1       3.998  -2.734  -2.956  1.00  0.00    -0.247 OA
HETATM   13  N7  UNL     1       5.006  -1.826  -1.142  1.00  0.00    -0.292 N 
HETATM   14  C10 UNL     1       5.003  -0.983  -0.094  1.00  0.00     0.141 A 
ATOM     15  H7  UNL     1       5.832  -2.403  -1.301  1.00  0.00     0.172 HD
HETATM   16  C11 UNL     1       3.885  -0.186   0.140  1.00  0.00     0.070 A 
HETATM   17  N9  UNL     1       5.872  -0.674   0.881  1.00  0.00    -0.281 N 
HETATM   18  C12 UNL     1       4.126   0.589   1.267  1.00  0.00     0.126 A 
HETATM   19  N8  UNL     1       5.351   0.248   1.675  1.00  0.00    -0.307 N 
ATOM     20  H8  UNL     1       5.822   0.644   2.489  1.00  0.00     0.186 HD
HETATM   21  C13 UNL     1       7.183  -1.279   1.016  1.00  0.00     0.179 C 
ENDBRANCH   6   8
ENDBRANCH   5   6
ENDBRANCH   3   5
BRANCH   1  22
HETATM   22  C5  UNL     1      -2.559   2.541  -1.227  1.00  0.00     0.143 C 
BRANCH  22  23
HETATM   23  C4  UNL     1      -3.186   2.443   0.112  1.00  0.00     0.158 C 
BRANCH  23  24
HETATM   24  N3  UNL     1      -3.977   1.272   0.374  1.00  0.00    -0.249 N 
HETATM   25  C3  UNL     1      -5.280   1.303  -0.050  1.00  0.00     0.334 A 
HETATM   26  N2  UNL     1      -6.147   0.305   0.146  1.00  0.00    -0.260 N 
HETATM   27  O2  UNL     1      -5.682   2.331  -0.659  1.00  0.00    -0.246 OA
HETATM   28  C2  UNL     1      -5.720  -0.799   0.799  1.00  0.00     0.334 A 
ATOM     29  H2  UNL     1      -7.108   0.375  -0.189  1.00  0.00     0.175 HD
HETATM   30  N1  UNL     1      -4.465  -0.871   1.227  1.00  0.00    -0.255 N 
HETATM   31  O1  UNL     1      -6.543  -1.746   0.984  1.00  0.00    -0.246 OA
HETATM   32  C1  UNL     1      -4.011  -2.047   1.923  1.00  0.00     0.166 C 
HETATM   33  C14 UNL     1      -3.615   0.165   1.009  1.00  0.00     0.336 A 
HETATM   34  O5  UNL     1      -2.459   0.035   1.439  1.00  0.00    -0.246 OA
ENDBRANCH  23  24
ENDBRANCH  22  23
ENDBRANCH   1  22
TORSDOF 6
