REMARK  8 active torsions:
REMARK  status: ('A' for Active; 'I' for Inactive)
REMARK    1  A    between atoms: N1_1  and  C1_4 
REMARK    2  A    between atoms: N3_9  and  N4_10 
REMARK    3  A    between atoms: N4_10  and  N5_12 
REMARK    4  A    between atoms: C4_16  and  N6_17 
REMARK    5  A    between atoms: N6_17  and  C5_19 
REMARK    6  A    between atoms: C5_19  and  O2_20 
REMARK    7  A    between atoms: C5_19  and  S1_22 
REMARK    8  A    between atoms: S1_22  and  N7_23 
ROOT
HETATM    1  C1  UNL     1      -0.984   2.009   0.789  1.00  0.00     0.131 A 
HETATM    2  N2  UNL     1      -2.329   1.920   0.816  1.00  0.00    -0.291 N 
ATOM      3  H2  UNL     1      -2.872   2.666   1.251  1.00  0.00     0.172 HD
HETATM    4  C2  UNL     1      -2.972   0.859   0.277  1.00  0.00     0.348 A 
HETATM    5  O1  UNL     1      -4.228   0.826   0.330  1.00  0.00    -0.245 OA
HETATM    6  N3  UNL     1      -2.254  -0.116  -0.293  1.00  0.00    -0.200 N 
HETATM    7  C3  UNL     1      -0.896  -0.045  -0.332  1.00  0.00     0.156 A 
HETATM    8  C4  UNL     1      -0.212   1.021   0.209  1.00  0.00     0.093 A 
ENDROOT
BRANCH   8   9
HETATM    9  N6  UNL     1       1.179   1.148   0.175  1.00  0.00    -0.346 N 
ATOM     10  H6  UNL     1       1.545   2.037   0.515  1.00  0.00     0.163 HD
BRANCH   9  11
HETATM   11  C5  UNL     1       2.156   0.215  -0.266  1.00  0.00     0.365 C 
BRANCH  11  12
HETATM   12  O2  UNL     1       1.915  -0.372  -1.501  1.00  0.00    -0.362 OA
ATOM     13  H2  UNL     1       2.568  -0.996  -1.796  1.00  0.00     0.213 HD
ENDBRANCH  11  12
BRANCH  11  14
HETATM   14  S1  UNL     1       2.460  -1.038   0.939  1.00  0.00     0.270 S 
HETATM   15  O3  UNL     1       1.276  -1.889   1.217  1.00  0.00    -0.202 OA
HETATM   16  O4  UNL     1       3.002  -0.426   2.227  1.00  0.00    -0.202 OA
BRANCH  14  17
HETATM   17  N7  UNL     1       3.762  -2.050   0.357  1.00  0.00    -0.325 N 
ATOM     18  H72 UNL     1       4.252  -1.925  -0.529  1.00  0.00     0.168 HD
ATOM     19  H71 UNL     1       3.938  -2.774   1.053  1.00  0.00     0.168 HD
ENDBRANCH  14  17
ENDBRANCH  11  14
ENDBRANCH   9  11
ENDBRANCH   8   9
BRANCH   1  20
HETATM   20  N1  UNL     1      -0.401   3.027   1.309  1.00  0.00    -0.383 N 
ATOM     21  H12 UNL     1      -0.971   3.756   1.737  1.00  0.00     0.157 HD
ATOM     22  H11 UNL     1       0.617   3.094   1.289  1.00  0.00     0.157 HD
ENDBRANCH   1  20
BRANCH   6  23
HETATM   23  N4  UNL     1      -2.890  -1.223  -0.858  1.00  0.00    -0.239 N 
ATOM     24  H4  UNL     1      -3.908  -1.286  -0.834  1.00  0.00     0.208 HD
BRANCH  23  25
HETATM   25  N5  UNL     1      -2.144  -2.254  -1.460  1.00  0.00    -0.330 N 
ATOM     26  H52 UNL     1      -1.127  -2.176  -1.475  1.00  0.00     0.178 HD
ATOM     27  H51 UNL     1      -2.609  -3.063  -1.873  1.00  0.00     0.178 HD
ENDBRANCH  23  25
ENDBRANCH   6  23
TORSDOF 8
