REMARK  9 active torsions:
REMARK  status: ('A' for Active; 'I' for Inactive)
REMARK    1  A    between atoms: N1_1  and  C1_4 
REMARK    2  A    between atoms: N3_9  and  N4_10 
REMARK    3  A    between atoms: C3_13  and  N5_14 
REMARK    4  A    between atoms: N5_14  and  C4_16 
REMARK    5  A    between atoms: C4_16  and  N6_17 
REMARK    6  A    between atoms: C4_16  and  C5_25 
REMARK    7  A    between atoms: N6_17  and  N7_19 
REMARK    8  A    between atoms: N7_19  and  O2_23 
REMARK    9  A    between atoms: N10_27  and  O3_29 
ROOT
HETATM    1  N5  UNL     1       0.006   0.182  -0.621  1.00  0.00    -0.194 N 
ATOM      2  H5  UNL     1       0.233   0.358  -1.600  1.00  0.00     0.180 HD
ENDROOT
BRANCH   1   3
HETATM    3  C3  UNL     1      -1.209  -0.075  -0.342  1.00  0.00     0.719 A 
HETATM    4  N3  UNL     1      -2.102  -0.096  -1.349  1.00  0.00    -0.037 N 
HETATM    5  C2  UNL     1      -3.416  -0.366  -1.104  1.00  0.00     0.374 A 
HETATM    6  N2  UNL     1      -3.835  -0.617   0.167  1.00  0.00    -0.139 N 
HETATM    7  O1  UNL     1      -4.245  -0.385  -2.051  1.00  0.00    -0.244 OA
HETATM    8  C1  UNL     1      -2.945  -0.596   1.176  1.00  0.00     0.694 A 
ATOM      9  H2  UNL     1      -4.817  -0.820   0.353  1.00  0.00     0.189 HD
HETATM   10  N11 UNL     1      -1.666  -0.327   0.898  1.00  0.00    -0.021 N 
ATOM     11  H11 UNL     1      -0.999  -0.312   1.669  1.00  0.00     0.203 HD
BRANCH   4  12
HETATM   12  N4  UNL     1      -1.752   0.148  -2.669  1.00  0.00    -0.320 N 
ATOM     13  H42 UNL     1      -2.429   0.132  -3.432  1.00  0.00     0.178 HD
ATOM     14  H41 UNL     1      -0.769   0.350  -2.852  1.00  0.00     0.178 HD
ENDBRANCH   4  12
BRANCH   8  15
HETATM   15  N1  UNL     1      -3.354  -0.837   2.393  1.00  0.00    -0.234 N 
ATOM     16  H12 UNL     1      -4.330  -1.042   2.605  1.00  0.00     0.174 HD
ATOM     17  H11 UNL     1      -2.679  -0.821   3.158  1.00  0.00     0.174 HD
ENDBRANCH   8  15
ENDBRANCH   1   3
BRANCH   1  18
HETATM   18  C4  UNL     1       1.086   0.246   0.326  1.00  0.00     0.285 C 
BRANCH  18  19
HETATM   19  N6  UNL     1       1.524  -1.056   0.772  1.00  0.00    -0.265 N 
ATOM     20  H6  UNL     1       1.087  -1.911   0.427  1.00  0.00     0.187 HD
BRANCH  19  21
HETATM   21  N7  UNL     1       2.572  -1.095   1.696  1.00  0.00    -0.104 N 
HETATM   22  N8  UNL     1       3.579  -1.858   1.528  1.00  0.00    -0.304 N 
ATOM     23  H82 UNL     1       3.646  -2.463   0.709  1.00  0.00     0.180 HD
ATOM     24  H81 UNL     1       4.344  -1.886   2.202  1.00  0.00     0.180 HD
BRANCH  21  25
HETATM   25  O2  UNL     1       2.481  -0.277   2.803  1.00  0.00    -0.254 OA
ATOM     26  H2  UNL     1       3.193  -0.304   3.431  1.00  0.00     0.248 HD
ENDBRANCH  21  25
ENDBRANCH  19  21
ENDBRANCH  18  19
BRANCH  18  27
HETATM   27  C5  UNL     1       2.177   1.038  -0.289  1.00  0.00     0.157 C 
HETATM   28  N9  UNL     1       2.806   0.654  -1.501  1.00  0.00    -0.081 NA
HETATM   29  N10 UNL     1       2.563   2.130   0.320  1.00  0.00    -0.256 N 
ATOM     30  H10 UNL     1       2.097   2.388   1.190  1.00  0.00     0.195 HD
BRANCH  29  31
HETATM   31  O3  UNL     1       3.547   2.936  -0.141  1.00  0.00    -0.289 OA
ATOM     32  H3  UNL     1       3.827   3.729   0.301  1.00  0.00     0.244 HD
ENDBRANCH  29  31
ENDBRANCH  18  27
ENDBRANCH   1  18
TORSDOF 9
