REMARK  12 active torsions:
REMARK  status: ('A' for Active; 'I' for Inactive)
REMARK       I    between atoms: N1_1  and  C1_4 
REMARK       I    between atoms: C1_4  and  N2_5 
REMARK       I    between atoms: C1_4  and  N9_42 
REMARK    1  A    between atoms: N2_5  and  C2_7 
REMARK    2  A    between atoms: C3_9  and  C4_10 
REMARK    3  A    between atoms: C4_10  and  N3_11 
REMARK    4  A    between atoms: N3_11  and  C5_14 
REMARK    5  A    between atoms: C5_14  and  O2_15 
REMARK    6  A    between atoms: C5_14  and  O3_17 
REMARK    7  A    between atoms: C7_22  and  C8_23 
REMARK    8  A    between atoms: C8_23  and  C9_25 
REMARK       I    between atoms: C9_25  and  N5_27 
REMARK    9  A    between atoms: N5_27  and  C10_29 
REMARK   10  A    between atoms: C11_34  and  S1_35 
REMARK   11  A    between atoms: S1_35  and  N8_36 
REMARK   12  A    between atoms: N9_42  and  O9_44 
ROOT
HETATM    1  C2  UNL     1      -1.130   1.065   0.181  1.00  0.00     0.194 A 
HETATM    2  O1  UNL     1      -2.353   0.756  -0.145  1.00  0.00    -0.292 OA
HETATM    3  C3  UNL     1      -2.833  -0.464  -0.178  1.00  0.00     0.096 A 
HETATM    4  C6  UNL     1      -2.014  -1.522   0.148  1.00  0.00     0.123 A 
HETATM    5  N4  UNL     1      -0.746  -1.249   0.491  1.00  0.00    -0.357 N 
ATOM      6  H4  UNL     1      -0.122  -2.017   0.738  1.00  0.00     0.165 HD
HETATM    7  C7  UNL     1      -0.268   0.031   0.518  1.00  0.00     0.141 A 
ENDROOT
BRANCH   7   8
HETATM    8  C8  UNL     1       1.109   0.270   0.894  1.00  0.00     0.270 C 
HETATM    9  O4  UNL     1       1.537   1.443   0.917  1.00  0.00    -0.280 OA
BRANCH   8  10
HETATM   10  C9  UNL     1       1.969  -0.834   1.235  1.00  0.00     0.301 C 
HETATM   11  O5  UNL     1       1.515  -2.002   1.204  1.00  0.00    -0.264 OA
HETATM   12  N5  UNL     1       3.326  -0.654   1.610  1.00  0.00    -0.284 N 
ATOM     13  H5  UNL     1       3.561  -0.451   2.582  1.00  0.00     0.172 HD
BRANCH  12  14
HETATM   14  C10 UNL     1       4.270  -0.746   0.722  1.00  0.00     0.248 A 
HETATM   15  N6  UNL     1       4.136  -1.004  -0.588  1.00  0.00    -0.262 N 
HETATM   16  N7  UNL     1       5.340  -1.010  -1.132  1.00  0.00    -0.265 N 
ATOM     17  H6  UNL     1       3.257  -1.167  -1.079  1.00  0.00     0.190 HD
HETATM   18  C11 UNL     1       6.220  -0.758  -0.169  1.00  0.00     0.284 A 
ATOM     19  H7  UNL     1       5.555  -1.178  -2.115  1.00  0.00     0.190 HD
HETATM   20  O8  UNL     1       5.548  -0.602   0.945  1.00  0.00    -0.248 OA
BRANCH  18  21
HETATM   21  S1  UNL     1       7.963  -0.633  -0.247  1.00  0.00     0.297 S 
HETATM   22  O6  UNL     1       8.395  -0.129  -1.592  1.00  0.00    -0.197 OA
HETATM   23  O7  UNL     1       8.459   0.246   0.860  1.00  0.00    -0.197 OA
BRANCH  21  24
HETATM   24  N8  UNL     1       8.586  -2.235   0.041  1.00  0.00    -0.321 N 
ATOM     25  H82 UNL     1       8.030  -3.072   0.219  1.00  0.00     0.169 HD
ATOM     26  H81 UNL     1       9.602  -2.162  -0.004  1.00  0.00     0.169 HD
ENDBRANCH  21  24
ENDBRANCH  18  21
ENDBRANCH  12  14
ENDBRANCH   8  10
ENDBRANCH   7   8
BRANCH   1  27
HETATM   27  N2  UNL     1      -0.660   2.265   0.214  1.00  0.00    -0.166 N 
HETATM   28  C1  UNL     1      -1.417   3.425  -0.104  1.00  0.00     0.697 C 
HETATM   29  N1  UNL     1      -2.632   3.534   0.315  1.00  0.00    -0.233 N 
HETATM   30  N9  UNL     1      -0.897   4.487  -0.871  1.00  0.00    -0.099 N 
ATOM     31  H12 UNL     1      -3.008   2.765   0.870  1.00  0.00     0.174 HD
ATOM     32  H11 UNL     1      -3.175   4.367   0.087  1.00  0.00     0.174 HD
ATOM     33  H9  UNL     1       0.098   4.708  -0.831  1.00  0.00     0.213 HD
ATOM     34  H2  UNL     1       0.315   2.390   0.485  1.00  0.00     0.186 HD
BRANCH  30  35
HETATM   35  O9  UNL     1      -1.713   5.205  -1.652  1.00  0.00    -0.276 OA
ATOM     36  H9  UNL     1      -1.363   5.921  -2.169  1.00  0.00     0.245 HD
ENDBRANCH  30  35
ENDBRANCH   1  27
BRANCH   3  37
HETATM   37  C4  UNL     1      -4.260  -0.730  -0.567  1.00  0.00     0.304 C 
BRANCH  37  38
HETATM   38  N3  UNL     1      -5.105  -0.695   0.611  1.00  0.00    -0.019 N 
ATOM     39  H32 UNL     1      -4.786  -1.332   1.341  1.00  0.00     0.283 HD
ATOM     40  H31 UNL     1      -5.011   0.175   1.135  1.00  0.00     0.283 HD
BRANCH  38  41
HETATM   41  C5  UNL     1      -6.466  -0.954   0.203  1.00  0.00     0.464 C 
BRANCH  41  42
HETATM   42  O2  UNL     1      -6.644  -2.174  -0.405  1.00  0.00    -0.350 OA
ATOM     43  H2  UNL     1      -7.539  -2.344  -0.673  1.00  0.00     0.214 HD
ENDBRANCH  41  42
BRANCH  41  44
HETATM   44  O3  UNL     1      -7.348  -0.854   1.276  1.00  0.00    -0.350 OA
ATOM     45  H3  UNL     1      -8.243  -1.024   1.008  1.00  0.00     0.214 HD
ENDBRANCH  41  44
ENDBRANCH  38  41
ENDBRANCH  37  38
ENDBRANCH   3  37
TORSDOF 12
