REMARK  9 active torsions:
REMARK  status: ('A' for Active; 'I' for Inactive)
REMARK    1  A    between atoms: C2_3  and  N2_4 
REMARK    2  A    between atoms: C2_3  and  C3_7 
REMARK    3  A    between atoms: N2_4  and  O1_5 
REMARK    4  A    between atoms: C4_8  and  C5_9 
REMARK    5  A    between atoms: C5_9  and  O2_10 
REMARK    6  A    between atoms: C5_9  and  C6_12 
REMARK       I    between atoms: N3_13  and  C7_15 
REMARK    7  A    between atoms: C8_22  and  N7_23 
REMARK    8  A    between atoms: N10_33  and  N11_34 
REMARK       I    between atoms: N11_34  and  C12_36 
REMARK       I    between atoms: C12_36  and  N13_40 
REMARK    9  A    between atoms: N13_40  and  N14_42 
ROOT
HETATM    1  N1  UNL     1      -2.138   2.353   3.663  1.00  0.00    -0.195 NA
HETATM    2  C1  UNL     1      -1.094   2.117   3.142  1.00  0.00     0.089 C 
HETATM    3  C2  UNL     1       0.238   1.812   2.539  1.00  0.00     0.267 C 
ENDROOT
BRANCH   3   4
HETATM    4  N2  UNL     1       0.838   1.037   3.691  1.00  0.00    -0.078 NA
BRANCH   4   5
HETATM    5  O1  UNL     1       0.090  -0.036   3.950  1.00  0.00    -0.294 OA
ATOM      6  H1  UNL     1       0.467  -0.523   4.674  1.00  0.00     0.238 HD
ENDBRANCH   4   5
ENDBRANCH   3   4
BRANCH   3   7
HETATM    7  C3  UNL     1       0.103   0.928   1.383  1.00  0.00     0.114 A 
HETATM    8  C4  UNL     1       1.131   0.026   1.097  1.00  0.00     0.088 A 
HETATM    9  N6  UNL     1       0.699  -0.698   0.059  1.00  0.00    -0.187 N 
HETATM   10  C8  UNL     1      -0.558  -0.266  -0.307  1.00  0.00     0.730 A 
ATOM     11  H6  UNL     1       1.218  -1.452  -0.391  1.00  0.00     0.184 HD
HETATM   12  N10 UNL     1      -0.925   0.732   0.498  1.00  0.00    -0.069 N 
BRANCH   8  13
HETATM   13  C5  UNL     1       2.489  -0.156   1.627  1.00  0.00     0.209 C 
BRANCH  13  14
HETATM   14  O2  UNL     1       3.094   0.995   2.124  1.00  0.00    -0.384 OA
ATOM     15  H2  UNL     1       3.972   0.877   2.467  1.00  0.00     0.211 HD
ENDBRANCH  13  14
BRANCH  13  16
HETATM   16  C6  UNL     1       3.432  -0.533   0.488  1.00  0.00     0.101 C 
HETATM   17  N3  UNL     1       3.876  -1.722   0.358  1.00  0.00    -0.342 N 
HETATM   18  C7  UNL     1       4.745  -2.039  -0.704  1.00  0.00     0.185 C 
ATOM     19  H3  UNL     1       3.601  -2.444   1.024  1.00  0.00     0.167 HD
HETATM   20  N4  UNL     1       6.007  -1.914  -0.552  1.00  0.00    -0.374 N 
HETATM   21  N5  UNL     1       4.246  -2.497  -1.950  1.00  0.00    -0.064 NA
ATOM     22  H42 UNL     1       6.366  -1.585   0.344  1.00  0.00     0.158 HD
ATOM     23  H41 UNL     1       6.636  -2.144  -1.321  1.00  0.00     0.158 HD
ENDBRANCH  13  16
ENDBRANCH   8  13
BRANCH  10  24
HETATM   24  N7  UNL     1      -1.267  -0.840  -1.385  1.00  0.00    -0.030 N 
HETATM   25  N8  UNL     1      -1.045  -0.420  -2.613  1.00  0.00    -0.281 N 
HETATM   26  C9  UNL     1      -1.693  -0.998  -3.661  1.00  0.00     0.182 A 
ATOM     27  H8  UNL     1      -0.386   0.340  -2.779  1.00  0.00     0.187 HD
HETATM   28  C10 UNL     1      -2.586  -2.027  -3.448  1.00  0.00     0.266 A 
HETATM   29  O3  UNL     1      -3.197  -2.572  -4.432  1.00  0.00    -0.267 OA
HETATM   30  N9  UNL     1      -2.799  -2.441  -2.187  1.00  0.00    -0.272 N 
HETATM   31  C11 UNL     1      -2.131  -1.833  -1.189  1.00  0.00     0.363 A 
ATOM     32  H9  UNL     1      -3.452  -3.199  -1.991  1.00  0.00     0.173 HD
HETATM   33  O4  UNL     1      -2.370  -2.265  -0.016  1.00  0.00    -0.244 OA
ENDBRANCH  10  24
BRANCH  12  34
HETATM   34  N11 UNL     1      -2.020   1.573   0.428  1.00  0.00    -0.110 N 
HETATM   35  C12 UNL     1      -3.236   1.390  -0.235  1.00  0.00     0.710 C 
HETATM   36  N12 UNL     1      -4.186   0.752   0.370  1.00  0.00    -0.232 N 
HETATM   37  N13 UNL     1      -3.480   1.911  -1.511  1.00  0.00    -0.071 N 
ATOM     38 2H12 UNL     1      -4.008   0.372   1.300  1.00  0.00     0.174 HD
ATOM     39 1H12 UNL     1      -5.074   0.618  -0.114  1.00  0.00     0.174 HD
ATOM     40  H13 UNL     1      -4.128   1.433  -2.138  1.00  0.00     0.212 HD
ATOM     41  H11 UNL     1      -1.927   2.454   0.933  1.00  0.00     0.207 HD
BRANCH  37  42
HETATM   42  N14 UNL     1      -2.848   3.071  -1.929  1.00  0.00    -0.024 N 
HETATM   43  O5  UNL     1      -1.912   3.067  -2.773  1.00  0.00    -0.516 OA
HETATM   44  O6  UNL     1      -3.204   4.319  -1.443  1.00  0.00    -0.516 OA
ENDBRANCH  37  42
ENDBRANCH  12  34
ENDBRANCH   3   7
TORSDOF 9
