REMARK  9 active torsions:
REMARK  status: ('A' for Active; 'I' for Inactive)
REMARK    1  A    between atoms: C2_3  and  C3_7 
REMARK    2  A    between atoms: C3_7  and  O1_8 
REMARK    3  A    between atoms: C3_7  and  N3_10 
REMARK    4  A    between atoms: N3_10  and  N4_12 
REMARK    5  A    between atoms: N4_12  and  C4_14 
REMARK    6  A    between atoms: C5_19  and  N7_20 
REMARK    7  A    between atoms: N7_20  and  C6_22 
REMARK    8  A    between atoms: C6_22  and  C7_23 
REMARK    9  A    between atoms: N10_36  and  N11_38 
REMARK       I    between atoms: N11_38  and  C13_39 
ROOT
HETATM    1  N1  UNL     1       8.671   0.352   3.284  1.00  0.00    -0.190 NA
HETATM    2  C1  UNL     1       8.365   0.507   2.166  1.00  0.00     0.117 C 
HETATM    3  C2  UNL     1       7.969   0.683   0.792  1.00  0.00     0.134 C 
HETATM    4  N2  UNL     1       8.576  -0.026  -0.097  1.00  0.00    -0.390 N 
ATOM      5  H21 UNL     1       8.296   0.099  -1.070  1.00  0.00     0.156 HD
ATOM      6  H22 UNL     1       9.308  -0.687   0.163  1.00  0.00     0.156 HD
ENDROOT
BRANCH   3   7
HETATM    7  C3  UNL     1       6.908   1.640   0.416  1.00  0.00     0.294 C 
BRANCH   7   8
HETATM    8  O1  UNL     1       7.238   2.939   0.791  1.00  0.00    -0.369 OA
ATOM      9  H1  UNL     1       6.556   3.554   0.549  1.00  0.00     0.212 HD
ENDBRANCH   7   8
BRANCH   7  10
HETATM   10  N3  UNL     1       5.617   1.264   0.968  1.00  0.00    -0.287 N 
ATOM     11  H3  UNL     1       5.106   1.880   1.601  1.00  0.00     0.184 HD
BRANCH  10  12
HETATM   12  N4  UNL     1       5.109   0.017   0.590  1.00  0.00    -0.132 N 
ATOM     13  H4  UNL     1       5.639  -0.839   0.753  1.00  0.00     0.205 HD
BRANCH  12  14
HETATM   14  C4  UNL     1       3.952  -0.015   0.031  1.00  0.00     0.726 A 
HETATM   15  N5  UNL     1       3.157   1.005  -0.241  1.00  0.00    -0.116 N 
HETATM   16  N6  UNL     1       2.068   0.572  -0.812  1.00  0.00    -0.117 N 
ATOM     17  H5  UNL     1       3.364   1.982  -0.035  1.00  0.00     0.206 HD
HETATM   18  C5  UNL     1       2.150  -0.759  -0.917  1.00  0.00     0.707 A 
ATOM     19  H6  UNL     1       1.287   1.149  -1.125  1.00  0.00     0.206 HD
HETATM   20  N13 UNL     1       3.345  -1.139  -0.383  1.00  0.00    -0.018 N 
ATOM     21  H13 UNL     1       3.707  -2.090  -0.312  1.00  0.00     0.203 HD
BRANCH  18  22
HETATM   22  N7  UNL     1       1.186  -1.646  -1.478  1.00  0.00    -0.220 N 
ATOM     23  H7  UNL     1       1.402  -2.643  -1.485  1.00  0.00     0.177 HD
BRANCH  22  24
HETATM   24  C6  UNL     1      -0.075  -1.225  -2.037  1.00  0.00     0.199 C 
BRANCH  24  25
HETATM   25  C7  UNL     1      -1.011  -0.619  -0.981  1.00  0.00     0.291 C 
HETATM   26  O2  UNL     1      -1.235  -1.613  -0.048  1.00  0.00    -0.287 OA
HETATM   27  C8  UNL     1      -2.236  -1.925   0.847  1.00  0.00     0.271 C 
HETATM   28  O3  UNL     1      -1.958  -2.796   1.696  1.00  0.00    -0.264 OA
HETATM   29  C9  UNL     1      -3.592  -1.312   0.871  1.00  0.00     0.140 C 
HETATM   30  C10 UNL     1      -4.601  -2.317   0.403  1.00  0.00     0.095 C 
HETATM   31  C14 UNL     1      -3.590  -0.079   0.085  1.00  0.00     0.121 A 
HETATM   32  N8  UNL     1      -4.520  -2.590  -0.884  1.00  0.00    -0.316 N 
HETATM   33  N9  UNL     1      -3.525  -1.904  -1.572  1.00  0.00    -0.296 N 
ATOM     34  H8  UNL     1      -5.142  -3.256  -1.342  1.00  0.00     0.185 HD
HETATM   35  C11 UNL     1      -3.285  -0.500  -1.338  1.00  0.00     0.203 A 
ATOM     36  H9  UNL     1      -2.954  -2.402  -2.255  1.00  0.00     0.184 HD
HETATM   37  O4  UNL     1      -2.040  -0.031  -1.620  1.00  0.00    -0.321 OA
HETATM   38  C12 UNL     1      -4.439   0.279  -1.045  1.00  0.00     0.084 A 
HETATM   39  N10 UNL     1      -5.527   0.936  -1.308  1.00  0.00    -0.234 N 
ATOM     40  H10 UNL     1      -5.772   0.948  -2.298  1.00  0.00     0.201 HD
BRANCH  39  41
HETATM   41  N11 UNL     1      -6.361   1.579  -0.556  1.00  0.00    -0.268 NA
HETATM   42  C13 UNL     1      -7.254   2.268   0.249  1.00  0.00     0.424 C 
HETATM   43  N12 UNL     1      -8.650   1.856   0.312  1.00  0.00    -0.024 NA
HETATM   44  O5  UNL     1      -7.003   3.280   0.989  1.00  0.00    -0.232 OA
ENDBRANCH  39  41
ENDBRANCH  24  25
ENDBRANCH  22  24
ENDBRANCH  18  22
ENDBRANCH  12  14
ENDBRANCH  10  12
ENDBRANCH   7  10
ENDBRANCH   3   7
TORSDOF 9
