REMARK  9 active torsions:
REMARK  status: ('A' for Active; 'I' for Inactive)
REMARK    1  A    between atoms: N1_1  and  C1_4 
REMARK    2  A    between atoms: C4_14  and  N5_15 
REMARK    3  A    between atoms: N7_20  and  O1_22 
REMARK    4  A    between atoms: N10_29  and  C9_30 
REMARK    5  A    between atoms: N11_32  and  C11_33 
REMARK    6  A    between atoms: C11_33  and  C12_34 
REMARK    7  A    between atoms: C12_34  and  C13_35 
REMARK    8  A    between atoms: C13_35  and  N12_36 
REMARK    9  A    between atoms: C13_35  and  C14_40 
ROOT
HETATM    1  C1  UNL     1      -0.280  -4.322  -1.250  1.00  0.00     0.679 A 
HETATM    2  N2  UNL     1      -1.564  -4.762  -1.397  1.00  0.00    -0.175 N 
ATOM      3  H2  UNL     1      -1.709  -5.739  -1.652  1.00  0.00     0.186 HD
HETATM    4  C2  UNL     1      -2.635  -3.998  -1.229  1.00  0.00     0.146 A 
HETATM    5  N3  UNL     1      -3.841  -4.454  -1.375  1.00  0.00    -0.383 N 
ATOM      6  H31 UNL     1      -4.665  -3.866  -1.246  1.00  0.00     0.157 HD
ATOM      7  H32 UNL     1      -3.974  -5.432  -1.631  1.00  0.00     0.157 HD
HETATM    8  C3  UNL     1      -2.455  -2.674  -0.883  1.00  0.00     0.139 A 
HETATM    9  N4  UNL     1      -3.242  -1.644  -0.636  1.00  0.00    -0.182 N 
ATOM     10  H4  UNL     1      -4.261  -1.672  -0.670  1.00  0.00     0.184 HD
HETATM   11  C4  UNL     1      -2.507  -0.538  -0.329  1.00  0.00     0.716 A 
HETATM   12  N10 UNL     1      -1.219  -0.911  -0.392  1.00  0.00    -0.110 N 
HETATM   13  C15 UNL     1      -1.132  -2.233  -0.734  1.00  0.00     0.177 A 
HETATM   14  N15 UNL     1      -0.082  -3.040  -0.915  1.00  0.00    -0.173 N 
ATOM     15  H15 UNL     1       0.866  -2.681  -0.799  1.00  0.00     0.186 HD
ENDROOT
BRANCH  12  16
HETATM   16  C9  UNL     1      -0.064  -0.096  -0.153  1.00  0.00     0.163 A 
HETATM   17  C10 UNL     1       1.011  -0.420   0.642  1.00  0.00     0.162 A 
HETATM   18  N11 UNL     1       1.926   0.592   0.616  1.00  0.00    -0.285 N 
HETATM   19  N13 UNL     1       1.400   1.493  -0.177  1.00  0.00    -0.239 N 
HETATM   20  N14 UNL     1       0.232   1.115  -0.642  1.00  0.00    -0.269 N 
ATOM     21  H13 UNL     1       1.845   2.382  -0.406  1.00  0.00     0.208 HD
ATOM     22  H14 UNL     1      -0.356   1.657  -1.275  1.00  0.00     0.190 HD
BRANCH  18  23
HETATM   23  C11 UNL     1       3.192   0.586   1.339  1.00  0.00     0.152 C 
BRANCH  23  24
HETATM   24  C12 UNL     1       4.284  -0.027   0.532  1.00  0.00     0.066 C 
BRANCH  24  25
HETATM   25  C13 UNL     1       4.622   0.656  -0.756  1.00  0.00     0.285 C 
BRANCH  25  26
HETATM   26  N12 UNL     1       5.684  -0.150  -1.378  1.00  0.00    -0.065 N 
ATOM     27 3H12 UNL     1       6.491  -0.297  -0.772  1.00  0.00     0.275 HD
ATOM     28 2H12 UNL     1       5.435  -1.132  -1.492  1.00  0.00     0.275 HD
ATOM     29 1H12 UNL     1       5.914   0.316  -2.256  1.00  0.00     0.275 HD
ENDBRANCH  25  26
BRANCH  25  30
HETATM   30  C14 UNL     1       5.224   2.002  -0.527  1.00  0.00     0.204 C 
HETATM   31  O2  UNL     1       4.577   2.910  -0.009  1.00  0.00    -0.646 OA
HETATM   32  O3  UNL     1       6.525   2.226  -0.904  1.00  0.00    -0.646 OA
ENDBRANCH  25  30
ENDBRANCH  24  25
ENDBRANCH  23  24
ENDBRANCH  18  23
ENDBRANCH  12  16
BRANCH  11  33
HETATM   33  N5  UNL     1      -3.013   0.754  -0.014  1.00  0.00    -0.059 N 
HETATM   34  N6  UNL     1      -2.812   1.837  -0.830  1.00  0.00    -0.300 N 
HETATM   35  C5  UNL     1      -3.544   3.015  -0.548  1.00  0.00     0.178 A 
ATOM     36  H6  UNL     1      -2.159   1.795  -1.612  1.00  0.00     0.182 HD
HETATM   37  C6  UNL     1      -3.258   3.891   0.563  1.00  0.00     0.061 A 
HETATM   38  C7  UNL     1      -4.525   3.003   0.484  1.00  0.00     0.164 A 
HETATM   39  N7  UNL     1      -2.888   4.721   1.508  1.00  0.00    -0.273 N 
ATOM     40  H7  UNL     1      -3.474   4.843   2.334  1.00  0.00     0.193 HD
HETATM   41  N8  UNL     1      -4.483   1.936   1.442  1.00  0.00    -0.350 N 
HETATM   42  C8  UNL     1      -3.757   0.876   1.184  1.00  0.00     0.227 C 
ATOM     43  H8  UNL     1      -5.011   2.002   2.312  1.00  0.00     0.163 HD
HETATM   44  N9  UNL     1      -3.793  -0.122   2.202  1.00  0.00    -0.061 NA
BRANCH  39  45
HETATM   45  O1  UNL     1      -1.710   5.431   1.391  1.00  0.00    -0.290 OA
ATOM     46  H1  UNL     1      -1.442   6.032   2.076  1.00  0.00     0.244 HD
ENDBRANCH  39  45
ENDBRANCH  11  33
BRANCH   1  47
HETATM   47  N1  UNL     1       0.741  -5.127  -1.432  1.00  0.00    -0.234 N 
ATOM     48  H12 UNL     1       0.590  -6.103  -1.687  1.00  0.00     0.174 HD
ATOM     49  H11 UNL     1       1.700  -4.798  -1.322  1.00  0.00     0.174 HD
ENDBRANCH   1  47
TORSDOF 9
