REMARK  2 active torsions:
REMARK  status: ('A' for Active; 'I' for Inactive)
REMARK    1  A    between atoms: O1_2  and  C2_3 
REMARK    2  A    between atoms: C5_15  and  N5_16 
ROOT
HETATM    1  C2  UNL     1      -1.327  -0.286   0.204  1.00  0.00     0.188 A 
HETATM    2  N1  UNL     1      -1.878  -1.474  -0.054  1.00  0.00    -0.263 N 
ATOM      3  H1  UNL     1      -2.893  -1.564  -0.005  1.00  0.00     0.190 HD
HETATM    4  N2  UNL     1      -1.161  -2.541  -0.371  1.00  0.00    -0.240 N 
ATOM      5  H2  UNL     1      -1.650  -3.417  -0.555  1.00  0.00     0.208 HD
HETATM    6  N3  UNL     1       0.160  -2.527  -0.461  1.00  0.00    -0.279 N 
ATOM      7  H3  UNL     1       0.691  -3.362  -0.708  1.00  0.00     0.189 HD
HETATM    8  C3  UNL     1       0.769  -1.340  -0.207  1.00  0.00     0.149 A 
HETATM    9  C4  UNL     1       2.148  -1.230  -0.277  1.00  0.00     0.290 A 
HETATM   10  O2  UNL     1       2.849  -2.234  -0.577  1.00  0.00    -0.265 OA
HETATM   11  N4  UNL     1       2.716  -0.042  -0.021  1.00  0.00    -0.154 N 
ATOM     12  H4  UNL     1       3.732   0.035  -0.074  1.00  0.00     0.187 HD
HETATM   13  C5  UNL     1       2.003   1.051   0.302  1.00  0.00     0.679 A 
HETATM   14  N6  UNL     1       0.661   0.975   0.378  1.00  0.00    -0.185 N 
ATOM     15  H6  UNL     1       0.110   1.798   0.622  1.00  0.00     0.184 HD
HETATM   16  C6  UNL     1       0.054  -0.205   0.127  1.00  0.00     0.135 A 
ENDROOT
BRANCH  13  17
HETATM   17  N5  UNL     1       2.550   2.201   0.551  1.00  0.00    -0.234 N 
ATOM     18  H52 UNL     1       3.567   2.259   0.493  1.00  0.00     0.174 HD
ATOM     19  H51 UNL     1       2.009   3.030   0.796  1.00  0.00     0.174 HD
ENDBRANCH  13  17
BRANCH   1  20
HETATM   20  O1  UNL     1      -2.045   0.854   0.539  1.00  0.00    -0.338 OA
HETATM   21  C1  UNL     1      -3.452   0.707   0.602  1.00  0.00     0.211 C 
ENDBRANCH   1  20
TORSDOF 2
