REMARK  2 active torsions:
REMARK  status: ('A' for Active; 'I' for Inactive)
REMARK    1  A    between atoms: N3_4  and  N4_6 
REMARK    2  A    between atoms: N4_6  and  C2_8 
ROOT
HETATM    1  C2  UNL     1       1.333   0.004  -0.044  1.00  0.00     0.153 A 
HETATM    2  C3  UNL     1       1.617   1.276   0.352  1.00  0.00     0.159 A 
HETATM    3  N5  UNL     1       2.906   1.285   0.732  1.00  0.00    -0.294 N 
ATOM      4  H5  UNL     1       3.430   2.087   1.083  1.00  0.00     0.187 HD
HETATM    5  N6  UNL     1       3.360   0.068   0.566  1.00  0.00    -0.241 N 
ATOM      6  H6  UNL     1       4.317  -0.216   0.776  1.00  0.00     0.208 HD
HETATM    7  N7  UNL     1       2.440  -0.744   0.097  1.00  0.00    -0.269 N 
ATOM      8  H7  UNL     1       2.544  -1.736  -0.116  1.00  0.00     0.190 HD
ENDROOT
BRANCH   1   9
HETATM    9  N4  UNL     1       0.220  -0.496  -0.493  1.00  0.00    -0.281 N 
ATOM     10  H4  UNL     1       0.143  -1.478  -0.757  1.00  0.00     0.188 HD
BRANCH   9  11
HETATM   11  N3  UNL     1      -0.860   0.373  -0.596  1.00  0.00    -0.274 N 
HETATM   12  C1  UNL     1      -2.023  -0.037  -0.259  1.00  0.00     0.215 C 
HETATM   13  N1  UNL     1      -3.144   0.853  -0.362  1.00  0.00    -0.065 NA
HETATM   14  N2  UNL     1      -2.163  -1.364   0.207  1.00  0.00    -0.065 NA
ATOM     15  H3  UNL     1      -0.726   1.325  -0.936  1.00  0.00     0.189 HD
ENDBRANCH   9  11
ENDBRANCH   1   9
TORSDOF 2
