REMARK  8 active torsions:
REMARK  status: ('A' for Active; 'I' for Inactive)
REMARK    1  A    between atoms: C1_2  and  C2_3 
REMARK       I    between atoms: C1_2  and  N4_25 
REMARK    2  A    between atoms: C2_3  and  N1_4 
REMARK    3  A    between atoms: C2_3  and  C12_17 
REMARK    4  A    between atoms: N1_4  and  C3_6 
REMARK    5  A    between atoms: C3_6  and  C4_7 
REMARK    6  A    between atoms: C4_7  and  O2_8 
REMARK    7  A    between atoms: C4_7  and  C5_10 
REMARK    8  A    between atoms: C5_10  and  C6_11 
ROOT
HETATM    1  C2  UNL     1      -2.148   0.127   0.670  1.00  0.00     0.221 C 
ENDROOT
BRANCH   1   2
HETATM    2  C1  UNL     1      -2.749   1.096  -0.261  1.00  0.00     0.248 C 
HETATM    3  O1  UNL     1      -2.083   1.726  -1.136  1.00  0.00    -0.271 OA
HETATM    4  N4  UNL     1      -4.148   1.377  -0.206  1.00  0.00    -0.350 N 
HETATM    5  C16 UNL     1      -4.873   2.298  -1.095  1.00  0.00     0.126 C 
HETATM    6  C19 UNL     1      -5.066   0.827   0.759  1.00  0.00     0.126 C 
HETATM    7  C17 UNL     1      -6.241   2.412  -0.504  1.00  0.00     0.021 C 
HETATM    8  C18 UNL     1      -6.098   1.948   0.933  1.00  0.00     0.021 C 
ENDBRANCH   1   2
BRANCH   1   9
HETATM    9  N1  UNL     1      -0.744   0.256   0.894  1.00  0.00    -0.402 N 
ATOM     10  H1  UNL     1      -0.379   0.498   1.815  1.00  0.00     0.154 HD
BRANCH   9  11
HETATM   11  C3  UNL     1       0.129   0.038  -0.204  1.00  0.00     0.146 C 
BRANCH  11  12
HETATM   12  C4  UNL     1       1.599   0.172   0.330  1.00  0.00     0.136 C 
BRANCH  12  13
HETATM   13  O2  UNL     1       1.693  -0.838   1.317  1.00  0.00    -0.394 OA
ATOM     14  H2  UNL     1       2.583  -0.757   1.640  1.00  0.00     0.210 HD
ENDBRANCH  12  13
BRANCH  12  15
HETATM   15  C5  UNL     1       2.532  -0.062  -0.811  1.00  0.00     0.038 C 
BRANCH  15  16
HETATM   16  C6  UNL     1       3.953   0.084  -0.436  1.00  0.00    -0.012 C 
HETATM   17  C7  UNL     1       4.865  -0.145  -1.656  1.00  0.00     0.005 C 
HETATM   18  C8  UNL     1       6.160   0.546  -1.332  1.00  0.00     0.000 C 
HETATM   19  C9  UNL     1       6.801   0.015  -0.078  1.00  0.00     0.000 C 
HETATM   20  C10 UNL     1       5.865  -0.269   1.031  1.00  0.00     0.000 C 
HETATM   21  C11 UNL     1       4.508  -0.823   0.614  1.00  0.00     0.005 C 
ENDBRANCH  15  16
ENDBRANCH  12  15
ENDBRANCH  11  12
ENDBRANCH   9  11
ENDBRANCH   1   9
BRANCH   1  22
HETATM   22  C12 UNL     1      -2.477  -1.287   0.297  1.00  0.00     0.056 A 
HETATM   23  C13 UNL     1      -3.202  -1.568  -0.801  1.00  0.00     0.115 A 
HETATM   24  N2  UNL     1      -3.483  -2.841  -1.122  1.00  0.00    -0.372 N 
HETATM   25  C14 UNL     1      -3.030  -3.828  -0.332  1.00  0.00     0.104 A 
ATOM     26  H2  UNL     1      -4.033  -3.055  -1.954  1.00  0.00     0.164 HD
HETATM   27  C15 UNL     1      -2.289  -3.511   0.788  1.00  0.00     0.105 A 
HETATM   28  N3  UNL     1      -1.988  -2.237   1.141  1.00  0.00    -0.365 N 
ATOM     29  H3  UNL     1      -1.440  -2.009   1.971  1.00  0.00     0.165 HD
ENDBRANCH   1  22
TORSDOF 8
