REMARK  6 active torsions:
REMARK  status: ('A' for Active; 'I' for Inactive)
REMARK    1  A    between atoms: C2_2  and  C3_3 
REMARK    2  A    between atoms: C2_2  and  N2_12 
REMARK    3  A    between atoms: C3_3  and  C4_4 
REMARK    4  A    between atoms: C4_4  and  N1_5 
REMARK       I    between atoms: N1_5  and  C5_7 
REMARK    5  A    between atoms: C5_7  and  C6_9 
REMARK       I    between atoms: N2_12  and  C9_14 
REMARK    6  A    between atoms: C9_14  and  C10_16 
ROOT
HETATM    1  C1  UNL     1       0.279   2.857  -1.514  1.00  0.00     0.032 C 
HETATM    2  C2  UNL     1      -0.188   1.969  -0.375  1.00  0.00     0.081 C 
ENDROOT
BRANCH   2   3
HETATM    3  C3  UNL     1       0.980   1.375   0.379  1.00  0.00     0.044 C 
BRANCH   3   4
HETATM    4  C4  UNL     1       1.855   0.536  -0.494  1.00  0.00     0.124 C 
BRANCH   4   5
HETATM    5  N1  UNL     1       2.950   0.003   0.298  1.00  0.00    -0.361 N 
HETATM    6  C5  UNL     1       3.916  -0.829  -0.317  1.00  0.00     0.221 C 
HETATM    7  O1  UNL     1       3.830  -1.104  -1.531  1.00  0.00    -0.273 OA
ATOM      8  H1  UNL     1       3.022   0.227   1.291  1.00  0.00     0.162 HD
BRANCH   6   9
HETATM    9  C6  UNL     1       5.026  -1.369   0.483  1.00  0.00     0.078 A 
HETATM   10  C7  UNL     1       4.566  -1.901   1.855  1.00  0.00     0.015 A 
HETATM   11  C8  UNL     1       5.465  -0.709   1.736  1.00  0.00     0.015 A 
ENDBRANCH   6   9
ENDBRANCH   4   5
ENDBRANCH   3   4
ENDBRANCH   2   3
BRANCH   2  12
HETATM   12  N2  UNL     1      -1.100   0.952  -0.810  1.00  0.00    -0.355 N 
HETATM   13  C9  UNL     1      -2.446   0.855  -0.383  1.00  0.00     0.251 C 
HETATM   14  O2  UNL     1      -2.867   1.712   0.427  1.00  0.00    -0.271 OA
ATOM     15  H2  UNL     1      -0.757   0.254  -1.469  1.00  0.00     0.162 HD
BRANCH  13  16
HETATM   16  C10 UNL     1      -3.343  -0.207  -0.858  1.00  0.00     0.315 C 
HETATM   17  C11 UNL     1      -3.198  -1.548  -0.209  1.00  0.00     0.076 C 
HETATM   18  C12 UNL     1      -4.224  -1.003   0.765  1.00  0.00     0.275 C 
HETATM   19  N3  UNL     1      -4.683  -0.134  -0.304  1.00  0.00     0.098 N 
HETATM   20  C13 UNL     1      -5.610  -0.851  -1.156  1.00  0.00     0.310 C 
ENDBRANCH  13  16
ENDBRANCH   2  12
TORSDOF 6
