REMARK  8 active torsions:
REMARK  status: ('A' for Active; 'I' for Inactive)
REMARK    1  A    between atoms: C3_3  and  N1_4 
REMARK    2  A    between atoms: C11_14  and  C12_15 
REMARK    3  A    between atoms: C14_17  and  O1_18 
REMARK    4  A    between atoms: C16_20  and  O2_21 
REMARK    5  A    between atoms: C17_23  and  O3_24 
REMARK    6  A    between atoms: C21_29  and  N2_30 
REMARK       I    between atoms: N2_30  and  C22_32 
REMARK    7  A    between atoms: C22_32  and  O6_34 
REMARK    8  A    between atoms: O6_34  and  C23_35 
ROOT
HETATM    1  C1  UNL     1      -2.884   4.646  -0.608  1.00  0.00     0.014 C 
HETATM    2  C2  UNL     1      -2.725   3.610  -1.199  1.00  0.00    -0.098 C 
HETATM    3  C3  UNL     1      -2.535   2.316  -1.925  1.00  0.00     0.218 C 
ENDROOT
BRANCH   3   4
HETATM    4  N1  UNL     1      -1.471   1.575  -1.355  1.00  0.00    -0.341 N 
HETATM    5  C4  UNL     1      -0.243   1.354  -2.036  1.00  0.00     0.046 A 
HETATM    6  C5  UNL     1      -0.172   1.525  -3.401  1.00  0.00     0.057 A 
HETATM    7  C9  UNL     1       0.920   0.986  -1.323  1.00  0.00     0.008 A 
HETATM    8  C6  UNL     1       0.996   1.363  -4.144  1.00  0.00     0.074 A 
HETATM    9 CL1  UNL     1       1.007   1.597  -5.880  1.00  0.00    -0.081 Cl
HETATM   10  C7  UNL     1       2.112   1.016  -3.450  1.00  0.00     0.139 A 
HETATM   11  F1  UNL     1       3.275   0.851  -4.138  1.00  0.00    -0.204 F 
HETATM   12  C8  UNL     1       2.060   0.838  -2.076  1.00  0.00     0.058 A 
HETATM   13  C10 UNL     1       0.923   0.820   0.115  1.00  0.00     0.027 C 
HETATM   14  C11 UNL     1       1.880   0.363   0.821  1.00  0.00     0.027 C 
HETATM   15  C20 UNL     1      -0.410   1.093   0.751  1.00  0.00     0.202 C 
HETATM   16  O4  UNL     1      -0.417   1.362   1.953  1.00  0.00    -0.288 OA
HETATM   17  C21 UNL     1      -1.674   1.049  -0.006  1.00  0.00     0.266 C 
BRANCH  14  18
HETATM   18  C12 UNL     1       3.202  -0.154   0.693  1.00  0.00    -0.030 A 
HETATM   19  C13 UNL     1       4.253   0.579   1.257  1.00  0.00     0.051 A 
HETATM   20  C14 UNL     1       5.544   0.126   1.261  1.00  0.00     0.104 A 
HETATM   21  C16 UNL     1       5.853  -1.100   0.692  1.00  0.00     0.133 A 
HETATM   22  C17 UNL     1       4.838  -1.842   0.131  1.00  0.00     0.104 A 
HETATM   23  C19 UNL     1       3.543  -1.379   0.133  1.00  0.00     0.051 A 
BRANCH  20  24
HETATM   24  O1  UNL     1       6.540   0.885   1.830  1.00  0.00    -0.353 OA
HETATM   25  C15 UNL     1       6.349   2.143   2.440  1.00  0.00     0.210 C 
ENDBRANCH  20  24
BRANCH  21  26
HETATM   26  O2  UNL     1       7.168  -1.529   0.711  1.00  0.00    -0.356 OA
ATOM     27  H2  UNL     1       7.380  -2.369   0.321  1.00  0.00     0.218 HD
ENDBRANCH  21  26
BRANCH  22  28
HETATM   28  O3  UNL     1       5.196  -3.061  -0.427  1.00  0.00    -0.353 OA
HETATM   29  C18 UNL     1       4.213  -3.878  -1.027  1.00  0.00     0.210 C 
ENDBRANCH  22  28
ENDBRANCH  14  18
BRANCH  17  30
HETATM   30  N2  UNL     1      -2.271  -0.243   0.033  1.00  0.00    -0.308 N 
HETATM   31  C22 UNL     1      -3.566  -0.403   0.617  1.00  0.00     0.363 C 
HETATM   32  O5  UNL     1      -4.167   0.600   1.091  1.00  0.00    -0.238 OA
ATOM     33  H2  UNL     1      -1.778  -1.048  -0.353  1.00  0.00     0.167 HD
BRANCH  31  34
HETATM   34  O6  UNL     1      -4.243  -1.597   0.713  1.00  0.00    -0.294 OA
BRANCH  34  35
HETATM   35  C23 UNL     1      -5.520  -1.701   1.293  1.00  0.00     0.061 C 
HETATM   36  C24 UNL     1      -6.467  -0.827   0.505  1.00  0.00     0.046 C 
HETATM   37  C25 UNL     1      -5.603  -1.305   2.726  1.00  0.00     0.046 C 
HETATM   38  C26 UNL     1      -5.989  -3.148   1.179  1.00  0.00     0.046 C 
ENDBRANCH  34  35
ENDBRANCH  31  34
ENDBRANCH  17  30
ENDBRANCH   3   4
TORSDOF 8
