REMARK  8 active torsions:
REMARK  status: ('A' for Active; 'I' for Inactive)
REMARK       I    between atoms: C2_2  and  N1_4 
REMARK    1  A    between atoms: N1_4  and  C3_6 
REMARK    2  A    between atoms: C3_6  and  C4_7 
REMARK    3  A    between atoms: C3_6  and  C15_42 
REMARK       I    between atoms: C4_7  and  N2_9 
REMARK    4  A    between atoms: C5_11  and  N4_12 
REMARK    5  A    between atoms: C6_16  and  N5_17 
REMARK    6  A    between atoms: C11_27  and  C12_28 
REMARK    7  A    between atoms: C12_28  and  N8_29 
REMARK    8  A    between atoms: C12_28  and  O4_33 
ROOT
HETATM    1  C4  UNL     1      -2.528  -0.484  -0.928  1.00  0.00     0.265 C 
HETATM    2  O2  UNL     1      -3.263  -1.503  -0.904  1.00  0.00    -0.269 OA
HETATM    3  N2  UNL     1      -1.108  -0.602  -0.727  1.00  0.00    -0.195 N 
HETATM    4  N3  UNL     1      -0.274   0.484  -0.761  1.00  0.00    -0.091 NA
HETATM    5  C5  UNL     1       1.053   0.244  -0.240  1.00  0.00     0.338 C 
HETATM    6  C6  UNL     1       0.916  -0.746   0.870  1.00  0.00     0.242 C 
HETATM    7  N10 UNL     1       0.442  -1.985   0.300  1.00  0.00    -0.338 N 
ATOM      8  H10 UNL     1       0.881  -2.880   0.514  1.00  0.00     0.164 HD
HETATM    9  C14 UNL     1      -0.568  -1.894  -0.494  1.00  0.00     0.211 C 
HETATM   10  N11 UNL     1      -1.133  -3.060  -1.122  1.00  0.00    -0.062 NA
ENDROOT
BRANCH   6  11
HETATM   11  N5  UNL     1       2.097  -1.004   1.608  1.00  0.00    -0.295 N 
HETATM   12  C7  UNL     1       2.101  -1.469   2.868  1.00  0.00     0.083 A 
HETATM   13  C8  UNL     1       0.909  -1.794   3.712  1.00  0.00     0.089 C 
HETATM   14  N6  UNL     1       3.368  -1.607   3.283  1.00  0.00    -0.338 N 
HETATM   15  C9  UNL     1       4.186  -1.231   2.287  1.00  0.00     0.147 A 
ATOM     16  H6  UNL     1       3.661  -1.941   4.201  1.00  0.00     0.167 HD
HETATM   17  C10 UNL     1       5.555  -1.162   2.146  1.00  0.00     0.277 A 
HETATM   18  C13 UNL     1       3.378  -0.852   1.237  1.00  0.00     0.145 A 
HETATM   19  O3  UNL     1       6.256  -1.514   3.121  1.00  0.00    -0.266 OA
HETATM   20  N7  UNL     1       6.123  -0.726   0.984  1.00  0.00    -0.307 N 
HETATM   21  C11 UNL     1       5.313  -0.364  -0.025  1.00  0.00     0.142 A 
ATOM     22  H7  UNL     1       7.137  -0.676   0.884  1.00  0.00     0.170 HD
HETATM   23  N9  UNL     1       3.967  -0.435   0.124  1.00  0.00    -0.326 N 
ATOM     24  H9  UNL     1       3.378  -0.153  -0.659  1.00  0.00     0.169 HD
BRANCH  21  25
HETATM   25  C12 UNL     1       5.936   0.109  -1.286  1.00  0.00     0.385 C 
BRANCH  25  26
HETATM   26  N8  UNL     1       5.258  -0.518  -2.400  1.00  0.00    -0.046 N 
ATOM     27  H83 UNL     1       5.246  -1.535  -2.328  1.00  0.00     0.277 HD
ATOM     28  H82 UNL     1       4.250  -0.364  -2.381  1.00  0.00     0.277 HD
ATOM     29  H81 UNL     1       5.686  -0.193  -3.267  1.00  0.00     0.277 HD
ENDBRANCH  25  26
BRANCH  25  30
HETATM   30  O4  UNL     1       5.929   1.497  -1.392  1.00  0.00    -0.364 OA
ATOM     31  H4  UNL     1       6.328   1.800  -2.199  1.00  0.00     0.212 HD
ENDBRANCH  25  30
ENDBRANCH  21  25
ENDBRANCH   6  11
BRANCH   5  32
HETATM   32  N4  UNL     1       1.527   1.536   0.274  1.00  0.00    -0.056 N 
ATOM     33  H43 UNL     1       1.491   2.286  -0.416  1.00  0.00     0.276 HD
ATOM     34  H42 UNL     1       0.894   1.961   0.952  1.00  0.00     0.276 HD
ATOM     35  H41 UNL     1       2.463   1.367   0.642  1.00  0.00     0.276 HD
ENDBRANCH   5  32
BRANCH   1  36
HETATM   36  C3  UNL     1      -3.182   0.824  -1.169  1.00  0.00     0.182 C 
BRANCH  36  37
HETATM   37  N1  UNL     1      -4.593   0.577  -1.392  1.00  0.00    -0.348 N 
HETATM   38  C2  UNL     1      -5.267   1.024  -2.562  1.00  0.00     0.214 C 
HETATM   39  C1  UNL     1      -6.693   0.766  -2.770  1.00  0.00     0.117 C 
HETATM   40  O1  UNL     1      -4.626   1.654  -3.439  1.00  0.00    -0.274 OA
ATOM     41  H1  UNL     1      -5.121   0.065  -0.685  1.00  0.00     0.163 HD
ENDBRANCH  36  37
BRANCH  36  42
HETATM   42  C15 UNL     1      -3.107   1.624   0.127  1.00  0.00     0.009 C 
HETATM   43  C16 UNL     1      -3.875   2.924   0.009  1.00  0.00     0.012 C 
HETATM   44  C17 UNL     1      -3.642   0.871   1.314  1.00  0.00     0.012 C 
ENDBRANCH  36  42
ENDBRANCH   1  36
TORSDOF 8
