REMARK  4 active torsions:
REMARK  status: ('A' for Active; 'I' for Inactive)
REMARK    1  A    between atoms: C2_2  and  C4_4 
REMARK    2  A    between atoms: C4_4  and  O1_6 
REMARK    3  A    between atoms: O1_6  and  C6_7 
REMARK    4  A    between atoms: C8_10  and  O3_11 
ROOT
HETATM    1  C6  UNL     1      -1.253  -0.511   0.425  1.00  0.00     0.154 C 
HETATM    2  C7  UNL     1      -1.860  -0.114   1.755  1.00  0.00     0.203 C 
HETATM    3  O2  UNL     1      -3.116   0.370   1.519  1.00  0.00    -0.358 OA
HETATM    4  C8  UNL     1      -3.187   0.747   0.177  1.00  0.00     0.263 C 
HETATM    5  C9  UNL     1      -2.436  -0.386  -0.491  1.00  0.00     0.068 C 
HETATM    6  C10 UNL     1      -2.054  -0.067  -1.908  1.00  0.00     0.017 C 
ENDROOT
BRANCH   1   7
HETATM    7  O1  UNL     1      -0.190   0.301   0.074  1.00  0.00    -0.378 OA
BRANCH   7   8
HETATM    8  C4  UNL     1       0.972  -0.416  -0.185  1.00  0.00     0.121 C 
HETATM    9  C5  UNL     1       1.448  -0.281  -1.605  1.00  0.00     0.040 C 
BRANCH   8  10
HETATM   10  C2  UNL     1       2.064  -0.105   0.816  1.00  0.00     0.006 C 
HETATM   11  C1  UNL     1       3.218  -1.064   0.610  1.00  0.00     0.012 C 
HETATM   12  C3  UNL     1       2.543   1.317   0.716  1.00  0.00     0.012 C 
ENDBRANCH   8  10
ENDBRANCH   7   8
ENDBRANCH   1   7
BRANCH   4  13
HETATM   13  O3  UNL     1      -2.471   1.918  -0.065  1.00  0.00    -0.371 OA
ATOM     14  H3  UNL     1      -2.519   2.175  -0.978  1.00  0.00     0.212 HD
ENDBRANCH   4  13
TORSDOF 4
