REMARK  1 active torsions:
REMARK  status: ('A' for Active; 'I' for Inactive)
REMARK    1  A    between atoms: C3_6  and  C5_8 
ROOT
HETATM    1  C1  UNL     1      -0.079   2.727  -0.765  1.00  0.00     0.045 C 
HETATM    2  C2  UNL     1      -0.307   1.390  -0.144  1.00  0.00     0.212 C 
HETATM    3  N1  UNL     1      -1.509   0.798  -0.743  1.00  0.00    -0.050 N 
ATOM      4  H11 UNL     1      -1.379   0.540  -1.721  1.00  0.00     0.279 HD
ATOM      5  H12 UNL     1      -2.259   1.476  -0.881  1.00  0.00     0.279 HD
HETATM    6  C3  UNL     1      -1.903  -0.312   0.081  1.00  0.00     0.222 C 
HETATM    7  C4  UNL     1      -2.323   0.117   1.466  1.00  0.00     0.056 C 
HETATM    8  C6  UNL     1      -0.823  -1.355   0.178  1.00  0.00     0.082 C 
HETATM    9  C7  UNL     1       0.507  -0.861  -0.150  1.00  0.00    -0.072 C 
HETATM   10  C8  UNL     1       0.781   0.428  -0.308  1.00  0.00    -0.042 C 
HETATM   11  C9  UNL     1       2.192   0.727  -0.644  1.00  0.00     0.115 C 
HETATM   12  C10 UNL     1       3.171   0.042   0.258  1.00  0.00     0.247 C 
HETATM   13  F4  UNL     1       4.413  -0.111  -0.325  1.00  0.00    -0.206 F 
HETATM   14  F5  UNL     1       3.393   0.854   1.375  1.00  0.00    -0.206 F 
HETATM   15  C11 UNL     1       2.703  -1.322   0.655  1.00  0.00     0.083 C 
HETATM   16  C12 UNL     1       1.651  -1.792  -0.323  1.00  0.00     0.040 C 
ENDROOT
BRANCH   6  17
HETATM   17  C5  UNL     1      -3.122  -0.982  -0.561  1.00  0.00     0.420 C 
HETATM   18  F1  UNL     1      -2.770  -1.418  -1.822  1.00  0.00    -0.168 F 
HETATM   19  F2  UNL     1      -3.496  -2.038   0.247  1.00  0.00    -0.168 F 
HETATM   20  F3  UNL     1      -4.192  -0.107  -0.613  1.00  0.00    -0.168 F 
ENDBRANCH   6  17
TORSDOF 1
