REMARK  1 active torsions:
REMARK  status: ('A' for Active; 'I' for Inactive)
REMARK    1  A    between atoms: C4_4  and  C5_5 
ROOT
HETATM    1  C1  UNL     1      -3.473   0.187  -0.717  1.00  0.00     0.000 A 
HETATM    2  C2  UNL     1      -2.831  -1.010  -0.583  1.00  0.00     0.001 A 
HETATM    3  C3  UNL     1      -1.478  -1.104  -0.251  1.00  0.00     0.012 A 
HETATM    4  C4  UNL     1      -0.718   0.041  -0.038  1.00  0.00    -0.026 A 
HETATM    5  C11 UNL     1      -1.385   1.242  -0.175  1.00  0.00     0.012 A 
HETATM    6  C12 UNL     1      -2.738   1.326  -0.510  1.00  0.00     0.001 A 
ENDROOT
BRANCH   4   7
HETATM    7  C5  UNL     1       0.709  -0.038   0.242  1.00  0.00    -0.026 A 
HETATM    8  C6  UNL     1       1.484   1.094   0.198  1.00  0.00     0.012 A 
HETATM    9  C7  UNL     1       2.868   1.028   0.364  1.00  0.00     0.001 A 
HETATM   10  C8  UNL     1       3.477  -0.211   0.582  1.00  0.00     0.000 A 
HETATM   11  C9  UNL     1       2.711  -1.357   0.630  1.00  0.00     0.001 A 
HETATM   12  C10 UNL     1       1.329  -1.251   0.459  1.00  0.00     0.012 A 
ENDBRANCH   4   7
TORSDOF 1
