REMARK  5 active torsions:
REMARK  status: ('A' for Active; 'I' for Inactive)
REMARK    1  A    between atoms: O1_1  and  C1_3 
REMARK    2  A    between atoms: C1_3  and  C2_4 
REMARK    3  A    between atoms: C2_4  and  C3_5 
REMARK    4  A    between atoms: C3_5  and  C4_6 
REMARK    5  A    between atoms: C4_6  and  N1_7 
ROOT
HETATM    1  C2  UNL     1       1.301   0.006  -0.740  1.00  0.00     0.043 C 
ENDROOT
BRANCH   1   2
HETATM    2  C1  UNL     1       2.376  -1.000  -0.407  1.00  0.00     0.058 C 
HETATM    3  C9  UNL     1       3.679  -0.512  -0.999  1.00  0.00     0.038 C 
HETATM    4  C10 UNL     1       4.055   0.617  -0.063  1.00  0.00     0.003 C 
HETATM    5  C11 UNL     1       3.475   0.235   1.279  1.00  0.00     0.003 C 
HETATM    6  C12 UNL     1       2.713  -1.046   1.065  1.00  0.00     0.038 C 
BRANCH   2   7
HETATM    7  O1  UNL     1       2.052  -2.274  -0.886  1.00  0.00    -0.390 OA
ATOM      8  H1  UNL     1       2.729  -2.907  -0.676  1.00  0.00     0.210 HD
ENDBRANCH   2   7
ENDBRANCH   1   2
BRANCH   1   9
HETATM    9  C3  UNL     1      -0.039  -0.357  -0.135  1.00  0.00     0.047 C 
BRANCH   9  10
HETATM   10  C4  UNL     1      -1.021   0.716  -0.539  1.00  0.00     0.058 C 
BRANCH  10  11
HETATM   11  N1  UNL     1      -2.323   0.555  -0.060  1.00  0.00    -0.389 N 
HETATM   12  C5  UNL     1      -3.132  -0.491  -0.531  1.00  0.00     0.148 C 
HETATM   13  C6  UNL     1      -4.461  -0.425   0.235  1.00  0.00     0.187 C 
HETATM   14  O2  UNL     1      -4.245  -0.281   1.587  1.00  0.00    -0.388 OA
HETATM   15  C7  UNL     1      -3.703   0.956   1.919  1.00  0.00     0.187 C 
HETATM   16  C8  UNL     1      -2.908   1.548   0.757  1.00  0.00     0.148 C 
ENDBRANCH  10  11
ENDBRANCH   9  10
ENDBRANCH   1   9
TORSDOF 5
