REMARK  4 active torsions:
REMARK  status: ('A' for Active; 'I' for Inactive)
REMARK    1  A    between atoms: C2_2  and  C3_3 
REMARK    2  A    between atoms: C3_3  and  N1_5 
REMARK    3  A    between atoms: N2_8  and  C6_9 
REMARK    4  A    between atoms: C6_9  and  C7_10 
ROOT
HETATM    1  N1  UNL     1       1.749   0.201  -0.459  1.00  0.00    -0.353 N 
HETATM    2  C4  UNL     1       1.275  -0.685   0.488  1.00  0.00     0.094 C 
HETATM    3  C5  UNL     1       0.074  -0.110   1.219  1.00  0.00     0.317 C 
HETATM    4  N2  UNL     1      -1.011   0.226   0.344  1.00  0.00     0.098 N 
HETATM    5  C10 UNL     1      -0.629   0.327  -1.024  1.00  0.00     0.317 C 
HETATM    6  C11 UNL     1       0.767   0.929  -1.141  1.00  0.00     0.094 C 
ENDROOT
BRANCH   1   7
HETATM    7  C3  UNL     1       3.050   0.174  -0.938  1.00  0.00     0.183 C 
HETATM    8  S1  UNL     1       3.625  -1.455  -1.568  1.00  0.00    -0.065 SA
BRANCH   7   9
HETATM    9  C2  UNL     1       4.048   0.483   0.201  1.00  0.00    -0.000 C 
HETATM   10  C1  UNL     1       4.373   1.668   0.464  1.00  0.00     0.010 C 
ENDBRANCH   7   9
ENDBRANCH   1   7
BRANCH   4  11
HETATM   11  C6  UNL     1      -2.173  -0.535   0.609  1.00  0.00     0.277 C 
BRANCH  11  12
HETATM   12  C7  UNL     1      -3.337  -0.171  -0.293  1.00  0.00     0.014 A 
HETATM   13  C8  UNL     1      -4.606  -1.010  -0.003  1.00  0.00     0.007 A 
HETATM   14  C9  UNL     1      -4.569   0.467   0.236  1.00  0.00     0.007 A 
ENDBRANCH  11  12
ENDBRANCH   4  11
TORSDOF 4
