REMARK  4 active torsions:
REMARK  status: ('A' for Active; 'I' for Inactive)
REMARK    1  A    between atoms: C1_1  and  C2_2 
REMARK    2  A    between atoms: C1_1  and  C8_11 
REMARK    3  A    between atoms: C2_2  and  C3_3 
REMARK    4  A    between atoms: C8_11  and  N2_12 
ROOT
HETATM    1  C2  UNL     1       0.602   1.009   0.836  1.00  0.00     0.006 C 
ENDROOT
BRANCH   1   2
HETATM    2  C1  UNL     1      -0.167   1.778  -0.220  1.00  0.00     0.030 C 
BRANCH   2   3
HETATM    3  C8  UNL     1      -1.025   0.852  -1.059  1.00  0.00     0.272 C 
BRANCH   3   4
HETATM    4  N2  UNL     1      -1.979   0.174  -0.249  1.00  0.00     0.092 N 
HETATM    5  C9  UNL     1      -3.014   1.013   0.284  1.00  0.00     0.298 C 
HETATM    6  C10 UNL     1      -4.280   0.237   0.565  1.00  0.00     0.198 C 
HETATM    7  O1  UNL     1      -4.083  -1.059   0.966  1.00  0.00    -0.388 OA
HETATM    8  C11 UNL     1      -3.223  -1.787   0.186  1.00  0.00     0.198 C 
HETATM    9  C12 UNL     1      -2.592  -0.943  -0.925  1.00  0.00     0.298 C 
ENDBRANCH   3   4
ENDBRANCH   2   3
ENDBRANCH   1   2
BRANCH   1  10
HETATM   10  C3  UNL     1       1.523  -0.014   0.192  1.00  0.00    -0.011 C 
HETATM   11  C4  UNL     1       2.516   0.669  -0.723  1.00  0.00     0.032 C 
HETATM   12  C5  UNL     1       3.911   0.200  -0.515  1.00  0.00     0.232 C 
HETATM   13  N1  UNL     1       4.092  -1.203  -0.359  1.00  0.00    -0.075 N 
HETATM   14  C6  UNL     1       3.116  -1.821   0.512  1.00  0.00     0.232 C 
ATOM     15  H12 UNL     1       4.109  -1.667  -1.267  1.00  0.00     0.277 HD
ATOM     16  H11 UNL     1       5.039  -1.411  -0.043  1.00  0.00     0.277 HD
HETATM   17  C7  UNL     1       2.342  -0.735   1.247  1.00  0.00     0.032 C 
ENDBRANCH   1  10
TORSDOF 4
