REMARK  6 active torsions:
REMARK  status: ('A' for Active; 'I' for Inactive)
REMARK       I    between atoms: C1_2  and  N1_3 
REMARK    1  A    between atoms: C1_2  and  C13_18 
REMARK    2  A    between atoms: N1_3  and  C2_5 
REMARK    3  A    between atoms: C5_8  and  C6_9 
REMARK    4  A    between atoms: C6_9  and  N2_10 
REMARK       I    between atoms: N2_10  and  C7_11 
REMARK    5  A    between atoms: C7_11  and  C8_13 
REMARK    6  A    between atoms: C20_26  and  C21_27 
ROOT
HETATM    1  O1  UNL     1      -1.584   1.426  -2.573  1.00  0.00    -0.268 OA
HETATM    2  C1  UNL     1      -2.149   1.162  -1.448  1.00  0.00     0.254 C 
HETATM    3  N1  UNL     1      -1.329   0.606  -0.464  1.00  0.00    -0.352 N 
ATOM      4  H1  UNL     1      -1.744   0.404   0.445  1.00  0.00     0.163 HD
ENDROOT
BRANCH   2   5
HETATM    5  C13 UNL     1      -3.561   1.488  -1.362  1.00  0.00     0.062 A 
HETATM    6  C14 UNL     1      -3.990   2.754  -1.814  1.00  0.00     0.050 A 
HETATM    7 CL1  UNL     1      -2.794   3.887  -2.395  1.00  0.00    -0.083 Cl
HETATM    8  C15 UNL     1      -5.316   3.068  -1.786  1.00  0.00     0.028 A 
HETATM    9  C16 UNL     1      -6.220   2.144  -1.317  1.00  0.00     0.039 A 
HETATM   10  C17 UNL     1      -5.804   0.909  -0.877  1.00  0.00     0.076 A 
HETATM   11  C18 UNL     1      -4.443   0.561  -0.897  1.00  0.00    -0.006 A 
HETATM   12  O5  UNL     1      -6.691  -0.046  -0.398  1.00  0.00    -0.350 OA
HETATM   13  C19 UNL     1      -4.154  -0.817  -0.453  1.00  0.00     0.060 C 
HETATM   14  C20 UNL     1      -4.892  -0.969   0.891  1.00  0.00     0.115 C 
HETATM   15  C22 UNL     1      -6.390  -1.026   0.561  1.00  0.00     0.191 C 
BRANCH  14  16
HETATM   16  C21 UNL     1      -4.447  -2.146   1.618  1.00  0.00     0.179 C 
HETATM   17  O3  UNL     1      -3.969  -2.043   2.775  1.00  0.00    -0.648 OA
HETATM   18  O4  UNL     1      -4.534  -3.405   1.062  1.00  0.00    -0.648 OA
ENDBRANCH  14  16
ENDBRANCH   2   5
BRANCH   3  19
HETATM   19  C2  UNL     1       0.066   0.299  -0.651  1.00  0.00     0.084 C 
HETATM   20  C3  UNL     1       0.914   1.423  -0.066  1.00  0.00     0.026 C 
HETATM   21  C4  UNL     1       2.352   1.259  -0.560  1.00  0.00     0.013 C 
HETATM   22  C5  UNL     1       2.666  -0.181  -0.778  1.00  0.00     0.038 C 
HETATM   23  C11 UNL     1       1.993  -0.993   0.286  1.00  0.00     0.013 C 
HETATM   24  C12 UNL     1       0.497  -1.005  -0.074  1.00  0.00     0.026 C 
BRANCH  22  25
HETATM   25  C6  UNL     1       4.100  -0.522  -1.037  1.00  0.00     0.163 C 
BRANCH  25  26
HETATM   26  N2  UNL     1       5.060  -0.217  -0.140  1.00  0.00    -0.387 NA
HETATM   27  C7  UNL     1       6.049   0.098   0.785  1.00  0.00     0.295 C 
HETATM   28  O2  UNL     1       6.351   1.270   1.160  1.00  0.00    -0.257 OA
BRANCH  27  29
HETATM   29  C8  UNL     1       6.869  -1.004   1.434  1.00  0.00     0.093 A 
HETATM   30  C9  UNL     1       8.297  -0.680   1.764  1.00  0.00     0.016 A 
HETATM   31  C10 UNL     1       7.267  -0.726   2.854  1.00  0.00     0.016 A 
ENDBRANCH  27  29
ENDBRANCH  25  26
ENDBRANCH  22  25
ENDBRANCH   3  19
TORSDOF 6
