REMARK  6 active torsions:
REMARK  status: ('A' for Active; 'I' for Inactive)
REMARK    1  A    between atoms: C2_2  and  C3_3 
REMARK    2  A    between atoms: C3_3  and  N1_4 
REMARK    3  A    between atoms: N1_4  and  C4_6 
REMARK    4  A    between atoms: C4_6  and  C5_7 
REMARK    5  A    between atoms: C5_7  and  C6_8 
REMARK    6  A    between atoms: C6_8  and  C7_9 
ROOT
HETATM    1  C5  UNL     1      -1.062  -0.270   0.163  1.00  0.00     0.045 C 
ENDROOT
BRANCH   1   2
HETATM    2  C4  UNL     1      -1.518   0.556  -0.997  1.00  0.00     0.060 C 
BRANCH   2   3
HETATM    3  N1  UNL     1      -2.689   1.304  -0.867  1.00  0.00    -0.379 N 
ATOM      4  H1  UNL     1      -2.588   2.318  -0.832  1.00  0.00     0.164 HD
BRANCH   3   5
HETATM    5  C3  UNL     1      -3.973   0.798  -0.781  1.00  0.00     0.086 C 
BRANCH   5   6
HETATM    6  C2  UNL     1      -4.322   0.070   0.462  1.00  0.00     0.007 C 
HETATM    7  C1  UNL     1      -4.761  -1.189   0.498  1.00  0.00     0.012 C 
ENDBRANCH   5   6
ENDBRANCH   3   5
ENDBRANCH   2   3
ENDBRANCH   1   2
BRANCH   1   8
HETATM    8  C6  UNL     1       0.250  -0.978  -0.118  1.00  0.00     0.009 C 
BRANCH   8   9
HETATM    9  C7  UNL     1       1.391  -0.056  -0.422  1.00  0.00    -0.014 C 
HETATM   10  C8  UNL     1       1.717   0.900   0.659  1.00  0.00     0.004 C 
HETATM   11  C9  UNL     1       2.792   0.458   1.604  1.00  0.00     0.000 C 
HETATM   12  C10 UNL     1       4.016  -0.068   0.955  1.00  0.00     0.000 C 
HETATM   13  C11 UNL     1       3.821  -0.189  -0.539  1.00  0.00     0.000 C 
HETATM   14  C12 UNL     1       2.568  -0.977  -0.763  1.00  0.00     0.004 C 
ENDBRANCH   8   9
ENDBRANCH   1   8
TORSDOF 6
