REMARK  9 active torsions:
REMARK  status: ('A' for Active; 'I' for Inactive)
REMARK    1  A    between atoms: C2_2  and  C4_4 
REMARK    2  A    between atoms: C4_4  and  C5_5 
REMARK    3  A    between atoms: C5_5  and  C6_6 
REMARK    4  A    between atoms: C6_6  and  C7_7 
REMARK    5  A    between atoms: C7_7  and  C8_8 
REMARK    6  A    between atoms: C8_8  and  C9_9 
REMARK    7  A    between atoms: C15_17  and  C16_18 
REMARK    8  A    between atoms: C17_19  and  C18_20 
REMARK    9  A    between atoms: C18_20  and  O3_23 
ROOT
HETATM    1  C6  UNL     1      -0.289  -0.732  -0.363  1.00  0.00     0.087 C 
HETATM    2  O1  UNL     1      -0.681  -1.852  -1.180  1.00  0.00    -0.308 OA
HETATM    3  C12 UNL     1       0.054  -2.922  -0.698  1.00  0.00     0.264 C 
HETATM    4  O2  UNL     1      -0.329  -4.128  -0.508  1.00  0.00    -0.265 OA
HETATM    5  C13 UNL     1       1.400  -2.404  -0.434  1.00  0.00     0.092 C 
HETATM    6  C14 UNL     1       2.275  -2.752  -1.621  1.00  0.00     0.021 C 
HETATM    7  C15 UNL     1       1.205  -0.869  -0.338  1.00  0.00     0.057 C 
ENDROOT
BRANCH   1   8
HETATM    8  C5  UNL     1      -0.946  -0.987   0.987  1.00  0.00     0.119 C 
BRANCH   8   9
HETATM    9  C4  UNL     1      -2.332  -1.213   0.811  1.00  0.00    -0.176 C 
BRANCH   9  10
HETATM   10  C2  UNL     1      -3.575  -1.415   0.654  1.00  0.00     0.044 C 
HETATM   11  C1  UNL     1      -4.700  -0.571   1.106  1.00  0.00     0.022 C 
HETATM   12  C3  UNL     1      -4.069  -2.676  -0.090  1.00  0.00     0.022 C 
ENDBRANCH   9  10
ENDBRANCH   8   9
ENDBRANCH   1   8
BRANCH   1  13
HETATM   13  C7  UNL     1      -0.832   0.470  -1.061  1.00  0.00     0.041 C 
BRANCH  13  14
HETATM   14  C8  UNL     1      -0.670   1.750  -0.326  1.00  0.00     0.007 C 
BRANCH  14  15
HETATM   15  C9  UNL     1      -1.277   2.927  -1.062  1.00  0.00    -0.014 A 
HETATM   16  C10 UNL     1      -2.810   2.816  -1.319  1.00  0.00     0.005 A 
HETATM   17  C11 UNL     1      -2.265   3.738  -0.286  1.00  0.00     0.005 A 
ENDBRANCH  14  15
ENDBRANCH  13  14
ENDBRANCH   1  13
BRANCH   7  18
HETATM   18  C16 UNL     1       1.821  -0.374   0.887  1.00  0.00    -0.019 C 
HETATM   19  C17 UNL     1       2.797   0.465   0.995  1.00  0.00     0.006 C 
BRANCH  19  20
HETATM   20  C18 UNL     1       3.639   1.218   0.091  1.00  0.00     0.068 C 
HETATM   21  C19 UNL     1       3.248   1.437  -1.313  1.00  0.00     0.050 C 
HETATM   22  C20 UNL     1       4.993   0.464   0.043  1.00  0.00     0.050 C 
BRANCH  20  23
HETATM   23  O3  UNL     1       3.918   2.508   0.650  1.00  0.00    -0.387 OA
ATOM     24  H3  UNL     1       4.471   3.002   0.056  1.00  0.00     0.211 HD
ENDBRANCH  20  23
ENDBRANCH  19  20
ENDBRANCH   7  18
TORSDOF 9
