REMARK  1 active torsions:
REMARK  status: ('A' for Active; 'I' for Inactive)
REMARK    1  A    between atoms: C2_3  and  C4_6 
REMARK       I    between atoms: C4_6  and  N3_8 
ROOT
HETATM    1  N1  UNL     1      -2.168   2.259  -0.688  1.00  0.00    -0.195 NA
HETATM    2  C1  UNL     1      -1.657   1.425  -0.070  1.00  0.00     0.088 C 
HETATM    3  C2  UNL     1      -1.004   0.373   0.741  1.00  0.00     0.291 C 
HETATM    4  C3  UNL     1      -1.688  -0.918   0.548  1.00  0.00     0.088 C 
HETATM    5  N2  UNL     1      -2.243  -1.930   0.389  1.00  0.00    -0.195 NA
ENDROOT
BRANCH   3   6
HETATM    6  C4  UNL     1       0.379   0.194   0.230  1.00  0.00     0.259 C 
HETATM    7  O1  UNL     1       0.825   0.866  -0.731  1.00  0.00    -0.270 OA
HETATM    8  N3  UNL     1       1.247  -0.759   0.823  1.00  0.00    -0.288 N 
HETATM    9  S1  UNL     1       2.892  -1.025   0.271  1.00  0.00     0.045 SA
ATOM     10  H3  UNL     1       0.900  -1.314   1.605  1.00  0.00     0.178 HD
ENDBRANCH   3   6
TORSDOF 1
