REMARK  3 active torsions:
REMARK  status: ('A' for Active; 'I' for Inactive)
REMARK    1  A    between atoms: C2_2  and  N1_4 
REMARK    2  A    between atoms: C7_8  and  C8_9 
REMARK    3  A    between atoms: C9_14  and  N3_15 
ROOT
HETATM    1  N1  UNL     1      -1.036  -0.364   0.458  1.00  0.00    -0.389 N 
HETATM    2  C4  UNL     1      -0.994  -1.729   0.131  1.00  0.00     0.058 C 
HETATM    3  C5  UNL     1       0.368  -2.279   0.099  1.00  0.00     0.045 C 
HETATM    4  C6  UNL     1       1.427  -1.353  -0.392  1.00  0.00     0.018 C 
HETATM    5  C7  UNL     1       1.369   0.005   0.228  1.00  0.00     0.057 C 
HETATM    6  C10 UNL     1      -0.092   0.441  -0.089  1.00  0.00     0.133 C 
ENDROOT
BRANCH   5   7
HETATM    7  C8  UNL     1       2.284   0.963  -0.499  1.00  0.00     0.056 A 
HETATM    8  N2  UNL     1       1.763   1.880  -1.276  1.00  0.00    -0.321 N 
HETATM    9  S1  UNL     1       2.733   3.063  -1.959  1.00  0.00     0.026 SA
ATOM     10  H2  UNL     1       0.761   1.874  -1.466  1.00  0.00     0.174 HD
HETATM   11  S2  UNL     1       4.429   2.269  -1.033  1.00  0.00    -0.016 SA
HETATM   12  C9  UNL     1       3.638   0.989  -0.246  1.00  0.00     0.099 A 
BRANCH  12  13
HETATM   13  N3  UNL     1       4.282   0.059   0.481  1.00  0.00    -0.391 N 
ATOM     14  H32 UNL     1       3.807  -0.710   0.954  1.00  0.00     0.157 HD
ATOM     15  H31 UNL     1       5.284   0.078   0.668  1.00  0.00     0.157 HD
ENDBRANCH  12  13
ENDBRANCH   5   7
BRANCH   1  16
HETATM   16  C2  UNL     1      -2.349   0.138   0.752  1.00  0.00     0.075 C 
HETATM   17  C1  UNL     1      -3.341  -0.053  -0.371  1.00  0.00     0.032 C 
HETATM   18  C3  UNL     1      -2.294   1.652   0.970  1.00  0.00     0.032 C 
ENDBRANCH   1  16
TORSDOF 3
