REMARK  11 active torsions:
REMARK  status: ('A' for Active; 'I' for Inactive)
REMARK       I    between atoms: N1_2  and  C2_3 
REMARK    1  A    between atoms: N1_2  and  C16_29 
REMARK       I    between atoms: C2_3  and  N2_5 
REMARK    2  A    between atoms: N2_5  and  N3_7 
REMARK    3  A    between atoms: N3_7  and  C3_9 
REMARK    4  A    between atoms: C3_9  and  N4_11 
REMARK    5  A    between atoms: N4_11  and  C4_13 
REMARK    6  A    between atoms: C4_13  and  C5_14 
REMARK    7  A    between atoms: C5_14  and  C6_15 
REMARK    8  A    between atoms: C5_14  and  C14_25 
REMARK    9  A    between atoms: C6_15  and  C7_16 
REMARK   10  A    between atoms: C7_16  and  C8_17 
REMARK       I    between atoms: C8_17  and  N5_19 
REMARK   11  A    between atoms: C14_25  and  C15_26 
ROOT
HETATM    1  N4  UNL     1      -0.070  -3.973   0.497  1.00  0.00    -0.366 N 
ATOM      2  H4  UNL     1       0.445  -4.780   0.144  1.00  0.00     0.161 HD
ENDROOT
BRANCH   1   3
HETATM    3  C3  UNL     1      -1.080  -4.245   1.439  1.00  0.00     0.186 C 
HETATM    4  S1  UNL     1      -1.317  -5.840   1.900  1.00  0.00    -0.040 SA
BRANCH   3   5
HETATM    5  N3  UNL     1      -1.886  -3.281   2.006  1.00  0.00    -0.272 N 
ATOM      6  H3  UNL     1      -2.576  -3.609   2.682  1.00  0.00     0.189 HD
BRANCH   5   7
HETATM    7  N2  UNL     1      -1.866  -1.925   1.763  1.00  0.00    -0.249 N 
HETATM    8  C2  UNL     1      -3.027  -1.283   1.196  1.00  0.00     0.337 C 
HETATM    9  N1  UNL     1      -3.049   0.098   0.932  1.00  0.00    -0.333 N 
HETATM   10  O1  UNL     1      -4.027  -2.030   0.950  1.00  0.00    -0.245 OA
HETATM   11  C1  UNL     1      -1.885   0.902   1.195  1.00  0.00     0.155 C 
ATOM     12  H2  UNL     1      -1.034  -1.377   1.983  1.00  0.00     0.192 HD
BRANCH   9  13
HETATM   13  C16 UNL     1      -4.243   0.718   0.419  1.00  0.00     0.088 C 
HETATM   14  C17 UNL     1      -4.045   1.390  -0.929  1.00  0.00     0.025 C 
HETATM   15  C18 UNL     1      -5.175   2.366  -1.203  1.00  0.00     0.002 C 
HETATM   16  C19 UNL     1      -6.424   1.991  -0.430  1.00  0.00     0.000 C 
HETATM   17  C20 UNL     1      -6.211   2.003   1.048  1.00  0.00     0.002 C 
HETATM   18  C21 UNL     1      -4.778   1.731   1.421  1.00  0.00     0.025 C 
ENDBRANCH   9  13
ENDBRANCH   5   7
ENDBRANCH   3   5
ENDBRANCH   1   3
BRANCH   1  19
HETATM   19  C4  UNL     1       0.321  -2.695  -0.025  1.00  0.00     0.127 C 
BRANCH  19  20
HETATM   20  C5  UNL     1       1.486  -2.943  -1.014  1.00  0.00     0.014 C 
BRANCH  20  21
HETATM   21  C6  UNL     1       1.885  -1.609  -1.616  1.00  0.00     0.016 C 
BRANCH  21  22
HETATM   22  C7  UNL     1       2.349  -0.597  -0.630  1.00  0.00     0.103 C 
BRANCH  22  23
HETATM   23  C8  UNL     1       2.715   0.654  -1.356  1.00  0.00     0.219 C 
HETATM   24  O2  UNL     1       2.644   0.665  -2.639  1.00  0.00    -0.273 OA
HETATM   25  N5  UNL     1       3.139   1.843  -0.732  1.00  0.00    -0.352 N 
HETATM   26  C9  UNL     1       3.265   1.986   0.707  1.00  0.00     0.125 C 
HETATM   27  C13 UNL     1       3.477   3.005  -1.521  1.00  0.00     0.125 C 
HETATM   28  C10 UNL     1       4.474   2.846   0.980  1.00  0.00     0.020 C 
HETATM   29  C11 UNL     1       5.518   2.724  -0.112  1.00  0.00     0.003 C 
HETATM   30  C12 UNL     1       4.978   3.220  -1.438  1.00  0.00     0.020 C 
ENDBRANCH  22  23
ENDBRANCH  21  22
ENDBRANCH  20  21
BRANCH  20  31
HETATM   31  C14 UNL     1       2.609  -3.589  -0.281  1.00  0.00     0.119 C 
BRANCH  31  32
HETATM   32  C15 UNL     1       3.788  -3.911  -1.103  1.00  0.00     0.172 C 
HETATM   33  O3  UNL     1       3.904  -3.720  -2.329  1.00  0.00    -0.648 OA
HETATM   34  O4  UNL     1       4.863  -4.491  -0.391  1.00  0.00    -0.648 OA
ENDBRANCH  31  32
ENDBRANCH  20  31
ENDBRANCH  19  20
ENDBRANCH   1  19
TORSDOF 11
