REMARK  3 active torsions:
REMARK  status: ('A' for Active; 'I' for Inactive)
REMARK    1  A    between atoms: N1_1  and  C1_5 
REMARK    2  A    between atoms: N2_8  and  C4_9 
REMARK    3  A    between atoms: C4_9  and  C5_10 
ROOT
HETATM    1  C1  UNL     1      -2.709   0.175   0.059  1.00  0.00     0.189 C 
HETATM    2  C2  UNL     1      -2.016   1.060  -0.896  1.00  0.00     0.061 C 
HETATM    3  C3  UNL     1      -0.575   1.186  -0.894  1.00  0.00     0.239 C 
HETATM    4  N2  UNL     1       0.229   0.120  -0.345  1.00  0.00    -0.067 N 
HETATM    5  C8  UNL     1      -0.028  -1.160  -0.990  1.00  0.00     0.238 C 
HETATM    6  C9  UNL     1      -1.330  -1.779  -0.648  1.00  0.00     0.034 C 
HETATM    7  C10 UNL     1      -1.964  -1.053   0.489  1.00  0.00     0.019 C 
HETATM    8  C11 UNL     1      -0.981  -0.788   1.593  1.00  0.00     0.034 C 
HETATM    9  C12 UNL     1       0.117   0.072   1.074  1.00  0.00     0.238 C 
ENDROOT
BRANCH   1  10
HETATM   10  N1  UNL     1      -3.122   0.870   1.280  1.00  0.00    -0.075 N 
ATOM     11  H13 UNL     1      -2.329   1.335   1.722  1.00  0.00     0.274 HD
ATOM     12  H12 UNL     1      -3.691   1.687   1.060  1.00  0.00     0.274 HD
ATOM     13  H11 UNL     1      -3.601   0.258   1.940  1.00  0.00     0.274 HD
ENDBRANCH   1  10
BRANCH   4  14
HETATM   14  C4  UNL     1       1.594   0.448  -0.739  1.00  0.00     0.242 C 
BRANCH  14  15
HETATM   15  C5  UNL     1       2.620  -0.312   0.049  1.00  0.00     0.012 A 
HETATM   16  C6  UNL     1       4.087  -0.077  -0.255  1.00  0.00     0.007 A 
HETATM   17  C7  UNL     1       3.481   0.594   0.942  1.00  0.00     0.007 A 
ENDBRANCH  14  15
ENDBRANCH   4  14
TORSDOF 3
