REMARK  3 active torsions:
REMARK  status: ('A' for Active; 'I' for Inactive)
REMARK    1  A    between atoms: C2_2  and  C3_3 
REMARK    2  A    between atoms: C3_3  and  N1_4 
REMARK       I    between atoms: N1_4  and  C4_6 
REMARK    3  A    between atoms: C4_6  and  C5_8 
ROOT
HETATM    1  C5  UNL     1      -0.616   0.379   0.322  1.00  0.00     0.042 C 
HETATM    2  C6  UNL     1      -1.488   1.338   1.063  1.00  0.00     0.024 C 
HETATM    3  C7  UNL     1      -2.742   1.341   0.180  1.00  0.00    -0.009 C 
HETATM    4  C8  UNL     1      -3.520   0.053   0.474  1.00  0.00     0.010 C 
HETATM    5  C9  UNL     1      -2.567  -0.620  -0.525  1.00  0.00    -0.009 C 
HETATM    6  C10 UNL     1      -1.282  -0.987   0.225  1.00  0.00     0.024 C 
HETATM    7  C11 UNL     1      -2.349   0.726  -1.128  1.00  0.00    -0.005 C 
HETATM    8  C12 UNL     1      -0.826   0.863  -1.123  1.00  0.00     0.024 C 
ENDROOT
BRANCH   1   9
HETATM    9  C4  UNL     1       0.772   0.349   0.729  1.00  0.00     0.226 C 
HETATM   10  N1  UNL     1       1.765  -0.473   0.172  1.00  0.00    -0.357 N 
ATOM     11  H1  UNL     1       1.509  -1.110  -0.582  1.00  0.00     0.162 HD
HETATM   12  O1  UNL     1       1.128   1.134   1.671  1.00  0.00    -0.273 OA
BRANCH  10  13
HETATM   13  C3  UNL     1       3.139  -0.451   0.628  1.00  0.00     0.149 C 
BRANCH  13  14
HETATM   14  C2  UNL     1       3.959  -1.407  -0.124  1.00  0.00    -0.018 C 
HETATM   15  C1  UNL     1       4.991  -1.016  -0.823  1.00  0.00     0.008 C 
ENDBRANCH  13  14
ENDBRANCH  10  13
ENDBRANCH   1   9
TORSDOF 3
