REMARK  6 active torsions:
REMARK  status: ('A' for Active; 'I' for Inactive)
REMARK       I    between atoms: C1_2  and  N2_4 
REMARK    1  A    between atoms: N2_4  and  C2_6 
REMARK    2  A    between atoms: C2_6  and  C3_7 
REMARK    3  A    between atoms: C3_7  and  N3_8 
REMARK    4  A    between atoms: N3_8  and  C4_10 
REMARK    5  A    between atoms: C4_10  and  N4_11 
REMARK    6  A    between atoms: C4_10  and  C5_15 
ROOT
HETATM    1  C4  UNL     1       0.819  -0.137   0.552  1.00  0.00     0.311 C 
ENDROOT
BRANCH   1   2
HETATM    2  N3  UNL     1      -0.024  -0.177  -0.604  1.00  0.00    -0.391 N 
ATOM      3  H3  UNL     1       0.312   0.082  -1.532  1.00  0.00     0.155 HD
BRANCH   2   4
HETATM    4  C3  UNL     1      -1.364  -0.603  -0.372  1.00  0.00     0.136 C 
BRANCH   4   5
HETATM    5  C2  UNL     1      -2.116   0.402   0.429  1.00  0.00     0.143 C 
BRANCH   5   6
HETATM    6  N2  UNL     1      -3.477   0.051   0.713  1.00  0.00    -0.344 N 
HETATM    7  C1  UNL     1      -4.468  -0.186  -0.242  1.00  0.00     0.328 C 
HETATM    8  N1  UNL     1      -5.784  -0.527   0.152  1.00  0.00    -0.040 NA
HETATM    9  O1  UNL     1      -4.214  -0.103  -1.465  1.00  0.00    -0.251 OA
ATOM     10  H2  UNL     1      -3.743  -0.033   1.694  1.00  0.00     0.163 HD
ENDBRANCH   5   6
ENDBRANCH   4   5
ENDBRANCH   2   4
ENDBRANCH   1   2
BRANCH   1  11
HETATM   11  N4  UNL     1       0.870  -1.482   1.096  1.00  0.00    -0.054 N 
ATOM     12  H43 UNL     1      -0.054  -1.869   1.289  1.00  0.00     0.277 HD
ATOM     13  H42 UNL     1       1.165  -2.178   0.411  1.00  0.00     0.277 HD
ATOM     14  H41 UNL     1       1.471  -1.453   1.920  1.00  0.00     0.277 HD
ENDBRANCH   1  11
BRANCH   1  15
HETATM   15  C5  UNL     1       2.218   0.252   0.210  1.00  0.00    -0.009 A 
HETATM   16  C6  UNL     1       2.503   1.300  -0.637  1.00  0.00     0.011 A 
HETATM   17  C7  UNL     1       3.791   1.673  -0.964  1.00  0.00     0.001 A 
HETATM   18  C8  UNL     1       4.841   0.967  -0.421  1.00  0.00     0.000 A 
HETATM   19  C9  UNL     1       4.575  -0.088   0.432  1.00  0.00     0.001 A 
HETATM   20  C10 UNL     1       3.276  -0.445   0.747  1.00  0.00     0.011 A 
ENDBRANCH   1  15
TORSDOF 6
