REMARK  3 active torsions:
REMARK  status: ('A' for Active; 'I' for Inactive)
REMARK    1  A    between atoms: O1_2  and  C2_3 
REMARK    2  A    between atoms: C7_8  and  C8_9 
REMARK    3  A    between atoms: N2_11  and  N3_13 
REMARK       I    between atoms: N3_13  and  C9_15 
ROOT
HETATM    1  C8  UNL     1       0.708  -0.865   0.056  1.00  0.00     0.143 C 
HETATM    2  N1  UNL     1       0.401  -2.166  -0.470  1.00  0.00    -0.080 NA
HETATM    3  N2  UNL     1       1.914  -0.617   0.226  1.00  0.00    -0.285 N 
ATOM      4  H2  UNL     1       2.486  -1.415  -0.051  1.00  0.00     0.188 HD
ENDROOT
BRANCH   1   5
HETATM    5  C7  UNL     1      -0.391   0.025   0.336  1.00  0.00     0.040 A 
HETATM    6  C2  UNL     1      -1.703  -0.409   0.087  1.00  0.00     0.081 A 
HETATM    7  C3  UNL     1      -2.811   0.371   0.323  1.00  0.00     0.038 A 
HETATM    8  C4  UNL     1      -2.693   1.644   0.827  1.00  0.00     0.003 A 
HETATM    9  C5  UNL     1      -1.426   2.101   1.083  1.00  0.00     0.001 A 
HETATM   10  C6  UNL     1      -0.298   1.302   0.840  1.00  0.00     0.018 A 
BRANCH   6  11
HETATM   11  O1  UNL     1      -1.852  -1.693  -0.423  1.00  0.00    -0.355 OA
HETATM   12  C1  UNL     1      -3.080  -2.278  -0.726  1.00  0.00     0.210 C 
ENDBRANCH   6  11
ENDBRANCH   1   5
BRANCH   3  13
HETATM   13  N3  UNL     1       2.690   0.390   0.666  1.00  0.00    -0.273 N 
HETATM   14  C9  UNL     1       3.470   1.108  -0.286  1.00  0.00     0.200 C 
HETATM   15  N4  UNL     1       3.311   2.372  -0.427  1.00  0.00    -0.372 N 
HETATM   16  N5  UNL     1       4.420   0.417  -1.072  1.00  0.00    -0.062 NA
ATOM     17  H42 UNL     1       2.625   2.871   0.140  1.00  0.00     0.158 HD
ATOM     18  H41 UNL     1       3.869   2.886  -1.108  1.00  0.00     0.158 HD
ATOM     19  H3  UNL     1       2.719   0.633   1.656  1.00  0.00     0.189 HD
ENDBRANCH   3  13
TORSDOF 3
