REMARK  11 active torsions:
REMARK  status: ('A' for Active; 'I' for Inactive)
REMARK    1  A    between atoms: C4_4  and  N1_5 
REMARK    2  A    between atoms: N1_5  and  C5_7 
REMARK    3  A    between atoms: C5_7  and  C6_8 
REMARK    4  A    between atoms: C6_8  and  N2_9 
REMARK    5  A    between atoms: N2_9  and  C7_11 
REMARK    6  A    between atoms: C7_11  and  C8_12 
REMARK    7  A    between atoms: C8_12  and  C9_13 
REMARK    8  A    between atoms: C9_13  and  C10_14 
REMARK    9  A    between atoms: C10_14  and  N3_15 
REMARK   10  A    between atoms: N3_15  and  C11_17 
REMARK   11  A    between atoms: C11_17  and  C12_18 
ROOT
HETATM    1  N3  UNL     1      -1.691  -1.351  -1.368  1.00  0.00    -0.398 N 
ATOM      2  H3  UNL     1      -2.456  -1.984  -1.600  1.00  0.00     0.158 HD
ENDROOT
BRANCH   1   3
HETATM    3  C10 UNL     1      -0.269  -1.406  -1.875  1.00  0.00     0.119 C 
BRANCH   3   4
HETATM    4  C9  UNL     1      -0.132  -2.544  -2.819  1.00  0.00     0.021 C 
BRANCH   4   5
HETATM    5  C8  UNL     1       1.232  -2.647  -3.406  1.00  0.00     0.021 C 
BRANCH   5   6
HETATM    6  C7  UNL     1       2.362  -2.867  -2.458  1.00  0.00     0.113 C 
BRANCH   6   7
HETATM    7  N2  UNL     1       2.622  -1.848  -1.509  1.00  0.00    -0.420 N 
ATOM      8  H2  UNL     1       2.441  -1.984  -0.514  1.00  0.00     0.153 HD
BRANCH   7   9
HETATM    9  C6  UNL     1       3.149  -0.625  -2.013  1.00  0.00     0.133 C 
BRANCH   9  10
HETATM   10  C5  UNL     1       3.380   0.402  -0.918  1.00  0.00     0.139 C 
BRANCH  10  11
HETATM   11  N1  UNL     1       4.331  -0.118   0.062  1.00  0.00    -0.388 N 
ATOM     12  H1  UNL     1       4.727  -1.047  -0.079  1.00  0.00     0.159 HD
BRANCH  11  13
HETATM   13  C4  UNL     1       4.717   0.624   1.194  1.00  0.00     0.028 A 
HETATM   14  C3  UNL     1       4.186   1.887   1.453  1.00  0.00     0.029 A 
HETATM   15  C2  UNL     1       4.538   2.635   2.543  1.00  0.00     0.002 A 
HETATM   16  C1  UNL     1       5.463   2.123   3.435  1.00  0.00     0.000 A 
HETATM   17  C27 UNL     1       5.995   0.875   3.190  1.00  0.00     0.002 A 
HETATM   18  C26 UNL     1       5.630   0.144   2.096  1.00  0.00     0.029 A 
ENDBRANCH  11  13
ENDBRANCH  10  11
ENDBRANCH   9  10
ENDBRANCH   7   9
ENDBRANCH   6   7
ENDBRANCH   5   6
ENDBRANCH   4   5
ENDBRANCH   3   4
ENDBRANCH   1   3
BRANCH   1  19
HETATM   19  C11 UNL     1      -1.734  -0.249  -0.514  1.00  0.00     0.096 C 
BRANCH  19  20
HETATM   20  C12 UNL     1      -2.933   0.256   0.136  1.00  0.00     0.001 A 
HETATM   21  C13 UNL     1      -2.703   1.348   1.030  1.00  0.00    -0.013 A 
HETATM   22  C14 UNL     1      -1.421   1.827   1.198  1.00  0.00     0.013 A 
HETATM   23  C18 UNL     1      -3.727   1.916   1.710  1.00  0.00    -0.024 A 
HETATM   24  C15 UNL     1      -1.209   2.891   2.068  1.00  0.00     0.001 A 
HETATM   25  C16 UNL     1      -2.240   3.477   2.765  1.00  0.00     0.001 A 
HETATM   26  C17 UNL     1      -3.513   2.987   2.586  1.00  0.00     0.012 A 
HETATM   27  C19 UNL     1      -4.996   1.435   1.535  1.00  0.00     0.024 A 
HETATM   28  C20 UNL     1      -5.236   0.381   0.673  1.00  0.00    -0.024 A 
HETATM   29  C21 UNL     1      -6.531  -0.073   0.501  1.00  0.00     0.012 A 
HETATM   30  C25 UNL     1      -4.198  -0.232  -0.050  1.00  0.00    -0.013 A 
HETATM   31  C22 UNL     1      -6.825  -1.101  -0.355  1.00  0.00     0.001 A 
HETATM   32  C23 UNL     1      -5.808  -1.690  -1.057  1.00  0.00     0.001 A 
HETATM   33  C24 UNL     1      -4.500  -1.265  -0.913  1.00  0.00     0.013 A 
ENDBRANCH  19  20
ENDBRANCH   1  19
TORSDOF 11
