REMARK  2 active torsions:
REMARK  status: ('A' for Active; 'I' for Inactive)
REMARK    1  A    between atoms: N1_1  and  N2_4 
REMARK       I    between atoms: N2_4  and  C1_6 
REMARK    2  A    between atoms: C1_6  and  C2_8 
REMARK       I    between atoms: N4_10  and  C3_12 
ROOT
HETATM    1  N2  UNL     1       2.353  -0.206  -0.365  1.00  0.00    -0.270 N 
ATOM      2  H2  UNL     1       2.214  -1.159  -0.702  1.00  0.00     0.189 HD
HETATM    3  C1  UNL     1       1.209   0.515   0.074  1.00  0.00     0.300 C 
HETATM    4  O1  UNL     1       1.397   1.690   0.488  1.00  0.00    -0.263 OA
ENDROOT
BRANCH   3   5
HETATM    5  C2  UNL     1      -0.119  -0.064   0.052  1.00  0.00     0.190 C 
HETATM    6  N3  UNL     1      -0.312  -1.381  -0.414  1.00  0.00    -0.076 NA
HETATM    7  N4  UNL     1      -1.127   0.610   0.454  1.00  0.00    -0.295 N 
HETATM    8  C3  UNL     1      -2.428   0.050   0.435  1.00  0.00     0.334 C 
ATOM      9  H4  UNL     1      -0.993   1.563   0.793  1.00  0.00     0.171 HD
HETATM   10  N5  UNL     1      -3.509   0.932   0.081  1.00  0.00    -0.040 NA
HETATM   11  O2  UNL     1      -2.666  -1.164   0.711  1.00  0.00    -0.251 OA
ENDBRANCH   3   5
BRANCH   1  12
HETATM   12  N1  UNL     1       3.634   0.293  -0.366  1.00  0.00    -0.342 N 
ATOM     13  H12 UNL     1       3.754   1.247  -0.025  1.00  0.00     0.176 HD
ATOM     14  H11 UNL     1       4.455  -0.224  -0.681  1.00  0.00     0.176 HD
ENDBRANCH   1  12
TORSDOF 2
