REMARK  3 active torsions:
REMARK  status: ('A' for Active; 'I' for Inactive)
REMARK       I    between atoms: N2_3  and  C2_5 
REMARK       I    between atoms: C2_5  and  N5_15 
REMARK    1  A    between atoms: N3_6  and  C3_8 
REMARK    2  A    between atoms: C3_8  and  N4_9 
REMARK    3  A    between atoms: C3_8  and  O1_13 
ROOT
HETATM    1  N1  UNL     1       3.116  -2.740  -0.491  1.00  0.00    -0.171 NA
HETATM    2  C1  UNL     1       2.589  -1.854   0.049  1.00  0.00     0.196 C 
HETATM    3  N2  UNL     1       1.946  -0.791   0.688  1.00  0.00    -0.125 N 
ATOM      4  H2  UNL     1       2.255  -0.520   1.621  1.00  0.00     0.197 HD
HETATM    5  C2  UNL     1       0.867  -0.067   0.079  1.00  0.00     0.699 C 
HETATM    6  N3  UNL     1      -0.291  -0.581   0.151  1.00  0.00    -0.173 N 
ATOM      7  H3  UNL     1      -0.355  -1.474   0.641  1.00  0.00     0.182 HD
HETATM    8  N5  UNL     1       1.166   1.172  -0.562  1.00  0.00    -0.125 N 
ATOM      9  H5  UNL     1       1.591   1.175  -1.489  1.00  0.00     0.197 HD
HETATM   10  C4  UNL     1       0.878   2.381   0.076  1.00  0.00     0.196 C 
HETATM   11  N6  UNL     1       0.635   3.398   0.603  1.00  0.00    -0.171 NA
ENDROOT
BRANCH   6  12
HETATM   12  C3  UNL     1      -1.506  -0.066  -0.366  1.00  0.00     0.438 C 
BRANCH  12  13
HETATM   13  N4  UNL     1      -2.571   0.067   0.580  1.00  0.00    -0.034 N 
ATOM     14  H43 UNL     1      -2.740  -0.826   1.044  1.00  0.00     0.279 HD
ATOM     15  H42 UNL     1      -2.264   0.628   1.375  1.00  0.00     0.279 HD
ATOM     16  H41 UNL     1      -3.445   0.438   0.208  1.00  0.00     0.279 HD
ENDBRANCH  12  13
BRANCH  12  17
HETATM   17  O1  UNL     1      -1.950  -0.955  -1.371  1.00  0.00    -0.354 OA
ATOM     18  H1  UNL     1      -2.764  -0.610  -1.718  1.00  0.00     0.213 HD
ENDBRANCH  12  17
ENDBRANCH   6  12
TORSDOF 3
