REMARK  2 active torsions:
REMARK  status: ('A' for Active; 'I' for Inactive)
REMARK    1  A    between atoms: C2_5  and  N2_6 
REMARK    2  A    between atoms: N2_6  and  C3_8 
ROOT
HETATM    1  C3  UNL     1      -0.388  -0.659  -0.313  1.00  0.00     0.122 A 
HETATM    2  C4  UNL     1      -1.590  -1.339  -0.333  1.00  0.00     0.055 A 
HETATM    3  C5  UNL     1      -2.748  -0.594  -0.364  1.00  0.00     0.079 A 
HETATM    4  C6  UNL     1      -2.702   0.786  -0.375  1.00  0.00     0.259 A 
HETATM    5  O2  UNL     1      -3.747   1.486  -0.403  1.00  0.00    -0.267 OA
HETATM    6  N3  UNL     1      -1.520   1.390  -0.355  1.00  0.00    -0.265 N 
ATOM      7  H3  UNL     1      -1.477   2.409  -0.363  1.00  0.00     0.190 HD
HETATM    8  N4  UNL     1      -0.386   0.685  -0.325  1.00  0.00    -0.283 N 
ATOM      9  H4  UNL     1       0.506   1.180  -0.311  1.00  0.00     0.188 HD
ENDROOT
BRANCH   1  10
HETATM   10  N2  UNL     1       0.688  -1.343  -0.285  1.00  0.00    -0.313 N 
ATOM     11  H2  UNL     1       0.610  -2.360  -0.279  1.00  0.00     0.170 HD
BRANCH  10  12
HETATM   12  C2  UNL     1       1.980  -0.775  -0.262  1.00  0.00     0.193 A 
HETATM   13  N1  UNL     1       2.992  -0.871  -1.057  1.00  0.00    -0.280 N 
HETATM   14  C1  UNL     1       3.768  -0.003  -0.253  1.00  0.00     0.329 A 
ATOM     15  H1  UNL     1       3.165  -1.376  -1.926  1.00  0.00     0.173 HD
HETATM   16  O1  UNL     1       4.929   0.444  -0.328  1.00  0.00    -0.246 OA
HETATM   17  N5  UNL     1       2.656   0.103   0.619  1.00  0.00    -0.280 N 
ATOM     18  H5  UNL     1       2.440   0.591   1.488  1.00  0.00     0.173 HD
ENDBRANCH  10  12
ENDBRANCH   1  10
TORSDOF 2
