REMARK  5 active torsions:
REMARK  status: ('A' for Active; 'I' for Inactive)
REMARK    1  A    between atoms: C3_3  and  N1_6 
REMARK       I    between atoms: N1_6  and  C6_8 
REMARK    2  A    between atoms: C6_8  and  C7_10 
REMARK       I    between atoms: C7_10  and  N2_12 
REMARK    3  A    between atoms: N2_12  and  C8_14 
REMARK    4  A    between atoms: C8_14  and  C9_15 
REMARK    5  A    between atoms: C9_15  and  N3_16 
ROOT
HETATM    1  C1  UNL     1      -6.183  -0.335  -1.949  1.00  0.00     0.015 C 
HETATM    2  C2  UNL     1      -5.938   0.106  -0.861  1.00  0.00    -0.086 C 
HETATM    3  C3  UNL     1      -5.659   0.657   0.472  1.00  0.00     0.089 C 
HETATM    4  C4  UNL     1      -5.750  -0.455   1.520  1.00  0.00     0.053 C 
HETATM    5  C5  UNL     1      -6.601   1.784   0.797  1.00  0.00     0.053 C 
ENDROOT
BRANCH   3   6
HETATM    6  N1  UNL     1      -4.306   1.159   0.519  1.00  0.00    -0.334 N 
HETATM    7  C6  UNL     1      -3.229   0.272   0.277  1.00  0.00     0.310 C 
HETATM    8  O1  UNL     1      -3.470  -0.928   0.029  1.00  0.00    -0.262 OA
ATOM      9  H1  UNL     1      -4.128   2.142   0.724  1.00  0.00     0.164 HD
BRANCH   7  10
HETATM   10  C7  UNL     1      -1.841   0.707   0.308  1.00  0.00     0.309 C 
HETATM   11  O2  UNL     1      -1.613   1.914   0.558  1.00  0.00    -0.262 OA
HETATM   12  N2  UNL     1      -0.747  -0.158   0.071  1.00  0.00    -0.350 N 
ATOM     13  H2  UNL     1      -0.908  -1.144  -0.135  1.00  0.00     0.162 HD
BRANCH  12  14
HETATM   14  C8  UNL     1       0.586   0.359   0.122  1.00  0.00     0.164 C 
BRANCH  14  15
HETATM   15  C9  UNL     1       1.645  -0.670  -0.148  1.00  0.00     0.175 C 
HETATM   16  C15 UNL     1       1.625  -1.816   0.846  1.00  0.00     0.043 C 
HETATM   17  C16 UNL     1       2.580  -2.795   0.143  1.00  0.00     0.003 C 
HETATM   18  C17 UNL     1       2.487  -2.498  -1.328  1.00  0.00     0.003 C 
HETATM   19  C18 UNL     1       1.420  -1.401  -1.442  1.00  0.00     0.043 C 
BRANCH  15  20
HETATM   20  N3  UNL     1       2.971  -0.111  -0.088  1.00  0.00     0.099 N 
HETATM   21  C10 UNL     1       3.249   0.899  -1.054  1.00  0.00     0.273 C 
HETATM   22  C11 UNL     1       4.776   1.022  -1.144  1.00  0.00     0.030 C 
HETATM   23  C12 UNL     1       5.350   1.373   0.198  1.00  0.00     0.003 C 
HETATM   24  C13 UNL     1       4.234   1.544   1.210  1.00  0.00     0.030 C 
HETATM   25  C14 UNL     1       3.397   0.277   1.217  1.00  0.00     0.273 C 
ENDBRANCH  15  20
ENDBRANCH  14  15
ENDBRANCH  12  14
ENDBRANCH   7  10
ENDBRANCH   3   6
TORSDOF 5
