REMARK  5 active torsions:
REMARK  status: ('A' for Active; 'I' for Inactive)
REMARK       I    between atoms: N1_2  and  C2_4 
REMARK       I    between atoms: C2_4  and  N2_5 
REMARK    1  A    between atoms: N4_9  and  C4_11 
REMARK    2  A    between atoms: C7_15  and  C8_16 
REMARK    3  A    between atoms: C8_16  and  O1_17 
REMARK    4  A    between atoms: C8_16  and  N5_19 
REMARK    5  A    between atoms: N6_22  and  C11_23 
ROOT
HETATM    1  C4  UNL     1       4.064  -0.224  -0.573  1.00  0.00     0.145 A 
HETATM    2  C5  UNL     1       3.379   0.415  -1.569  1.00  0.00     0.081 A 
HETATM    3 CL1  UNL     1       4.024   1.144  -3.026  1.00  0.00    -0.080 Cl
HETATM    4  C6  UNL     1       2.006   0.389  -1.272  1.00  0.00     0.062 A 
HETATM    5  C7  UNL     1       1.876  -0.274  -0.088  1.00  0.00     0.088 A 
HETATM    6  N7  UNL     1       3.124  -0.637   0.321  1.00  0.00    -0.332 N 
HETATM    7  C19 UNL     1       3.466  -1.357   1.517  1.00  0.00     0.158 C 
ENDROOT
BRANCH   5   8
HETATM    8  C8  UNL     1       0.675  -0.580   0.687  1.00  0.00     0.166 C 
BRANCH   8   9
HETATM    9  O1  UNL     1       0.834  -1.245   1.801  1.00  0.00    -0.344 OA
ATOM     10  H1  UNL     1       0.053  -1.444   2.305  1.00  0.00     0.219 HD
ENDBRANCH   8   9
BRANCH   8  11
HETATM   11  N5  UNL     1      -0.634  -0.261   0.406  1.00  0.00    -0.354 N 
HETATM   12  C9  UNL     1      -1.107   0.459  -0.735  1.00  0.00     0.169 C 
HETATM   13  C10 UNL     1      -2.612   0.652  -0.716  1.00  0.00     0.078 C 
HETATM   14  N6  UNL     1      -3.351  -0.467  -0.298  1.00  0.00    -0.386 N 
HETATM   15  C17 UNL     1      -2.699  -1.414   0.534  1.00  0.00     0.142 C 
HETATM   16  C18 UNL     1      -1.653  -0.719   1.406  1.00  0.00     0.145 C 
BRANCH  14  17
HETATM   17  C11 UNL     1      -4.735  -0.314  -0.130  1.00  0.00     0.083 C 
HETATM   18  C12 UNL     1      -5.152   0.676   0.925  1.00  0.00     0.025 C 
HETATM   19  C13 UNL     1      -6.658   0.808   0.917  1.00  0.00     0.002 C 
HETATM   20  C14 UNL     1      -7.326  -0.325   0.180  1.00  0.00     0.000 C 
HETATM   21  C15 UNL     1      -6.883  -0.396  -1.264  1.00  0.00     0.002 C 
HETATM   22  C16 UNL     1      -5.438   0.050  -1.416  1.00  0.00     0.025 C 
ENDBRANCH  14  17
ENDBRANCH   8  11
ENDBRANCH   5   8
BRANCH   1  23
HETATM   23  N4  UNL     1       5.466  -0.411  -0.440  1.00  0.00    -0.175 N 
HETATM   24  C2  UNL     1       6.328   0.519  -0.439  1.00  0.00     0.679 C 
HETATM   25  N1  UNL     1       5.979   1.878  -0.571  1.00  0.00    -0.230 N 
HETATM   26  N2  UNL     1       7.737   0.246  -0.301  1.00  0.00    -0.190 N 
HETATM   27  C1  UNL     1       6.931   2.861  -1.107  1.00  0.00     0.165 C 
ATOM     28  H1  UNL     1       5.048   2.185  -0.289  1.00  0.00     0.177 HD
HETATM   29  C3  UNL     1       8.221  -0.918  -0.157  1.00  0.00     0.207 C 
ATOM     30  H2  UNL     1       8.383   1.035  -0.320  1.00  0.00     0.184 HD
HETATM   31  N3  UNL     1       7.413  -2.082  -0.118  1.00  0.00    -0.096 NA
ATOM     32  H4  UNL     1       5.805  -1.367  -0.337  1.00  0.00     0.186 HD
ENDBRANCH   1  23
TORSDOF 5
