REMARK  5 active torsions:
REMARK  status: ('A' for Active; 'I' for Inactive)
REMARK    1  A    between atoms: C2_3  and  C3_4 
REMARK    2  A    between atoms: C4_5  and  C5_6 
REMARK    3  A    between atoms: C5_6  and  C6_7 
REMARK    4  A    between atoms: C6_7  and  C7_8 
REMARK    5  A    between atoms: C14_21  and  N3_22 
ROOT
HETATM    1  O1  UNL     1       3.568   0.954   0.623  1.00  0.00    -0.286 OA
HETATM    2  C1  UNL     1       3.152  -0.179   0.327  1.00  0.00     0.202 A 
HETATM    3  C2  UNL     1       4.059  -1.167   0.020  1.00  0.00     0.083 A 
HETATM    4  C8  UNL     1       3.525  -2.403  -0.299  1.00  0.00     0.114 A 
HETATM    5  N1  UNL     1       2.183  -2.601  -0.302  1.00  0.00    -0.350 N 
ATOM      6  H1  UNL     1       1.820  -3.524  -0.542  1.00  0.00     0.166 HD
HETATM    7  C9  UNL     1       1.310  -1.612   0.003  1.00  0.00     0.114 A 
HETATM    8  C10 UNL     1       1.774  -0.361   0.330  1.00  0.00     0.039 A 
HETATM    9  C11 UNL     1       0.625   0.522   0.612  1.00  0.00     0.074 C 
HETATM   10  C12 UNL     1      -0.549  -0.381   0.666  1.00  0.00     0.121 C 
HETATM   11  C13 UNL     1      -1.776   0.223   0.013  1.00  0.00     0.219 A 
HETATM   12  N2  UNL     1      -2.507   0.978   1.029  1.00  0.00    -0.036 N 
ATOM     13  H21 UNL     1      -2.689   1.974   0.908  1.00  0.00     0.280 HD
ATOM     14  H22 UNL     1      -2.082   1.181   1.934  1.00  0.00     0.280 HD
HETATM   15  C14 UNL     1      -3.598  -0.005   0.914  1.00  0.00     0.426 A 
HETATM   16  C20 UNL     1      -2.861  -0.784  -0.124  1.00  0.00     0.081 A 
HETATM   17  C21 UNL     1      -2.411  -2.138   0.315  1.00  0.00     0.030 C 
HETATM   18  C22 UNL     1      -1.121  -2.566  -0.356  1.00  0.00     0.125 C 
HETATM   19  N4  UNL     1      -0.107  -1.604   0.060  1.00  0.00    -0.360 N 
ENDROOT
BRANCH   3  20
HETATM   20  C3  UNL     1       5.471  -0.891   0.040  1.00  0.00    -0.061 C 
HETATM   21  C4  UNL     1       6.653  -0.642   0.045  1.00  0.00    -0.101 C 
BRANCH  21  22
HETATM   22  C5  UNL     1       8.098  -0.313   0.038  1.00  0.00     0.095 C 
BRANCH  22  23
HETATM   23  C6  UNL     1       8.348   0.947  -0.776  1.00  0.00     0.027 C 
BRANCH  23  24
HETATM   24  C7  UNL     1       9.817   1.237  -0.752  1.00  0.00     0.115 C 
HETATM   25 CL1  UNL     1      10.225   2.697  -1.680  1.00  0.00    -0.130 Cl
ENDBRANCH  23  24
ENDBRANCH  22  23
ENDBRANCH  21  22
ENDBRANCH   3  20
BRANCH  15  26
HETATM   26  N3  UNL     1      -4.776   0.720   0.495  1.00  0.00     0.120 N 
HETATM   27  C15 UNL     1      -4.502   1.745  -0.474  1.00  0.00     0.275 C 
HETATM   28  C16 UNL     1      -5.742   2.625  -0.568  1.00  0.00     0.030 C 
HETATM   29  C17 UNL     1      -6.796   2.212   0.440  1.00  0.00     0.003 C 
HETATM   30  C18 UNL     1      -7.148   0.736   0.234  1.00  0.00     0.030 C 
HETATM   31  C19 UNL     1      -5.883  -0.091   0.107  1.00  0.00     0.275 C 
ENDBRANCH  15  26
TORSDOF 5
