REMARK  4 active torsions:
REMARK  status: ('A' for Active; 'I' for Inactive)
REMARK    1  A    between atoms: N1_1  and  C1_4 
REMARK    2  A    between atoms: C2_7  and  C3_8 
REMARK    3  A    between atoms: C3_8  and  N3_9 
REMARK    4  A    between atoms: N3_9  and  C4_12 
ROOT
HETATM    1  C1  UNL     1       3.625  -0.406   0.290  1.00  0.00     0.697 A 
HETATM    2  N2  UNL     1       2.367   0.077   0.387  1.00  0.00    -0.169 N 
ATOM      3  H2  UNL     1       1.950   0.465   1.233  1.00  0.00     0.186 HD
HETATM    4  C2  UNL     1       1.749  -0.031  -0.799  1.00  0.00     0.188 A 
HETATM    5  O1  UNL     1       2.632  -0.582  -1.604  1.00  0.00    -0.207 OA
HETATM    6  N5  UNL     1       3.753  -0.816  -0.990  1.00  0.00    -0.090 N 
ATOM      7  H5  UNL     1       4.585  -1.236  -1.403  1.00  0.00     0.213 HD
ENDROOT
BRANCH   4   8
HETATM    8  C3  UNL     1       0.365   0.375  -1.151  1.00  0.00     0.319 C 
BRANCH   8   9
HETATM    9  N3  UNL     1      -0.584   0.041  -0.124  1.00  0.00    -0.060 N 
ATOM     10  H32 UNL     1      -0.491  -0.934   0.161  1.00  0.00     0.278 HD
ATOM     11  H31 UNL     1      -0.345   0.492   0.759  1.00  0.00     0.278 HD
BRANCH   9  12
HETATM   12  C4  UNL     1      -1.920   0.339  -0.509  1.00  0.00     0.237 C 
HETATM   13  C5  UNL     1      -2.908  -0.802  -0.178  1.00  0.00     0.267 C 
HETATM   14  N4  UNL     1      -3.178  -0.138   1.098  1.00  0.00    -0.071 N 
HETATM   15  C6  UNL     1      -2.794   1.103   0.462  1.00  0.00     0.267 C 
ATOM     16  H42 UNL     1      -4.082  -0.235   1.561  1.00  0.00     0.277 HD
ATOM     17  H41 UNL     1      -2.729  -0.449   1.959  1.00  0.00     0.277 HD
ENDBRANCH   9  12
ENDBRANCH   8   9
ENDBRANCH   4   8
BRANCH   1  18
HETATM   18  N1  UNL     1       4.572  -0.524   1.179  1.00  0.00    -0.233 N 
ATOM     19  H12 UNL     1       4.475  -0.214   2.146  1.00  0.00     0.174 HD
ATOM     20  H11 UNL     1       5.522  -0.889   1.106  1.00  0.00     0.174 HD
ENDBRANCH   1  18
TORSDOF 4
