REMARK  6 active torsions:
REMARK  status: ('A' for Active; 'I' for Inactive)
REMARK    1  A    between atoms: C2_2  and  C3_4 
REMARK    2  A    between atoms: C8_9  and  C9_10 
REMARK    3  A    between atoms: C9_10  and  C10_11 
REMARK    4  A    between atoms: C23_25  and  O2_26 
REMARK    5  A    between atoms: C24_28  and  C26_30 
REMARK    6  A    between atoms: C26_30  and  O3_31 
ROOT
HETATM    1  C3  UNL     1      -1.549   1.153   0.328  1.00  0.00    -0.042 C 
HETATM    2  C4  UNL     1      -0.291   1.332  -0.521  1.00  0.00     0.043 C 
HETATM    3  C5  UNL     1       0.619   0.154  -0.281  1.00  0.00    -0.001 C 
HETATM    4  C6  UNL     1       1.696   0.507   0.744  1.00  0.00    -0.001 C 
HETATM    5  C7  UNL     1       2.910   1.170   0.124  1.00  0.00     0.011 C 
HETATM    6  C8  UNL     1       3.740   0.008   0.654  1.00  0.00    -0.001 C 
HETATM    7  C14 UNL     1       2.501  -0.750   0.972  1.00  0.00    -0.036 C 
HETATM    8  C15 UNL     1       2.469  -1.214   2.428  1.00  0.00     0.016 C 
HETATM    9  C16 UNL     1       2.112  -1.866   0.071  1.00  0.00     0.010 C 
HETATM   10  C17 UNL     1       0.662  -2.249   0.185  1.00  0.00     0.007 C 
HETATM   11  C18 UNL     1      -0.168  -0.988   0.307  1.00  0.00     0.003 C 
HETATM   12  C19 UNL     1      -1.505  -1.155  -0.441  1.00  0.00    -0.015 C 
HETATM   13  C20 UNL     1      -1.182  -1.209  -1.864  1.00  0.00     0.020 C 
HETATM   14  C21 UNL     1      -2.035  -2.484   0.073  1.00  0.00     0.016 C 
HETATM   15  C22 UNL     1      -3.507  -2.338   0.319  1.00  0.00     0.034 C 
HETATM   16  C23 UNL     1      -4.184  -1.444  -0.660  1.00  0.00     0.132 C 
HETATM   17  C24 UNL     1      -3.722   0.029  -0.543  1.00  0.00     0.028 C 
HETATM   18  C25 UNL     1      -4.719   0.637   0.469  1.00  0.00     0.025 C 
HETATM   19  C27 UNL     1      -2.384   0.011   0.040  1.00  0.00    -0.053 C 
ENDROOT
BRANCH   6  20
HETATM   20  C9  UNL     1       4.671  -0.524  -0.381  1.00  0.00     0.046 C 
BRANCH  20  21
HETATM   21  C10 UNL     1       5.602   0.581  -0.794  1.00  0.00    -0.034 A 
HETATM   22  C11 UNL     1       5.430   1.484  -1.813  1.00  0.00     0.033 A 
HETATM   23  C12 UNL     1       6.555   2.306  -1.800  1.00  0.00     0.142 A 
HETATM   24  O1  UNL     1       7.327   1.904  -0.835  1.00  0.00    -0.334 OA
HETATM   25  C13 UNL     1       6.819   0.886  -0.201  1.00  0.00     0.148 A 
ENDBRANCH  20  21
ENDBRANCH   6  20
BRANCH   1  26
HETATM   26  C2  UNL     1      -2.068   2.501   0.675  1.00  0.00     0.195 C 
HETATM   27  C1  UNL     1      -1.025   3.302   1.490  1.00  0.00     0.050 C 
HETATM   28  F1  UNL     1      -2.292   3.314  -0.419  1.00  0.00    -0.245 F 
ENDBRANCH   1  26
BRANCH  17  29
HETATM   29  C26 UNL     1      -4.011   0.592  -1.878  1.00  0.00     0.180 C 
BRANCH  29  30
HETATM   30  O3  UNL     1      -5.411   0.515  -2.170  1.00  0.00    -0.400 OA
ATOM     31  H3  UNL     1      -5.597   0.877  -3.028  1.00  0.00     0.209 HD
ENDBRANCH  29  30
ENDBRANCH  17  29
BRANCH  16  32
HETATM   32  O2  UNL     1      -5.556  -1.531  -0.484  1.00  0.00    -0.394 OA
ATOM     33  H2  UNL     1      -5.988  -0.960  -1.109  1.00  0.00     0.210 HD
ENDBRANCH  16  32
TORSDOF 6
