REMARK  6 active torsions:
REMARK  status: ('A' for Active; 'I' for Inactive)
REMARK    1  A    between atoms: C2_2  and  O1_3 
REMARK    2  A    between atoms: C2_2  and  C3_5 
REMARK    3  A    between atoms: C3_5  and  N1_6 
REMARK    4  A    between atoms: C3_5  and  C9_17 
REMARK       I    between atoms: N1_6  and  C4_8 
REMARK    5  A    between atoms: C4_8  and  C5_10 
REMARK       I    between atoms: C9_17  and  N2_19 
REMARK    6  A    between atoms: N2_19  and  C10_21 
ROOT
HETATM    1  C3  UNL     1      -0.021   1.134   0.065  1.00  0.00     0.205 C 
ENDROOT
BRANCH   1   2
HETATM    2  C2  UNL     1      -0.044   2.646   0.143  1.00  0.00     0.146 C 
HETATM    3  C1  UNL     1      -1.290   3.235  -0.427  1.00  0.00     0.042 C 
BRANCH   2   4
HETATM    4  O1  UNL     1       1.039   3.188  -0.572  1.00  0.00    -0.393 OA
ATOM      5  H1  UNL     1       1.833   2.813  -0.209  1.00  0.00     0.210 HD
ENDBRANCH   2   4
ENDBRANCH   1   2
BRANCH   1   6
HETATM    6  N1  UNL     1       1.195   0.602   0.620  1.00  0.00    -0.345 N 
HETATM    7  C4  UNL     1       2.117  -0.082  -0.192  1.00  0.00     0.225 C 
HETATM    8  O2  UNL     1       1.849  -0.217  -1.415  1.00  0.00    -0.273 OA
ATOM      9  H1  UNL     1       1.391   0.722   1.614  1.00  0.00     0.163 HD
BRANCH   7  10
HETATM   10  C5  UNL     1       3.358  -0.614   0.421  1.00  0.00     0.122 C 
HETATM   11  C6  UNL     1       3.102  -1.622   1.531  1.00  0.00     0.098 C 
HETATM   12  C7  UNL     1       3.226  -2.691   0.476  1.00  0.00     0.158 C 
HETATM   13  O3  UNL     1       2.842  -3.834   0.307  1.00  0.00    -0.295 OA
HETATM   14  C8  UNL     1       4.050  -1.717  -0.300  1.00  0.00     0.148 C 
HETATM   15 BR1  UNL     1       5.913  -1.916   0.187  1.00  0.00    -0.063 Br
HETATM   16 BR2  UNL     1       3.823  -1.814  -2.193  1.00  0.00    -0.063 Br
ENDBRANCH   7  10
ENDBRANCH   1   6
BRANCH   1  17
HETATM   17  C9  UNL     1      -1.169   0.509   0.718  1.00  0.00     0.249 C 
HETATM   18  O4  UNL     1      -0.984  -0.348   1.618  1.00  0.00    -0.271 OA
HETATM   19  N2  UNL     1      -2.478   0.852   0.357  1.00  0.00    -0.305 N 
ATOM     20  H2  UNL     1      -2.771   1.827   0.426  1.00  0.00     0.171 HD
BRANCH  19  21
HETATM   21  C10 UNL     1      -3.345  -0.050  -0.070  1.00  0.00     0.152 A 
HETATM   22  N3  UNL     1      -3.134  -1.358  -0.220  1.00  0.00    -0.345 N 
HETATM   23  C11 UNL     1      -4.127  -2.100  -0.661  1.00  0.00     0.116 A 
ATOM     24  H3  UNL     1      -2.228  -1.772   0.001  1.00  0.00     0.167 HD
HETATM   25  C12 UNL     1      -5.310  -1.477  -0.935  1.00  0.00     0.070 A 
HETATM   26 BR3  UNL     1      -6.944  -2.267  -1.588  1.00  0.00    -0.042 Br
HETATM   27  S1  UNL     1      -4.965   0.147  -0.555  1.00  0.00    -0.045 SA
ENDBRANCH  19  21
ENDBRANCH   1  17
TORSDOF 6
