REMARK  6 active torsions:
REMARK  status: ('A' for Active; 'I' for Inactive)
REMARK    1  A    between atoms: N1_1  and  N2_4 
REMARK       I    between atoms: N2_4  and  C1_6 
REMARK    2  A    between atoms: C1_6  and  C2_8 
REMARK    3  A    between atoms: C2_8  and  N7_27 
REMARK    4  A    between atoms: N3_9  and  N4_11 
REMARK       I    between atoms: N4_11  and  C3_13 
REMARK    5  A    between atoms: C3_13  and  C4_15 
REMARK    6  A    between atoms: C7_24  and  C8_25 
REMARK       I    between atoms: N7_27  and  C9_29 
ROOT
HETATM    1  N4  UNL     1      -0.303  -0.272  -0.870  1.00  0.00    -0.263 N 
ATOM      2  H4  UNL     1      -0.248  -1.272  -1.062  1.00  0.00     0.190 HD
HETATM    3  C3  UNL     1       0.879   0.484  -0.716  1.00  0.00     0.287 C 
HETATM    4  O2  UNL     1       0.767   1.735  -0.477  1.00  0.00    -0.264 OA
ENDROOT
BRANCH   1   5
HETATM    5  N3  UNL     1      -1.539   0.347  -0.760  1.00  0.00    -0.278 N 
HETATM    6  C2  UNL     1      -2.402   0.068   0.210  1.00  0.00     0.194 C 
ATOM      7  H3  UNL     1      -1.797   1.048  -1.455  1.00  0.00     0.189 HD
BRANCH   6   8
HETATM    8  C1  UNL     1      -3.626   0.792   0.180  1.00  0.00     0.305 C 
HETATM    9  N2  UNL     1      -3.797   1.744  -0.893  1.00  0.00    -0.270 N 
ATOM     10  H2  UNL     1      -3.069   1.885  -1.593  1.00  0.00     0.189 HD
HETATM   11  O1  UNL     1      -4.551   0.661   1.009  1.00  0.00    -0.263 OA
BRANCH   9  12
HETATM   12  N1  UNL     1      -4.983   2.459  -0.939  1.00  0.00    -0.342 N 
ATOM     13  H12 UNL     1      -5.701   2.306  -0.231  1.00  0.00     0.176 HD
ATOM     14  H11 UNL     1      -5.104   3.131  -1.697  1.00  0.00     0.176 HD
ENDBRANCH   9  12
ENDBRANCH   6   8
BRANCH   6  15
HETATM   15  N7  UNL     1      -1.988  -0.892   1.118  1.00  0.00    -0.291 N 
HETATM   16  C9  UNL     1      -2.586  -1.447   2.244  1.00  0.00     0.334 C 
HETATM   17  N8  UNL     1      -1.831  -2.460   2.975  1.00  0.00    -0.040 NA
HETATM   18  O6  UNL     1      -3.709  -1.140   2.664  1.00  0.00    -0.251 OA
ATOM     19  H7  UNL     1      -1.060  -1.267   0.922  1.00  0.00     0.172 HD
ENDBRANCH   6  15
ENDBRANCH   1   5
BRANCH   3  20
HETATM   20  C4  UNL     1       2.224  -0.076  -0.814  1.00  0.00     0.125 A 
HETATM   21  N5  UNL     1       2.462  -1.363  -1.073  1.00  0.00    -0.303 N 
HETATM   22  C5  UNL     1       3.690  -1.911  -1.172  1.00  0.00     0.327 A 
ATOM     23  H5  UNL     1       1.658  -1.976  -1.206  1.00  0.00     0.171 HD
HETATM   24  O3  UNL     1       3.826  -3.149  -1.423  1.00  0.00    -0.247 OA
HETATM   25  N6  UNL     1       4.768  -1.130  -1.003  1.00  0.00    -0.275 N 
HETATM   26  C6  UNL     1       4.582   0.166  -0.741  1.00  0.00     0.265 A 
ATOM     27  H6  UNL     1       5.709  -1.518  -1.073  1.00  0.00     0.173 HD
HETATM   28  O4  UNL     1       5.567   0.911  -0.579  1.00  0.00    -0.267 OA
HETATM   29  C7  UNL     1       3.320   0.740  -0.636  1.00  0.00     0.102 A 
BRANCH  29  30
HETATM   30  C8  UNL     1       3.204   2.171  -0.340  1.00  0.00     0.278 C 
HETATM   31  O5  UNL     1       3.148   2.610   0.854  1.00  0.00    -0.301 OA
ENDBRANCH  29  30
ENDBRANCH   3  20
TORSDOF 6
