REMARK  9 active torsions:
REMARK  status: ('A' for Active; 'I' for Inactive)
REMARK    1  A    between atoms: N1_1  and  C1_4 
REMARK    2  A    between atoms: C2_9  and  C3_10 
REMARK       I    between atoms: C3_10  and  N4_12 
REMARK    3  A    between atoms: N4_12  and  C4_14 
REMARK    4  A    between atoms: C5_21  and  N9_22 
REMARK    5  A    between atoms: N9_22  and  C6_24 
REMARK    6  A    between atoms: C6_24  and  C7_25 
REMARK    7  A    between atoms: C7_25  and  C8_26 
REMARK    8  A    between atoms: C8_26  and  N10_27 
REMARK    9  A    between atoms: N11_31  and  O2_32 
ROOT
HETATM    1  C1  UNL     1      -0.061  -3.831   0.512  1.00  0.00     0.707 C 
HETATM    2  N2  UNL     1      -0.939  -3.133   1.222  1.00  0.00    -0.130 N 
ATOM      3  H2  UNL     1      -1.549  -3.684   1.825  1.00  0.00     0.205 HD
HETATM    4  N3  UNL     1      -1.136  -1.829   1.260  1.00  0.00    -0.278 N 
ATOM      5  H3  UNL     1      -1.749  -1.473   1.993  1.00  0.00     0.188 HD
HETATM    6  C2  UNL     1      -0.593  -0.915   0.406  1.00  0.00     0.165 C 
HETATM    7  C5  UNL     1       0.578  -0.977  -0.330  1.00  0.00     0.182 C 
HETATM    8  N11 UNL     1       1.260  -2.111  -0.537  1.00  0.00    -0.130 N 
HETATM    9  N12 UNL     1       0.894  -3.390  -0.347  1.00  0.00    -0.103 N 
ATOM     10  H12 UNL     1       1.379  -4.096  -0.900  1.00  0.00     0.208 HD
ENDROOT
BRANCH   6  11
HETATM   11  C3  UNL     1      -1.344   0.312   0.233  1.00  0.00     0.291 C 
HETATM   12  O1  UNL     1      -0.894   1.188  -0.541  1.00  0.00    -0.265 OA
HETATM   13  N4  UNL     1      -2.571   0.570   0.901  1.00  0.00    -0.152 N 
ATOM     14  H4  UNL     1      -2.728   0.188   1.834  1.00  0.00     0.188 HD
BRANCH  13  15
HETATM   15  C4  UNL     1      -3.494   1.286   0.337  1.00  0.00     0.710 A 
HETATM   16  N5  UNL     1      -3.416   1.847  -0.882  1.00  0.00    -0.117 N 
HETATM   17  N6  UNL     1      -4.566   2.500  -1.097  1.00  0.00     0.006 NA
ATOM     18  H5  UNL     1      -2.627   1.787  -1.525  1.00  0.00     0.202 HD
HETATM   19  N7  UNL     1      -5.363   2.367  -0.050  1.00  0.00     0.006 NA
HETATM   20  N8  UNL     1      -4.701   1.625   0.820  1.00  0.00    -0.117 N 
ATOM     21  H8  UNL     1      -5.058   1.347   1.734  1.00  0.00     0.202 HD
ENDBRANCH  13  15
ENDBRANCH   6  11
BRANCH   7  22
HETATM   22  N9  UNL     1       0.946   0.118  -0.786  1.00  0.00    -0.371 N 
ATOM     23  H9  UNL     1       0.304   0.867  -0.526  1.00  0.00     0.161 HD
BRANCH  22  24
HETATM   24  C6  UNL     1       2.006   0.598  -1.561  1.00  0.00     0.123 C 
BRANCH  24  25
HETATM   25  C7  UNL     1       3.086   1.179  -0.643  1.00  0.00     0.047 C 
BRANCH  25  26
HETATM   26  C8  UNL     1       2.490   2.332   0.176  1.00  0.00     0.231 C 
BRANCH  26  27
HETATM   27  N10 UNL     1       3.489   2.896   1.049  1.00  0.00    -0.079 N 
ATOM     28 3H10 UNL     1       3.916   2.187   1.645  1.00  0.00     0.274 HD
ATOM     29 2H10 UNL     1       4.322   3.185   0.537  1.00  0.00     0.274 HD
ATOM     30 1H10 UNL     1       3.093   3.662   1.593  1.00  0.00     0.274 HD
ENDBRANCH  26  27
ENDBRANCH  25  26
ENDBRANCH  24  25
ENDBRANCH  22  24
ENDBRANCH   7  22
BRANCH   8  31
HETATM   31  O2  UNL     1       2.404  -2.007  -0.968  1.00  0.00    -0.266 OA
ATOM     32  H2  UNL     1       2.888  -2.811  -1.115  1.00  0.00     0.247 HD
ENDBRANCH   8  31
BRANCH   1  33
HETATM   33  N1  UNL     1      -0.162  -5.112   0.690  1.00  0.00    -0.232 N 
ATOM     34  H12 UNL     1      -0.879  -5.443   1.335  1.00  0.00     0.174 HD
ATOM     35  H11 UNL     1       0.513  -5.648   0.144  1.00  0.00     0.174 HD
ENDBRANCH   1  33
TORSDOF 9
