REMARK  6 active torsions:
REMARK  status: ('A' for Active; 'I' for Inactive)
REMARK    1  A    between atoms: C3_7  and  N3_8 
REMARK    2  A    between atoms: N3_8  and  N4_10 
REMARK       I    between atoms: N4_10  and  C4_12 
REMARK       I    between atoms: C4_12  and  N5_14 
REMARK       I    between atoms: N5_14  and  C5_16 
REMARK    3  A    between atoms: C5_16  and  C6_18 
REMARK    4  A    between atoms: C6_18  and  N6_19 
REMARK    5  A    between atoms: C6_18  and  C7_23 
REMARK       I    between atoms: C7_23  and  N7_25 
REMARK    6  A    between atoms: N7_25  and  N8_27 
ROOT
HETATM    1  N4  UNL     1      -0.290  -0.949   0.419  1.00  0.00    -0.237 N 
ATOM      2  H4  UNL     1       0.079  -1.455  -0.386  1.00  0.00     0.192 HD
HETATM    3  C4  UNL     1       0.385   0.179   0.892  1.00  0.00     0.341 C 
HETATM    4  O2  UNL     1      -0.142   0.763   1.911  1.00  0.00    -0.245 OA
HETATM    5  N5  UNL     1       1.570   0.700   0.338  1.00  0.00    -0.276 N 
ATOM      6  H5  UNL     1       1.945   1.532   0.795  1.00  0.00     0.173 HD
HETATM    7  C5  UNL     1       2.301   0.226  -0.757  1.00  0.00     0.265 C 
HETATM    8  O3  UNL     1       2.013  -0.776  -1.461  1.00  0.00    -0.270 OA
ENDROOT
BRANCH   1   9
HETATM    9  N3  UNL     1      -1.455  -1.390   1.030  1.00  0.00    -0.128 N 
ATOM     10  H3  UNL     1      -1.370  -2.020   1.828  1.00  0.00     0.205 HD
BRANCH   9  11
HETATM   11  C3  UNL     1      -2.636  -1.051   0.650  1.00  0.00     0.705 A 
HETATM   12  N2  UNL     1      -3.711  -1.526   1.301  1.00  0.00    -0.139 N 
HETATM   13  C2  UNL     1      -4.974  -1.191   0.930  1.00  0.00     0.344 A 
ATOM     14  H2  UNL     1      -3.575  -2.154   2.093  1.00  0.00     0.189 HD
HETATM   15  N1  UNL     1      -5.197  -0.367  -0.108  1.00  0.00    -0.255 N 
HETATM   16  O1  UNL     1      -5.978  -1.644   1.549  1.00  0.00    -0.246 OA
HETATM   17  C1  UNL     1      -6.550   0.003  -0.519  1.00  0.00     0.166 C 
HETATM   18  C8  UNL     1      -4.120   0.109  -0.759  1.00  0.00     0.344 A 
HETATM   19  N9  UNL     1      -2.853  -0.226  -0.389  1.00  0.00    -0.139 N 
HETATM   20  O5  UNL     1      -4.292   0.886  -1.739  1.00  0.00    -0.246 OA
ATOM     21  H9  UNL     1      -2.060   0.153  -0.906  1.00  0.00     0.189 HD
ENDBRANCH   9  11
ENDBRANCH   1   9
BRANCH   7  22
HETATM   22  C6  UNL     1       3.561   0.948  -1.175  1.00  0.00     0.367 C 
BRANCH  22  23
HETATM   23  N6  UNL     1       4.052   0.338  -2.403  1.00  0.00    -0.058 N 
ATOM     24  H63 UNL     1       4.188  -0.669  -2.314  1.00  0.00     0.275 HD
ATOM     25  H62 UNL     1       3.348   0.318  -3.141  1.00  0.00     0.275 HD
ATOM     26  H61 UNL     1       4.902   0.825  -2.685  1.00  0.00     0.275 HD
ENDBRANCH  22  23
BRANCH  22  27
HETATM   27  C7  UNL     1       4.600   0.920  -0.141  1.00  0.00     0.275 C 
HETATM   28  O4  UNL     1       4.378   1.415   0.984  1.00  0.00    -0.269 OA
HETATM   29  N7  UNL     1       5.862   0.330  -0.410  1.00  0.00    -0.274 N 
ATOM     30  H7  UNL     1       6.046  -0.076  -1.328  1.00  0.00     0.189 HD
BRANCH  29  31
HETATM   31  N8  UNL     1       6.842   0.301   0.559  1.00  0.00    -0.343 N 
ATOM     32  H82 UNL     1       6.642   0.711   1.471  1.00  0.00     0.176 HD
ATOM     33  H81 UNL     1       7.749  -0.123   0.366  1.00  0.00     0.176 HD
ENDBRANCH  29  31
ENDBRANCH  22  27
ENDBRANCH   7  22
TORSDOF 6
