REMARK  7 active torsions:
REMARK  status: ('A' for Active; 'I' for Inactive)
REMARK    1  A    between atoms: C2_2  and  C3_3 
REMARK    2  A    between atoms: C3_3  and  O1_4 
REMARK    3  A    between atoms: C3_3  and  C4_6 
REMARK    4  A    between atoms: C4_6  and  C5_7 
REMARK    5  A    between atoms: C6_10  and  O4_11 
REMARK    6  A    between atoms: C21_27  and  C23_29 
REMARK       I    between atoms: C23_29  and  N1_31 
REMARK    7  A    between atoms: N1_31  and  C24_33 
ROOT
HETATM    1  C4  UNL     1      -2.164   0.934   0.522  1.00  0.00     0.111 C 
HETATM    2  C6  UNL     1      -3.313   0.032   0.267  1.00  0.00     0.141 C 
HETATM    3  C7  UNL     1      -3.167  -1.488   0.518  1.00  0.00     0.043 C 
HETATM    4  C8  UNL     1      -1.818  -1.705  -0.022  1.00  0.00    -0.033 C 
HETATM    5  C9  UNL     1      -2.104  -1.394  -1.409  1.00  0.00     0.016 C 
HETATM    6  C10 UNL     1      -0.907  -2.819  -0.127  1.00  0.00     0.002 C 
HETATM    7  C11 UNL     1      -0.573  -3.255   1.311  1.00  0.00     0.006 C 
HETATM    8  C12 UNL     1      -0.112  -1.871   1.754  1.00  0.00     0.007 C 
HETATM    9  C13 UNL     1      -1.123  -1.028   1.068  1.00  0.00     0.007 C 
HETATM   10  C14 UNL     1      -0.790   0.343   0.644  1.00  0.00     0.001 C 
HETATM   11  C15 UNL     1      -0.103   0.965   1.879  1.00  0.00     0.021 C 
HETATM   12  C16 UNL     1       0.164   0.280  -0.454  1.00  0.00    -0.011 C 
HETATM   13  C17 UNL     1       0.663  -0.942  -1.068  1.00  0.00    -0.061 C 
HETATM   14  C18 UNL     1       0.415  -2.302  -0.651  1.00  0.00     0.020 C 
HETATM   15  C19 UNL     1       0.901  -3.068  -1.902  1.00  0.00     0.011 C 
HETATM   16  C20 UNL     1       2.300  -2.420  -2.007  1.00  0.00     0.024 C 
HETATM   17  C21 UNL     1       2.146  -1.022  -1.380  1.00  0.00     0.061 C 
HETATM   18  C22 UNL     1       2.513  -0.034  -2.507  1.00  0.00     0.030 C 
ENDROOT
BRANCH   1  19
HETATM   19  C3  UNL     1      -2.214   2.164  -0.367  1.00  0.00     0.140 C 
BRANCH  19  20
HETATM   20  C2  UNL     1      -3.551   2.809  -0.376  1.00  0.00     0.028 C 
HETATM   21  C1  UNL     1      -3.484   3.967  -1.377  1.00  0.00     0.007 C 
ENDBRANCH  19  20
BRANCH  19  22
HETATM   22  O1  UNL     1      -1.192   3.026   0.010  1.00  0.00    -0.394 OA
ATOM     23  H1  UNL     1      -0.336   2.613   0.016  1.00  0.00     0.210 HD
ENDBRANCH  19  22
ENDBRANCH   1  19
BRANCH   1  24
HETATM   24  C5  UNL     1      -2.501   1.556   1.870  1.00  0.00     0.188 C 
HETATM   25  O2  UNL     1      -2.231   2.780   2.130  1.00  0.00    -0.647 OA
HETATM   26  O3  UNL     1      -3.098   0.910   2.912  1.00  0.00    -0.647 OA
ENDBRANCH   1  24
BRANCH   2  27
HETATM   27  O4  UNL     1      -4.479   0.387   0.961  1.00  0.00    -0.394 OA
ATOM     28  H4  UNL     1      -5.215  -0.191   0.798  1.00  0.00     0.210 HD
ENDBRANCH   2  27
BRANCH  17  29
HETATM   29  C23 UNL     1       3.146  -0.893  -0.382  1.00  0.00     0.230 C 
HETATM   30  O5  UNL     1       3.690  -1.795   0.307  1.00  0.00    -0.272 OA
HETATM   31  N1  UNL     1       3.633   0.410  -0.078  1.00  0.00    -0.356 N 
ATOM     32  H1  UNL     1       3.246   1.197  -0.598  1.00  0.00     0.162 HD
BRANCH  31  33
HETATM   33  C24 UNL     1       4.648   0.692   0.927  1.00  0.00     0.076 C 
HETATM   34  C25 UNL     1       4.190   1.610   2.003  1.00  0.00     0.032 C 
HETATM   35  C26 UNL     1       5.893   1.289   0.287  1.00  0.00     0.032 C 
ENDBRANCH  31  33
ENDBRANCH  17  29
TORSDOF 7
