REMARK  7 active torsions:
REMARK  status: ('A' for Active; 'I' for Inactive)
REMARK    1  A    between atoms: C2_2  and  C21_37 
REMARK    2  A    between atoms: C3_3  and  C4_4 
REMARK       I    between atoms: C4_4  and  N1_6 
REMARK       I    between atoms: C5_8  and  N2_9 
REMARK       I    between atoms: C5_8  and  N4_19 
REMARK       I    between atoms: N2_9  and  C6_10 
REMARK    3  A    between atoms: C6_10  and  C7_12 
REMARK    4  A    between atoms: C7_12  and  C8_13 
REMARK    5  A    between atoms: C8_13  and  C9_14 
REMARK    6  A    between atoms: C9_14  and  N3_15 
REMARK    7  A    between atoms: N4_19  and  C10_21 
ROOT
HETATM    1  C4  UNL     1      -1.991  -0.102  -1.267  1.00  0.00     0.248 C 
HETATM    2  O1  UNL     1      -1.668   0.654  -2.266  1.00  0.00    -0.268 OA
HETATM    3  N1  UNL     1      -1.028  -0.243  -0.281  1.00  0.00    -0.283 N 
ATOM      4  H1  UNL     1      -0.683  -1.189  -0.115  1.00  0.00     0.173 HD
HETATM    5  C5  UNL     1      -0.506   0.714   0.470  1.00  0.00     0.262 C 
HETATM    6  N2  UNL     1      -0.842   2.001   0.394  1.00  0.00    -0.335 NA
HETATM    7  C6  UNL     1      -1.189   3.335   0.315  1.00  0.00     0.294 C 
HETATM    8  O2  UNL     1      -0.706   4.299   0.998  1.00  0.00    -0.257 OA
HETATM    9  N4  UNL     1       0.494   0.130   1.357  1.00  0.00    -0.329 N 
ATOM     10  H4  UNL     1       0.388   0.267   2.362  1.00  0.00     0.165 HD
ENDROOT
BRANCH   9  11
HETATM   11  C10 UNL     1       1.614  -0.624   0.891  1.00  0.00     0.186 C 
HETATM   12  C11 UNL     1       2.318   0.128  -0.205  1.00  0.00     0.047 C 
HETATM   13  C12 UNL     1       3.090   1.321   0.219  1.00  0.00     0.004 C 
HETATM   14  C13 UNL     1       4.330   1.099   0.992  1.00  0.00     0.000 C 
HETATM   15  C14 UNL     1       5.521   0.622   0.164  1.00  0.00     0.000 C 
HETATM   16  C15 UNL     1       6.228  -0.505   0.824  1.00  0.00     0.000 C 
HETATM   17  C16 UNL     1       6.459  -1.748   0.083  1.00  0.00     0.000 C 
HETATM   18  C17 UNL     1       5.591  -2.109  -1.050  1.00  0.00     0.000 C 
HETATM   19  C18 UNL     1       4.603  -3.232  -0.789  1.00  0.00     0.007 C 
HETATM   20  C19 UNL     1       3.663  -2.932   0.324  1.00  0.00     0.075 C 
HETATM   21  C20 UNL     1       2.232  -2.872  -0.061  1.00  0.00     0.072 C 
HETATM   22  N5  UNL     1       1.797  -3.720  -0.924  1.00  0.00    -0.389 N 
HETATM   23  N6  UNL     1       1.284  -1.957   0.469  1.00  0.00    -0.359 N 
ATOM     24  H52 UNL     1       2.478  -4.377  -1.305  1.00  0.00     0.157 HD
ATOM     25  H51 UNL     1       0.813  -3.679  -1.189  1.00  0.00     0.157 HD
ATOM     26  H6  UNL     1       0.315  -2.263   0.555  1.00  0.00     0.162 HD
ENDBRANCH   9  11
BRANCH   1  27
HETATM   27  C3  UNL     1      -3.312  -0.700  -1.314  1.00  0.00     0.077 C 
HETATM   28  C2  UNL     1      -3.801  -1.490  -0.385  1.00  0.00    -0.071 C 
HETATM   29  C1  UNL     1      -3.057  -1.863   0.825  1.00  0.00     0.044 C 
BRANCH  28  30
HETATM   30  C21 UNL     1      -5.181  -2.043  -0.568  1.00  0.00    -0.028 C 
HETATM   31  C22 UNL     1      -5.144  -3.555  -0.560  1.00  0.00     0.019 C 
HETATM   32  C23 UNL     1      -5.778  -1.624  -1.895  1.00  0.00     0.019 C 
HETATM   33  C24 UNL     1      -6.032  -1.558   0.555  1.00  0.00     0.019 C 
ENDBRANCH  28  30
ENDBRANCH   1  27
BRANCH   7  34
HETATM   34  C7  UNL     1      -2.251   3.797  -0.659  1.00  0.00     0.121 C 
BRANCH  34  35
HETATM   35  C8  UNL     1      -2.604   5.211  -0.424  1.00  0.00     0.038 C 
BRANCH  35  36
HETATM   36  C9  UNL     1      -3.237   5.531   0.885  1.00  0.00     0.230 C 
BRANCH  36  37
HETATM   37  N3  UNL     1      -3.489   6.991   0.864  1.00  0.00    -0.079 N 
ATOM     38  H33 UNL     1      -2.657   7.546   0.666  1.00  0.00     0.274 HD
ATOM     39  H32 UNL     1      -4.035   7.300   0.060  1.00  0.00     0.274 HD
ATOM     40  H31 UNL     1      -3.923   7.210   1.761  1.00  0.00     0.274 HD
ENDBRANCH  36  37
ENDBRANCH  35  36
ENDBRANCH  34  35
ENDBRANCH   7  34
TORSDOF 7
