REMARK  6 active torsions:
REMARK  status: ('A' for Active; 'I' for Inactive)
REMARK    1  A    between atoms: C7_12  and  N3_13 
REMARK    2  A    between atoms: N3_13  and  C8_15 
REMARK    3  A    between atoms: C8_15  and  C9_16 
REMARK    4  A    between atoms: C9_16  and  C10_17 
REMARK    5  A    between atoms: C10_17  and  N4_18 
REMARK    6  A    between atoms: C16_28  and  C17_29 
ROOT
HETATM    1  N1  UNL     1       0.417  -2.790  -0.576  1.00  0.00    -0.401 N 
ATOM      2  H11 UNL     1       1.155  -2.152  -0.872  1.00  0.00     0.156 HD
ATOM      3  H12 UNL     1       0.511  -3.802  -0.667  1.00  0.00     0.156 HD
HETATM    4  C1  UNL     1      -0.657  -2.327  -0.090  1.00  0.00     0.031 C 
HETATM    5  C2  UNL     1      -1.735  -3.259   0.342  1.00  0.00     0.059 C 
HETATM    6  C3  UNL     1      -3.033  -2.498   0.591  1.00  0.00     0.011 C 
HETATM    7  C4  UNL     1      -3.100  -1.354  -0.440  1.00  0.00     0.044 C 
HETATM    8  C5  UNL     1      -2.100  -0.381  -0.093  1.00  0.00     0.001 A 
HETATM    9  C6  UNL     1      -0.792  -0.880   0.040  1.00  0.00     0.080 A 
HETATM   10  N2  UNL     1       0.230  -0.070   0.294  1.00  0.00    -0.188 N 
ATOM     11  H2  UNL     1       1.171  -0.452   0.385  1.00  0.00     0.184 HD
HETATM   12  C7  UNL     1       0.027   1.243   0.430  1.00  0.00     0.700 A 
HETATM   13  N5  UNL     1      -1.224   1.755   0.311  1.00  0.00    -0.086 N 
HETATM   14  N6  UNL     1      -1.684   2.986   0.400  1.00  0.00    -0.290 N 
ATOM     15  H6  UNL     1      -1.100   3.801   0.588  1.00  0.00     0.187 HD
HETATM   16  C15 UNL     1      -2.990   3.039   0.217  1.00  0.00     0.122 A 
HETATM   17  C16 UNL     1      -3.433   1.720  -0.013  1.00  0.00     0.021 A 
HETATM   18  C23 UNL     1      -2.301   0.951   0.050  1.00  0.00     0.095 A 
ENDROOT
BRANCH  12  19
HETATM   19  N3  UNL     1       0.996   2.030   0.670  1.00  0.00    -0.224 N 
ATOM     20  H3  UNL     1       0.749   3.016   0.759  1.00  0.00     0.177 HD
BRANCH  19  21
HETATM   21  C8  UNL     1       2.372   1.728   0.831  1.00  0.00     0.140 C 
BRANCH  21  22
HETATM   22  C9  UNL     1       3.088   1.762  -0.519  1.00  0.00     0.050 C 
BRANCH  22  23
HETATM   23  C10 UNL     1       4.535   1.493  -0.282  1.00  0.00     0.274 C 
BRANCH  23  24
HETATM   24  N4  UNL     1       4.728   0.203   0.309  1.00  0.00     0.092 N 
HETATM   25  C11 UNL     1       6.133  -0.017   0.651  1.00  0.00     0.298 C 
HETATM   26  C12 UNL     1       6.881  -0.386  -0.597  1.00  0.00     0.198 C 
HETATM   27  O1  UNL     1       6.506  -1.670  -0.999  1.00  0.00    -0.388 OA
HETATM   28  C13 UNL     1       5.219  -1.978  -0.552  1.00  0.00     0.198 C 
HETATM   29  C14 UNL     1       4.323  -0.773  -0.706  1.00  0.00     0.298 C 
ENDBRANCH  23  24
ENDBRANCH  22  23
ENDBRANCH  21  22
ENDBRANCH  19  21
ENDBRANCH  12  19
BRANCH  17  30
HETATM   30  C17 UNL     1      -4.820   1.333  -0.185  1.00  0.00    -0.022 A 
HETATM   31  C18 UNL     1      -5.598   0.722   0.791  1.00  0.00     0.012 A 
HETATM   32  C19 UNL     1      -6.904   0.375   0.599  1.00  0.00     0.001 A 
HETATM   33  C20 UNL     1      -7.510   0.630  -0.613  1.00  0.00     0.000 A 
HETATM   34  C21 UNL     1      -6.773   1.236  -1.612  1.00  0.00     0.001 A 
HETATM   35  C22 UNL     1      -5.438   1.583  -1.393  1.00  0.00     0.012 A 
ENDBRANCH  17  30
TORSDOF 6
