REMARK  11 active torsions:
REMARK  status: ('A' for Active; 'I' for Inactive)
REMARK    1  A    between atoms: C3_3  and  S1_4 
REMARK    2  A    between atoms: S1_4  and  C4_6 
REMARK    3  A    between atoms: S1_4  and  C6_8 
REMARK    4  A    between atoms: C6_8  and  C7_9 
REMARK    5  A    between atoms: C7_9  and  N1_10 
REMARK    6  A    between atoms: N1_10  and  C8_12 
REMARK    7  A    between atoms: C8_12  and  C10_14 
REMARK    8  A    between atoms: C14_18  and  O2_19 
REMARK    9  A    between atoms: C18_25  and  O4_26 
REMARK   10  A    between atoms: C20_29  and  O5_30 
REMARK   11  A    between atoms: C24_35  and  C25_36 
ROOT
HETATM    1  C1  UNL     1       8.172   3.608  -0.960  1.00  0.00     0.013 C 
HETATM    2  C2  UNL     1       7.227   2.880  -0.954  1.00  0.00    -0.106 C 
HETATM    3  C3  UNL     1       6.077   1.971  -0.953  1.00  0.00     0.188 C 
ENDROOT
BRANCH   3   4
HETATM    4  S1  UNL     1       6.543   0.502  -1.793  1.00  0.00    -0.043 S 
HETATM    5  O1  UNL     1       7.088   0.951  -3.151  1.00  0.00    -0.269 OA
BRANCH   4   6
HETATM    6  C4  UNL     1       7.925  -0.312  -1.006  1.00  0.00     0.092 C 
HETATM    7  C5  UNL     1       7.630  -0.707   0.417  1.00  0.00     0.017 C 
ENDBRANCH   4   6
BRANCH   4   8
HETATM    8  C6  UNL     1       5.212  -0.582  -2.134  1.00  0.00     0.116 C 
BRANCH   8   9
HETATM    9  C7  UNL     1       4.460  -1.078  -0.942  1.00  0.00     0.126 C 
BRANCH   9  10
HETATM   10  N1  UNL     1       3.898   0.020  -0.234  1.00  0.00    -0.416 N 
ATOM     11  H1  UNL     1       4.060   0.987  -0.516  1.00  0.00     0.153 HD
BRANCH  10  12
HETATM   12  C8  UNL     1       3.086  -0.319   0.907  1.00  0.00     0.081 C 
HETATM   13  C9  UNL     1       3.910  -1.055   1.924  1.00  0.00     0.032 C 
BRANCH  12  14
HETATM   14  C10 UNL     1       1.773  -0.980   0.552  1.00  0.00     0.044 C 
HETATM   15  C11 UNL     1       1.020  -1.312   1.776  1.00  0.00     0.012 C 
HETATM   16  C12 UNL     1      -0.336  -1.807   1.699  1.00  0.00     0.009 C 
HETATM   17  C13 UNL     1      -1.258  -1.536   0.595  1.00  0.00     0.028 C 
HETATM   18  C14 UNL     1      -0.629  -2.119  -0.683  1.00  0.00     0.197 C 
HETATM   19  C33 UNL     1      -1.861  -0.199   0.389  1.00  0.00     0.014 C 
HETATM   20  C15 UNL     1       0.178  -1.064  -1.265  1.00  0.00     0.184 C 
HETATM   21  O3  UNL     1       0.080  -0.871  -2.477  1.00  0.00    -0.290 OA
HETATM   22  C16 UNL     1       1.136  -0.175  -0.496  1.00  0.00    -0.001 C 
HETATM   23  C17 UNL     1       0.639   1.164  -0.321  1.00  0.00     0.044 C 
HETATM   24  C18 UNL     1      -0.216   1.673   0.725  1.00  0.00     0.051 C 
HETATM   25  C19 UNL     1      -1.372   0.896   1.257  1.00  0.00     0.076 C 
HETATM   26  C20 UNL     1      -2.372   1.886   1.781  1.00  0.00     0.129 C 
HETATM   27  C21 UNL     1      -3.788   1.502   1.772  1.00  0.00     0.038 C 
HETATM   28  C22 UNL     1      -4.069   1.011   0.344  1.00  0.00    -0.003 C 
HETATM   29  C23 UNL     1      -5.535   0.914   0.204  1.00  0.00     0.014 C 
HETATM   30  C31 UNL     1      -3.382  -0.296   0.253  1.00  0.00    -0.035 C 
HETATM   31  C24 UNL     1      -6.047  -0.157  -0.713  1.00  0.00     0.021 C 
HETATM   32  C29 UNL     1      -4.976  -0.516  -1.697  1.00  0.00     0.010 C 
HETATM   33  C30 UNL     1      -3.689  -0.950  -1.098  1.00  0.00     0.010 C 
HETATM   34  C32 UNL     1      -3.967  -1.216   1.312  1.00  0.00     0.016 C 
BRANCH  18  35
HETATM   35  O2  UNL     1       0.044  -3.266  -0.303  1.00  0.00    -0.387 OA
ATOM     36  H2  UNL     1       0.432  -3.626  -1.092  1.00  0.00     0.210 HD
ENDBRANCH  18  35
BRANCH  24  37
HETATM   37  O4  UNL     1       0.485   2.233   1.831  1.00  0.00    -0.364 OA
ATOM     38  H4  UNL     1      -0.078   2.568   2.519  1.00  0.00     0.217 HD
ENDBRANCH  24  37
BRANCH  26  39
HETATM   39  O5  UNL     1      -2.065   2.319   3.094  1.00  0.00    -0.395 OA
ATOM     40  H5  UNL     1      -2.698   2.945   3.426  1.00  0.00     0.210 HD
ENDBRANCH  26  39
BRANCH  31  41
HETATM   41  C25 UNL     1      -7.211   0.334  -1.509  1.00  0.00    -0.030 A 
HETATM   42  C26 UNL     1      -8.477  -0.192  -1.555  1.00  0.00     0.034 A 
HETATM   43  C27 UNL     1      -9.203   0.593  -2.423  1.00  0.00     0.142 A 
HETATM   44  O6  UNL     1      -8.414   1.536  -2.871  1.00  0.00    -0.334 OA
HETATM   45  C28 UNL     1      -7.219   1.439  -2.369  1.00  0.00     0.148 A 
ENDBRANCH  31  41
ENDBRANCH  12  14
ENDBRANCH  10  12
ENDBRANCH   9  10
ENDBRANCH   8   9
ENDBRANCH   4   8
ENDBRANCH   3   4
TORSDOF 11
