REMARK  1 active torsions:
REMARK  status: ('A' for Active; 'I' for Inactive)
REMARK    1  A    between atoms: O1_1  and  C1_3 
ROOT
HETATM    1  C1  UNL     1       1.296   0.106   0.349  1.00  0.00     0.235 C 
HETATM    2  C2  UNL     1       0.679  -1.199   0.090  1.00  0.00     0.055 C 
HETATM    3  C3  UNL     1      -0.771  -1.231  -0.200  1.00  0.00     0.009 C 
HETATM    4  C4  UNL     1      -1.519   0.024   0.161  1.00  0.00     0.046 C 
HETATM    5  C5  UNL     1      -0.728   1.179  -0.427  1.00  0.00     0.080 C 
HETATM    6  N1  UNL     1       0.507   1.266   0.234  1.00  0.00    -0.277 N 
HETATM    7 CL1  UNL     1       0.423   2.200   1.693  1.00  0.00     0.015 Cl
ENDROOT
BRANCH   1   8
HETATM    8  O1  UNL     1       2.446   0.295  -0.459  1.00  0.00    -0.376 OA
ATOM      9  H1  UNL     1       2.846   1.140  -0.291  1.00  0.00     0.212 HD
ENDBRANCH   1   8
TORSDOF 1
