REMARK  8 active torsions:
REMARK  status: ('A' for Active; 'I' for Inactive)
REMARK    1  A    between atoms: C3_3  and  O1_4 
REMARK    2  A    between atoms: O1_4  and  C4_5 
REMARK    3  A    between atoms: C4_5  and  C5_7 
REMARK    4  A    between atoms: C9_11  and  C10_12 
REMARK    5  A    between atoms: C13_15  and  O3_16 
REMARK    6  A    between atoms: C15_19  and  C16_20 
REMARK    7  A    between atoms: C18_22  and  O4_23 
REMARK    8  A    between atoms: C21_27  and  C22_28 
ROOT
HETATM    1  C1  UNL     1       6.023   2.196  -0.781  1.00  0.00     0.099 C 
HETATM    2  C2  UNL     1       5.251   1.519  -1.552  1.00  0.00    -0.161 C 
HETATM    3  C3  UNL     1       4.431   0.799  -2.373  1.00  0.00     0.258 C 
ENDROOT
BRANCH   3   4
HETATM    4  O1  UNL     1       3.472  -0.068  -1.686  1.00  0.00    -0.310 OA
BRANCH   4   5
HETATM    5  C4  UNL     1       2.539   0.536  -0.827  1.00  0.00     0.268 C 
HETATM    6  O2  UNL     1       2.579   1.778  -0.681  1.00  0.00    -0.264 OA
BRANCH   5   7
HETATM    7  C5  UNL     1       1.552  -0.346  -0.136  1.00  0.00     0.049 C 
HETATM    8  C6  UNL     1       1.269  -1.498  -1.005  1.00  0.00     0.026 C 
HETATM    9  C7  UNL     1       2.210  -0.853   1.127  1.00  0.00     0.020 C 
HETATM   10  C8  UNL     1       1.077  -1.154   2.086  1.00  0.00     0.011 C 
HETATM   11  C9  UNL     1       0.149   0.041   1.791  1.00  0.00     0.025 C 
HETATM   12  C22 UNL     1       0.399   0.430   0.379  1.00  0.00     0.017 C 
BRANCH  11  13
HETATM   13  C10 UNL     1      -1.199  -0.325   2.179  1.00  0.00    -0.047 A 
HETATM   14  C11 UNL     1      -1.441  -0.459   3.553  1.00  0.00     0.011 A 
HETATM   15  C12 UNL     1      -2.706  -0.815   3.992  1.00  0.00     0.037 A 
HETATM   16  C13 UNL     1      -3.725  -1.040   3.119  1.00  0.00     0.066 A 
HETATM   17  C14 UNL     1      -3.462  -0.900   1.753  1.00  0.00     0.044 A 
HETATM   18  C15 UNL     1      -2.209  -0.545   1.292  1.00  0.00    -0.044 A 
BRANCH  16  19
HETATM   19  O3  UNL     1      -5.026  -1.401   3.517  1.00  0.00    -0.361 OA
ATOM     20  H3  UNL     1      -5.738  -1.558   2.907  1.00  0.00     0.217 HD
ENDBRANCH  16  19
BRANCH  18  21
HETATM   21  C16 UNL     1      -1.956  -0.392  -0.154  1.00  0.00     0.026 C 
HETATM   22  C17 UNL     1      -3.212   0.285  -0.729  1.00  0.00     0.041 C 
HETATM   23  C18 UNL     1      -3.049   0.784  -2.119  1.00  0.00     0.118 C 
HETATM   24  C19 UNL     1      -1.780   1.513  -2.414  1.00  0.00     0.032 C 
HETATM   25  C20 UNL     1      -0.619   0.639  -1.905  1.00  0.00     0.008 C 
HETATM   26  C21 UNL     1      -0.825   0.554  -0.407  1.00  0.00     0.000 C 
BRANCH  23  27
HETATM   27  O4  UNL     1      -4.132   1.628  -2.386  1.00  0.00    -0.396 OA
ATOM     28  H4  UNL     1      -4.028   1.947  -3.275  1.00  0.00     0.210 HD
ENDBRANCH  23  27
ENDBRANCH  18  21
ENDBRANCH  11  13
ENDBRANCH   5   7
ENDBRANCH   4   5
ENDBRANCH   3   4
TORSDOF 8
