REMARK  7 active torsions:
REMARK  status: ('A' for Active; 'I' for Inactive)
REMARK    1  A    between atoms: C2_2  and  N1_3 
REMARK    2  A    between atoms: N1_3  and  C3_5 
REMARK    3  A    between atoms: C3_5  and  N2_7 
REMARK    4  A    between atoms: N2_7  and  N3_9 
REMARK       I    between atoms: N3_9  and  C4_11 
REMARK       I    between atoms: C4_11  and  N4_13 
REMARK    5  A    between atoms: N4_13  and  N5_14 
REMARK    6  A    between atoms: C5_16  and  C6_17 
REMARK    7  A    between atoms: N6_21  and  O2_22 
ROOT
HETATM    1  N3  UNL     1      -0.896  -0.044  -0.801  1.00  0.00    -0.236 N 
ATOM      2  H3  UNL     1      -0.496   0.656  -1.426  1.00  0.00     0.193 HD
HETATM    3  C4  UNL     1       0.011  -0.830   0.044  1.00  0.00     0.431 C 
HETATM    4  O1  UNL     1      -0.686  -1.659   0.757  1.00  0.00    -0.227 OA
HETATM    5  N4  UNL     1       1.330  -0.633  -0.002  1.00  0.00    -0.264 NA
ENDROOT
BRANCH   1   6
HETATM    6  N2  UNL     1      -2.267  -0.210  -0.788  1.00  0.00    -0.272 N 
ATOM      7  H2  UNL     1      -2.734  -0.693  -1.555  1.00  0.00     0.189 HD
BRANCH   6   8
HETATM    8  C3  UNL     1      -3.017   0.295   0.296  1.00  0.00     0.186 C 
HETATM    9  S1  UNL     1      -2.240   1.055   1.506  1.00  0.00    -0.040 SA
BRANCH   8  10
HETATM   10  N1  UNL     1      -4.425   0.130   0.319  1.00  0.00    -0.366 N 
ATOM     11  H1  UNL     1      -4.894  -0.353  -0.447  1.00  0.00     0.161 HD
BRANCH  10  12
HETATM   12  C2  UNL     1      -5.196   0.646   1.428  1.00  0.00     0.117 C 
HETATM   13  C1  UNL     1      -6.653   0.340   1.219  1.00  0.00     0.026 C 
ENDBRANCH  10  12
ENDBRANCH   8  10
ENDBRANCH   6   8
ENDBRANCH   1   6
BRANCH   5  14
HETATM   14  N5  UNL     1       2.629  -0.439  -0.047  1.00  0.00    -0.239 N 
HETATM   15  C5  UNL     1       3.418  -0.292  -1.034  1.00  0.00     0.160 C 
ATOM     16  H5  UNL     1       3.082  -0.400   0.866  1.00  0.00     0.201 HD
BRANCH  15  17
HETATM   17  C6  UNL     1       4.842  -0.090  -0.692  1.00  0.00     0.120 A 
HETATM   18  S2  UNL     1       5.588  -0.030   0.843  1.00  0.00    -0.079 SA
HETATM   19  C7  UNL     1       7.198   0.232   0.331  1.00  0.00     0.071 A 
HETATM   20  C8  UNL     1       7.053   0.256  -1.030  1.00  0.00     0.131 A 
HETATM   21  N6  UNL     1       5.865   0.093  -1.531  1.00  0.00    -0.227 N 
BRANCH  21  22
HETATM   22  O2  UNL     1       5.614   0.104  -2.927  1.00  0.00    -0.282 OA
ATOM     23  H2  UNL     1       6.342   0.234  -3.524  1.00  0.00     0.245 HD
ENDBRANCH  21  22
ENDBRANCH  15  17
ENDBRANCH   5  14
TORSDOF 7
