REMARK  10 active torsions:
REMARK  status: ('A' for Active; 'I' for Inactive)
REMARK    1  A    between atoms: O1_2  and  C2_3 
REMARK    2  A    between atoms: C2_3  and  C3_5 
REMARK    3  A    between atoms: C15_17  and  C16_18 
REMARK    4  A    between atoms: C16_18  and  O3_19 
REMARK    5  A    between atoms: C16_18  and  C17_21 
REMARK    6  A    between atoms: C17_21  and  N1_22 
REMARK    7  A    between atoms: N1_22  and  C18_25 
REMARK    8  A    between atoms: C18_25  and  C19_26 
REMARK    9  A    between atoms: C19_26  and  C20_27 
REMARK   10  A    between atoms: C20_27  and  C21_28 
ROOT
HETATM    1  C3  UNL     1      -4.380   0.715   1.331  1.00  0.00     0.117 C 
HETATM    2  C4  UNL     1      -5.663   0.343   2.062  1.00  0.00     0.049 C 
HETATM    3  C5  UNL     1      -4.051  -0.369   0.374  1.00  0.00     0.041 C 
HETATM    4  C6  UNL     1      -5.252  -1.167  -0.054  1.00  0.00     0.003 C 
HETATM    5  C7  UNL     1      -4.867  -2.569  -0.495  1.00  0.00     0.000 C 
HETATM    6  C8  UNL     1      -3.663  -2.633  -1.370  1.00  0.00     0.000 C 
HETATM    7  C9  UNL     1      -2.797  -3.845  -0.989  1.00  0.00     0.000 C 
HETATM    8  C10 UNL     1      -1.539  -3.420  -0.278  1.00  0.00     0.000 C 
HETATM    9  C11 UNL     1      -0.272  -3.891  -0.902  1.00  0.00     0.000 C 
HETATM   10  C12 UNL     1       0.604  -2.726  -1.219  1.00  0.00     0.006 C 
HETATM   11  C13 UNL     1       1.526  -2.303  -0.095  1.00  0.00     0.007 C 
HETATM   12  C14 UNL     1       2.320  -3.537   0.356  1.00  0.00     0.012 C 
HETATM   13  C15 UNL     1       2.475  -1.253  -0.705  1.00  0.00     0.118 C 
HETATM   14  N2  UNL     1       1.770  -0.476  -1.668  1.00  0.00    -0.349 N 
ATOM     15  H2  UNL     1       1.616  -0.980  -2.542  1.00  0.00     0.163 HD
HETATM   16  C22 UNL     1       1.247   0.802  -1.692  1.00  0.00     0.260 C 
HETATM   17  O6  UNL     1       1.466   1.533  -2.713  1.00  0.00    -0.267 OA
HETATM   18  C23 UNL     1       0.429   1.483  -0.661  1.00  0.00     0.095 A 
HETATM   19  S1  UNL     1      -0.705   0.693   0.328  1.00  0.00    -0.077 SA
HETATM   20  C24 UNL     1      -1.275   2.008   1.244  1.00  0.00     0.075 A 
HETATM   21  C25 UNL     1      -0.548   3.048   0.741  1.00  0.00     0.050 A 
HETATM   22  C26 UNL     1       0.330   2.782  -0.241  1.00  0.00     0.058 A 
HETATM   23 CL1  UNL     1       1.330   4.087  -0.977  1.00  0.00    -0.083 Cl
HETATM   24  C27 UNL     1      -2.315   1.901   2.299  1.00  0.00     0.259 C 
HETATM   25  O7  UNL     1      -2.183   2.744   3.244  1.00  0.00    -0.267 OA
HETATM   26  N3  UNL     1      -3.364   0.983   2.314  1.00  0.00    -0.338 N 
ATOM     27  H3  UNL     1      -3.420   0.410   3.156  1.00  0.00     0.164 HD
ENDROOT
BRANCH  13  28
HETATM   28  C16 UNL     1       3.349  -0.604   0.280  1.00  0.00     0.167 C 
BRANCH  28  29
HETATM   29  O3  UNL     1       2.829   0.331   1.129  1.00  0.00    -0.392 OA
ATOM     30  H3  UNL     1       3.395   0.751   1.766  1.00  0.00     0.210 HD
ENDBRANCH  28  29
BRANCH  28  31
HETATM   31  C17 UNL     1       4.658  -0.056  -0.241  1.00  0.00     0.265 C 
BRANCH  31  32
HETATM   32  N1  UNL     1       4.428   1.193  -0.921  1.00  0.00    -0.073 N 
ATOM     33  H12 UNL     1       3.724   1.082  -1.651  1.00  0.00     0.277 HD
ATOM     34  H11 UNL     1       3.940   1.850  -0.313  1.00  0.00     0.277 HD
BRANCH  32  35
HETATM   35  C18 UNL     1       5.618   1.782  -1.451  1.00  0.00     0.233 C 
BRANCH  35  36
HETATM   36  C19 UNL     1       6.570   2.267  -0.377  1.00  0.00     0.038 C 
BRANCH  36  37
HETATM   37  C20 UNL     1       5.930   3.317   0.509  1.00  0.00     0.115 C 
BRANCH  37  38
HETATM   38  C21 UNL     1       6.915   3.748   1.535  1.00  0.00     0.172 C 
HETATM   39  O4  UNL     1       7.129   2.983   2.498  1.00  0.00    -0.648 OA
HETATM   40  O5  UNL     1       7.603   4.949   1.474  1.00  0.00    -0.648 OA
ENDBRANCH  37  38
ENDBRANCH  36  37
ENDBRANCH  35  36
ENDBRANCH  32  35
ENDBRANCH  31  32
ENDBRANCH  28  31
ENDBRANCH  13  28
BRANCH   1  41
HETATM   41  C2  UNL     1      -4.729   1.911   0.516  1.00  0.00     0.286 C 
HETATM   42  O2  UNL     1      -4.189   3.029   0.684  1.00  0.00    -0.262 OA
BRANCH  41  43
HETATM   43  O1  UNL     1      -5.697   1.752  -0.463  1.00  0.00    -0.325 OA
HETATM   44  C1  UNL     1      -6.117   2.803  -1.301  1.00  0.00     0.213 C 
ENDBRANCH  41  43
ENDBRANCH   1  41
TORSDOF 10
