REMARK  5 active torsions:
REMARK  status: ('A' for Active; 'I' for Inactive)
REMARK    1  A    between atoms: C4_4  and  O1_5 
REMARK    2  A    between atoms: N2_10  and  N3_12 
REMARK    3  A    between atoms: N3_12  and  C7_14 
REMARK    4  A    between atoms: C7_14  and  C8_15 
REMARK    5  A    between atoms: C8_15  and  N4_16 
ROOT
HETATM    1  C1  UNL     1      -3.564   2.365   0.206  1.00  0.00     0.048 C 
HETATM    2  C2  UNL     1      -2.782   1.102   0.168  1.00  0.00    -0.054 A 
HETATM    3  C3  UNL     1      -3.464  -0.103   0.122  1.00  0.00     0.062 A 
HETATM    4  C4  UNL     1      -2.735  -1.255   0.088  1.00  0.00     0.141 A 
HETATM    5  N1  UNL     1      -1.368  -1.218   0.099  1.00  0.00    -0.323 N 
ATOM      6  H1  UNL     1      -0.857  -2.100   0.072  1.00  0.00     0.169 HD
HETATM    7  C5  UNL     1      -0.672  -0.081   0.143  1.00  0.00     0.118 A 
HETATM    8  N2  UNL     1       0.604  -0.001   0.155  1.00  0.00    -0.305 N 
ATOM      9  H2  UNL     1       1.048   0.916   0.190  1.00  0.00     0.182 HD
HETATM   10  C9  UNL     1      -1.405   1.106   0.178  1.00  0.00     0.056 A 
ENDROOT
BRANCH   8  11
HETATM   11  N3  UNL     1       1.385  -1.127   0.122  1.00  0.00    -0.233 NA
HETATM   12  C6  UNL     1       1.398  -1.683  -1.217  1.00  0.00     0.136 C 
BRANCH  11  13
HETATM   13  C7  UNL     1       2.733  -0.897   0.616  1.00  0.00     0.140 C 
BRANCH  13  14
HETATM   14  C8  UNL     1       3.418   0.257  -0.052  1.00  0.00     0.245 C 
BRANCH  14  15
HETATM   15  N4  UNL     1       2.708   1.506   0.138  1.00  0.00    -0.078 N 
ATOM     16  H43 UNL     1       1.738   1.428  -0.167  1.00  0.00     0.274 HD
ATOM     17  H42 UNL     1       2.553   1.694   1.128  1.00  0.00     0.274 HD
ATOM     18  H41 UNL     1       3.174   2.291  -0.317  1.00  0.00     0.274 HD
ENDBRANCH  14  15
ENDBRANCH  13  14
ENDBRANCH  11  13
ENDBRANCH   8  11
BRANCH   4  19
HETATM   19  O1  UNL     1      -3.379  -2.491   0.041  1.00  0.00    -0.346 OA
ATOM     20  H1  UNL     1      -2.871  -3.294   0.017  1.00  0.00     0.219 HD
ENDBRANCH   4  19
TORSDOF 5
