REMARK  5 active torsions:
REMARK  status: ('A' for Active; 'I' for Inactive)
REMARK    1  A    between atoms: C2_2  and  C3_3 
REMARK    2  A    between atoms: C6_8  and  C7_9 
REMARK    3  A    between atoms: C7_9  and  C8_10 
REMARK    4  A    between atoms: C8_10  and  N2_11 
REMARK    5  A    between atoms: N2_11  and  N3_13 
ROOT
HETATM    1  C3  UNL     1       2.778   0.152   0.013  1.00  0.00     0.101 A 
HETATM    2  N1  UNL     1       2.552  -1.170   0.084  1.00  0.00    -0.344 N 
ATOM      3  H1  UNL     1       3.275  -1.884   0.170  1.00  0.00     0.167 HD
HETATM    4  C4  UNL     1       1.229  -1.412   0.025  1.00  0.00     0.033 A 
HETATM    5  C5  UNL     1       0.618  -2.748   0.074  1.00  0.00     0.070 C 
HETATM    6  C6  UNL     1       0.585  -0.179  -0.090  1.00  0.00     0.054 A 
HETATM    7  N4  UNL     1       1.579   0.737  -0.091  1.00  0.00    -0.341 N 
ATOM      8  H4  UNL     1       1.434   1.744  -0.162  1.00  0.00     0.167 HD
ENDROOT
BRANCH   6   9
HETATM    9  C7  UNL     1      -0.689   0.067  -0.175  1.00  0.00     0.043 C 
BRANCH   9  10
HETATM   10  C8  UNL     1      -1.784  -0.902  -0.173  1.00  0.00     0.371 C 
BRANCH  10  11
HETATM   11  N2  UNL     1      -3.086  -0.268   0.016  1.00  0.00     0.102 N 
HETATM   12  C9  UNL     1      -3.179   1.017  -0.596  1.00  0.00     0.389 C 
HETATM   13  O1  UNL     1      -4.061  -1.057  -0.540  1.00  0.00    -0.043 OA
BRANCH  11  14
HETATM   14  N3  UNL     1      -3.413  -0.148   1.372  1.00  0.00    -0.211 N 
ATOM     15  H32 UNL     1      -2.805  -0.469   2.125  1.00  0.00     0.192 HD
ATOM     16  H31 UNL     1      -4.322   0.295   1.504  1.00  0.00     0.192 HD
ENDBRANCH  11  14
ENDBRANCH  10  11
ENDBRANCH   9  10
ENDBRANCH   6   9
BRANCH   1  17
HETATM   17  C2  UNL     1       3.980   0.759   0.043  1.00  0.00     0.017 C 
HETATM   18  C1  UNL     1       4.138   2.208  -0.040  1.00  0.00     0.040 C 
ENDBRANCH   1  17
TORSDOF 5
