REMARK  2 active torsions:
REMARK  status: ('A' for Active; 'I' for Inactive)
REMARK    1  A    between atoms: C6_9  and  C7_10 
REMARK    2  A    between atoms: N3_13  and  C10_14 
ROOT
HETATM    1  C1  UNL     1      -4.729  -1.285  -2.491  1.00  0.00     0.151 C 
HETATM    2  N1  UNL     1      -4.918  -0.285  -1.436  1.00  0.00    -0.370 N 
HETATM    3  C2  UNL     1      -6.173   0.421  -1.264  1.00  0.00     0.124 C 
HETATM    4  C3  UNL     1      -6.551   0.316   0.176  1.00  0.00     0.026 C 
HETATM    5  C4  UNL     1      -5.520   0.772   1.144  1.00  0.00     0.063 C 
HETATM    6  C5  UNL     1      -4.135   0.533   0.698  1.00  0.00     0.055 A 
HETATM    7  N2  UNL     1      -2.958   0.728   1.313  1.00  0.00    -0.346 N 
ATOM      8  H2  UNL     1      -2.843   1.100   2.256  1.00  0.00     0.167 HD
HETATM    9  C6  UNL     1      -1.944   0.356   0.491  1.00  0.00     0.087 A 
HETATM   10  N4  UNL     1      -2.518  -0.074  -0.646  1.00  0.00    -0.330 N 
ATOM     11  H4  UNL     1      -2.016  -0.422  -1.463  1.00  0.00     0.168 HD
HETATM   12  C18 UNL     1      -3.866   0.026  -0.541  1.00  0.00     0.127 A 
ENDROOT
BRANCH   9  13
HETATM   13  C7  UNL     1      -0.479   0.409   0.773  1.00  0.00     0.056 C 
HETATM   14  C8  UNL     1       0.258   1.144  -0.331  1.00  0.00     0.032 C 
HETATM   15  C9  UNL     1       1.603   0.505  -0.634  1.00  0.00     0.118 C 
HETATM   16  N3  UNL     1       2.208   0.082   0.576  1.00  0.00    -0.408 N 
HETATM   17  C16 UNL     1       1.489  -0.960   1.260  1.00  0.00     0.118 C 
HETATM   18  C17 UNL     1       0.044  -1.028   0.791  1.00  0.00     0.032 C 
BRANCH  16  19
HETATM   19  C10 UNL     1       3.622  -0.067   0.587  1.00  0.00     0.079 C 
HETATM   20  C11 UNL     1       4.122  -1.123  -0.398  1.00  0.00     0.025 C 
HETATM   21  C12 UNL     1       5.624  -1.236  -0.166  1.00  0.00     0.002 C 
HETATM   22  C13 UNL     1       6.242   0.078  -0.590  1.00  0.00     0.000 C 
HETATM   23  C14 UNL     1       5.815   1.117   0.453  1.00  0.00     0.002 C 
HETATM   24  C15 UNL     1       4.300   1.252   0.435  1.00  0.00     0.025 C 
ENDBRANCH  16  19
ENDBRANCH   9  13
TORSDOF 2
