REMARK  3 active torsions:
REMARK  status: ('A' for Active; 'I' for Inactive)
REMARK    1  A    between atoms: C1_6  and  C2_7 
REMARK    2  A    between atoms: N3_15  and  C8_17 
REMARK    3  A    between atoms: C13_22  and  C14_23 
ROOT
HETATM    1  O1  UNL     1      -1.815  -0.962   3.205  1.00  0.00    -0.200 OA
HETATM    2  S1  UNL     1      -2.645  -0.293   2.131  1.00  0.00     0.265 S 
HETATM    3  O2  UNL     1      -3.978   0.082   2.707  1.00  0.00    -0.200 OA
HETATM    4  N1  UNL     1      -1.806   1.151   1.691  1.00  0.00    -0.275 N 
ATOM      5  H1  UNL     1      -2.134   1.986   2.176  1.00  0.00     0.179 HD
HETATM    6  C1  UNL     1      -0.841   1.370   0.863  1.00  0.00     0.113 C 
HETATM    7  C7  UNL     1      -0.158   0.375   0.020  1.00  0.00     0.136 C 
HETATM    8  N3  UNL     1       1.075   0.673  -0.218  1.00  0.00    -0.340 N 
ATOM      9  H3  UNL     1       1.456   1.532   0.179  1.00  0.00     0.167 HD
HETATM   10  N4  UNL     1      -0.716  -0.799  -0.509  1.00  0.00    -0.339 N 
ATOM     11  H4  UNL     1      -0.099  -1.264  -1.175  1.00  0.00     0.167 HD
HETATM   12  C16 UNL     1      -1.946  -1.486  -0.327  1.00  0.00     0.057 A 
HETATM   13  C17 UNL     1      -2.242  -2.370  -1.351  1.00  0.00     0.031 A 
HETATM   14  C18 UNL     1      -3.395  -3.124  -1.341  1.00  0.00     0.002 A 
HETATM   15  C19 UNL     1      -4.260  -2.977  -0.277  1.00  0.00     0.002 A 
HETATM   16  C20 UNL     1      -3.962  -2.096   0.741  1.00  0.00     0.027 A 
HETATM   17  C21 UNL     1      -2.806  -1.336   0.738  1.00  0.00     0.106 A 
ENDROOT
BRANCH   6  18
HETATM   18  C2  UNL     1      -0.386   2.749   0.756  1.00  0.00     0.063 A 
HETATM   19  C3  UNL     1      -1.007   3.701   1.533  1.00  0.00     0.032 A 
HETATM   20  C4  UNL     1      -0.589   5.009   1.445  1.00  0.00     0.004 A 
HETATM   21  C5  UNL     1       0.424   5.342   0.600  1.00  0.00     0.017 A 
HETATM   22  C6  UNL     1       1.040   4.383  -0.174  1.00  0.00     0.088 A 
HETATM   23  N2  UNL     1       0.612   3.116  -0.068  1.00  0.00    -0.364 N 
ATOM     24  H2  UNL     1       1.063   2.400  -0.637  1.00  0.00     0.165 HD
ENDBRANCH   6  18
BRANCH   8  25
HETATM   25  C8  UNL     1       1.925  -0.147  -1.011  1.00  0.00     0.044 A 
HETATM   26  C9  UNL     1       1.979  -0.053  -2.364  1.00  0.00     0.030 A 
HETATM   27  C10 UNL     1       2.811  -0.861  -3.091  1.00  0.00     0.002 A 
HETATM   28  C11 UNL     1       3.620  -1.793  -2.491  1.00  0.00     0.001 A 
HETATM   29  C12 UNL     1       3.558  -1.883  -1.102  1.00  0.00     0.014 A 
HETATM   30  C13 UNL     1       2.735  -1.087  -0.350  1.00  0.00    -0.009 A 
BRANCH  30  31
HETATM   31  C14 UNL     1       2.687  -1.196   1.089  1.00  0.00     0.025 C 
HETATM   32  C15 UNL     1       3.309  -1.955   1.917  1.00  0.00     0.085 C 
HETATM   33 CL1  UNL     1       4.488  -3.189   1.683  1.00  0.00    -0.097 Cl
ENDBRANCH  30  31
ENDBRANCH   8  25
TORSDOF 3
