REMARK  7 active torsions:
REMARK  status: ('A' for Active; 'I' for Inactive)
REMARK    1  A    between atoms: C1_2  and  C2_3 
REMARK    2  A    between atoms: C2_3  and  C3_4 
REMARK    3  A    between atoms: C3_4  and  C4_5 
REMARK    4  A    between atoms: C7_8  and  N1_9 
REMARK    5  A    between atoms: N1_9  and  C8_11 
REMARK    6  A    between atoms: N4_24  and  C17_25 
REMARK    7  A    between atoms: C17_25  and  C18_26 
ROOT
HETATM    1  C8  UNL     1       0.317   1.116  -0.108  1.00  0.00     0.136 A 
HETATM    2  N2  UNL     1       1.325   1.942   0.306  1.00  0.00    -0.337 N 
ATOM      3  H2  UNL     1       2.287   1.602   0.314  1.00  0.00     0.168 HD
HETATM    4  C9  UNL     1       1.062   3.186   0.699  1.00  0.00     0.182 A 
HETATM    5  N3  UNL     1      -0.206   3.612   0.681  1.00  0.00    -0.350 N 
ATOM      6  H3  UNL     1      -0.408   4.565   0.982  1.00  0.00     0.166 HD
HETATM    7  C10 UNL     1      -1.226   2.827   0.280  1.00  0.00     0.076 A 
HETATM    8  C11 UNL     1      -2.582   3.023   0.152  1.00  0.00     0.020 A 
HETATM    9  C12 UNL     1      -3.360   4.134   0.401  1.00  0.00     0.016 A 
HETATM   10  C13 UNL     1      -4.723   4.132   0.182  1.00  0.00     0.001 A 
HETATM   11  C14 UNL     1      -5.275   2.965  -0.300  1.00  0.00     0.002 A 
HETATM   12  C15 UNL     1      -4.485   1.867  -0.542  1.00  0.00     0.030 A 
HETATM   13  C16 UNL     1      -3.119   1.854  -0.327  1.00  0.00     0.048 A 
HETATM   14  N4  UNL     1      -2.127   0.911  -0.506  1.00  0.00    -0.337 N 
HETATM   15  C24 UNL     1      -1.000   1.513  -0.141  1.00  0.00     0.107 A 
ENDROOT
BRANCH   1  16
HETATM   16  N1  UNL     1       0.604  -0.070  -0.517  1.00  0.00    -0.341 N 
ATOM     17  H1  UNL     1      -0.133  -0.702  -0.831  1.00  0.00     0.167 HD
BRANCH  16  18
HETATM   18  C7  UNL     1       1.963  -0.485  -0.525  1.00  0.00     0.033 A 
HETATM   19  C6  UNL     1       2.659  -0.744   0.640  1.00  0.00     0.031 A 
HETATM   20  C5  UNL     1       3.978  -1.144   0.584  1.00  0.00     0.023 A 
HETATM   21  C4  UNL     1       4.654  -1.303  -0.607  1.00  0.00     0.018 A 
HETATM   22  C26 UNL     1       3.971  -1.048  -1.778  1.00  0.00     0.023 A 
HETATM   23  C25 UNL     1       2.653  -0.648  -1.716  1.00  0.00     0.031 A 
BRANCH  21  24
HETATM   24  C3  UNL     1       6.027  -1.722  -0.602  1.00  0.00    -0.065 C 
BRANCH  24  25
HETATM   25  C2  UNL     1       7.180  -2.088  -0.581  1.00  0.00    -0.070 C 
BRANCH  25  26
HETATM   26  C1  UNL     1       8.563  -2.547  -0.539  1.00  0.00     0.316 C 
HETATM   27  F1  UNL     1       8.643  -3.930  -0.480  1.00  0.00    -0.242 F 
ENDBRANCH  25  26
ENDBRANCH  24  25
ENDBRANCH  21  24
ENDBRANCH  16  18
ENDBRANCH   1  16
BRANCH  14  28
HETATM   28  C17 UNL     1      -2.397  -0.418  -0.990  1.00  0.00     0.168 C 
BRANCH  28  29
HETATM   29  C18 UNL     1      -2.667  -1.476  -0.021  1.00  0.00    -0.040 A 
HETATM   30  C19 UNL     1      -1.835  -2.583   0.017  1.00  0.00     0.009 A 
HETATM   31  C20 UNL     1      -1.971  -3.634   0.865  1.00  0.00     0.001 A 
HETATM   32  C21 UNL     1      -3.024  -3.611   1.772  1.00  0.00     0.000 A 
HETATM   33  C22 UNL     1      -3.885  -2.552   1.791  1.00  0.00     0.001 A 
HETATM   34  C23 UNL     1      -3.698  -1.500   0.898  1.00  0.00     0.009 A 
ENDBRANCH  28  29
ENDBRANCH  14  28
TORSDOF 7
