REMARK  7 active torsions:
REMARK  status: ('A' for Active; 'I' for Inactive)
REMARK    1  A    between atoms: C2_2  and  C3_3 
REMARK    2  A    between atoms: C3_3  and  C4_4 
REMARK    3  A    between atoms: C5_5  and  O1_6 
REMARK    4  A    between atoms: O1_6  and  C6_7 
REMARK    5  A    between atoms: C6_7  and  C7_8 
REMARK    6  A    between atoms: C10_12  and  O2_13 
REMARK    7  A    between atoms: C12_16  and  O3_17 
ROOT
HETATM    1  C4  UNL     1      -1.486   0.421  -0.063  1.00  0.00    -0.011 A 
HETATM    2  C5  UNL     1      -0.352   1.172  -0.433  1.00  0.00     0.084 A 
HETATM    3  C13 UNL     1      -0.366   2.507  -0.743  1.00  0.00    -0.004 A 
HETATM    4  C14 UNL     1       0.919   3.172  -1.122  1.00  0.00     0.053 C 
HETATM    5  C15 UNL     1      -1.552   3.152  -0.689  1.00  0.00     0.077 A 
HETATM    6 CL2  UNL     1      -1.628   4.862  -1.078  1.00  0.00    -0.081 Cl
HETATM    7  C16 UNL     1      -2.702   2.486  -0.332  1.00  0.00     0.113 A 
HETATM    8  O4  UNL     1      -3.831   3.150  -0.290  1.00  0.00    -0.272 OA
HETATM    9  C17 UNL     1      -4.951   2.602   0.036  1.00  0.00     0.310 A 
HETATM   10  O5  UNL     1      -5.994   3.294   0.056  1.00  0.00    -0.258 OA
HETATM   11  C18 UNL     1      -5.011   1.278   0.360  1.00  0.00     0.116 A 
HETATM   12 CL3  UNL     1      -6.522   0.496   0.807  1.00  0.00    -0.077 Cl
HETATM   13  C19 UNL     1      -3.842   0.473   0.344  1.00  0.00    -0.020 A 
HETATM   14  C20 UNL     1      -3.899  -0.918   0.730  1.00  0.00     0.051 C 
HETATM   15  C21 UNL     1      -2.678   1.107  -0.013  1.00  0.00     0.017 A 
ENDROOT
BRANCH   2  16
HETATM   16  O1  UNL     1       0.868   0.483  -0.473  1.00  0.00    -0.345 OA
BRANCH  16  17
HETATM   17  C6  UNL     1       1.715   0.538   0.668  1.00  0.00     0.217 C 
BRANCH  17  18
HETATM   18  C7  UNL     1       2.945  -0.255   0.471  1.00  0.00     0.001 A 
HETATM   19  C8  UNL     1       3.235  -0.965  -0.673  1.00  0.00     0.038 A 
HETATM   20  C9  UNL     1       4.397  -1.705  -0.830  1.00  0.00     0.067 A 
HETATM   21 CL1  UNL     1       4.739  -2.598  -2.292  1.00  0.00    -0.081 Cl
HETATM   22  C10 UNL     1       5.322  -1.752   0.182  1.00  0.00     0.090 A 
HETATM   23  C11 UNL     1       5.056  -1.044   1.348  1.00  0.00     0.075 A 
HETATM   24  C12 UNL     1       3.893  -0.315   1.482  1.00  0.00     0.076 A 
BRANCH  22  25
HETATM   25  O2  UNL     1       6.511  -2.457   0.129  1.00  0.00    -0.359 OA
ATOM     26  H2  UNL     1       7.152  -2.490   0.830  1.00  0.00     0.217 HD
ENDBRANCH  22  25
BRANCH  24  27
HETATM   27  O3  UNL     1       3.648   0.386   2.659  1.00  0.00    -0.360 OA
ATOM     28  H3  UNL     1       4.297   0.345   3.351  1.00  0.00     0.217 HD
ENDBRANCH  24  27
ENDBRANCH  17  18
ENDBRANCH  16  17
ENDBRANCH   2  16
BRANCH   1  29
HETATM   29  C3  UNL     1      -1.417  -1.003   0.162  1.00  0.00     0.042 C 
BRANCH  29  30
HETATM   30  C2  UNL     1      -1.289  -1.848  -1.102  1.00  0.00     0.000 C 
HETATM   31  C1  UNL     1      -1.210  -3.280  -0.706  1.00  0.00     0.005 C 
ENDBRANCH  29  30
ENDBRANCH   1  29
TORSDOF 7
