REMARK  9 active torsions:
REMARK  status: ('A' for Active; 'I' for Inactive)
REMARK    1  A    between atoms: O1_2  and  N1_3 
REMARK    2  A    between atoms: N1_3  and  C2_4 
REMARK    3  A    between atoms: C2_4  and  C4_6 
REMARK    4  A    between atoms: C4_6  and  C5_7 
REMARK    5  A    between atoms: C4_6  and  N2_13 
REMARK    6  A    between atoms: C5_7  and  C6_8 
REMARK    7  A    between atoms: C6_8  and  C7_9 
REMARK    8  A    between atoms: C7_9  and  O3_11 
REMARK       I    between atoms: N2_13  and  C9_15 
REMARK    9  A    between atoms: C9_15  and  C10_17 
ROOT
HETATM    1  C4  UNL     1      -0.051  -0.200  -0.604  1.00  0.00     0.106 C 
ENDROOT
BRANCH   1   2
HETATM    2  C2  UNL     1      -0.425   1.206  -0.967  1.00  0.00     0.125 C 
HETATM    3  C3  UNL     1       0.784   1.883  -1.639  1.00  0.00     0.032 C 
BRANCH   2   4
HETATM    4  N1  UNL     1      -0.752   2.023   0.159  1.00  0.00    -0.095 NA
BRANCH   4   5
HETATM    5  O1  UNL     1      -1.071   3.278  -0.142  1.00  0.00    -0.291 OA
HETATM    6  C1  UNL     1      -0.212   4.190   0.513  1.00  0.00     0.231 C 
ENDBRANCH   4   5
ENDBRANCH   2   4
ENDBRANCH   1   2
BRANCH   1   7
HETATM    7  C5  UNL     1      -1.164  -0.898   0.119  1.00  0.00     0.036 C 
BRANCH   7   8
HETATM    8  C6  UNL     1      -2.380  -0.957  -0.743  1.00  0.00     0.113 C 
BRANCH   8   9
HETATM    9  C7  UNL     1      -3.458  -1.675   0.006  1.00  0.00     0.258 C 
HETATM   10  O2  UNL     1      -3.294  -2.122   1.157  1.00  0.00    -0.265 OA
BRANCH   9  11
HETATM   11  O3  UNL     1      -4.690  -1.852  -0.600  1.00  0.00    -0.326 OA
HETATM   12  C8  UNL     1      -5.755  -2.525   0.061  1.00  0.00     0.213 C 
ENDBRANCH   9  11
ENDBRANCH   8   9
ENDBRANCH   7   8
ENDBRANCH   1   7
BRANCH   1  13
HETATM   13  N2  UNL     1       1.131  -0.280   0.195  1.00  0.00    -0.349 N 
HETATM   14  C9  UNL     1       2.280  -0.920  -0.317  1.00  0.00     0.270 C 
HETATM   15  O4  UNL     1       2.326  -1.435  -1.459  1.00  0.00    -0.266 OA
ATOM     16  H2  UNL     1       1.144   0.124   1.132  1.00  0.00     0.163 HD
BRANCH  14  17
HETATM   17  C10 UNL     1       3.489  -0.998   0.508  1.00  0.00     0.117 A 
HETATM   18  C11 UNL     1       4.693  -1.580   0.176  1.00  0.00     0.124 A 
HETATM   19  N3  UNL     1       5.564  -1.454   1.188  1.00  0.00    -0.360 N 
HETATM   20  C12 UNL     1       4.896  -0.793   2.149  1.00  0.00     0.180 A 
ATOM     21  H3  UNL     1       6.527  -1.788   1.221  1.00  0.00     0.166 HD
HETATM   22  N4  UNL     1       3.652  -0.513   1.758  1.00  0.00    -0.347 N 
ATOM     23  H4  UNL     1       2.948  -0.019   2.306  1.00  0.00     0.167 HD
ENDBRANCH  14  17
ENDBRANCH   1  13
TORSDOF 9
