REMARK  9 active torsions:
REMARK  status: ('A' for Active; 'I' for Inactive)
REMARK    1  A    between atoms: N1_2  and  C2_4 
REMARK    2  A    between atoms: C2_4  and  O1_5 
REMARK    3  A    between atoms: C2_4  and  C3_7 
REMARK    4  A    between atoms: C3_7  and  C4_8 
REMARK    5  A    between atoms: C3_7  and  N3_23 
REMARK    6  A    between atoms: C4_8  and  C5_9 
REMARK    7  A    between atoms: C5_9  and  C6_10 
REMARK    8  A    between atoms: C6_10  and  N2_11 
REMARK       I    between atoms: N3_23  and  C18_25 
REMARK    9  A    between atoms: C18_25  and  C19_27 
ROOT
HETATM    1  C3  UNL     1       1.943  -1.472  -0.053  1.00  0.00     0.159 C 
ENDROOT
BRANCH   1   2
HETATM    2  C2  UNL     1       2.085  -2.868   0.284  1.00  0.00     0.134 C 
BRANCH   2   3
HETATM    3  N1  UNL     1       1.215  -3.780   0.880  1.00  0.00    -0.377 N 
HETATM    4  C1  UNL     1       1.608  -5.183   1.113  1.00  0.00     0.148 C 
ATOM      5  H1  UNL     1       0.285  -3.470   1.162  1.00  0.00     0.160 HD
ENDBRANCH   2   3
BRANCH   2   6
HETATM    6  O1  UNL     1       3.250  -3.374  -0.023  1.00  0.00    -0.348 OA
ATOM      7  H1  UNL     1       3.843  -2.753  -0.429  1.00  0.00     0.219 HD
ENDBRANCH   2   6
ENDBRANCH   1   2
BRANCH   1   8
HETATM    8  C4  UNL     1       0.808  -0.660   0.367  1.00  0.00     0.035 C 
BRANCH   8   9
HETATM    9  C5  UNL     1      -0.563  -0.998  -0.123  1.00  0.00     0.030 C 
BRANCH   9  10
HETATM   10  C6  UNL     1      -1.537  -0.010   0.471  1.00  0.00     0.237 C 
BRANCH  10  11
HETATM   11  N2  UNL     1      -2.918  -0.217   0.069  1.00  0.00    -0.067 N 
HETATM   12  C7  UNL     1      -3.089  -1.639  -0.090  1.00  0.00     0.273 C 
HETATM   13  C8  UNL     1      -3.667   0.221   1.232  1.00  0.00     0.238 C 
HETATM   14  C9  UNL     1      -5.115   0.011   1.276  1.00  0.00     0.037 C 
HETATM   15  C10 UNL     1      -5.943   1.157   0.758  1.00  0.00    -0.039 A 
HETATM   16  C11 UNL     1      -6.118   1.231  -0.702  1.00  0.00     0.010 C 
HETATM   17  C16 UNL     1      -5.798   2.469   1.488  1.00  0.00     0.010 A 
HETATM   18  C17 UNL     1      -7.058   1.732   1.658  1.00  0.00     0.010 A 
HETATM   19  C12 UNL     1      -5.768   0.030  -1.498  1.00  0.00     0.003 C 
HETATM   20  C13 UNL     1      -4.363  -0.089  -1.938  1.00  0.00     0.033 C 
HETATM   21  C14 UNL     1      -3.326   0.560  -1.051  1.00  0.00     0.186 C 
HETATM   22  C15 UNL     1      -2.214   0.969  -2.014  1.00  0.00     0.040 C 
ENDBRANCH  10  11
ENDBRANCH   9  10
ENDBRANCH   8   9
ENDBRANCH   1   8
BRANCH   1  23
HETATM   23  N3  UNL     1       3.190  -0.798   0.309  1.00  0.00    -0.348 N 
HETATM   24  C18 UNL     1       4.049  -0.243  -0.654  1.00  0.00     0.226 C 
HETATM   25  O2  UNL     1       3.765  -0.311  -1.878  1.00  0.00    -0.273 OA
ATOM     26  H3  UNL     1       3.444  -0.729   1.294  1.00  0.00     0.163 HD
BRANCH  24  27
HETATM   27  C19 UNL     1       5.305   0.432  -0.235  1.00  0.00     0.037 C 
HETATM   28  C20 UNL     1       6.157  -0.562   0.496  1.00  0.00     0.025 C 
HETATM   29  C21 UNL     1       4.931   1.581   0.679  1.00  0.00     0.019 C 
HETATM   30  C22 UNL     1       6.156   2.231   1.283  1.00  0.00     0.001 C 
HETATM   31  C23 UNL     1       7.130   2.575   0.203  1.00  0.00     0.000 C 
HETATM   32  C24 UNL     1       6.572   2.368  -1.189  1.00  0.00     0.001 C 
HETATM   33  C25 UNL     1       6.081   0.963  -1.404  1.00  0.00     0.019 C 
ENDBRANCH  24  27
ENDBRANCH   1  23
TORSDOF 9
