REMARK  18 active torsions:
REMARK  status: ('A' for Active; 'I' for Inactive)
REMARK    1  A    between atoms: C2_2  and  O2_4 
REMARK    2  A    between atoms: O2_4  and  C3_5 
REMARK    3  A    between atoms: C4_6  and  C5_7 
REMARK    4  A    between atoms: C5_7  and  O3_8 
REMARK    5  A    between atoms: C6_11  and  O5_12 
REMARK    6  A    between atoms: O5_12  and  C7_13 
REMARK    7  A    between atoms: C8_14  and  O6_15 
REMARK    8  A    between atoms: C9_17  and  O7_18 
REMARK    9  A    between atoms: C10_20  and  C11_21 
REMARK   10  A    between atoms: C11_21  and  N1_22 
REMARK   11  A    between atoms: C15_27  and  C16_28 
REMARK   12  A    between atoms: C17_29  and  C18_30 
REMARK   13  A    between atoms: C19_31  and  O8_32 
REMARK   14  A    between atoms: C20_34  and  O9_35 
REMARK   15  A    between atoms: C23_39  and  N2_40 
REMARK   16  A    between atoms: N2_40  and  N3_42 
REMARK   17  A    between atoms: N3_42  and  N4_43 
REMARK   18  A    between atoms: C24_46  and  O10_47 
ROOT
HETATM    1  C7  UNL     1       0.691   1.382  -0.403  1.00  0.00     0.165 C 
HETATM    2  C8  UNL     1       1.021   2.268   0.779  1.00  0.00     0.177 C 
HETATM    3  C9  UNL     1      -0.191   3.078   1.237  1.00  0.00     0.156 C 
HETATM    4  C10 UNL     1      -0.783   3.684  -0.013  1.00  0.00     0.064 C 
HETATM    5  C14 UNL     1      -1.468   2.551  -0.769  1.00  0.00     0.101 C 
HETATM    6 CL1  UNL     1      -1.400   2.788  -2.511  1.00  0.00    -0.124 Cl
HETATM    7  C15 UNL     1      -0.816   1.200  -0.448  1.00  0.00     0.058 C 
ENDROOT
BRANCH   7   8
HETATM    8  C16 UNL     1      -1.222   0.299  -1.558  1.00  0.00    -0.021 C 
HETATM    9  C17 UNL     1      -1.909  -0.803  -1.453  1.00  0.00    -0.021 C 
BRANCH   9  10
HETATM   10  C18 UNL     1      -2.443  -1.415  -0.220  1.00  0.00     0.065 C 
HETATM   11  C19 UNL     1      -3.932  -1.698  -0.323  1.00  0.00     0.157 C 
HETATM   12  C20 UNL     1      -4.178  -2.791   0.682  1.00  0.00     0.153 C 
HETATM   13  C21 UNL     1      -2.835  -3.281   1.139  1.00  0.00     0.039 C 
HETATM   14  C22 UNL     1      -2.851  -4.785   1.244  1.00  0.00     0.015 C 
HETATM   15  C23 UNL     1      -1.903  -2.810   0.029  1.00  0.00     0.131 C 
BRANCH  11  16
HETATM   16  O8  UNL     1      -4.298  -2.114  -1.587  1.00  0.00    -0.392 OA
ATOM     17  H8  UNL     1      -5.229  -2.291  -1.651  1.00  0.00     0.210 HD
ENDBRANCH  11  16
BRANCH  12  18
HETATM   18  O9  UNL     1      -4.863  -2.312   1.815  1.00  0.00    -0.393 OA
ATOM     19  H9  UNL     1      -5.018  -3.002   2.449  1.00  0.00     0.210 HD
ENDBRANCH  12  18
BRANCH  15  20
HETATM   20  N2  UNL     1      -2.188  -3.605  -1.133  1.00  0.00    -0.247 N 
ATOM     21  H2  UNL     1      -2.964  -3.318  -1.729  1.00  0.00     0.197 HD
BRANCH  20  22
HETATM   22  N3  UNL     1      -1.559  -4.605  -1.454  1.00  0.00    -0.248 NA
BRANCH  22  23
HETATM   23  N4  UNL     1      -0.828  -5.388  -2.054  1.00  0.00    -0.261 N 
ATOM     24  H42 UNL     1      -0.589  -4.732  -2.797  1.00  0.00     0.193 HD
ATOM     25  H41 UNL     1      -0.304  -6.221  -2.321  1.00  0.00     0.193 HD
ENDBRANCH  22  23
ENDBRANCH  20  22
ENDBRANCH  15  20
ENDBRANCH   9  10
ENDBRANCH   7   8
BRANCH   1  26
HETATM   26  O5  UNL     1       1.345   0.193  -0.248  1.00  0.00    -0.350 OA
BRANCH  26  27
HETATM   27  C6  UNL     1       2.201  -0.123  -1.288  1.00  0.00     0.292 C 
HETATM   28  O4  UNL     1       1.835  -1.369  -1.785  1.00  0.00    -0.348 OA
HETATM   29  C4  UNL     1       2.294  -2.338  -0.921  1.00  0.00     0.180 C 
HETATM   30  C3  UNL     1       3.347  -1.713  -0.052  1.00  0.00     0.196 C 
HETATM   31  C24 UNL     1       3.617  -0.423  -0.796  1.00  0.00     0.205 C 
BRANCH  29  32
HETATM   32  C5  UNL     1       2.773  -3.588  -1.624  1.00  0.00     0.198 C 
BRANCH  32  33
HETATM   33  O3  UNL     1       3.809  -3.371  -2.500  1.00  0.00    -0.398 OA
ATOM     34  H3  UNL     1       4.110  -4.156  -2.942  1.00  0.00     0.209 HD
ENDBRANCH  32  33
ENDBRANCH  29  32
BRANCH  30  35
HETATM   35  O2  UNL     1       4.476  -2.501   0.137  1.00  0.00    -0.311 OA
BRANCH  35  36
HETATM   36  C2  UNL     1       4.900  -2.807   1.419  1.00  0.00     0.255 C 
HETATM   37  C1  UNL     1       6.087  -3.637   1.700  1.00  0.00     0.126 C 
HETATM   38  O1  UNL     1       4.244  -2.358   2.399  1.00  0.00    -0.266 OA
ENDBRANCH  35  36
ENDBRANCH  30  35
BRANCH  31  39
HETATM   39  O10 UNL     1       4.420  -0.609  -1.918  1.00  0.00    -0.388 OA
ATOM     40  H10 UNL     1       4.589   0.201  -2.385  1.00  0.00     0.210 HD
ENDBRANCH  31  39
ENDBRANCH  26  27
ENDBRANCH   1  26
BRANCH   2  41
HETATM   41  O6  UNL     1       1.964   3.195   0.334  1.00  0.00    -0.390 OA
ATOM     42  H6  UNL     1       2.171   3.751   1.076  1.00  0.00     0.210 HD
ENDBRANCH   2  41
BRANCH   4  43
HETATM   43  C11 UNL     1      -1.747   4.779   0.331  1.00  0.00     0.280 C 
BRANCH  43  44
HETATM   44  N1  UNL     1      -1.019   5.805   1.061  1.00  0.00     0.080 N 
HETATM   45  C12 UNL     1      -1.955   6.882   1.444  1.00  0.00     0.309 C 
HETATM   46  C13 UNL     1      -0.087   6.375   0.077  1.00  0.00     0.309 C 
ENDBRANCH  43  44
ENDBRANCH   4  43
BRANCH   3  47
HETATM   47  O7  UNL     1       0.230   3.987   2.175  1.00  0.00    -0.392 OA
ATOM     48  H7  UNL     1      -0.524   4.491   2.460  1.00  0.00     0.210 HD
ENDBRANCH   3  47
TORSDOF 18
