REMARK  15 active torsions:
REMARK  status: ('A' for Active; 'I' for Inactive)
REMARK    1  A    between atoms: S1_2  and  C2_3 
REMARK    2  A    between atoms: C4_5  and  O1_6 
REMARK    3  A    between atoms: O1_6  and  C5_7 
REMARK    4  A    between atoms: C6_8  and  O2_9 
REMARK    5  A    between atoms: O2_9  and  C7_10 
REMARK    6  A    between atoms: C11_14  and  N1_15 
REMARK    7  A    between atoms: C12_19  and  N2_20 
REMARK    8  A    between atoms: C14_25  and  N3_26 
REMARK    9  A    between atoms: C15_30  and  O3_31 
REMARK   10  A    between atoms: O3_31  and  C16_32 
REMARK   11  A    between atoms: C18_37  and  C19_38 
REMARK   12  A    between atoms: C19_38  and  C20_39 
REMARK   13  A    between atoms: C20_39  and  N5_40 
REMARK   14  A    between atoms: C23_43  and  O4_44 
REMARK   15  A    between atoms: C26_49  and  O6_50 
ROOT
HETATM    1  C5  UNL     1      -1.093   0.384   0.740  1.00  0.00     0.186 C 
HETATM    2  C6  UNL     1      -2.130   1.466   0.881  1.00  0.00     0.184 C 
HETATM    3  C12 UNL     1      -2.414   1.850   2.299  1.00  0.00     0.217 C 
HETATM    4  C13 UNL     1      -1.179   2.059   3.123  1.00  0.00     0.071 C 
HETATM    5  C14 UNL     1      -0.357   0.816   3.091  1.00  0.00     0.217 C 
HETATM    6  C15 UNL     1       0.077   0.533   1.667  1.00  0.00     0.186 C 
ENDROOT
BRANCH   6   7
HETATM    7  O3  UNL     1       1.009   1.454   1.216  1.00  0.00    -0.347 OA
BRANCH   7   8
HETATM    8  C16 UNL     1       2.214   0.822   0.986  1.00  0.00     0.350 C 
HETATM    9  N4  UNL     1       3.288   1.509   1.689  1.00  0.00    -0.046 N 
HETATM   10  C17 UNL     1       4.511   1.030   1.074  1.00  0.00     0.242 C 
ATOM     11  H42 UNL     1       3.197   2.525   1.689  1.00  0.00     0.280 HD
ATOM     12  H41 UNL     1       3.261   1.388   2.701  1.00  0.00     0.280 HD
HETATM   13  C18 UNL     1       4.169   0.979  -0.393  1.00  0.00     0.046 C 
HETATM   14  C23 UNL     1       2.677   0.934  -0.450  1.00  0.00     0.180 C 
BRANCH  13  15
HETATM   15  C19 UNL     1       4.819  -0.231  -1.014  1.00  0.00     0.028 C 
BRANCH  15  16
HETATM   16  C20 UNL     1       6.323  -0.165  -0.865  1.00  0.00     0.116 C 
BRANCH  16  17
HETATM   17  N5  UNL     1       6.994  -1.284  -1.432  1.00  0.00    -0.421 N 
HETATM   18  C21 UNL     1       6.807  -2.536  -0.785  1.00  0.00     0.142 C 
HETATM   19  C22 UNL     1       8.274  -1.039  -2.002  1.00  0.00     0.142 C 
ENDBRANCH  16  17
ENDBRANCH  15  16
ENDBRANCH  13  15
BRANCH  14  20
HETATM   20  O4  UNL     1       2.209   2.131  -0.982  1.00  0.00    -0.391 OA
ATOM     21  H4  UNL     1       2.500   2.201  -1.884  1.00  0.00     0.210 HD
ENDBRANCH  14  20
ENDBRANCH   7   8
ENDBRANCH   6   7
BRANCH   1  22
HETATM   22  O1  UNL     1      -1.716  -0.856   0.863  1.00  0.00    -0.351 OA
BRANCH  22  23
HETATM   23  C4  UNL     1      -1.666  -1.613  -0.302  1.00  0.00     0.262 C 
HETATM   24  C3  UNL     1      -3.041  -1.876  -0.866  1.00  0.00     0.078 C 
HETATM   25  C2  UNL     1      -3.857  -2.783   0.027  1.00  0.00     0.082 C 
HETATM   26  C26 UNL     1      -3.005  -3.863   0.625  1.00  0.00     0.160 C 
HETATM   27  C24 UNL     1      -1.706  -3.919  -0.125  1.00  0.00     0.150 C 
HETATM   28  O5  UNL     1      -0.951  -2.760  -0.054  1.00  0.00    -0.354 OA
HETATM   29  C25 UNL     1      -0.866  -5.026   0.528  1.00  0.00     0.042 C 
BRANCH  25  30
HETATM   30  S1  UNL     1      -5.249  -3.400  -0.941  1.00  0.00    -0.166 SA
HETATM   31  C1  UNL     1      -4.746  -4.475  -2.280  1.00  0.00     0.090 C 
ENDBRANCH  25  30
BRANCH  26  32
HETATM   32  O6  UNL     1      -2.705  -3.562   1.952  1.00  0.00    -0.392 OA
ATOM     33  H6  UNL     1      -2.165  -4.246   2.331  1.00  0.00     0.210 HD
ENDBRANCH  26  32
ENDBRANCH  22  23
ENDBRANCH   1  22
BRANCH   5  34
HETATM   34  N3  UNL     1      -1.018  -0.344   3.600  1.00  0.00    -0.072 N 
ATOM     35  H33 UNL     1      -1.363  -0.171   4.544  1.00  0.00     0.274 HD
ATOM     36  H32 UNL     1      -1.903  -0.491   3.114  1.00  0.00     0.274 HD
ATOM     37  H31 UNL     1      -0.455  -1.195   3.578  1.00  0.00     0.274 HD
ENDBRANCH   5  34
BRANCH   2  38
HETATM   38  O2  UNL     1      -1.837   2.597   0.124  1.00  0.00    -0.374 OA
BRANCH  38  39
HETATM   39  C7  UNL     1      -2.767   2.817  -0.877  1.00  0.00     0.152 C 
HETATM   40  C8  UNL     1      -2.194   2.858  -2.255  1.00  0.00     0.034 C 
HETATM   41  C9  UNL     1      -2.585   4.179  -2.868  1.00  0.00     0.005 C 
HETATM   42  C10 UNL     1      -2.709   5.052  -1.611  1.00  0.00     0.035 C 
HETATM   43  C11 UNL     1      -3.509   4.119  -0.718  1.00  0.00     0.212 C 
BRANCH  43  44
HETATM   44  N1  UNL     1      -4.836   4.027  -1.308  1.00  0.00    -0.073 N 
ATOM     45  H13 UNL     1      -4.797   3.730  -2.283  1.00  0.00     0.274 HD
ATOM     46  H12 UNL     1      -5.365   3.241  -0.930  1.00  0.00     0.274 HD
ATOM     47  H11 UNL     1      -5.338   4.908  -1.200  1.00  0.00     0.274 HD
ENDBRANCH  43  44
ENDBRANCH  38  39
ENDBRANCH   2  38
BRANCH   3  48
HETATM   48  N2  UNL     1      -3.317   0.883   2.896  1.00  0.00    -0.072 N 
ATOM     49  H23 UNL     1      -4.171   0.767   2.351  1.00  0.00     0.274 HD
ATOM     50  H22 UNL     1      -2.964  -0.071   2.820  1.00  0.00     0.274 HD
ATOM     51  H21 UNL     1      -3.511   1.145   3.863  1.00  0.00     0.274 HD
ENDBRANCH   3  48
TORSDOF 15
