REMARK  16 active torsions:
REMARK  status: ('A' for Active; 'I' for Inactive)
REMARK    1  A    between atoms: C2_2  and  C3_3 
REMARK    2  A    between atoms: C3_3  and  N1_4 
REMARK    3  A    between atoms: N1_4  and  C4_6 
REMARK    4  A    between atoms: C4_6  and  C5_7 
REMARK    5  A    between atoms: C7_9  and  O1_10 
REMARK    6  A    between atoms: O1_10  and  C8_11 
REMARK    7  A    between atoms: C9_13  and  C10_14 
REMARK    8  A    between atoms: C10_14  and  S1_15 
REMARK    9  A    between atoms: C12_17  and  S2_18 
REMARK   10  A    between atoms: S2_18  and  C13_19 
REMARK   11  A    between atoms: C14_20  and  O3_21 
REMARK   12  A    between atoms: C15_23  and  C16_24 
REMARK   13  A    between atoms: C17_26  and  O5_27 
REMARK   14  A    between atoms: C19_29  and  O6_30 
REMARK   15  A    between atoms: C20_33  and  O8_34 
REMARK   16  A    between atoms: C21_36  and  O9_37 
ROOT
HETATM    1  C8  UNL     1       0.249   0.426  -1.352  1.00  0.00     0.415 C 
HETATM    2  O2  UNL     1      -0.431   1.441  -2.019  1.00  0.00    -0.329 OA
HETATM    3  C9  UNL     1      -1.829   1.142  -1.729  1.00  0.00     0.175 C 
HETATM    4  C12 UNL     1      -1.599   0.708  -0.307  1.00  0.00     0.218 C 
HETATM    5  O7  UNL     1      -0.676  -0.323  -0.581  1.00  0.00    -0.320 OA
ENDROOT
BRANCH   1   6
HETATM    6  O1  UNL     1       1.216   0.910  -0.474  1.00  0.00    -0.331 OA
BRANCH   6   7
HETATM    7  C7  UNL     1       2.482   0.483  -0.774  1.00  0.00     0.158 C 
HETATM    8  C6  UNL     1       3.126  -0.334   0.360  1.00  0.00     0.043 C 
HETATM    9  C5  UNL     1       4.515  -0.508  -0.267  1.00  0.00     0.037 C 
HETATM   10  C21 UNL     1       4.810   0.837  -0.899  1.00  0.00     0.155 C 
HETATM   11  C20 UNL     1       3.498   1.585  -0.931  1.00  0.00     0.176 C 
BRANCH   9  12
HETATM   12  C4  UNL     1       5.567  -0.838   0.737  1.00  0.00     0.121 C 
BRANCH  12  13
HETATM   13  N1  UNL     1       6.821  -0.993   0.077  1.00  0.00    -0.418 N 
ATOM     14  H1  UNL     1       6.911  -0.885  -0.933  1.00  0.00     0.153 HD
BRANCH  13  15
HETATM   15  C3  UNL     1       7.940  -1.306   0.896  1.00  0.00     0.140 C 
BRANCH  15  16
HETATM   16  C2  UNL     1       8.288  -0.160   1.774  1.00  0.00    -0.018 C 
HETATM   17  C1  UNL     1       8.262  -0.312   3.080  1.00  0.00     0.008 C 
ENDBRANCH  15  16
ENDBRANCH  13  15
ENDBRANCH  12  13
ENDBRANCH   9  12
BRANCH  10  18
HETATM   18  O9  UNL     1       5.735   1.578  -0.165  1.00  0.00    -0.392 OA
ATOM     19  H9  UNL     1       5.920   2.421  -0.561  1.00  0.00     0.210 HD
ENDBRANCH  10  18
BRANCH  11  20
HETATM   20  O8  UNL     1       3.395   2.226  -2.162  1.00  0.00    -0.390 OA
ATOM     21  H8  UNL     1       4.035   2.921  -2.261  1.00  0.00     0.210 HD
ENDBRANCH  11  20
ENDBRANCH   6   7
ENDBRANCH   1   6
BRANCH   3  22
HETATM   22  C10 UNL     1      -2.138   0.009  -2.688  1.00  0.00     0.109 C 
BRANCH  22  23
HETATM   23  S1  UNL     1      -1.919   0.549  -4.399  1.00  0.00    -0.171 SA
HETATM   24  C11 UNL     1      -0.231   0.943  -4.832  1.00  0.00     0.089 C 
ENDBRANCH  22  23
ENDBRANCH   3  22
BRANCH   4  25
HETATM   25  S2  UNL     1      -2.793   0.548   0.868  1.00  0.00    -0.124 SA
BRANCH  25  26
HETATM   26  C13 UNL     1      -4.182  -0.451   0.942  1.00  0.00     0.110 C 
HETATM   27  C14 UNL     1      -5.422  -0.093   0.169  1.00  0.00     0.147 C 
HETATM   28  C15 UNL     1      -6.316  -1.268   0.643  1.00  0.00     0.108 C 
HETATM   29  C17 UNL     1      -6.219  -0.993   2.147  1.00  0.00     0.164 C 
HETATM   30  C19 UNL     1      -4.801  -0.529   2.372  1.00  0.00     0.164 C 
BRANCH  27  31
HETATM   31  O3  UNL     1      -5.366  -0.014  -1.167  1.00  0.00    -0.393 OA
ATOM     32  H3  UNL     1      -6.149   0.212  -1.655  1.00  0.00     0.210 HD
ENDBRANCH  27  31
BRANCH  28  33
HETATM   33  C16 UNL     1      -7.683  -1.130   0.129  1.00  0.00     0.241 C 
HETATM   34  O4  UNL     1      -8.019  -0.370  -0.764  1.00  0.00    -0.306 OA
ENDBRANCH  28  33
BRANCH  29  35
HETATM   35  O5  UNL     1      -7.141   0.023   2.404  1.00  0.00    -0.387 OA
HETATM   36  C18 UNL     1      -8.146  -0.338   3.264  1.00  0.00     0.202 C 
ENDBRANCH  29  35
BRANCH  30  37
HETATM   37  O6  UNL     1      -4.058  -1.465   3.106  1.00  0.00    -0.392 OA
ATOM     38  H6  UNL     1      -4.435  -1.512   3.977  1.00  0.00     0.210 HD
ENDBRANCH  30  37
ENDBRANCH  25  26
ENDBRANCH   4  25
TORSDOF 16
