REMARK  13 active torsions:
REMARK  status: ('A' for Active; 'I' for Inactive)
REMARK    1  A    between atoms: N1_1  and  C1_4 
REMARK    2  A    between atoms: N3_8  and  C3_10 
REMARK    3  A    between atoms: C3_10  and  C4_11 
REMARK    4  A    between atoms: C4_11  and  O1_12 
REMARK    5  A    between atoms: N6_21  and  C8_22 
REMARK    6  A    between atoms: C10_25  and  O3_26 
REMARK    7  A    between atoms: C10_25  and  C11_28 
REMARK    8  A    between atoms: C11_28  and  O4_29 
REMARK    9  A    between atoms: C11_28  and  O5_31 
REMARK   10  A    between atoms: C11_28  and  C12_33 
REMARK       I    between atoms: C12_33  and  N7_35 
REMARK   11  A    between atoms: N7_35  and  N8_37 
REMARK   12  A    between atoms: C13_40  and  C14_41 
REMARK   13  A    between atoms: C14_41  and  O7_42 
ROOT
HETATM    1  C8  UNL     1      -0.248  -0.847   0.237  1.00  0.00     0.380 C 
HETATM    2  O2  UNL     1      -0.478   0.439  -0.110  1.00  0.00    -0.340 OA
HETATM    3  C9  UNL     1      -1.755   0.884  -0.164  1.00  0.00     0.219 C 
HETATM    4  C10 UNL     1      -2.823  -0.126  -0.370  1.00  0.00     0.173 C 
HETATM    5  C13 UNL     1      -2.516  -1.379   0.360  1.00  0.00     0.192 C 
HETATM    6  O8  UNL     1      -1.252  -1.543   0.829  1.00  0.00    -0.333 OA
ENDROOT
BRANCH   1   7
HETATM    7  N6  UNL     1       0.907  -0.877   1.120  1.00  0.00    -0.277 N 
HETATM    8  C5  UNL     1       2.163  -0.638   0.711  1.00  0.00     0.158 A 
HETATM    9  N4  UNL     1       2.750  -0.329  -0.473  1.00  0.00    -0.174 N 
HETATM   10  C6  UNL     1       2.959  -0.759   1.826  1.00  0.00     0.123 A 
HETATM   11  C2  UNL     1       4.075  -0.141  -0.579  1.00  0.00     0.681 A 
ATOM     12  H4  UNL     1       2.168  -0.237  -1.306  1.00  0.00     0.186 HD
HETATM   13  N2  UNL     1       4.852  -0.258   0.502  1.00  0.00    -0.175 N 
HETATM   14  N3  UNL     1       4.616   0.149  -1.702  1.00  0.00    -0.224 N 
HETATM   15  C1  UNL     1       4.317  -0.562   1.696  1.00  0.00     0.145 A 
ATOM     16  H2  UNL     1       5.859  -0.115   0.420  1.00  0.00     0.186 HD
ATOM     17  H3  UNL     1       3.982   0.227  -2.497  1.00  0.00     0.177 HD
HETATM   18  N5  UNL     1       2.166  -1.068   2.880  1.00  0.00    -0.346 N 
HETATM   19  C7  UNL     1       0.902  -1.138   2.430  1.00  0.00     0.190 A 
ATOM     20  H5  UNL     1       2.473  -1.220   3.841  1.00  0.00     0.167 HD
BRANCH  15  21
HETATM   21  N1  UNL     1       5.088  -0.673   2.745  1.00  0.00    -0.383 N 
ATOM     22  H12 UNL     1       6.093  -0.527   2.649  1.00  0.00     0.157 HD
ATOM     23  H11 UNL     1       4.682  -0.904   3.652  1.00  0.00     0.157 HD
ENDBRANCH  15  21
BRANCH  14  24
HETATM   24  C3  UNL     1       5.992   0.376  -1.977  1.00  0.00     0.164 C 
BRANCH  24  25
HETATM   25  C4  UNL     1       6.462   1.777  -1.659  1.00  0.00     0.184 C 
BRANCH  25  26
HETATM   26  O1  UNL     1       5.763   2.733  -2.395  1.00  0.00    -0.399 OA
ATOM     27  H1  UNL     1       6.058   3.614  -2.195  1.00  0.00     0.209 HD
ENDBRANCH  25  26
ENDBRANCH  24  25
ENDBRANCH  14  24
ENDBRANCH   1   7
BRANCH   5  28
HETATM   28  C14 UNL     1      -2.775  -2.568  -0.578  1.00  0.00     0.199 C 
BRANCH  28  29
HETATM   29  O7  UNL     1      -2.666  -3.771   0.083  1.00  0.00    -0.398 OA
ATOM     30  H7  UNL     1      -2.826  -4.506  -0.497  1.00  0.00     0.209 HD
ENDBRANCH  28  29
ENDBRANCH   5  28
BRANCH   4  31
HETATM   31  O3  UNL     1      -2.849  -0.421  -1.750  1.00  0.00    -0.379 OA
ATOM     32  H3  UNL     1      -3.533  -1.067  -1.882  1.00  0.00     0.211 HD
ENDBRANCH   4  31
BRANCH   4  33
HETATM   33  C11 UNL     1      -4.189   0.379   0.048  1.00  0.00     0.282 C 
BRANCH  33  34
HETATM   34  O4  UNL     1      -5.098  -0.639  -0.228  1.00  0.00    -0.356 OA
ATOM     35  H4  UNL     1      -5.954  -0.322   0.034  1.00  0.00     0.213 HD
ENDBRANCH  33  34
BRANCH  33  36
HETATM   36  O5  UNL     1      -4.212   0.607   1.420  1.00  0.00    -0.356 OA
ATOM     37  H5  UNL     1      -5.068   0.924   1.682  1.00  0.00     0.213 HD
ENDBRANCH  33  36
BRANCH  33  38
HETATM   38  C12 UNL     1      -4.605   1.615  -0.659  1.00  0.00     0.301 C 
HETATM   39  O6  UNL     1      -3.947   2.677  -0.551  1.00  0.00    -0.265 OA
HETATM   40  N7  UNL     1      -5.759   1.652  -1.486  1.00  0.00    -0.272 N 
ATOM     41  H7  UNL     1      -6.329   0.815  -1.608  1.00  0.00     0.189 HD
BRANCH  40  42
HETATM   42  N8  UNL     1      -6.109   2.839  -2.130  1.00  0.00    -0.342 N 
ATOM     43  H82 UNL     1      -5.528   3.667  -1.997  1.00  0.00     0.176 HD
ATOM     44  H81 UNL     1      -6.938   2.866  -2.724  1.00  0.00     0.176 HD
ENDBRANCH  40  42
ENDBRANCH  33  38
ENDBRANCH   4  33
TORSDOF 13
