REMARK  1 active torsions:
REMARK  status: ('A' for Active; 'I' for Inactive)
REMARK    1  A    between atoms: N1_6  and  C5_7 
ROOT
HETATM    1  C1  UNL     1       0.797  -1.948   1.108  1.00  0.00     0.023 C 
HETATM    2  C2  UNL     1       0.652  -0.448   0.970  1.00  0.00     0.018 C 
HETATM    3  C3  UNL     1       1.333   0.184   2.140  1.00  0.00     0.023 C 
HETATM    4  C4  UNL     1      -0.798  -0.147   1.054  1.00  0.00     0.096 C 
HETATM    5  S1  UNL     1      -1.440   0.318   2.472  1.00  0.00    -0.064 SA
HETATM    6  N1  UNL     1      -1.643  -0.255  -0.079  1.00  0.00    -0.273 N 
HETATM    7  C8  UNL     1      -1.022  -0.599  -1.308  1.00  0.00     0.103 C 
HETATM    8  N3  UNL     1      -1.772  -0.933  -2.298  1.00  0.00    -0.387 N 
ATOM      9  H31 UNL     1      -1.326  -1.180  -3.181  1.00  0.00     0.157 HD
ATOM     10  H32 UNL     1      -2.784  -0.941  -2.173  1.00  0.00     0.157 HD
HETATM   11  C9  UNL     1       0.428  -0.587  -1.487  1.00  0.00     0.172 C 
HETATM   12  C10 UNL     1       0.923  -1.912  -1.811  1.00  0.00     0.072 C 
HETATM   13  N4  UNL     1       1.319  -2.963  -2.088  1.00  0.00    -0.196 NA
HETATM   14  C11 UNL     1       1.166   0.063  -0.345  1.00  0.00     0.027 C 
HETATM   15  C12 UNL     1       0.926   1.541  -0.405  1.00  0.00     0.015 C 
HETATM   16  C13 UNL     1       2.254   2.233  -0.320  1.00  0.00     0.004 C 
HETATM   17  C14 UNL     1       3.306   1.165  -0.124  1.00  0.00     0.038 C 
HETATM   18  C15 UNL     1       2.631  -0.124  -0.545  1.00  0.00     0.181 C 
HETATM   19  F1  UNL     1       2.896  -0.261  -1.915  1.00  0.00    -0.249 F 
ENDROOT
BRANCH   6  20
HETATM   20  C5  UNL     1      -3.069  -0.028   0.010  1.00  0.00     0.157 A 
HETATM   21  N2  UNL     1      -4.018  -0.917   0.268  1.00  0.00    -0.346 N 
HETATM   22  C6  UNL     1      -5.253  -0.546   0.312  1.00  0.00     0.097 A 
ATOM     23  H2  UNL     1      -3.772  -1.893   0.432  1.00  0.00     0.167 HD
HETATM   24  C7  UNL     1      -5.536   0.776   0.084  1.00  0.00     0.070 A 
HETATM   25  S2  UNL     1      -3.964   1.414  -0.184  1.00  0.00    -0.064 SA
ENDBRANCH   6  20
TORSDOF 1
