REMARK  4 active torsions:
REMARK  status: ('A' for Active; 'I' for Inactive)
REMARK    1  A    between atoms: O1_2  and  C2_3 
REMARK    2  A    between atoms: C2_3  and  C3_5 
REMARK    3  A    between atoms: C4_6  and  N1_7 
REMARK    4  A    between atoms: N1_7  and  C5_9 
ROOT
HETATM    1  C3  UNL     1       0.081   0.820  -0.014  1.00  0.00     0.163 C 
HETATM    2  C4  UNL     1       1.407   0.195  -0.114  1.00  0.00     0.097 C 
HETATM    3  N2  UNL     1       1.594  -0.740  -0.981  1.00  0.00    -0.334 N 
ATOM      4  H2  UNL     1       2.499  -1.200  -1.084  1.00  0.00     0.168 HD
HETATM    5  C9  UNL     1       0.484  -1.098  -1.783  1.00  0.00     0.095 C 
HETATM    6  N3  UNL     1       0.690  -1.445  -3.016  1.00  0.00    -0.388 N 
ATOM      7  H31 UNL     1      -0.110  -1.703  -3.594  1.00  0.00     0.157 HD
ATOM      8  H32 UNL     1       1.647  -1.446  -3.370  1.00  0.00     0.157 HD
HETATM    9  C10 UNL     1      -0.921  -1.097  -1.263  1.00  0.00     0.169 C 
HETATM   10  C11 UNL     1      -1.780  -0.809  -2.382  1.00  0.00     0.072 C 
HETATM   11  N4  UNL     1      -2.471  -0.599  -3.285  1.00  0.00    -0.196 NA
HETATM   12  C12 UNL     1      -1.077  -0.171  -0.078  1.00  0.00     0.002 C 
HETATM   13  C13 UNL     1      -0.891  -1.034   1.160  1.00  0.00     0.012 C 
HETATM   14  C14 UNL     1      -2.078  -1.758   1.632  1.00  0.00     0.001 C 
HETATM   15  C15 UNL     1      -3.369  -1.435   0.967  1.00  0.00     0.000 C 
HETATM   16  C16 UNL     1      -3.447   0.049   0.768  1.00  0.00     0.001 C 
HETATM   17  C17 UNL     1      -2.342   0.614  -0.067  1.00  0.00     0.012 C 
ENDROOT
BRANCH   1  18
HETATM   18  C2  UNL     1      -0.086   1.999  -0.860  1.00  0.00     0.270 C 
HETATM   19  O2  UNL     1      -0.894   2.191  -1.778  1.00  0.00    -0.264 OA
BRANCH  18  20
HETATM   20  O1  UNL     1       0.797   3.068  -0.594  1.00  0.00    -0.326 OA
HETATM   21  C1  UNL     1       0.774   4.261  -1.303  1.00  0.00     0.213 C 
ENDBRANCH  18  20
ENDBRANCH   1  18
BRANCH   2  22
HETATM   22  N1  UNL     1       2.505   0.580   0.712  1.00  0.00    -0.345 N 
ATOM     23  H1  UNL     1       2.587   1.535   1.061  1.00  0.00     0.167 HD
BRANCH  22  24
HETATM   24  C5  UNL     1       3.479  -0.397   1.036  1.00  0.00     0.039 A 
HETATM   25  C6  UNL     1       4.015  -0.921   2.117  1.00  0.00     0.072 A 
HETATM   26  C7  UNL     1       4.856  -1.778   1.322  1.00  0.00     0.120 A 
HETATM   27  F1  UNL     1       5.798  -2.722   1.634  1.00  0.00    -0.206 F 
HETATM   28  C8  UNL     1       4.330  -1.264   0.222  1.00  0.00     0.072 A 
ENDBRANCH  22  24
ENDBRANCH   2  22
TORSDOF 4
