REMARK  2 active torsions:
REMARK  status: ('A' for Active; 'I' for Inactive)
REMARK    1  A    between atoms: C1_2  and  N1_3 
REMARK       I    between atoms: N1_3  and  C2_5 
REMARK       I    between atoms: C2_5  and  N2_7 
REMARK    2  A    between atoms: N2_7  and  C3_9 
ROOT
HETATM    1  N1  UNL     1       2.501   0.608  -0.237  1.00  0.00    -0.287 N 
ATOM      2  H1  UNL     1       3.466   0.276  -0.234  1.00  0.00     0.172 HD
HETATM    3  C2  UNL     1       1.443  -0.317  -0.102  1.00  0.00     0.322 C 
HETATM    4  O2  UNL     1       1.760  -1.551   0.019  1.00  0.00    -0.247 OA
HETATM    5  N2  UNL     1       0.090  -0.000  -0.089  1.00  0.00    -0.338 N 
ATOM      6  H2  UNL     1      -0.196   0.974  -0.183  1.00  0.00     0.164 HD
ENDROOT
BRANCH   1   7
HETATM    7  C1  UNL     1       2.237   1.983  -0.375  1.00  0.00     0.356 C 
HETATM    8  O1  UNL     1       3.172   2.808  -0.495  1.00  0.00    -0.283 OA
ENDBRANCH   1   7
BRANCH   5   9
HETATM    9  C3  UNL     1      -0.925  -1.031   0.056  1.00  0.00     0.086 A 
HETATM   10  C4  UNL     1      -2.050  -0.629   1.003  1.00  0.00     0.027 A 
HETATM   11  C5  UNL     1      -2.290  -0.825  -0.454  1.00  0.00     0.027 A 
ENDBRANCH   5   9
TORSDOF 2
