REMARK  2 active torsions:
REMARK  status: ('A' for Active; 'I' for Inactive)
REMARK       I    between atoms: N1_2  and  C2_4 
REMARK       I    between atoms: C2_4  and  N2_6 
REMARK    1  A    between atoms: N2_6  and  C3_8 
REMARK    2  A    between atoms: C7_15  and  N4_16 
ROOT
HETATM    1  C3  UNL     1       0.285  -0.393  -0.026  1.00  0.00     0.318 C 
HETATM    2  N3  UNL     1       0.811  -1.354   0.909  1.00  0.00    -0.052 N 
ATOM      3  H31 UNL     1       0.194  -2.164   0.970  1.00  0.00     0.279 HD
ATOM      4  H32 UNL     1       0.733  -1.001   1.863  1.00  0.00     0.279 HD
HETATM    5  C4  UNL     1       2.147  -1.769   0.643  1.00  0.00     0.235 C 
HETATM    6  C5  UNL     1       2.907  -0.811  -0.241  1.00  0.00     0.030 C 
HETATM    7  C6  UNL     1       2.587   0.586   0.218  1.00  0.00     0.038 C 
HETATM    8  C7  UNL     1       1.142   0.878  -0.076  1.00  0.00     0.233 C 
ENDROOT
BRANCH   1   9
HETATM    9  N2  UNL     1      -1.006   0.046   0.515  1.00  0.00    -0.313 N 
HETATM   10  C2  UNL     1      -2.202  -0.054  -0.232  1.00  0.00     0.317 C 
HETATM   11  N1  UNL     1      -3.410   0.385   0.344  1.00  0.00    -0.347 N 
HETATM   12  O1  UNL     1      -2.215  -0.523  -1.392  1.00  0.00    -0.247 OA
HETATM   13  C1  UNL     1      -4.683   0.321  -0.347  1.00  0.00     0.151 C 
ATOM     14  H1  UNL     1      -3.388   0.765   1.290  1.00  0.00     0.163 HD
ATOM     15  H2  UNL     1      -1.042   0.435   1.457  1.00  0.00     0.166 HD
ENDBRANCH   1   9
BRANCH   8  16
HETATM   16  N4  UNL     1       1.043   1.506  -1.378  1.00  0.00    -0.071 N 
ATOM     17  H43 UNL     1       1.280   0.859  -2.130  1.00  0.00     0.274 HD
ATOM     18  H42 UNL     1       0.074   1.692  -1.637  1.00  0.00     0.274 HD
ATOM     19  H41 UNL     1       1.613   2.351  -1.411  1.00  0.00     0.274 HD
ENDBRANCH   8  16
TORSDOF 2
