REMARK  2 active torsions:
REMARK  status: ('A' for Active; 'I' for Inactive)
REMARK    1  A    between atoms: C4_5  and  N1_6 
REMARK       I    between atoms: N1_6  and  C5_8 
REMARK    2  A    between atoms: C5_8  and  C6_10 
ROOT
HETATM    1  N1  UNL     1       1.324  -0.240  -0.034  1.00  0.00    -0.322 N 
ATOM      2  H1  UNL     1       1.183  -1.141  -0.490  1.00  0.00     0.169 HD
HETATM    3  C5  UNL     1       2.621   0.141   0.220  1.00  0.00     0.277 C 
HETATM    4  O1  UNL     1       2.943   1.196   0.764  1.00  0.00    -0.268 OA
ENDROOT
BRANCH   1   5
HETATM    5  C4  UNL     1       0.128   0.538   0.295  1.00  0.00     0.048 A 
HETATM    6  C3  UNL     1       0.209   1.746   0.920  1.00  0.00     0.080 A 
HETATM    7  S1  UNL     1      -1.427   2.228   1.079  1.00  0.00    -0.104 SA
HETATM    8  C2  UNL     1      -2.166   0.894   0.353  1.00  0.00    -0.013 A 
HETATM    9  C1  UNL     1      -3.643   0.613   0.128  1.00  0.00     0.057 C 
HETATM   10  C7  UNL     1      -1.125   0.086  -0.006  1.00  0.00    -0.022 A 
HETATM   11  C8  UNL     1      -1.390  -1.249  -0.709  1.00  0.00     0.052 C 
ENDBRANCH   1   5
BRANCH   3  12
HETATM   12  C6  UNL     1       3.742  -0.760  -0.174  1.00  0.00     0.269 C 
HETATM   13 CL1  UNL     1       5.310  -0.054   0.257  1.00  0.00    -0.073 Cl
HETATM   14 CL2  UNL     1       3.619  -2.355   0.541  1.00  0.00    -0.073 Cl
HETATM   15 CL3  UNL     1       3.699  -0.922  -1.951  1.00  0.00    -0.073 Cl
ENDBRANCH   3  12
TORSDOF 2
