REMARK  13 active torsions:
REMARK  status: ('A' for Active; 'I' for Inactive)
REMARK    1  A    between atoms: C2_2  and  C3_3 
REMARK    2  A    between atoms: C4_5  and  C5_6 
REMARK    3  A    between atoms: C5_6  and  C6_7 
REMARK    4  A    between atoms: C6_7  and  C7_8 
REMARK    5  A    between atoms: C7_8  and  C8_9 
REMARK    6  A    between atoms: C8_9  and  C9_10 
REMARK    7  A    between atoms: C9_10  and  C10_11 
REMARK    8  A    between atoms: C10_11  and  O2_12 
REMARK    9  A    between atoms: C14_19  and  O5_20 
REMARK   10  A    between atoms: C16_23  and  C17_24 
REMARK   11  A    between atoms: C17_24  and  C18_25 
REMARK   12  A    between atoms: C25_34  and  O8_35 
REMARK   13  A    between atoms: C27_38  and  O9_39 
ROOT
HETATM    1  C3  UNL     1       1.924   0.757   1.258  1.00  0.00     0.129 C 
HETATM    2  O1  UNL     1       2.920   0.820   0.325  1.00  0.00    -0.379 OA
HETATM    3  C4  UNL     1       2.421   0.600  -0.932  1.00  0.00     0.136 C 
HETATM    4  C11 UNL     1       1.274  -0.332  -0.698  1.00  0.00     0.123 C 
HETATM    5  C12 UNL     1       0.403  -0.425  -1.847  1.00  0.00     0.266 C 
HETATM    6  O3  UNL     1       0.733   0.193  -2.919  1.00  0.00    -0.265 OA
HETATM    7  O4  UNL     1      -0.778  -1.125  -1.921  1.00  0.00    -0.319 OA
HETATM    8  C13 UNL     1      -1.207  -2.145  -1.100  1.00  0.00     0.210 C 
HETATM    9  C14 UNL     1      -2.163  -1.748  -0.001  1.00  0.00     0.148 C 
HETATM   10  C15 UNL     1      -2.466  -0.274   0.017  1.00  0.00     0.039 C 
HETATM   11  C16 UNL     1      -3.946   0.048  -0.146  1.00  0.00     0.093 C 
HETATM   12  C21 UNL     1      -4.749  -0.554   0.911  1.00  0.00     0.263 C 
HETATM   13  O6  UNL     1      -5.740  -1.243   0.618  1.00  0.00    -0.265 OA
HETATM   14  O7  UNL     1      -4.580  -0.482   2.299  1.00  0.00    -0.316 OA
HETATM   15  C22 UNL     1      -3.595  -0.511   3.278  1.00  0.00     0.130 C 
HETATM   16  C23 UNL     1      -4.302  -0.675   4.632  1.00  0.00     0.040 C 
HETATM   17  C24 UNL     1      -2.751   0.713   3.383  1.00  0.00     0.064 C 
HETATM   18  C25 UNL     1      -2.477   1.336   2.001  1.00  0.00     0.127 C 
HETATM   19  C26 UNL     1      -1.747   0.429   1.095  1.00  0.00     0.051 C 
HETATM   20  C27 UNL     1      -0.452   1.054   0.533  1.00  0.00     0.132 C 
HETATM   21  C28 UNL     1       0.704   0.121   0.576  1.00  0.00     0.060 C 
ENDROOT
BRANCH   3  22
HETATM   22  C5  UNL     1       3.514  -0.089  -1.736  1.00  0.00     0.033 C 
BRANCH  22  23
HETATM   23  C6  UNL     1       4.750   0.812  -1.799  1.00  0.00     0.002 C 
BRANCH  23  24
HETATM   24  C7  UNL     1       5.845   0.135  -2.597  1.00  0.00     0.000 C 
BRANCH  24  25
HETATM   25  C8  UNL     1       6.298  -1.164  -2.036  1.00  0.00     0.002 C 
BRANCH  25  26
HETATM   26  C9  UNL     1       6.873  -1.164  -0.673  1.00  0.00     0.026 C 
BRANCH  26  27
HETATM   27  C10 UNL     1       8.121  -0.365  -0.469  1.00  0.00     0.164 C 
BRANCH  27  28
HETATM   28  O2  UNL     1       7.886   0.967  -0.748  1.00  0.00    -0.401 OA
ATOM     29  H2  UNL     1       8.679   1.474  -0.618  1.00  0.00     0.209 HD
ENDBRANCH  27  28
ENDBRANCH  26  27
ENDBRANCH  25  26
ENDBRANCH  24  25
ENDBRANCH  23  24
ENDBRANCH  22  23
ENDBRANCH   3  22
BRANCH   1  30
HETATM   30  C2  UNL     1       2.411  -0.075   2.420  1.00  0.00     0.028 C 
HETATM   31  C1  UNL     1       3.623   0.585   2.989  1.00  0.00     0.007 C 
ENDBRANCH   1  30
BRANCH  20  32
HETATM   32  O9  UNL     1      -0.698   1.592  -0.744  1.00  0.00    -0.395 OA
ATOM     33  H9  UNL     1       0.099   1.977  -1.090  1.00  0.00     0.210 HD
ENDBRANCH  20  32
BRANCH   9  34
HETATM   34  O5  UNL     1      -3.267  -2.576   0.070  1.00  0.00    -0.393 OA
ATOM     35  H5  UNL     1      -3.869  -2.326   0.762  1.00  0.00     0.210 HD
ENDBRANCH   9  34
BRANCH  18  36
HETATM   36  O8  UNL     1      -1.703   2.482   2.319  1.00  0.00    -0.395 OA
ATOM     37  H8  UNL     1      -1.534   2.866   1.467  1.00  0.00     0.210 HD
ENDBRANCH  18  36
BRANCH  11  38
HETATM   38  C17 UNL     1      -4.343  -0.271  -1.558  1.00  0.00     0.019 C 
BRANCH  38  39
HETATM   39  C18 UNL     1      -5.739  -0.006  -1.955  1.00  0.00    -0.022 C 
HETATM   40  C19 UNL     1      -5.845  -0.413  -3.444  1.00  0.00     0.009 C 
HETATM   41  C20 UNL     1      -6.125   1.456  -1.921  1.00  0.00     0.009 C 
ENDBRANCH  38  39
ENDBRANCH  11  38
TORSDOF 13
