REMARK  0 active torsions:
REMARK  status: ('A' for Active; 'I' for Inactive)
ROOT
HETATM    1  C1  UNL     1      -0.052   2.316   0.531  1.00  0.00     0.000 C 
HETATM    2  C2  UNL     1       1.245   2.542  -0.220  1.00  0.00     0.000 C 
HETATM    3  C3  UNL     1       2.415   1.849   0.459  1.00  0.00     0.002 C 
HETATM    4  C4  UNL     1       2.657   0.465  -0.135  1.00  0.00     0.027 C 
HETATM    5  C5  UNL     1       2.165  -0.629   0.794  1.00  0.00     0.232 C 
HETATM    6  N1  UNL     1       1.546  -1.640  -0.054  1.00  0.00    -0.074 N 
ATOM      7  H11 UNL     1       2.244  -2.292  -0.413  1.00  0.00     0.277 HD
ATOM      8  H12 UNL     1       1.230  -1.234  -0.935  1.00  0.00     0.277 HD
HETATM    9  C6  UNL     1       0.478  -2.340   0.600  1.00  0.00     0.259 C 
HETATM   10  C7  UNL     1      -0.581  -2.815  -0.393  1.00  0.00     0.259 C 
HETATM   11  N2  UNL     1      -1.250  -1.731  -1.044  1.00  0.00    -0.074 N 
ATOM     12  H21 UNL     1      -1.391  -1.934  -2.034  1.00  0.00     0.277 HD
ATOM     13  H22 UNL     1      -0.635  -0.921  -1.124  1.00  0.00     0.277 HD
HETATM   14  C8  UNL     1      -2.491  -1.370  -0.415  1.00  0.00     0.232 C 
HETATM   15  C9  UNL     1      -2.890   0.063  -0.653  1.00  0.00     0.027 C 
HETATM   16  C10 UNL     1      -2.184   1.001   0.329  1.00  0.00     0.002 C 
HETATM   17  C11 UNL     1      -0.946   1.493  -0.350  1.00  0.00     0.000 C 
ENDROOT
TORSDOF 0
