REMARK  5 active torsions:
REMARK  status: ('A' for Active; 'I' for Inactive)
REMARK    1  A    between atoms: C4_5  and  C5_6 
REMARK       I    between atoms: C5_6  and  N1_8 
REMARK    2  A    between atoms: N1_8  and  C6_10 
REMARK    3  A    between atoms: C6_10  and  C7_11 
REMARK    4  A    between atoms: C6_10  and  C12_16 
REMARK    5  A    between atoms: C8_12  and  C9_13 
REMARK       I    between atoms: N2_18  and  C14_20 
ROOT
HETATM    1  C6  UNL     1      -0.016   0.086  -0.549  1.00  0.00     0.153 C 
ENDROOT
BRANCH   1   2
HETATM    2  N1  UNL     1       1.237   0.322   0.181  1.00  0.00    -0.347 N 
HETATM    3  C5  UNL     1       2.380  -0.469  -0.009  1.00  0.00     0.231 C 
HETATM    4  O2  UNL     1       2.352  -1.421  -0.832  1.00  0.00    -0.273 OA
ATOM      5  H1  UNL     1       1.277   1.090   0.851  1.00  0.00     0.163 HD
BRANCH   3   6
HETATM    6  C4  UNL     1       3.605  -0.179   0.754  1.00  0.00     0.158 C 
HETATM    7  C2  UNL     1       4.761  -1.041   0.508  1.00  0.00     0.052 C 
HETATM    8  C1  UNL     1       5.289  -1.652  -0.514  1.00  0.00     0.047 C 
HETATM    9  O1  UNL     1       5.075  -0.937   1.862  1.00  0.00    -0.354 OA
HETATM   10  C3  UNL     1       3.680  -0.858   2.115  1.00  0.00     0.196 C 
ENDBRANCH   3   6
ENDBRANCH   1   2
BRANCH   1  11
HETATM   11  C7  UNL     1      -1.034  -0.214   0.482  1.00  0.00     0.004 C 
HETATM   12  C8  UNL     1      -1.902  -1.176   0.259  1.00  0.00    -0.002 C 
BRANCH  12  13
HETATM   13  C9  UNL     1      -2.911  -1.496   1.245  1.00  0.00    -0.005 C 
HETATM   14  C10 UNL     1      -3.772  -2.450   1.026  1.00  0.00    -0.031 C 
HETATM   15  C11 UNL     1      -4.833  -2.808   2.031  1.00  0.00     0.036 C 
ENDBRANCH  12  13
ENDBRANCH   1  11
BRANCH   1  16
HETATM   16  C12 UNL     1      -0.433   1.311  -1.268  1.00  0.00     0.012 C 
HETATM   17  C13 UNL     1       0.472   1.787  -2.361  1.00  0.00     0.066 C 
HETATM   18  N2  UNL     1      -1.505   1.890  -0.941  1.00  0.00    -0.336 N 
HETATM   19  C14 UNL     1      -2.042   3.056  -1.518  1.00  0.00     0.185 C 
ATOM     20  H2  UNL     1      -2.038   1.470  -0.180  1.00  0.00     0.168 HD
HETATM   21  N3  UNL     1      -2.874   3.082  -2.495  1.00  0.00    -0.374 N 
HETATM   22  N4  UNL     1      -1.631   4.307  -0.972  1.00  0.00    -0.064 NA
ATOM     23  H32 UNL     1      -3.168   2.187  -2.886  1.00  0.00     0.158 HD
ATOM     24  H31 UNL     1      -3.263   3.927  -2.913  1.00  0.00     0.158 HD
ENDBRANCH   1  16
TORSDOF 5
