REMARK  10 active torsions:
REMARK  status: ('A' for Active; 'I' for Inactive)
REMARK       I    between atoms: N1_2  and  C3_4 
REMARK    1  A    between atoms: C3_4  and  C4_6 
REMARK    2  A    between atoms: C4_6  and  C5_7 
REMARK    3  A    between atoms: C4_6  and  N2_17 
REMARK    4  A    between atoms: C5_7  and  C6_8 
REMARK       I    between atoms: N2_17  and  C12_19 
REMARK    5  A    between atoms: C12_19  and  C13_21 
REMARK    6  A    between atoms: C13_21  and  C14_22 
REMARK    7  A    between atoms: C16_24  and  C17_25 
REMARK    8  A    between atoms: C17_25  and  O3_26 
REMARK    9  A    between atoms: O3_26  and  C18_27 
REMARK   10  A    between atoms: C25_39  and  C26_40 
ROOT
HETATM    1  C14 UNL     1       1.445   1.579  -0.290  1.00  0.00    -0.004 C 
HETATM    2  C15 UNL     1       1.689   0.477  -1.247  1.00  0.00     0.016 C 
HETATM    3  C16 UNL     1       3.055  -0.150  -0.967  1.00  0.00    -0.017 C 
HETATM    4  C23 UNL     1       2.802  -1.311  -0.019  1.00  0.00     0.013 C 
HETATM    5  C24 UNL     1       3.216  -0.803   1.374  1.00  0.00     0.021 C 
HETATM    6  C25 UNL     1       3.238   0.726   1.173  1.00  0.00     0.049 C 
HETATM    7  C27 UNL     1       1.823   1.175   1.122  1.00  0.00     0.025 C 
HETATM    8  C28 UNL     1       3.939   0.731  -0.185  1.00  0.00     0.032 C 
ENDROOT
BRANCH   1   9
HETATM    9  C13 UNL     1       0.143   2.266  -0.359  1.00  0.00     0.107 C 
BRANCH   9  10
HETATM   10  C12 UNL     1      -1.066   1.476  -0.128  1.00  0.00     0.218 C 
HETATM   11  N2  UNL     1      -2.354   2.023  -0.016  1.00  0.00    -0.347 N 
ATOM     12  H2  UNL     1      -2.425   3.037  -0.105  1.00  0.00     0.163 HD
HETATM   13  O2  UNL     1      -0.938   0.222  -0.019  1.00  0.00    -0.274 OA
BRANCH  11  14
HETATM   14  C4  UNL     1      -3.598   1.306   0.213  1.00  0.00     0.181 C 
BRANCH  14  15
HETATM   15  C3  UNL     1      -3.710   0.797   1.567  1.00  0.00     0.242 C 
HETATM   16  N1  UNL     1      -4.892   0.902   2.330  1.00  0.00    -0.359 N 
HETATM   17  C1  UNL     1      -4.971   0.286   3.679  1.00  0.00     0.152 C 
HETATM   18  C2  UNL     1      -6.090   1.627   1.954  1.00  0.00     0.152 C 
HETATM   19  O1  UNL     1      -2.731   0.222   2.160  1.00  0.00    -0.271 OA
ENDBRANCH  14  15
BRANCH  14  20
HETATM   20  C5  UNL     1      -3.833   0.301  -0.853  1.00  0.00     0.076 C 
BRANCH  20  21
HETATM   21  C6  UNL     1      -5.147  -0.364  -0.892  1.00  0.00    -0.014 A 
HETATM   22  C7  UNL     1      -6.160   0.203  -1.669  1.00  0.00     0.055 A 
HETATM   23  C8  UNL     1      -7.394  -0.369  -1.692  1.00  0.00     0.155 A 
HETATM   24  F1  UNL     1      -8.398   0.182  -2.447  1.00  0.00    -0.203 F 
HETATM   25  C9  UNL     1      -7.692  -1.515  -0.960  1.00  0.00     0.157 A 
HETATM   26  F2  UNL     1      -8.938  -2.072  -0.993  1.00  0.00    -0.203 F 
HETATM   27  C10 UNL     1      -6.672  -2.041  -0.213  1.00  0.00     0.088 A 
HETATM   28  C11 UNL     1      -5.404  -1.499  -0.156  1.00  0.00     0.125 A 
HETATM   29  F3  UNL     1      -4.437  -2.131   0.595  1.00  0.00    -0.205 F 
ENDBRANCH  20  21
ENDBRANCH  14  20
ENDBRANCH  11  14
ENDBRANCH   9  10
ENDBRANCH   1   9
BRANCH   3  30
HETATM   30  C17 UNL     1       3.617  -0.655  -2.286  1.00  0.00     0.185 C 
BRANCH  30  31
HETATM   31  O3  UNL     1       4.783  -1.219  -2.295  1.00  0.00    -0.346 OA
BRANCH  31  32
HETATM   32  C18 UNL     1       5.962  -1.723  -2.283  1.00  0.00     0.126 A 
HETATM   33  C19 UNL     1       7.056  -0.935  -1.893  1.00  0.00     0.130 A 
HETATM   34  N3  UNL     1       8.294  -1.415  -1.868  1.00  0.00    -0.338 N 
HETATM   35  C20 UNL     1       8.562  -2.697  -2.221  1.00  0.00     0.230 A 
ATOM     36  H3  UNL     1       9.059  -0.807  -1.577  1.00  0.00     0.167 HD
HETATM   37  F4  UNL     1       9.818  -3.185  -2.198  1.00  0.00    -0.183 F 
HETATM   38  C21 UNL     1       7.514  -3.492  -2.605  1.00  0.00     0.213 A 
HETATM   39  F5  UNL     1       7.761  -4.794  -2.964  1.00  0.00    -0.198 F 
HETATM   40  C22 UNL     1       6.235  -3.038  -2.644  1.00  0.00     0.194 A 
HETATM   41  F6  UNL     1       5.216  -3.874  -3.027  1.00  0.00    -0.200 F 
ENDBRANCH  31  32
ENDBRANCH  30  31
ENDBRANCH   3  30
BRANCH   6  42
HETATM   42  C26 UNL     1       4.072   1.407   2.183  1.00  0.00     0.181 C 
HETATM   43  O4  UNL     1       5.068   2.046   1.812  1.00  0.00    -0.647 OA
HETATM   44  O5  UNL     1       3.772   1.349   3.533  1.00  0.00    -0.647 OA
ENDBRANCH   6  42
TORSDOF 10
