REMARK  9 active torsions:
REMARK  status: ('A' for Active; 'I' for Inactive)
REMARK    1  A    between atoms: C2_2  and  C4_4 
REMARK    2  A    between atoms: C4_4  and  C5_5 
REMARK    3  A    between atoms: C4_4  and  N1_7 
REMARK    4  A    between atoms: N1_7  and  C6_9 
REMARK    5  A    between atoms: C6_9  and  C7_10 
REMARK    6  A    between atoms: C6_9  and  C8_15 
REMARK    7  A    between atoms: C8_15  and  N4_16 
REMARK    8  A    between atoms: C8_15  and  C9_20 
REMARK    9  A    between atoms: C9_20  and  C10_21 
ROOT
HETATM    1  C6  UNL     1      -0.795  -0.408   1.061  1.00  0.00     0.172 C 
ENDROOT
BRANCH   1   2
HETATM    2  N1  UNL     1      -1.729   0.627   1.070  1.00  0.00    -0.399 N 
ATOM      3  H1  UNL     1      -1.887   1.057   1.981  1.00  0.00     0.154 HD
BRANCH   2   4
HETATM    4  C4  UNL     1      -2.462   1.152   0.051  1.00  0.00     0.142 C 
BRANCH   4   5
HETATM    5  C2  UNL     1      -3.540   0.301  -0.553  1.00  0.00     0.006 C 
HETATM    6  C1  UNL     1      -4.581  -0.082   0.509  1.00  0.00     0.012 C 
HETATM    7  C3  UNL     1      -4.329   1.161  -1.571  1.00  0.00     0.012 C 
ENDBRANCH   4   5
BRANCH   4   8
HETATM    8  C5  UNL     1      -3.197   2.378   0.584  1.00  0.00     0.256 C 
HETATM    9  O1  UNL     1      -3.070   2.717   1.743  1.00  0.00    -0.305 OA
ENDBRANCH   4   8
ENDBRANCH   2   4
ENDBRANCH   1   2
BRANCH   1  10
HETATM   10  C7  UNL     1      -1.244  -1.747   0.683  1.00  0.00     0.111 C 
HETATM   11  N2  UNL     1      -0.986  -2.222  -0.484  1.00  0.00    -0.389 N 
ATOM     12  H22 UNL     1      -0.446  -1.612  -1.098  1.00  0.00     0.157 HD
ATOM     13  H21 UNL     1      -1.299  -3.156  -0.748  1.00  0.00     0.157 HD
HETATM   14  N3  UNL     1      -1.996  -2.597   1.539  1.00  0.00    -0.086 NA
ENDBRANCH   1  10
BRANCH   1  15
HETATM   15  C8  UNL     1       0.484  -0.015   0.281  1.00  0.00     0.213 C 
BRANCH  15  16
HETATM   16  N4  UNL     1       0.869   1.227   0.996  1.00  0.00    -0.073 N 
ATOM     17  H43 UNL     1       0.148   1.946   1.051  1.00  0.00     0.274 HD
ATOM     18  H42 UNL     1       0.978   1.138   2.006  1.00  0.00     0.274 HD
ATOM     19  H41 UNL     1       1.711   1.486   0.482  1.00  0.00     0.274 HD
ENDBRANCH  15  16
BRANCH  15  20
HETATM   20  C9  UNL     1       1.496  -1.062   0.533  1.00  0.00     0.040 C 
BRANCH  20  21
HETATM   21  C10 UNL     1       2.824  -0.951  -0.124  1.00  0.00    -0.013 C 
HETATM   22  C11 UNL     1       2.813  -0.909  -1.608  1.00  0.00     0.005 C 
HETATM   23  C12 UNL     1       4.250  -0.727  -2.063  1.00  0.00     0.000 C 
HETATM   24  C13 UNL     1       4.601   0.716  -1.757  1.00  0.00     0.000 C 
HETATM   25  C14 UNL     1       4.149   1.178  -0.411  1.00  0.00     0.000 C 
HETATM   26  C15 UNL     1       3.707   0.065   0.511  1.00  0.00     0.005 C 
ENDBRANCH  20  21
ENDBRANCH  15  20
ENDBRANCH   1  15
TORSDOF 9
