REMARK  11 active torsions:
REMARK  status: ('A' for Active; 'I' for Inactive)
REMARK    1  A    between atoms: N1_2  and  N2_3 
REMARK    2  A    between atoms: N1_2  and  C2_7 
REMARK    3  A    between atoms: C2_7  and  C3_8 
REMARK    4  A    between atoms: C3_8  and  C4_9 
REMARK    5  A    between atoms: C5_13  and  C6_14 
REMARK    6  A    between atoms: C6_14  and  N4_15 
REMARK       I    between atoms: N4_15  and  C7_17 
REMARK    7  A    between atoms: N6_19  and  C8_21 
REMARK    8  A    between atoms: C8_21  and  C9_22 
REMARK    9  A    between atoms: C9_22  and  C10_23 
REMARK   10  A    between atoms: C10_23  and  C11_24 
REMARK   11  A    between atoms: C11_24  and  N7_25 
ROOT
HETATM    1  C4  UNL     1      -2.894  -1.338   0.183  1.00  0.00     0.281 C 
HETATM    2  N3  UNL     1      -2.045  -0.545   1.074  1.00  0.00    -0.040 N 
ATOM      3  H31 UNL     1      -2.181  -0.699   2.073  1.00  0.00     0.280 HD
ATOM      4  H32 UNL     1      -2.254   0.452   1.117  1.00  0.00     0.280 HD
HETATM    5  C5  UNL     1      -0.721  -0.902   0.543  1.00  0.00     0.305 C 
HETATM    6  N8  UNL     1      -0.935  -0.734  -0.882  1.00  0.00    -0.330 N 
ATOM      7  H8  UNL     1      -0.239  -0.457  -1.574  1.00  0.00     0.164 HD
HETATM    8  C12 UNL     1      -2.312  -1.032  -1.127  1.00  0.00     0.250 C 
HETATM    9  O2  UNL     1      -2.906  -1.033  -2.234  1.00  0.00    -0.271 OA
ENDROOT
BRANCH   5  10
HETATM   10  C6  UNL     1       0.337   0.016   1.075  1.00  0.00     0.176 C 
BRANCH  10  11
HETATM   11  N4  UNL     1       1.643  -0.299   0.581  1.00  0.00    -0.361 N 
HETATM   12  C7  UNL     1       2.368  -1.462   0.918  1.00  0.00     0.184 C 
HETATM   13  N5  UNL     1       1.752  -2.484   1.670  1.00  0.00    -0.064 NA
HETATM   14  N6  UNL     1       3.585  -1.616   0.557  1.00  0.00    -0.365 N 
ATOM     15  H6  UNL     1       4.105  -2.459   0.802  1.00  0.00     0.162 HD
ATOM     16  H4  UNL     1       2.080   0.364  -0.059  1.00  0.00     0.162 HD
BRANCH  14  17
HETATM   17  C8  UNL     1       4.205  -0.546  -0.217  1.00  0.00     0.122 C 
BRANCH  17  18
HETATM   18  C9  UNL     1       5.668  -0.760  -0.404  1.00  0.00     0.021 C 
BRANCH  18  19
HETATM   19  C10 UNL     1       6.244   0.363  -1.220  1.00  0.00     0.029 C 
BRANCH  19  20
HETATM   20  C11 UNL     1       6.051   1.684  -0.557  1.00  0.00     0.229 C 
BRANCH  20  21
HETATM   21  N7  UNL     1       6.630   2.775  -1.355  1.00  0.00    -0.079 N 
ATOM     22  H73 UNL     1       7.613   2.603  -1.566  1.00  0.00     0.274 HD
ATOM     23  H72 UNL     1       6.263   2.777  -2.307  1.00  0.00     0.274 HD
ATOM     24  H71 UNL     1       6.498   3.679  -0.901  1.00  0.00     0.274 HD
ENDBRANCH  20  21
ENDBRANCH  19  20
ENDBRANCH  18  19
ENDBRANCH  17  18
ENDBRANCH  14  17
ENDBRANCH  10  11
ENDBRANCH   5  10
BRANCH   1  25
HETATM   25  C3  UNL     1      -4.341  -0.960   0.316  1.00  0.00     0.082 C 
BRANCH  25  26
HETATM   26  C2  UNL     1      -4.594   0.490  -0.020  1.00  0.00     0.344 C 
BRANCH  26  27
HETATM   27  N1  UNL     1      -6.014   0.738   0.144  1.00  0.00     0.099 N 
HETATM   28  C1  UNL     1      -6.577   1.242  -1.088  1.00  0.00     0.389 C 
HETATM   29  O1  UNL     1      -6.695  -0.400   0.462  1.00  0.00    -0.043 OA
BRANCH  27  30
HETATM   30  N2  UNL     1      -6.161   1.649   1.196  1.00  0.00    -0.211 N 
ATOM     31  H22 UNL     1      -6.614   2.557   1.090  1.00  0.00     0.192 HD
ATOM     32  H21 UNL     1      -5.764   1.293   2.065  1.00  0.00     0.192 HD
ENDBRANCH  27  30
ENDBRANCH  26  27
ENDBRANCH  25  26
ENDBRANCH   1  25
TORSDOF 11
