REMARK  8 active torsions:
REMARK  status: ('A' for Active; 'I' for Inactive)
REMARK    1  A    between atoms: C3_3  and  C4_4 
REMARK    2  A    between atoms: C4_4  and  C5_6 
REMARK    3  A    between atoms: C5_6  and  O2_7 
REMARK    4  A    between atoms: C5_6  and  N1_9 
REMARK    5  A    between atoms: N1_9  and  N2_11 
REMARK    6  A    between atoms: C6_14  and  N4_15 
REMARK    7  A    between atoms: N4_15  and  N5_17 
REMARK    8  A    between atoms: C7_19  and  C8_20 
ROOT
HETATM    1  C1  UNL     1       6.593   2.342   1.644  1.00  0.00     0.112 C 
HETATM    2  C2  UNL     1       5.799   1.752   0.575  1.00  0.00    -0.103 C 
HETATM    3  C3  UNL     1       5.157   1.250  -0.339  1.00  0.00    -0.025 C 
ENDROOT
BRANCH   3   4
HETATM    4  C4  UNL     1       4.427   0.648  -1.437  1.00  0.00     0.251 C 
HETATM    5  O1  UNL     1       4.522   1.127  -2.612  1.00  0.00    -0.278 OA
BRANCH   4   6
HETATM    6  C5  UNL     1       3.579  -0.533  -1.146  1.00  0.00     0.319 C 
BRANCH   6   7
HETATM    7  O2  UNL     1       3.149  -0.995  -2.428  1.00  0.00    -0.368 OA
ATOM      8  H2  UNL     1       2.606  -1.752  -2.242  1.00  0.00     0.212 HD
ENDBRANCH   6   7
BRANCH   6   9
HETATM    9  N1  UNL     1       2.370  -0.113  -0.493  1.00  0.00    -0.275 N 
ATOM     10  H1  UNL     1       2.212   0.887  -0.370  1.00  0.00     0.185 HD
BRANCH   9  11
HETATM   11  N2  UNL     1       1.395  -1.000  -0.015  1.00  0.00    -0.156 N 
HETATM   12  N3  UNL     1       0.242  -0.684   0.567  1.00  0.00    -0.259 N 
HETATM   13  C6  UNL     1      -0.466  -1.766   0.909  1.00  0.00     0.163 A 
ATOM     14  H3  UNL     1      -0.067   0.274   0.734  1.00  0.00     0.191 HD
HETATM   15  C13 UNL     1       0.335  -2.850   0.498  1.00  0.00     0.162 A 
HETATM   16  C14 UNL     1      -0.012  -4.238   0.659  1.00  0.00     0.109 C 
HETATM   17  C15 UNL     1       1.479  -2.334  -0.070  1.00  0.00     0.306 A 
HETATM   18  N7  UNL     1      -0.282  -5.360   0.781  1.00  0.00    -0.191 NA
HETATM   19  O4  UNL     1       2.432  -3.032  -0.553  1.00  0.00    -0.263 OA
BRANCH  13  20
HETATM   20  N4  UNL     1      -1.751  -1.904   1.501  1.00  0.00    -0.283 N 
ATOM     21  H4  UNL     1      -1.905  -2.611   2.220  1.00  0.00     0.188 HD
BRANCH  20  22
HETATM   22  N5  UNL     1      -2.789  -1.089   1.110  1.00  0.00    -0.309 N 
HETATM   23  C7  UNL     1      -2.838  -0.247   0.165  1.00  0.00     0.119 C 
ATOM     24  H5  UNL     1      -3.643  -1.176   1.661  1.00  0.00     0.186 HD
BRANCH  23  25
HETATM   25  C8  UNL     1      -4.058   0.507  -0.064  1.00  0.00    -0.004 A 
HETATM   26  C9  UNL     1      -5.214   0.288   0.696  1.00  0.00     0.020 A 
HETATM   27  C10 UNL     1      -6.367   1.011   0.480  1.00  0.00     0.075 A 
HETATM   28  C11 UNL     1      -6.417   1.977  -0.493  1.00  0.00     0.245 A 
HETATM   29  O3  UNL     1      -7.463   2.646  -0.699  1.00  0.00    -0.268 OA
HETATM   30  N6  UNL     1      -5.305   2.191  -1.224  1.00  0.00    -0.333 N 
HETATM   31  C12 UNL     1      -4.159   1.486  -1.026  1.00  0.00     0.104 A 
ATOM     32  H6  UNL     1      -5.324   2.906  -1.951  1.00  0.00     0.168 HD
ENDBRANCH  23  25
ENDBRANCH  20  22
ENDBRANCH  13  20
ENDBRANCH   9  11
ENDBRANCH   6   9
ENDBRANCH   4   6
ENDBRANCH   3   4
TORSDOF 8
