REMARK  3 active torsions:
REMARK  status: ('A' for Active; 'I' for Inactive)
REMARK    1  A    between atoms: N1_2  and  C3_4 
REMARK    2  A    between atoms: C3_4  and  C4_5 
REMARK    3  A    between atoms: C5_6  and  C6_7 
ROOT
HETATM    1  C6  UNL     1       1.843   0.312   0.875  1.00  0.00     0.092 C 
HETATM    2  C7  UNL     1       2.804   1.088   0.006  1.00  0.00     0.046 C 
HETATM    3  C8  UNL     1       4.019   0.224  -0.014  1.00  0.00     0.233 C 
HETATM    4  N2  UNL     1       3.653  -1.074   0.469  1.00  0.00    -0.074 N 
ATOM      5  H21 UNL     1       4.109  -1.317   1.349  1.00  0.00     0.277 HD
ATOM      6  H22 UNL     1       4.039  -1.833  -0.092  1.00  0.00     0.277 HD
HETATM    7  C9  UNL     1       2.208  -1.107   0.551  1.00  0.00     0.249 C 
ENDROOT
BRANCH   1   8
HETATM    8  C5  UNL     1       0.437   0.580   0.470  1.00  0.00    -0.098 C 
HETATM    9  C4  UNL     1      -0.704   0.778   0.128  1.00  0.00    -0.076 C 
BRANCH   9  10
HETATM   10  C3  UNL     1      -2.097   0.996  -0.301  1.00  0.00     0.364 C 
BRANCH  10  11
HETATM   11  N1  UNL     1      -2.899   0.034   0.415  1.00  0.00     0.090 N 
HETATM   12  C1  UNL     1      -2.672  -1.315   0.019  1.00  0.00     0.310 C 
HETATM   13  C2  UNL     1      -4.285   0.371   0.227  1.00  0.00     0.310 C 
ENDBRANCH  10  11
ENDBRANCH   9  10
ENDBRANCH   1   8
TORSDOF 3
