REMARK  5 active torsions:
REMARK  status: ('A' for Active; 'I' for Inactive)
REMARK    1  A    between atoms: O1_2  and  N1_3 
REMARK    2  A    between atoms: N1_3  and  C2_5 
REMARK    3  A    between atoms: C2_5  and  N2_7 
REMARK    4  A    between atoms: N2_7  and  C3_9 
REMARK    5  A    between atoms: C3_9  and  C4_10 
ROOT
HETATM    1  N2  UNL     1       1.067  -0.760   0.070  1.00  0.00    -0.365 N 
ATOM      2  H2  UNL     1       0.541  -1.634   0.066  1.00  0.00     0.161 HD
ENDROOT
BRANCH   1   3
HETATM    3  C2  UNL     1       2.454  -0.781   0.385  1.00  0.00     0.191 C 
HETATM    4  S1  UNL     1       3.203  -2.205   0.740  1.00  0.00    -0.039 SA
BRANCH   3   5
HETATM    5  N1  UNL     1       3.215   0.416   0.398  1.00  0.00    -0.242 N 
ATOM      6  H1  UNL     1       2.748   1.295   0.177  1.00  0.00     0.197 HD
BRANCH   5   7
HETATM    7  O1  UNL     1       4.527   0.439   0.690  1.00  0.00    -0.283 OA
HETATM    8  C1  UNL     1       5.277  -0.354  -0.175  1.00  0.00     0.237 C 
ENDBRANCH   5   7
ENDBRANCH   3   5
ENDBRANCH   1   3
BRANCH   1   9
HETATM    9  C3  UNL     1       0.381   0.495  -0.249  1.00  0.00     0.128 C 
BRANCH   9  10
HETATM   10  C4  UNL     1      -1.052   0.171  -0.528  1.00  0.00     0.033 C 
HETATM   11  C5  UNL     1      -1.895   1.347  -0.872  1.00  0.00     0.038 C 
HETATM   12  C6  UNL     1      -3.078   1.302   0.056  1.00  0.00     0.272 C 
HETATM   13  N3  UNL     1      -3.012   0.078   0.801  1.00  0.00     0.084 N 
HETATM   14  C7  UNL     1      -3.893  -0.949   0.287  1.00  0.00     0.309 C 
HETATM   15  C8  UNL     1      -1.650  -0.397   0.749  1.00  0.00     0.278 C 
ENDBRANCH   9  10
ENDBRANCH   1   9
TORSDOF 5
