REMARK  6 active torsions:
REMARK  status: ('A' for Active; 'I' for Inactive)
REMARK    1  A    between atoms: O1_1  and  C1_3 
REMARK    2  A    between atoms: C3_5  and  O2_6 
REMARK    3  A    between atoms: O2_6  and  C4_7 
REMARK    4  A    between atoms: C4_7  and  C5_8 
REMARK    5  A    between atoms: C11_15  and  C12_16 
REMARK    6  A    between atoms: N1_19  and  C15_20 
ROOT
HETATM    1  C1  UNL     1       1.510   0.571   0.670  1.00  0.00     0.078 A 
HETATM    2  C2  UNL     1       2.859   0.294   0.341  1.00  0.00     0.074 A 
HETATM    3  C3  UNL     1       3.280  -0.938  -0.047  1.00  0.00     0.071 A 
HETATM    4  C9  UNL     1       2.277  -1.947  -0.105  1.00  0.00     0.038 A 
HETATM    5  C10 UNL     1       0.989  -1.672   0.213  1.00  0.00     0.017 A 
HETATM    6  C11 UNL     1       0.565  -0.384   0.616  1.00  0.00    -0.000 A 
ENDROOT
BRANCH   6   7
HETATM    7  C12 UNL     1      -0.806  -0.305   1.028  1.00  0.00    -0.064 C 
HETATM    8  C13 UNL     1      -1.608  -1.306   0.213  1.00  0.00     0.054 C 
HETATM    9  C14 UNL     1      -2.908  -0.664  -0.244  1.00  0.00     0.121 C 
HETATM   10  N1  UNL     1      -3.659  -0.239   0.875  1.00  0.00    -0.407 N 
HETATM   11  C20 UNL     1      -2.927   0.477   1.848  1.00  0.00     0.121 C 
HETATM   12  C21 UNL     1      -1.550   0.909   1.244  1.00  0.00     0.054 C 
BRANCH  10  13
HETATM   13  C15 UNL     1      -5.000   0.129   0.704  1.00  0.00     0.082 C 
HETATM   14  C16 UNL     1      -5.291   1.305  -0.171  1.00  0.00     0.052 C 
HETATM   15  C17 UNL     1      -5.743   0.862  -1.546  1.00  0.00     0.234 C 
HETATM   16  N2  UNL     1      -7.083   0.318  -1.417  1.00  0.00    -0.075 N 
HETATM   17  C18 UNL     1      -7.256  -0.455  -0.217  1.00  0.00     0.234 C 
ATOM     18  H22 UNL     1      -7.785   1.055  -1.481  1.00  0.00     0.277 HD
ATOM     19  H21 UNL     1      -7.338  -0.225  -2.242  1.00  0.00     0.277 HD
HETATM   20  C19 UNL     1      -5.896  -0.999   0.217  1.00  0.00     0.052 C 
ENDBRANCH  10  13
ENDBRANCH   6   7
BRANCH   1  21
HETATM   21  O1  UNL     1       1.235   1.844   1.031  1.00  0.00    -0.360 OA
ATOM     22  H1  UNL     1       0.330   2.030   1.252  1.00  0.00     0.217 HD
ENDBRANCH   1  21
BRANCH   3  23
HETATM   23  O2  UNL     1       4.512  -1.214  -0.354  1.00  0.00    -0.349 OA
BRANCH  23  24
HETATM   24  C4  UNL     1       5.756  -1.218  -0.599  1.00  0.00     0.207 C 
BRANCH  24  25
HETATM   25  C5  UNL     1       6.353  -0.320  -1.698  1.00  0.00     0.145 C 
HETATM   26  C6  UNL     1       6.321   1.117  -1.312  1.00  0.00     0.036 C 
HETATM   27  C7  UNL     1       7.738   1.562  -1.131  1.00  0.00     0.029 C 
HETATM   28  C8  UNL     1       8.456   0.221  -1.076  1.00  0.00     0.168 C 
HETATM   29  O3  UNL     1       7.673  -0.650  -1.777  1.00  0.00    -0.384 OA
ENDBRANCH  24  25
ENDBRANCH  23  24
ENDBRANCH   3  23
TORSDOF 6
