REMARK  2 active torsions:
REMARK  status: ('A' for Active; 'I' for Inactive)
REMARK    1  A    between atoms: C11_11  and  C12_12 
REMARK       I    between atoms: C12_12  and  N1_14 
REMARK    2  A    between atoms: N1_14  and  C13_16 
ROOT
HETATM    1  C1  UNL     1      -1.618  -0.835   3.384  1.00  0.00     0.012 C 
HETATM    2  C2  UNL     1      -1.748  -0.990   2.189  1.00  0.00    -0.111 C 
HETATM    3  C3  UNL     1      -1.882  -1.183   0.734  1.00  0.00     0.086 C 
HETATM    4  C4  UNL     1      -3.292  -0.788   0.370  1.00  0.00     0.003 C 
HETATM    5  C5  UNL     1      -3.522   0.601   0.950  1.00  0.00     0.010 C 
HETATM    6  C6  UNL     1      -2.493   1.541   0.394  1.00  0.00    -0.013 C 
HETATM    7  C7  UNL     1      -2.732   1.610  -1.112  1.00  0.00     0.009 C 
HETATM    8  C8  UNL     1      -2.510   0.244  -1.695  1.00  0.00    -0.013 C 
HETATM    9  C9  UNL     1      -3.433  -0.800  -1.125  1.00  0.00     0.010 C 
HETATM   10  C10 UNL     1      -1.085  -0.159  -1.411  1.00  0.00     0.025 C 
HETATM   11  C11 UNL     1      -0.858  -0.282   0.086  1.00  0.00     0.056 C 
HETATM   12  C17 UNL     1      -1.081   1.109   0.655  1.00  0.00     0.025 C 
ENDROOT
BRANCH  11  13
HETATM   13  C12 UNL     1       0.477  -0.803   0.363  1.00  0.00     0.228 C 
HETATM   14  O1  UNL     1       0.585  -1.857   1.055  1.00  0.00    -0.273 OA
HETATM   15  N1  UNL     1       1.684  -0.219  -0.085  1.00  0.00    -0.355 N 
ATOM     16  H1  UNL     1       1.639   0.632  -0.646  1.00  0.00     0.162 HD
BRANCH  15  17
HETATM   17  C13 UNL     1       2.970  -0.778   0.220  1.00  0.00     0.099 C 
HETATM   18  C14 UNL     1       3.841   0.122   1.029  1.00  0.00     0.041 C 
HETATM   19  C15 UNL     1       4.543   1.082   0.152  1.00  0.00     0.142 C 
HETATM   20  S1  UNL     1       4.841   0.116  -1.324  1.00  0.00     0.146 S 
HETATM   21  O2  UNL     1       6.239  -0.388  -1.387  1.00  0.00    -0.228 OA
HETATM   22  O3  UNL     1       4.463   0.844  -2.557  1.00  0.00    -0.228 OA
HETATM   23  C16 UNL     1       3.729  -1.231  -0.993  1.00  0.00     0.165 C 
ENDBRANCH  15  17
ENDBRANCH  11  13
TORSDOF 2
