REMARK  4 active torsions:
REMARK  status: ('A' for Active; 'I' for Inactive)
REMARK    1  A    between atoms: O1_2  and  C2_3 
REMARK    2  A    between atoms: C2_3  and  C3_5 
REMARK    3  A    between atoms: C11_13  and  C12_14 
REMARK       I    between atoms: C12_14  and  N1_16 
REMARK       I    between atoms: N1_16  and  C13_18 
REMARK       I    between atoms: C13_18  and  N2_20 
REMARK    4  A    between atoms: N2_20  and  C14_22 
ROOT
HETATM    1  C3  UNL     1      -2.886   0.939   0.224  1.00  0.00     0.178 C 
HETATM    2  C4  UNL     1      -3.853   0.097   1.026  1.00  0.00     0.040 C 
HETATM    3  C5  UNL     1      -3.552  -1.377   0.694  1.00  0.00    -0.011 C 
HETATM    4  C6  UNL     1      -3.582  -1.629  -0.766  1.00  0.00     0.009 C 
HETATM    5  C7  UNL     1      -2.260  -1.903  -1.417  1.00  0.00    -0.011 C 
HETATM    6  C8  UNL     1      -1.435  -2.817  -0.494  1.00  0.00     0.012 C 
HETATM    7  C9  UNL     1      -1.083  -1.798   0.568  1.00  0.00     0.024 C 
HETATM    8  C10 UNL     1      -2.330  -1.759   1.441  1.00  0.00     0.012 C 
HETATM    9  C11 UNL     1      -0.913  -0.465  -0.156  1.00  0.00     0.112 C 
HETATM   10  C18 UNL     1      -1.333  -0.741  -1.534  1.00  0.00     0.045 C 
HETATM   11  N3  UNL     1      -1.571   0.600   0.505  1.00  0.00    -0.392 N 
ATOM     12  H3  UNL     1      -1.062   1.134   1.209  1.00  0.00     0.155 HD
ENDROOT
BRANCH   9  13
HETATM   13  C12 UNL     1       0.566  -0.165  -0.090  1.00  0.00     0.254 C 
HETATM   14  O3  UNL     1       0.842   0.900   0.558  1.00  0.00    -0.270 OA
HETATM   15  N1  UNL     1       1.546  -0.953  -0.670  1.00  0.00    -0.277 N 
HETATM   16  C13 UNL     1       2.907  -0.739  -0.640  1.00  0.00     0.323 C 
ATOM     17  H1  UNL     1       1.226  -1.780  -1.173  1.00  0.00     0.173 HD
HETATM   18  O4  UNL     1       3.656  -1.598  -1.246  1.00  0.00    -0.247 OA
HETATM   19  N2  UNL     1       3.569   0.318  -0.017  1.00  0.00    -0.335 N 
ATOM     20  H2  UNL     1       3.035   1.031   0.479  1.00  0.00     0.165 HD
BRANCH  19  21
HETATM   21  C14 UNL     1       5.032   0.406  -0.074  1.00  0.00     0.023 C 
HETATM   22  C15 UNL     1       5.566   1.608   0.648  1.00  0.00     0.037 C 
HETATM   23  C16 UNL     1       5.385   0.534  -1.556  1.00  0.00     0.037 C 
HETATM   24  C17 UNL     1       5.685  -0.831   0.492  1.00  0.00     0.037 C 
ENDBRANCH  19  21
ENDBRANCH   9  13
BRANCH   1  25
HETATM   25  C2  UNL     1      -3.138   2.370   0.540  1.00  0.00     0.281 C 
HETATM   26  O2  UNL     1      -2.195   3.063   0.995  1.00  0.00    -0.263 OA
BRANCH  25  27
HETATM   27  O1  UNL     1      -4.363   2.984   0.358  1.00  0.00    -0.325 OA
HETATM   28  C1  UNL     1      -4.508   4.354   0.687  1.00  0.00     0.213 C 
ENDBRANCH  25  27
ENDBRANCH   1  25
TORSDOF 4
