REMARK  5 active torsions:
REMARK  status: ('A' for Active; 'I' for Inactive)
REMARK    1  A    between atoms: C5_6  and  C6_7 
REMARK    2  A    between atoms: C6_7  and  N3_11 
REMARK    3  A    between atoms: N3_11  and  C7_12 
REMARK    4  A    between atoms: N3_11  and  C13_18 
REMARK    5  A    between atoms: C16_21  and  C17_22 
ROOT
HETATM    1  N1  UNL     1      -4.274   5.199   2.375  1.00  0.00    -0.191 NA
HETATM    2  C1  UNL     1      -3.913   4.290   1.769  1.00  0.00     0.099 C 
HETATM    3  C2  UNL     1      -3.462   3.138   1.033  1.00  0.00     0.044 A 
HETATM    4  C3  UNL     1      -2.496   2.296   1.547  1.00  0.00     0.023 A 
HETATM    5  C4  UNL     1      -2.073   1.199   0.840  1.00  0.00     0.017 A 
HETATM    6  C5  UNL     1      -2.587   0.884  -0.412  1.00  0.00     0.008 A 
HETATM    7  C22 UNL     1      -3.545   1.752  -0.882  1.00  0.00     0.017 A 
HETATM    8  C23 UNL     1      -3.995   2.865  -0.199  1.00  0.00     0.023 A 
ENDROOT
BRANCH   6   9
HETATM    9  C6  UNL     1      -2.132  -0.293  -1.138  1.00  0.00     0.117 C 
HETATM   10  N2  UNL     1      -2.597  -0.555  -2.301  1.00  0.00    -0.384 N 
ATOM     11  H22 UNL     1      -3.281   0.101  -2.679  1.00  0.00     0.157 HD
ATOM     12  H21 UNL     1      -2.278  -1.380  -2.810  1.00  0.00     0.157 HD
BRANCH   9  13
HETATM   13  N3  UNL     1      -1.183  -1.203  -0.614  1.00  0.00    -0.283 N 
BRANCH  13  14
HETATM   14  C7  UNL     1      -1.611  -2.211   0.293  1.00  0.00     0.042 A 
HETATM   15  C8  UNL     1      -2.780  -2.925   0.060  1.00  0.00     0.030 A 
HETATM   16  C9  UNL     1      -3.160  -3.885   0.938  1.00  0.00     0.002 A 
HETATM   17  C10 UNL     1      -2.403  -4.161   2.057  1.00  0.00     0.000 A 
HETATM   18  C11 UNL     1      -1.247  -3.472   2.311  1.00  0.00     0.002 A 
HETATM   19  C12 UNL     1      -0.860  -2.497   1.419  1.00  0.00     0.030 A 
ENDBRANCH  13  14
BRANCH  13  20
HETATM   20  C13 UNL     1       0.159  -1.117  -1.017  1.00  0.00     0.114 A 
HETATM   21  C14 UNL     1       0.752  -1.893  -2.008  1.00  0.00     0.051 A 
HETATM   22  C15 UNL     1       2.045  -1.477  -2.075  1.00  0.00     0.036 A 
HETATM   23  C16 UNL     1       2.261  -0.465  -1.151  1.00  0.00     0.062 A 
HETATM   24  N6  UNL     1       1.110  -0.268  -0.528  1.00  0.00    -0.340 N 
ATOM     25  H6  UNL     1       0.956   0.419   0.210  1.00  0.00     0.167 HD
BRANCH  23  26
HETATM   26  C17 UNL     1       3.556   0.211  -0.975  1.00  0.00     0.077 A 
HETATM   27  C18 UNL     1       3.837   1.237  -0.094  1.00  0.00     0.130 A 
HETATM   28  N4  UNL     1       5.155   1.623  -0.217  1.00  0.00    -0.310 N 
HETATM   29  C19 UNL     1       5.944   2.507   0.336  1.00  0.00     0.106 A 
HETATM   30  C21 UNL     1       5.657   0.832  -1.166  1.00  0.00     0.155 A 
HETATM   31  C20 UNL     1       7.245   2.568  -0.093  1.00  0.00     0.071 A 
HETATM   32  S1  UNL     1       7.279   1.344  -1.282  1.00  0.00    -0.064 SA
HETATM   33  N5  UNL     1       4.699  -0.022  -1.628  1.00  0.00    -0.333 N 
ATOM     34  H5  UNL     1       4.833  -0.725  -2.355  1.00  0.00     0.168 HD
ENDBRANCH  23  26
ENDBRANCH  13  20
ENDBRANCH   9  13
ENDBRANCH   6   9
TORSDOF 5
