REMARK  6 active torsions:
REMARK  status: ('A' for Active; 'I' for Inactive)
REMARK    1  A    between atoms: C2_2  and  N1_3 
REMARK    2  A    between atoms: C2_2  and  C13_15 
REMARK    3  A    between atoms: N1_3  and  C3_5 
REMARK    4  A    between atoms: C21_25  and  N3_26 
REMARK       I    between atoms: N3_26  and  C22_28 
REMARK    5  A    between atoms: C22_28  and  C23_30 
REMARK    6  A    between atoms: C26_33  and  C27_34 
ROOT
HETATM    1  C13 UNL     1      -0.531   1.430   0.873  1.00  0.00    -0.014 A 
HETATM    2  C14 UNL     1      -0.172   1.527   2.186  1.00  0.00     0.097 A 
HETATM    3  N2  UNL     1       1.088   1.148   2.527  1.00  0.00    -0.374 N 
ATOM      4  H2  UNL     1       1.374   1.215   3.504  1.00  0.00     0.164 HD
HETATM    5  C15 UNL     1       1.988   0.679   1.605  1.00  0.00     0.097 A 
HETATM    6  C16 UNL     1       1.645   0.576   0.285  1.00  0.00    -0.013 A 
HETATM    7  C17 UNL     1       0.342   0.972  -0.065  1.00  0.00    -0.039 A 
HETATM    8  C18 UNL     1       0.085   0.915  -1.528  1.00  0.00     0.040 C 
HETATM    9  C19 UNL     1       1.322   1.595  -2.163  1.00  0.00     0.007 C 
HETATM   10  C20 UNL     1       2.578   0.832  -1.991  1.00  0.00     0.030 C 
HETATM   11  C21 UNL     1       2.576   0.034  -0.714  1.00  0.00     0.120 C 
ENDROOT
BRANCH   1  12
HETATM   12  C2  UNL     1      -1.956   1.728   0.455  1.00  0.00     0.108 C 
HETATM   13  C1  UNL     1      -2.660   2.605   1.451  1.00  0.00     0.037 C 
BRANCH  12  14
HETATM   14  N1  UNL     1      -2.629   0.533   0.229  1.00  0.00    -0.409 N 
ATOM     15  H1  UNL     1      -2.142  -0.291   0.581  1.00  0.00     0.154 HD
BRANCH  14  16
HETATM   16  C3  UNL     1      -3.817   0.260  -0.375  1.00  0.00     0.085 C 
HETATM   17  C4  UNL     1      -4.162  -1.244  -0.325  1.00  0.00     0.009 C 
HETATM   18  C5  UNL     1      -4.729  -1.650   1.007  1.00  0.00     0.011 C 
HETATM   19  C9  UNL     1      -5.126  -1.500  -1.452  1.00  0.00     0.011 C 
HETATM   20  C6  UNL     1      -6.031  -0.930   1.206  1.00  0.00    -0.013 C 
HETATM   21  C7  UNL     1      -6.993  -1.176   0.063  1.00  0.00     0.009 C 
HETATM   22  C12 UNL     1      -5.706   0.558   1.286  1.00  0.00     0.011 C 
HETATM   23  C8  UNL     1      -6.364  -0.665  -1.218  1.00  0.00    -0.013 C 
HETATM   24  C10 UNL     1      -6.067   0.788  -1.085  1.00  0.00     0.011 C 
HETATM   25  C11 UNL     1      -5.014   1.011   0.036  1.00  0.00     0.009 C 
ENDBRANCH  14  16
ENDBRANCH  12  14
ENDBRANCH   1  12
BRANCH  11  26
HETATM   26  N3  UNL     1       3.933  -0.061  -0.206  1.00  0.00    -0.348 N 
HETATM   27  C22 UNL     1       4.755  -1.157  -0.602  1.00  0.00     0.252 C 
HETATM   28  O1  UNL     1       4.321  -2.026  -1.375  1.00  0.00    -0.268 OA
ATOM     29  H3  UNL     1       4.295   0.650   0.429  1.00  0.00     0.163 HD
BRANCH  27  30
HETATM   30  C23 UNL     1       6.120  -1.255  -0.088  1.00  0.00     0.032 A 
HETATM   31  C24 UNL     1       7.186  -1.216  -0.992  1.00  0.00     0.018 A 
HETATM   32  C25 UNL     1       8.489  -1.297  -0.563  1.00  0.00     0.017 A 
HETATM   33  C26 UNL     1       8.809  -1.420   0.788  1.00  0.00     0.048 A 
HETATM   34  C28 UNL     1       7.760  -1.458   1.677  1.00  0.00     0.017 A 
HETATM   35  C29 UNL     1       6.432  -1.378   1.244  1.00  0.00     0.018 A 
BRANCH  33  36
HETATM   36  C27 UNL     1      10.227  -1.499   1.214  1.00  0.00     0.417 C 
HETATM   37  F1  UNL     1      10.570  -2.691   1.790  1.00  0.00    -0.166 F 
HETATM   38  F2  UNL     1      11.041  -1.289   0.119  1.00  0.00    -0.166 F 
HETATM   39  F3  UNL     1      10.536  -0.483   2.112  1.00  0.00    -0.166 F 
ENDBRANCH  33  36
ENDBRANCH  27  30
ENDBRANCH  11  26
TORSDOF 6
