REMARK  4 active torsions:
REMARK  status: ('A' for Active; 'I' for Inactive)
REMARK    1  A    between atoms: C4_4  and  N1_5 
REMARK    2  A    between atoms: N1_5  and  N2_7 
REMARK    3  A    between atoms: N3_9  and  N4_11 
REMARK    4  A    between atoms: N4_11  and  N5_13 
ROOT
HETATM    1  N1  UNL     1       1.096   0.393   0.338  1.00  0.00    -0.269 N 
ATOM      2  H1  UNL     1       1.559  -0.060   1.126  1.00  0.00     0.190 HD
ENDROOT
BRANCH   1   3
HETATM    3  C4  UNL     1      -0.197   0.296   0.177  1.00  0.00     0.137 A 
HETATM    4  C3  UNL     1      -1.094  -0.381   0.977  1.00  0.00     0.077 A 
HETATM    5  C2  UNL     1      -2.357  -0.227   0.448  1.00  0.00     0.025 A 
HETATM    6  C1  UNL     1      -3.649  -0.787   0.981  1.00  0.00     0.070 C 
HETATM    7  N7  UNL     1      -2.213   0.531  -0.652  1.00  0.00    -0.304 N 
HETATM    8  N6  UNL     1      -0.934   0.838  -0.809  1.00  0.00    -0.284 N 
ATOM      9  H7  UNL     1      -2.970   0.824  -1.270  1.00  0.00     0.186 HD
ATOM     10  H6  UNL     1      -0.561   1.405  -1.570  1.00  0.00     0.188 HD
ENDBRANCH   1   3
BRANCH   1  11
HETATM   11  N2  UNL     1       1.830   1.133  -0.595  1.00  0.00    -0.225 N 
HETATM   12  N3  UNL     1       2.989   0.813  -0.943  1.00  0.00    -0.214 N 
ATOM     13  H3  UNL     1       3.500   1.373  -1.626  1.00  0.00     0.211 HD
ATOM     14  H2  UNL     1       1.405   1.964  -1.007  1.00  0.00     0.210 HD
BRANCH  12  15
HETATM   15  N4  UNL     1       3.566  -0.318  -0.382  1.00  0.00    -0.234 N 
ATOM     16  H4  UNL     1       3.356  -1.243  -0.759  1.00  0.00     0.209 HD
BRANCH  15  17
HETATM   17  N5  UNL     1       4.430  -0.181   0.695  1.00  0.00    -0.330 N 
ATOM     18  H52 UNL     1       4.629   0.751   1.060  1.00  0.00     0.178 HD
ATOM     19  H51 UNL     1       4.854  -1.012   1.107  1.00  0.00     0.178 HD
ENDBRANCH  15  17
ENDBRANCH  12  15
ENDBRANCH   1  11
TORSDOF 4
