REMARK  7 active torsions:
REMARK  status: ('A' for Active; 'I' for Inactive)
REMARK    1  A    between atoms: C2_2  and  C4_4 
REMARK    2  A    between atoms: C4_4  and  C5_5 
REMARK    3  A    between atoms: C5_5  and  C6_6 
REMARK       I    between atoms: N1_11  and  C9_12 
REMARK       I    between atoms: C9_12  and  N2_14 
REMARK    4  A    between atoms: N2_14  and  C10_16 
REMARK    5  A    between atoms: C13_19  and  N3_20 
REMARK       I    between atoms: N3_20  and  C14_22 
REMARK    6  A    between atoms: C14_22  and  C15_24 
REMARK    7  A    between atoms: C20_29  and  O3_30 
ROOT
HETATM    1  C5  UNL     1      -5.521  -1.122  -0.667  1.00  0.00     0.088 C 
HETATM    2  C7  UNL     1      -4.361  -1.920  -0.226  1.00  0.00     0.056 C 
HETATM    3  C8  UNL     1      -3.002  -1.392  -0.570  1.00  0.00     0.132 C 
HETATM    4  N1  UNL     1      -2.957  -0.457  -1.656  1.00  0.00    -0.318 N 
HETATM    5  C9  UNL     1      -1.770   0.210  -1.980  1.00  0.00     0.319 C 
HETATM    6  O1  UNL     1      -1.776   1.036  -2.955  1.00  0.00    -0.247 OA
HETATM    7  N2  UNL     1      -0.580  -0.021  -1.247  1.00  0.00    -0.338 N 
ATOM      8  H2  UNL     1      -0.601  -0.686  -0.474  1.00  0.00     0.164 HD
HETATM    9  C22 UNL     1      -4.158  -0.186  -2.444  1.00  0.00     0.246 C 
HETATM   10  N4  UNL     1      -5.248  -0.017  -1.541  1.00  0.00    -0.392 N 
ATOM     11  H4  UNL     1      -5.802   0.839  -1.517  1.00  0.00     0.155 HD
ENDROOT
BRANCH   7  12
HETATM   12  C10 UNL     1       0.669   0.654  -1.555  1.00  0.00     0.088 C 
HETATM   13  C11 UNL     1       1.118   1.421  -0.355  1.00  0.00     0.027 C 
HETATM   14  C12 UNL     1       1.877   0.562   0.636  1.00  0.00     0.030 C 
HETATM   15  C13 UNL     1       3.184   0.077   0.044  1.00  0.00     0.113 C 
HETATM   16  C20 UNL     1       3.104   0.037  -1.475  1.00  0.00     0.142 C 
HETATM   17  C21 UNL     1       1.714  -0.338  -1.937  1.00  0.00     0.059 C 
BRANCH  15  18
HETATM   18  N3  UNL     1       4.333   0.812   0.495  1.00  0.00    -0.354 N 
HETATM   19  C14 UNL     1       5.431   0.147   1.068  1.00  0.00     0.222 C 
HETATM   20  O2  UNL     1       5.421  -1.110   1.194  1.00  0.00    -0.273 OA
ATOM     21  H3  UNL     1       4.352   1.827   0.398  1.00  0.00     0.163 HD
BRANCH  19  22
HETATM   22  C15 UNL     1       6.646   0.875   1.553  1.00  0.00     0.078 C 
HETATM   23  C16 UNL     1       7.218   1.727   0.426  1.00  0.00     0.014 C 
HETATM   24  C17 UNL     1       8.655   1.908   0.885  1.00  0.00     0.001 C 
HETATM   25  C18 UNL     1       9.018   0.451   1.197  1.00  0.00     0.001 C 
HETATM   26  C19 UNL     1       7.763  -0.097   1.843  1.00  0.00     0.014 C 
ENDBRANCH  19  22
ENDBRANCH  15  18
BRANCH  16  27
HETATM   27  O3  UNL     1       4.070  -0.818  -1.938  1.00  0.00    -0.393 OA
ATOM     28  H3  UNL     1       4.020  -0.843  -2.886  1.00  0.00     0.210 HD
ENDBRANCH  16  27
ENDBRANCH   7  12
BRANCH   1  29
HETATM   29  C4  UNL     1      -6.492  -0.635   0.364  1.00  0.00     0.040 C 
BRANCH  29  30
HETATM   30  C2  UNL     1      -6.088   0.323   1.390  1.00  0.00    -0.020 C 
HETATM   31  C1  UNL     1      -5.017  -0.111   2.339  1.00  0.00     0.009 C 
HETATM   32  C3  UNL     1      -7.311   0.684   2.276  1.00  0.00     0.009 C 
ENDBRANCH  29  30
ENDBRANCH   1  29
BRANCH   1  33
HETATM   33  C6  UNL     1      -6.413  -2.080  -1.539  1.00  0.00     0.380 C 
HETATM   34  F1  UNL     1      -7.455  -1.389  -2.098  1.00  0.00    -0.212 F 
HETATM   35  F2  UNL     1      -5.687  -2.800  -2.409  1.00  0.00    -0.212 F 
ENDBRANCH   1  33
TORSDOF 7
