REMARK  5 active torsions:
REMARK  status: ('A' for Active; 'I' for Inactive)
REMARK       I    between atoms: N3_8  and  C4_10 
REMARK       I    between atoms: C4_10  and  N4_12 
REMARK    1  A    between atoms: N4_12  and  C5_14 
REMARK    2  A    between atoms: C5_14  and  C6_15 
REMARK       I    between atoms: C6_15  and  N5_17 
REMARK    3  A    between atoms: N5_17  and  C7_19 
REMARK    4  A    between atoms: C7_19  and  C8_20 
REMARK    5  A    between atoms: C8_20  and  N6_21 
ROOT
HETATM    1  C5  UNL     1       1.115   1.266   0.079  1.00  0.00     0.115 C 
HETATM    2  C13 UNL     1       1.190   1.604   1.548  1.00  0.00     0.043 C 
HETATM    3  C14 UNL     1       0.162   2.502   2.088  1.00  0.00     0.028 C 
HETATM    4  C15 UNL     1      -0.080   3.734   1.255  1.00  0.00     0.033 C 
HETATM    5  C16 UNL     1       0.812   4.874   1.725  1.00  0.00     0.032 C 
HETATM    6 CL1  UNL     1      -1.756   4.248   1.578  1.00  0.00    -0.120 Cl
HETATM    7  C17 UNL     1       0.049   3.500  -0.198  1.00  0.00     0.028 C 
HETATM    8  C18 UNL     1       1.007   2.520  -0.707  1.00  0.00     0.043 C 
ENDROOT
BRANCH   1   9
HETATM    9  N4  UNL     1       2.454   0.703  -0.225  1.00  0.00    -0.325 N 
HETATM   10  C4  UNL     1       2.774   0.332  -1.530  1.00  0.00     0.322 C 
HETATM   11  N3  UNL     1       4.050  -0.198  -1.820  1.00  0.00    -0.292 N 
HETATM   12  O1  UNL     1       1.981   0.445  -2.477  1.00  0.00    -0.247 OA
HETATM   13  C3  UNL     1       4.497  -1.207  -1.167  1.00  0.00     0.148 A 
ATOM     14  H3  UNL     1       4.620   0.224  -2.553  1.00  0.00     0.172 HD
HETATM   15  N2  UNL     1       3.966  -1.930  -0.180  1.00  0.00    -0.284 N 
HETATM   16  C19 UNL     1       5.764  -1.776  -1.418  1.00  0.00     0.103 A 
HETATM   17  N1  UNL     1       4.780  -2.894   0.207  1.00  0.00    -0.302 N 
ATOM     18  H2  UNL     1       3.046  -1.759   0.225  1.00  0.00     0.188 HD
HETATM   19  C2  UNL     1       5.885  -2.813  -0.542  1.00  0.00     0.047 A 
ATOM     20  H1  UNL     1       4.599  -3.576   0.943  1.00  0.00     0.186 HD
HETATM   21  C1  UNL     1       7.099  -3.700  -0.471  1.00  0.00     0.071 C 
HETATM   22 CL2  UNL     1       6.901  -1.199  -2.639  1.00  0.00    -0.078 Cl
ATOM     23  H4  UNL     1       3.140   0.588   0.521  1.00  0.00     0.165 HD
ENDBRANCH   1   9
BRANCH   1  24
HETATM   24  C6  UNL     1       0.067   0.279  -0.213  1.00  0.00     0.246 C 
HETATM   25  O2  UNL     1       0.452  -0.878  -0.618  1.00  0.00    -0.271 OA
HETATM   26  N5  UNL     1      -1.319   0.445  -0.103  1.00  0.00    -0.357 N 
ATOM     27  H5  UNL     1      -1.694   1.339   0.215  1.00  0.00     0.162 HD
BRANCH  26  28
HETATM   28  C7  UNL     1      -2.224  -0.628  -0.432  1.00  0.00     0.152 C 
BRANCH  28  29
HETATM   29  C8  UNL     1      -3.670  -0.226  -0.239  1.00  0.00     0.292 C 
BRANCH  29  30
HETATM   30  N6  UNL     1      -4.557  -1.319  -0.575  1.00  0.00     0.090 N 
HETATM   31  C9  UNL     1      -4.424  -2.413   0.397  1.00  0.00     0.272 C 
HETATM   32  C10 UNL     1      -5.726  -3.206   0.243  1.00  0.00     0.032 C 
HETATM   33  C11 UNL     1      -6.649  -2.259  -0.483  1.00  0.00     0.032 C 
HETATM   34  C12 UNL     1      -5.935  -0.931  -0.337  1.00  0.00     0.272 C 
ENDBRANCH  29  30
ENDBRANCH  28  29
ENDBRANCH  26  28
ENDBRANCH   1  24
TORSDOF 5
