REMARK  5 active torsions:
REMARK  status: ('A' for Active; 'I' for Inactive)
REMARK    1  A    between atoms: C6_7  and  C7_8 
REMARK    2  A    between atoms: C7_8  and  N1_9 
REMARK    3  A    between atoms: N1_9  and  C8_11 
REMARK    4  A    between atoms: C10_17  and  N4_18 
REMARK    5  A    between atoms: N4_18  and  C11_20 
ROOT
HETATM    1  C8  UNL     1       0.402  -0.759  -0.682  1.00  0.00     0.693 A 
HETATM    2  N2  UNL     1       0.111  -1.650  -1.646  1.00  0.00    -0.187 N 
ATOM      3  H2  UNL     1       0.868  -2.149  -2.113  1.00  0.00     0.185 HD
HETATM    4  C9  UNL     1      -1.180  -1.898  -2.009  1.00  0.00     0.215 A 
HETATM    5  N3  UNL     1      -2.193  -1.251  -1.409  1.00  0.00    -0.187 N 
ATOM      6  H3  UNL     1      -3.160  -1.432  -1.679  1.00  0.00     0.185 HD
HETATM    7  C10 UNL     1      -1.906  -0.363  -0.449  1.00  0.00     0.693 A 
HETATM    8  N5  UNL     1      -0.624  -0.122  -0.092  1.00  0.00    -0.022 N 
ATOM      9  H5  UNL     1      -0.431   0.559   0.642  1.00  0.00     0.203 HD
ENDROOT
BRANCH   1  10
HETATM   10  N1  UNL     1       1.610  -0.506  -0.318  1.00  0.00    -0.221 N 
ATOM     11  H1  UNL     1       1.806   0.174   0.416  1.00  0.00     0.178 HD
BRANCH  10  12
HETATM   12  C7  UNL     1       2.681  -1.215  -0.981  1.00  0.00     0.176 C 
BRANCH  12  13
HETATM   13  C6  UNL     1       3.972  -0.709  -0.455  1.00  0.00    -0.038 A 
HETATM   14  C5  UNL     1       5.190  -1.219  -0.914  1.00  0.00     0.032 A 
HETATM   15  C4  UNL     1       6.346  -0.702  -0.382  1.00  0.00     0.035 A 
HETATM   16  C3  UNL     1       6.322   0.297   0.584  1.00  0.00     0.030 A 
HETATM   17 CL1  UNL     1       7.876  -1.358  -0.973  1.00  0.00    -0.084 Cl
HETATM   18  C2  UNL     1       5.129   0.802   1.039  1.00  0.00    -0.060 A 
HETATM   19  C1  UNL     1       5.052   1.874   2.074  1.00  0.00     0.048 C 
HETATM   20  C16 UNL     1       3.967   0.284   0.505  1.00  0.00     0.015 A 
ENDBRANCH  12  13
ENDBRANCH  10  12
ENDBRANCH   1  10
BRANCH   7  21
HETATM   21  N4  UNL     1      -2.820   0.306   0.184  1.00  0.00    -0.221 N 
ATOM     22  H4  UNL     1      -2.528   0.966   0.904  1.00  0.00     0.178 HD
BRANCH  21  23
HETATM   23  C11 UNL     1      -4.230   0.159  -0.084  1.00  0.00     0.099 C 
HETATM   24  C12 UNL     1      -4.900  -0.424   1.123  1.00  0.00     0.026 C 
HETATM   25  C13 UNL     1      -5.738   0.700   1.661  1.00  0.00     0.002 C 
HETATM   26  C14 UNL     1      -6.183   1.483   0.440  1.00  0.00     0.002 C 
HETATM   27  C15 UNL     1      -4.910   1.457  -0.409  1.00  0.00     0.026 C 
ENDBRANCH  21  23
ENDBRANCH   7  21
TORSDOF 5
