REMARK  6 active torsions:
REMARK  status: ('A' for Active; 'I' for Inactive)
REMARK    1  A    between atoms: C2_2  and  N1_3 
REMARK    2  A    between atoms: N1_3  and  C3_5 
REMARK    3  A    between atoms: C5_9  and  C6_10 
REMARK    4  A    between atoms: C6_10  and  O1_11 
REMARK    5  A    between atoms: N4_17  and  C9_18 
REMARK    6  A    between atoms: C9_18  and  C10_19 
ROOT
HETATM    1  C3  UNL     1      -0.927   1.051   0.400  1.00  0.00     0.681 A 
HETATM    2  N2  UNL     1      -1.955   0.460  -0.250  1.00  0.00    -0.187 N 
ATOM      3  H2  UNL     1      -2.741   0.945  -0.682  1.00  0.00     0.184 HD
HETATM    4  C4  UNL     1      -1.772  -0.866  -0.234  1.00  0.00     0.102 A 
HETATM    5  C5  UNL     1      -2.306  -2.079  -0.635  1.00  0.00     0.062 A 
HETATM    6  N3  UNL     1      -1.492  -3.051  -0.223  1.00  0.00    -0.363 N 
ATOM      7  H3  UNL     1      -1.624  -4.051  -0.372  1.00  0.00     0.165 HD
HETATM    8  C7  UNL     1      -0.465  -2.472   0.425  1.00  0.00     0.121 A 
HETATM    9  C8  UNL     1      -0.599  -1.089   0.443  1.00  0.00     0.096 A 
HETATM   10  N4  UNL     1      -0.067   0.100   0.839  1.00  0.00    -0.175 N 
ENDROOT
BRANCH  10  11
HETATM   11  C9  UNL     1       1.172   0.291   1.491  1.00  0.00     0.190 C 
BRANCH  11  12
HETATM   12  C10 UNL     1       2.425  -0.016   0.804  1.00  0.00     0.004 A 
HETATM   13  C11 UNL     1       2.939   0.676  -0.238  1.00  0.00     0.045 A 
HETATM   14 CL1  UNL     1       2.160   2.065  -0.931  1.00  0.00    -0.084 Cl
HETATM   15  C12 UNL     1       4.170   0.310  -0.815  1.00  0.00     0.048 A 
HETATM   16  C13 UNL     1       4.906  -0.761  -0.352  1.00  0.00     0.037 A 
HETATM   17 CL2  UNL     1       6.421  -1.158  -1.115  1.00  0.00    -0.084 Cl
HETATM   18  C14 UNL     1       4.396  -1.474   0.709  1.00  0.00     0.048 A 
HETATM   19  C15 UNL     1       3.208  -1.114   1.261  1.00  0.00     0.045 A 
HETATM   20 CL3  UNL     1       2.646  -2.013   2.660  1.00  0.00    -0.084 Cl
ENDBRANCH  11  12
ENDBRANCH  10  11
BRANCH   1  21
HETATM   21  N1  UNL     1      -0.924   2.327   0.573  1.00  0.00    -0.226 N 
ATOM     22  H1  UNL     1      -0.139   2.754   1.065  1.00  0.00     0.177 HD
BRANCH  21  23
HETATM   23  C2  UNL     1      -1.983   3.169   0.100  1.00  0.00     0.133 C 
HETATM   24  C1  UNL     1      -1.604   4.634   0.109  1.00  0.00     0.027 C 
ENDBRANCH  21  23
ENDBRANCH   1  21
BRANCH   5  25
HETATM   25  C6  UNL     1      -3.587  -2.247  -1.404  1.00  0.00     0.223 C 
BRANCH  25  26
HETATM   26  O1  UNL     1      -3.818  -3.584  -1.634  1.00  0.00    -0.395 OA
ATOM     27  H1  UNL     1      -4.627  -3.690  -2.120  1.00  0.00     0.209 HD
ENDBRANCH  25  26
ENDBRANCH   5  25
TORSDOF 6
