REMARK  6 active torsions:
REMARK  status: ('A' for Active; 'I' for Inactive)
REMARK    1  A    between atoms: N1_1  and  C1_4 
REMARK    2  A    between atoms: C3_8  and  C4_9 
REMARK    3  A    between atoms: C6_14  and  C7_15 
REMARK       I    between atoms: C7_15  and  N3_17 
REMARK    4  A    between atoms: N3_17  and  C8_19 
REMARK    5  A    between atoms: C11_22  and  C12_23 
REMARK    6  A    between atoms: C12_23  and  N4_24 
ROOT
HETATM    1  C7  UNL     1       2.897   0.227   0.555  1.00  0.00     0.255 C 
HETATM    2  O1  UNL     1       2.417   0.861   1.534  1.00  0.00    -0.268 OA
HETATM    3  N3  UNL     1       2.021  -0.586  -0.192  1.00  0.00    -0.352 N 
ATOM      4  H3  UNL     1       2.357  -1.102  -1.005  1.00  0.00     0.163 HD
ENDROOT
BRANCH   1   5
HETATM    5  C6  UNL     1       4.332   0.386   0.267  1.00  0.00     0.076 A 
HETATM    6  C1  UNL     1       5.107  -0.572  -0.308  1.00  0.00     0.114 A 
HETATM    7  N2  UNL     1       6.435  -0.280  -0.582  1.00  0.00    -0.351 N 
HETATM    8  C2  UNL     1       6.929   0.909  -0.285  1.00  0.00     0.106 A 
ATOM      9  H2  UNL     1       7.032  -0.985  -1.014  1.00  0.00     0.166 HD
HETATM   10  C3  UNL     1       6.175   1.929   0.309  1.00  0.00     0.064 A 
HETATM   11  C5  UNL     1       4.876   1.647   0.578  1.00  0.00     0.038 A 
BRANCH   6  12
HETATM   12  N1  UNL     1       4.760  -1.757  -0.582  1.00  0.00    -0.385 N 
ATOM     13  H12 UNL     1       5.341  -2.476  -1.013  1.00  0.00     0.157 HD
ATOM     14  H11 UNL     1       3.783  -1.972  -0.381  1.00  0.00     0.157 HD
ENDBRANCH   6  12
BRANCH  10  15
HETATM   15  C4  UNL     1       6.790   3.233   0.630  1.00  0.00     0.418 C 
HETATM   16  F1  UNL     1       6.174   4.186  -0.151  1.00  0.00    -0.166 F 
HETATM   17  F2  UNL     1       8.155   3.222   0.406  1.00  0.00    -0.166 F 
HETATM   18  F3  UNL     1       6.515   3.498   1.959  1.00  0.00    -0.166 F 
ENDBRANCH  10  15
ENDBRANCH   1   5
BRANCH   3  19
HETATM   19  C8  UNL     1       0.610  -0.677   0.224  1.00  0.00     0.084 C 
HETATM   20  C9  UNL     1      -0.230  -0.322  -0.942  1.00  0.00     0.026 C 
HETATM   21  C10 UNL     1      -1.245  -1.405  -1.228  1.00  0.00     0.008 C 
HETATM   22  C11 UNL     1      -1.963  -1.887  -0.042  1.00  0.00     0.014 C 
HETATM   23  C18 UNL     1      -0.956  -2.609   0.847  1.00  0.00     0.008 C 
HETATM   24  C19 UNL     1       0.368  -1.978   0.896  1.00  0.00     0.026 C 
BRANCH  22  25
HETATM   25  C12 UNL     1      -2.869  -1.022   0.726  1.00  0.00     0.277 C 
BRANCH  25  26
HETATM   26  N4  UNL     1      -4.036  -0.476   0.142  1.00  0.00     0.088 N 
HETATM   27  C13 UNL     1      -3.829   0.510  -0.811  1.00  0.00     0.272 C 
HETATM   28  C14 UNL     1      -5.033   1.398  -1.099  1.00  0.00     0.030 C 
HETATM   29  C15 UNL     1      -5.813   1.779   0.110  1.00  0.00     0.003 C 
HETATM   30  C16 UNL     1      -6.231   0.459   0.782  1.00  0.00     0.030 C 
HETATM   31  C17 UNL     1      -4.955  -0.177   1.210  1.00  0.00     0.272 C 
ENDBRANCH  25  26
ENDBRANCH  22  25
ENDBRANCH   3  19
TORSDOF 6
