REMARK  4 active torsions:
REMARK  status: ('A' for Active; 'I' for Inactive)
REMARK    1  A    between atoms: C2_2  and  O1_3 
REMARK    2  A    between atoms: O1_3  and  C3_4 
REMARK    3  A    between atoms: C7_9  and  C8_10 
REMARK    4  A    between atoms: C8_10  and  N1_11 
ROOT
HETATM    1  C3  UNL     1       2.861  -0.664   0.075  1.00  0.00     0.153 C 
HETATM    2  C4  UNL     1       2.528  -2.063   0.615  1.00  0.00     0.200 C 
HETATM    3  O2  UNL     1       1.153  -2.166   0.659  1.00  0.00    -0.383 OA
HETATM    4  C5  UNL     1       0.620  -0.913   0.527  1.00  0.00     0.131 C 
HETATM    5  C6  UNL     1      -0.803  -0.868   0.037  1.00  0.00     0.067 C 
HETATM    6  C7  UNL     1      -1.090   0.541  -0.430  1.00  0.00     0.214 C 
HETATM    7  N2  UNL     1       0.031   1.420  -0.029  1.00  0.00    -0.069 N 
ATOM      8  H21 UNL     1       0.188   1.396   0.979  1.00  0.00     0.277 HD
ATOM      9  H22 UNL     1      -0.211   2.406  -0.123  1.00  0.00     0.277 HD
HETATM   10  C12 UNL     1       1.240   1.088  -0.771  1.00  0.00     0.242 C 
HETATM   11  C13 UNL     1       1.530  -0.347  -0.580  1.00  0.00     0.071 C 
ENDROOT
BRANCH   6  12
HETATM   12  C8  UNL     1      -2.306   1.123   0.263  1.00  0.00     0.269 C 
BRANCH  12  13
HETATM   13  N1  UNL     1      -3.519   0.404   0.064  1.00  0.00    -0.077 N 
HETATM   14  C9  UNL     1      -4.571   1.348  -0.365  1.00  0.00     0.271 C 
HETATM   15  C10 UNL     1      -3.935  -0.165   1.340  1.00  0.00     0.271 C 
HETATM   16  C11 UNL     1      -3.488  -0.633  -0.914  1.00  0.00     0.271 C 
ENDBRANCH  12  13
ENDBRANCH   6  12
BRANCH   1  17
HETATM   17  O1  UNL     1       3.905  -0.684  -0.801  1.00  0.00    -0.384 OA
BRANCH  17  18
HETATM   18  C2  UNL     1       4.887   0.198  -0.370  1.00  0.00     0.163 C 
HETATM   19  C1  UNL     1       5.473  -0.127   0.972  1.00  0.00     0.033 C 
ENDBRANCH  17  18
ENDBRANCH   1  17
TORSDOF 4
