REMARK  4 active torsions:
REMARK  status: ('A' for Active; 'I' for Inactive)
REMARK    1  A    between atoms: C4_9  and  S1_10 
REMARK    2  A    between atoms: S1_10  and  C5_11 
REMARK    3  A    between atoms: C5_11  and  C6_12 
REMARK    4  A    between atoms: C6_12  and  N3_13 
ROOT
HETATM    1  N3  UNL     1       0.302  -1.357  -0.015  1.00  0.00    -0.325 N 
HETATM    2  C7  UNL     1      -0.673  -2.242   0.571  1.00  0.00     0.147 C 
HETATM    3  C8  UNL     1      -2.064  -2.075   0.085  1.00  0.00     0.138 C 
HETATM    4  N4  UNL     1      -2.167  -1.818  -1.300  1.00  0.00    -0.399 N 
ATOM      5  H4  UNL     1      -1.336  -1.689  -1.878  1.00  0.00     0.158 HD
HETATM    6  C9  UNL     1      -3.455  -1.747  -1.850  1.00  0.00     0.082 C 
HETATM    7  C10 UNL     1      -4.414  -0.837  -1.129  1.00  0.00     0.276 C 
HETATM    8  N5  UNL     1      -4.097   0.554  -1.291  1.00  0.00    -0.071 N 
ATOM      9  H51 UNL     1      -4.708   0.983  -1.986  1.00  0.00     0.277 HD
ATOM     10  H52 UNL     1      -3.199   0.666  -1.761  1.00  0.00     0.277 HD
HETATM   11  C11 UNL     1      -4.123   1.303  -0.059  1.00  0.00     0.234 C 
HETATM   12  C12 UNL     1      -2.852   2.131   0.116  1.00  0.00     0.046 C 
HETATM   13  C13 UNL     1      -2.191   1.891   1.436  1.00  0.00     0.145 C 
HETATM   14  N6  UNL     1      -0.951   1.146   1.336  1.00  0.00    -0.090 NA
HETATM   15  O1  UNL     1      -0.679   0.909   0.041  1.00  0.00    -0.189 OA
HETATM   16  C14 UNL     1       0.031  -0.084  -0.564  1.00  0.00     0.381 C 
HETATM   17  O2  UNL     1       0.517   0.112  -1.746  1.00  0.00    -0.237 OA
ENDROOT
BRANCH   1  18
HETATM   18  C6  UNL     1       1.668  -1.842  -0.024  1.00  0.00     0.138 C 
BRANCH  18  19
HETATM   19  C5  UNL     1       2.466  -1.544   1.187  1.00  0.00     0.102 C 
BRANCH  19  20
HETATM   20  S1  UNL     1       2.734   0.169   1.558  1.00  0.00    -0.092 SA
BRANCH  20  21
HETATM   21  C4  UNL     1       3.813   1.020   0.438  1.00  0.00     0.145 A 
HETATM   22  N2  UNL     1       3.415   1.688  -0.646  1.00  0.00    -0.347 N 
HETATM   23  C3  UNL     1       4.266   2.329  -1.465  1.00  0.00     0.094 A 
ATOM     24  H2  UNL     1       2.419   1.713  -0.863  1.00  0.00     0.167 HD
HETATM   25  C2  UNL     1       5.615   2.303  -1.180  1.00  0.00     0.065 A 
HETATM   26  C1  UNL     1       6.030   1.615  -0.061  1.00  0.00     0.101 A 
HETATM   27  N1  UNL     1       7.311   1.600   0.194  1.00  0.00    -0.385 N 
HETATM   28  N7  UNL     1       5.147   0.987   0.731  1.00  0.00    -0.323 N 
ATOM     29  H12 UNL     1       7.982   2.077  -0.408  1.00  0.00     0.157 HD
ATOM     30  H11 UNL     1       7.618   1.091   1.023  1.00  0.00     0.157 HD
ATOM     31  H7  UNL     1       5.473   0.483   1.555  1.00  0.00     0.169 HD
ENDBRANCH  20  21
ENDBRANCH  19  20
ENDBRANCH  18  19
ENDBRANCH   1  18
TORSDOF 4
