REMARK  1 active torsions:
REMARK  status: ('A' for Active; 'I' for Inactive)
REMARK    1  A    between atoms: C3_4  and  N2_5 
ROOT
HETATM    1  N1  UNL     1       0.393   3.142  -1.105  1.00  0.00    -0.191 NA
HETATM    2  C1  UNL     1       0.855   2.133  -0.778  1.00  0.00     0.109 C 
HETATM    3  C2  UNL     1       1.427   0.860  -0.381  1.00  0.00     0.157 A 
HETATM    4  C3  UNL     1       0.653  -0.202   0.048  1.00  0.00     0.154 A 
HETATM    5  N5  UNL     1       1.226  -1.366   0.408  1.00  0.00    -0.292 N 
ATOM      6  H5  UNL     1       0.652  -2.147   0.725  1.00  0.00     0.172 HD
HETATM    7  C7  UNL     1       2.577  -1.489   0.344  1.00  0.00     0.328 A 
HETATM    8  O1  UNL     1       3.080  -2.584   0.683  1.00  0.00    -0.247 OA
HETATM    9  N6  UNL     1       3.372  -0.493  -0.064  1.00  0.00    -0.274 N 
ATOM     10  H6  UNL     1       4.384  -0.612  -0.102  1.00  0.00     0.173 HD
HETATM   11  C8  UNL     1       2.797   0.673  -0.423  1.00  0.00     0.274 A 
HETATM   12  O2  UNL     1       3.510   1.619  -0.805  1.00  0.00    -0.266 OA
ENDROOT
BRANCH   4  13
HETATM   13  N2  UNL     1      -0.742  -0.087   0.108  1.00  0.00    -0.165 N 
HETATM   14  C4  UNL     1      -1.622  -0.612  -0.934  1.00  0.00     0.169 C 
HETATM   15  C5  UNL     1      -3.008  -0.133  -0.604  1.00  0.00     0.159 C 
HETATM   16  N3  UNL     1      -2.890   0.758   0.528  1.00  0.00    -0.225 N 
HETATM   17  C6  UNL     1      -1.594   0.497   1.076  1.00  0.00     0.675 C 
ATOM     18  H3  UNL     1      -3.581   1.428   0.864  1.00  0.00     0.177 HD
HETATM   19  N4  UNL     1      -1.280   0.777   2.281  1.00  0.00    -0.235 N 
ATOM     20  H42 UNL     1      -0.356   0.591   2.672  1.00  0.00     0.174 HD
ATOM     21  H41 UNL     1      -1.894   1.198   2.978  1.00  0.00     0.174 HD
ENDBRANCH   4  13
TORSDOF 1
