REMARK  1 active torsions:
REMARK  status: ('A' for Active; 'I' for Inactive)
REMARK    1  A    between atoms: C2_3  and  N2_4 
ROOT
HETATM    1  N1  UNL     1       1.279   1.710   0.412  1.00  0.00    -0.092 NA
HETATM    2  C1  UNL     1       0.253   0.739   0.159  1.00  0.00     0.164 A 
HETATM    3  C2  UNL     1       0.555  -0.580  -0.086  1.00  0.00     0.207 A 
HETATM    4  N3  UNL     1      -0.424  -1.467  -0.318  1.00  0.00    -0.288 N 
ATOM      5  H3  UNL     1      -0.210  -2.448  -0.500  1.00  0.00     0.172 HD
HETATM    6  C3  UNL     1      -1.690  -1.030  -0.304  1.00  0.00     0.328 A 
HETATM    7  O3  UNL     1      -2.594  -1.904  -0.530  1.00  0.00    -0.247 OA
HETATM    8  N4  UNL     1      -2.000   0.247  -0.068  1.00  0.00    -0.274 N 
ATOM      9  H4  UNL     1      -2.980   0.530  -0.069  1.00  0.00     0.173 HD
HETATM   10  C4  UNL     1      -1.054   1.166   0.170  1.00  0.00     0.277 A 
HETATM   11  O4  UNL     1      -1.363   2.385   0.394  1.00  0.00    -0.266 OA
ENDROOT
BRANCH   3  12
HETATM   12  N2  UNL     1       1.922  -0.985  -0.088  1.00  0.00    -0.096 N 
HETATM   13  O1  UNL     1       2.830  -0.138   0.133  1.00  0.00    -0.530 OA
HETATM   14  O2  UNL     1       2.200  -2.300  -0.334  1.00  0.00    -0.530 OA
ENDBRANCH   3  12
TORSDOF 1
