REMARK  7 active torsions:
REMARK  status: ('A' for Active; 'I' for Inactive)
REMARK    1  A    between atoms: C2_2  and  C4_4 
REMARK       I    between atoms: C4_4  and  N1_6 
REMARK    2  A    between atoms: N1_6  and  C5_8 
REMARK    3  A    between atoms: C5_8  and  C7_10 
REMARK    4  A    between atoms: C5_8  and  C15_24 
REMARK       I    between atoms: C7_10  and  N2_12 
REMARK    5  A    between atoms: N2_12  and  N3_14 
REMARK    6  A    between atoms: N3_14  and  C8_16 
REMARK    7  A    between atoms: C8_16  and  C9_18 
ROOT
HETATM    1  C5  UNL     1      -1.265  -0.077   0.311  1.00  0.00     0.139 C 
HETATM    2  C6  UNL     1      -1.575  -0.265   1.853  1.00  0.00     0.054 C 
ENDROOT
BRANCH   1   3
HETATM    3  N1  UNL     1      -2.110   0.989  -0.131  1.00  0.00    -0.339 N 
HETATM    4  C4  UNL     1      -3.526   1.029  -0.030  1.00  0.00     0.222 C 
HETATM    5  O1  UNL     1      -4.107   0.054   0.495  1.00  0.00    -0.273 OA
ATOM      6  H1  UNL     1      -1.653   1.795  -0.558  1.00  0.00     0.164 HD
BRANCH   4   7
HETATM    7  C2  UNL     1      -4.335   2.166  -0.515  1.00  0.00     0.070 C 
HETATM    8  C1  UNL     1      -5.792   1.856  -0.278  1.00  0.00     0.019 C 
HETATM    9  C3  UNL     1      -3.945   3.466   0.160  1.00  0.00     0.019 C 
ENDBRANCH   4   7
ENDBRANCH   1   3
BRANCH   1  10
HETATM   10  C7  UNL     1       0.148   0.338   0.302  1.00  0.00     0.269 C 
HETATM   11  O2  UNL     1       0.375   1.556   0.650  1.00  0.00    -0.269 OA
HETATM   12  N2  UNL     1       1.229  -0.467  -0.048  1.00  0.00    -0.266 N 
ATOM     13  H2  UNL     1       1.092  -1.436  -0.335  1.00  0.00     0.190 HD
BRANCH  12  14
HETATM   14  N3  UNL     1       2.531   0.106   0.008  1.00  0.00    -0.287 N 
ATOM     15  H3  UNL     1       2.662   1.111  -0.106  1.00  0.00     0.188 HD
BRANCH  14  16
HETATM   16  C8  UNL     1       3.637  -0.744   0.225  1.00  0.00     0.125 C 
HETATM   17  S1  UNL     1       3.426  -2.368   0.408  1.00  0.00    -0.058 SA
BRANCH  16  18
HETATM   18  C9  UNL     1       4.987  -0.205   0.290  1.00  0.00     0.003 A 
HETATM   19  C10 UNL     1       5.930  -0.683   1.169  1.00  0.00     0.014 A 
HETATM   20  C11 UNL     1       7.200  -0.153   1.208  1.00  0.00     0.001 A 
HETATM   21  C12 UNL     1       7.572   0.875   0.369  1.00  0.00     0.000 A 
HETATM   22  C13 UNL     1       6.643   1.363  -0.512  1.00  0.00     0.001 A 
HETATM   23  C14 UNL     1       5.367   0.818  -0.540  1.00  0.00     0.014 A 
ENDBRANCH  16  18
ENDBRANCH  14  16
ENDBRANCH  12  14
ENDBRANCH   1  10
BRANCH   1  24
HETATM   24  C15 UNL     1      -1.475  -1.389  -0.252  1.00  0.00    -0.021 A 
HETATM   25  C16 UNL     1      -2.284  -1.608  -1.371  1.00  0.00     0.010 A 
HETATM   26  C17 UNL     1      -2.506  -2.891  -1.813  1.00  0.00     0.001 A 
HETATM   27  C18 UNL     1      -1.942  -3.983  -1.170  1.00  0.00     0.000 A 
HETATM   28  C19 UNL     1      -1.143  -3.765  -0.066  1.00  0.00     0.001 A 
HETATM   29  C20 UNL     1      -0.914  -2.488   0.385  1.00  0.00     0.010 A 
ENDBRANCH   1  24
TORSDOF 7
