REMARK  4 active torsions:
REMARK  status: ('A' for Active; 'I' for Inactive)
REMARK    1  A    between atoms: C2_2  and  N1_3 
REMARK       I    between atoms: N1_3  and  C3_5 
REMARK       I    between atoms: C3_5  and  N3_9 
REMARK       I    between atoms: C4_11  and  N4_12 
REMARK       I    between atoms: C4_11  and  N6_21 
REMARK    2  A    between atoms: N6_21  and  C8_23 
REMARK    3  A    between atoms: C8_23  and  C9_24 
REMARK    4  A    between atoms: C9_24  and  C10_26 
ROOT
HETATM    1  N1  UNL     1       2.780  -0.814   0.200  1.00  0.00    -0.203 N 
ATOM      2  H1  UNL     1       3.543  -0.381   0.721  1.00  0.00     0.183 HD
HETATM    3  C3  UNL     1       1.843   0.011  -0.480  1.00  0.00     0.690 C 
HETATM    4  N2  UNL     1       1.787  -0.033  -1.768  1.00  0.00    -0.234 N 
ATOM      5  H21 UNL     1       1.115   0.559  -2.256  1.00  0.00     0.174 HD
ATOM      6  H22 UNL     1       2.397  -0.654  -2.300  1.00  0.00     0.174 HD
HETATM    7  N3  UNL     1       1.025   0.844   0.234  1.00  0.00    -0.023 N 
ATOM      8  H3  UNL     1       1.554   1.667   0.524  1.00  0.00     0.203 HD
HETATM    9  C4  UNL     1      -0.117   0.938   0.641  1.00  0.00     0.693 C 
HETATM   10  N4  UNL     1      -0.461   2.126   1.405  1.00  0.00    -0.180 N 
ATOM     11  H4  UNL     1      -0.726   2.058   2.388  1.00  0.00     0.184 HD
HETATM   12  C5  UNL     1      -0.422   3.277   0.802  1.00  0.00     0.184 A 
HETATM   13  C6  UNL     1      -0.655   4.596   1.113  1.00  0.00     0.281 A 
HETATM   14  O1  UNL     1      -1.011   5.183   2.161  1.00  0.00    -0.265 OA
HETATM   15  N5  UNL     1      -0.361   5.005  -0.110  1.00  0.00    -0.286 N 
ATOM     16  H5  UNL     1      -0.330   5.907  -0.585  1.00  0.00     0.172 HD
HETATM   17  C7  UNL     1      -0.119   3.723  -0.466  1.00  0.00     0.281 A 
HETATM   18  O2  UNL     1       0.242   3.154  -1.538  1.00  0.00    -0.265 OA
HETATM   19  N6  UNL     1      -1.171   0.033   0.465  1.00  0.00    -0.224 N 
ATOM     20  H6  UNL     1      -1.721  -0.186   1.296  1.00  0.00     0.177 HD
ENDROOT
BRANCH  19  21
HETATM   21  C8  UNL     1      -1.569  -0.624  -0.750  1.00  0.00     0.154 C 
BRANCH  21  22
HETATM   22  C9  UNL     1      -2.830  -1.444  -0.567  1.00  0.00     0.086 C 
HETATM   23 BR1  UNL     1      -3.235  -2.258  -2.298  1.00  0.00    -0.089 Br
BRANCH  22  24
HETATM   24  C10 UNL     1      -2.648  -2.599   0.390  1.00  0.00     0.102 C 
HETATM   25 BR2  UNL     1      -1.316  -3.844  -0.172  1.00  0.00    -0.095 Br
ENDBRANCH  22  24
ENDBRANCH  21  22
ENDBRANCH  19  21
BRANCH   1  26
HETATM   26  C2  UNL     1       2.675  -2.218   0.168  1.00  0.00     0.096 C 
HETATM   27  C1  UNL     1       3.705  -2.995   0.442  1.00  0.00     0.030 C 
ENDBRANCH   1  26
TORSDOF 4
