REMARK  8 active torsions:
REMARK  status: ('A' for Active; 'I' for Inactive)
REMARK    1  A    between atoms: N1_1  and  N2_4 
REMARK       I    between atoms: N2_4  and  C1_6 
REMARK    2  A    between atoms: N4_8  and  C2_10 
REMARK    3  A    between atoms: N5_11  and  N6_13 
REMARK    4  A    between atoms: C3_15  and  C4_16 
REMARK    5  A    between atoms: C4_16  and  C5_17 
REMARK    6  A    between atoms: C5_17  and  O1_18 
REMARK    7  A    between atoms: O1_18  and  C6_19 
REMARK    8  A    between atoms: C9_22  and  C10_23 
ROOT
HETATM    1  N6  UNL     1      -1.162   1.320   0.855  1.00  0.00    -0.315 N 
ATOM      2  H6  UNL     1      -1.674   2.090   1.286  1.00  0.00     0.185 HD
HETATM    3  C3  UNL     1      -0.323   0.963   1.671  1.00  0.00     0.082 C 
ENDROOT
BRANCH   1   4
HETATM    4  N5  UNL     1      -1.678   1.148  -0.306  1.00  0.00    -0.297 N 
HETATM    5  C2  UNL     1      -2.895   0.854  -0.580  1.00  0.00     0.199 C 
ATOM      6  H5  UNL     1      -1.049   1.258  -1.101  1.00  0.00     0.187 HD
BRANCH   5   7
HETATM    7  N4  UNL     1      -3.836   0.685   0.436  1.00  0.00    -0.324 N 
HETATM    8  C1  UNL     1      -5.040   1.106   0.453  1.00  0.00     0.207 C 
HETATM    9  N2  UNL     1      -5.583   1.834  -0.629  1.00  0.00    -0.280 N 
HETATM   10  N3  UNL     1      -5.853   0.821   1.604  1.00  0.00    -0.062 NA
ATOM     11  H2  UNL     1      -5.354   1.585  -1.591  1.00  0.00     0.189 HD
ATOM     12  H4  UNL     1      -3.526   0.166   1.258  1.00  0.00     0.169 HD
BRANCH   9  13
HETATM   13  N1  UNL     1      -6.436   2.897  -0.355  1.00  0.00    -0.343 N 
ATOM     14  H12 UNL     1      -6.655   3.133   0.613  1.00  0.00     0.176 HD
ATOM     15  H11 UNL     1      -6.828   3.423  -1.136  1.00  0.00     0.176 HD
ENDBRANCH   9  13
ENDBRANCH   5   7
ENDBRANCH   1   4
BRANCH   3  16
HETATM   16  C4  UNL     1       0.644  -0.153   1.429  1.00  0.00     0.073 C 
BRANCH  16  17
HETATM   17  C5  UNL     1       0.472  -0.693   0.053  1.00  0.00     0.181 C 
BRANCH  17  18
HETATM   18  O1  UNL     1       1.350  -1.726  -0.298  1.00  0.00    -0.351 OA
BRANCH  18  19
HETATM   19  C6  UNL     1       2.682  -1.580  -0.435  1.00  0.00     0.068 A 
HETATM   20  C7  UNL     1       3.339  -0.401  -0.283  1.00  0.00     0.037 A 
HETATM   21  C8  UNL     1       4.710  -0.329  -0.434  1.00  0.00     0.017 A 
HETATM   22  C9  UNL     1       5.438  -1.446  -0.745  1.00  0.00     0.002 A 
HETATM   23  C11 UNL     1       4.802  -2.650  -0.907  1.00  0.00     0.017 A 
HETATM   24  C12 UNL     1       3.436  -2.715  -0.752  1.00  0.00     0.037 A 
BRANCH  22  25
HETATM   25  C10 UNL     1       6.889  -1.371  -0.908  1.00  0.00     0.269 C 
HETATM   26  O2  UNL     1       7.543  -2.389  -1.208  1.00  0.00    -0.301 OA
ENDBRANCH  22  25
ENDBRANCH  18  19
ENDBRANCH  17  18
ENDBRANCH  16  17
ENDBRANCH   3  16
TORSDOF 8
