REMARK  7 active torsions:
REMARK  status: ('A' for Active; 'I' for Inactive)
REMARK    1  A    between atoms: C2_2  and  C3_3 
REMARK       I    between atoms: C3_3  and  N1_5 
REMARK    2  A    between atoms: N1_5  and  C4_7 
REMARK    3  A    between atoms: C4_7  and  C5_8 
REMARK    4  A    between atoms: C4_7  and  C9_16 
REMARK    5  A    between atoms: C5_8  and  C6_9 
REMARK       I    between atoms: C9_16  and  N4_18 
REMARK    6  A    between atoms: N4_18  and  C10_20 
REMARK    7  A    between atoms: C10_20  and  C12_22 
ROOT
HETATM    1  C4  UNL     1      -0.864  -0.332   0.797  1.00  0.00     0.182 C 
ENDROOT
BRANCH   1   2
HETATM    2  N1  UNL     1      -1.860  -1.167   0.179  1.00  0.00    -0.344 N 
HETATM    3  C3  UNL     1      -2.488  -2.256   0.814  1.00  0.00     0.241 C 
HETATM    4  O1  UNL     1      -2.196  -2.558   1.992  1.00  0.00    -0.269 OA
ATOM      5  H1  UNL     1      -2.129  -0.956  -0.782  1.00  0.00     0.163 HD
BRANCH   3   6
HETATM    6  C2  UNL     1      -3.481  -3.047   0.123  1.00  0.00     0.064 C 
HETATM    7  C1  UNL     1      -4.096  -4.085   0.692  1.00  0.00     0.017 C 
ENDBRANCH   3   6
ENDBRANCH   1   2
BRANCH   1   8
HETATM    8  C5  UNL     1      -1.179   1.084   0.968  1.00  0.00     0.093 C 
BRANCH   8   9
HETATM    9  C6  UNL     1      -1.451   1.932  -0.161  1.00  0.00     0.028 A 
HETATM   10  C7  UNL     1      -1.431   1.730  -1.515  1.00  0.00     0.114 A 
HETATM   11  N2  UNL     1      -1.783   2.871  -2.134  1.00  0.00    -0.360 N 
HETATM   12  C8  UNL     1      -2.025   3.790  -1.166  1.00  0.00     0.180 A 
ATOM     13  H2  UNL     1      -1.854   3.018  -3.141  1.00  0.00     0.166 HD
HETATM   14  N3  UNL     1      -1.828   3.240   0.028  1.00  0.00    -0.354 N 
ATOM     15  H3  UNL     1      -1.938   3.707   0.928  1.00  0.00     0.166 HD
ENDBRANCH   8   9
ENDBRANCH   1   8
BRANCH   1  16
HETATM   16  C9  UNL     1       0.490  -0.572   0.176  1.00  0.00     0.241 C 
HETATM   17  O2  UNL     1       0.625  -1.404  -0.753  1.00  0.00    -0.271 OA
HETATM   18  N4  UNL     1       1.653   0.115   0.602  1.00  0.00    -0.347 N 
ATOM     19  H4  UNL     1       1.568   0.796   1.356  1.00  0.00     0.163 HD
BRANCH  18  20
HETATM   20  C10 UNL     1       2.932  -0.103   0.025  1.00  0.00     0.169 C 
HETATM   21  C11 UNL     1       3.831  -0.708   1.100  1.00  0.00     0.042 C 
BRANCH  20  22
HETATM   22  C12 UNL     1       3.537   1.080  -0.589  1.00  0.00     0.253 C 
HETATM   23  N5  UNL     1       4.808   0.989  -1.195  1.00  0.00    -0.060 NA
HETATM   24  O3  UNL     1       2.923   2.172  -0.575  1.00  0.00    -0.275 OA
ENDBRANCH  20  22
ENDBRANCH  18  20
ENDBRANCH   1  16
TORSDOF 7
