REMARK  9 active torsions:
REMARK  status: ('A' for Active; 'I' for Inactive)
REMARK    1  A    between atoms: C5_5  and  C6_6 
REMARK    2  A    between atoms: C6_6  and  N1_7 
REMARK    3  A    between atoms: C7_8  and  C8_9 
REMARK    4  A    between atoms: C12_15  and  N3_16 
REMARK    5  A    between atoms: C18_25  and  N5_26 
REMARK    6  A    between atoms: C23_31  and  C24_32 
REMARK    7  A    between atoms: C24_32  and  O2_33 
REMARK    8  A    between atoms: C24_32  and  C25_35 
REMARK    9  A    between atoms: C25_35  and  O3_36 
ROOT
HETATM    1  N1  UNL     1       1.513   0.427  -1.567  1.00  0.00    -0.320 N 
HETATM    2  C7  UNL     1       1.866   1.699  -1.922  1.00  0.00     0.089 A 
HETATM    3  N2  UNL     1       0.854   2.508  -1.577  1.00  0.00    -0.339 N 
ATOM      4  H2  UNL     1       0.832   3.518  -1.719  1.00  0.00     0.167 HD
HETATM    5  C11 UNL     1      -0.134   1.777  -1.011  1.00  0.00     0.124 A 
HETATM    6  C12 UNL     1      -1.371   2.053  -0.487  1.00  0.00     0.150 A 
HETATM    7  N4  UNL     1      -2.144   1.088   0.011  1.00  0.00    -0.174 N 
ATOM      8  H4  UNL     1      -3.057   1.337   0.392  1.00  0.00     0.186 HD
HETATM    9  C18 UNL     1      -1.760  -0.215   0.029  1.00  0.00     0.684 A 
HETATM   10  N6  UNL     1      -0.543  -0.452  -0.492  1.00  0.00    -0.174 N 
ATOM     11  H6  UNL     1      -0.223  -1.421  -0.494  1.00  0.00     0.186 HD
HETATM   12  C26 UNL     1       0.289   0.461  -1.008  1.00  0.00     0.155 A 
ENDROOT
BRANCH   9  13
HETATM   13  N5  UNL     1      -2.581  -1.242   0.552  1.00  0.00    -0.206 N 
HETATM   14  C19 UNL     1      -3.905  -1.085   1.039  1.00  0.00     0.098 C 
HETATM   15  C20 UNL     1      -4.654   0.084   0.440  1.00  0.00     0.033 C 
HETATM   16  C21 UNL     1      -4.631  -2.349   0.681  1.00  0.00     0.027 C 
HETATM   17  C22 UNL     1      -3.498  -3.320   0.396  1.00  0.00     0.030 C 
HETATM   18  C23 UNL     1      -2.214  -2.623   0.683  1.00  0.00     0.133 C 
BRANCH  18  19
HETATM   19  C24 UNL     1      -1.578  -2.968   1.986  1.00  0.00     0.165 C 
BRANCH  19  20
HETATM   20  O2  UNL     1      -2.355  -2.741   3.107  1.00  0.00    -0.391 OA
ATOM     21  H2  UNL     1      -1.950  -2.961   3.938  1.00  0.00     0.210 HD
ENDBRANCH  19  20
BRANCH  19  22
HETATM   22  C25 UNL     1      -0.975  -4.340   2.068  1.00  0.00     0.197 C 
BRANCH  22  23
HETATM   23  O3  UNL     1      -1.870  -5.376   2.141  1.00  0.00    -0.398 OA
ATOM     24  H3  UNL     1      -1.488  -6.244   2.193  1.00  0.00     0.209 HD
ENDBRANCH  22  23
ENDBRANCH  19  22
ENDBRANCH  18  19
ENDBRANCH   9  13
BRANCH   6  25
HETATM   25  N3  UNL     1      -1.830   3.388  -0.482  1.00  0.00    -0.356 N 
HETATM   26  C13 UNL     1      -2.029   4.075  -1.768  1.00  0.00     0.151 C 
HETATM   27  C14 UNL     1      -3.376   4.785  -1.741  1.00  0.00     0.187 C 
HETATM   28  O1  UNL     1      -3.362   5.680  -0.682  1.00  0.00    -0.388 OA
HETATM   29  C15 UNL     1      -3.417   4.937   0.500  1.00  0.00     0.192 C 
HETATM   30  C16 UNL     1      -2.122   4.151   0.698  1.00  0.00     0.105 C 
HETATM   31  C17 UNL     1      -2.303   3.303   1.932  1.00  0.00     0.034 C 
ENDBRANCH   6  25
BRANCH   1  32
HETATM   32  C6  UNL     1       2.320  -0.725  -1.784  1.00  0.00     0.136 C 
BRANCH  32  33
HETATM   33  C5  UNL     1       3.309  -1.055  -0.697  1.00  0.00     0.004 C 
HETATM   34  C4  UNL     1       4.059  -2.295  -1.133  1.00  0.00     0.006 C 
HETATM   35  C3  UNL     1       4.085  -3.349  -0.046  1.00  0.00     0.005 C 
HETATM   36  C2  UNL     1       4.700  -2.669   1.166  1.00  0.00    -0.019 C 
HETATM   37  C1  UNL     1       6.012  -2.013   0.834  1.00  0.00     0.010 C 
HETATM   38  C28 UNL     1       3.665  -1.743   1.701  1.00  0.00     0.005 C 
HETATM   39  C27 UNL     1       2.738  -1.156   0.674  1.00  0.00     0.006 C 
ENDBRANCH  32  33
ENDBRANCH   1  32
BRANCH   2  40
HETATM   40  C8  UNL     1       3.117   2.169  -2.570  1.00  0.00     0.054 A 
HETATM   41  C9  UNL     1       3.737   3.462  -2.103  1.00  0.00     0.013 A 
HETATM   42  C10 UNL     1       3.105   3.343  -3.446  1.00  0.00     0.013 A 
ENDBRANCH   2  40
TORSDOF 9
