REMARK  12 active torsions:
REMARK  status: ('A' for Active; 'I' for Inactive)
REMARK    1  A    between atoms: C4_8  and  C5_9 
REMARK    2  A    between atoms: C5_9  and  N3_10 
REMARK    3  A    between atoms: N3_10  and  C7_12 
REMARK    4  A    between atoms: C7_12  and  C8_13 
REMARK    5  A    between atoms: C7_12  and  C9_16 
REMARK    6  A    between atoms: C9_16  and  C10_18 
REMARK    7  A    between atoms: C10_18  and  C11_20 
REMARK    8  A    between atoms: C11_20  and  N4_21 
REMARK    9  A    between atoms: C11_20  and  C15_29 
REMARK   10  A    between atoms: N4_21  and  C12_23 
REMARK   11  A    between atoms: C15_29  and  O5_30 
REMARK   12  A    between atoms: N6_32  and  O6_34 
ROOT
HETATM    1  C12 UNL     1      -5.287  -1.309  -0.860  1.00  0.00     0.144 C 
HETATM    2  C13 UNL     1      -5.509  -1.898  -2.196  1.00  0.00     0.120 C 
HETATM    3  N5  UNL     1      -5.700  -2.366  -3.230  1.00  0.00    -0.190 NA
HETATM    4  C14 UNL     1      -6.260  -1.435  -0.014  1.00  0.00     0.140 C 
HETATM    5 CL1  UNL     1      -7.752  -2.251  -0.517  1.00  0.00    -0.068 Cl
HETATM    6 CL2  UNL     1      -6.182  -0.854   1.618  1.00  0.00    -0.068 Cl
ENDROOT
BRANCH   1   7
HETATM    7  N4  UNL     1      -4.056  -0.702  -0.639  1.00  0.00    -0.361 N 
ATOM      8  H4  UNL     1      -3.338  -0.952  -1.319  1.00  0.00     0.161 HD
BRANCH   7   9
HETATM    9  C11 UNL     1      -3.620   0.204   0.364  1.00  0.00     0.237 C 
BRANCH   9  10
HETATM   10  C10 UNL     1      -2.126   0.428   0.157  1.00  0.00     0.228 C 
HETATM   11  O4  UNL     1      -1.631   0.201  -0.957  1.00  0.00    -0.286 OA
BRANCH  10  12
HETATM   12  C9  UNL     1      -1.340   0.892   1.258  1.00  0.00     0.230 C 
HETATM   13  O3  UNL     1      -1.909   1.110   2.406  1.00  0.00    -0.286 OA
BRANCH  12  14
HETATM   14  C7  UNL     1       0.116   1.143   1.151  1.00  0.00     0.263 C 
BRANCH  14  15
HETATM   15  N3  UNL     1       0.742   0.466   0.121  1.00  0.00    -0.371 N 
HETATM   16  C6  UNL     1       1.238   1.227  -0.986  1.00  0.00     0.150 C 
BRANCH  15  17
HETATM   17  C5  UNL     1       1.004  -0.902   0.141  1.00  0.00     0.123 C 
BRANCH  17  18
HETATM   18  C4  UNL     1       2.488  -1.233   0.054  1.00  0.00     0.092 A 
HETATM   19  N2  UNL     1       3.472  -0.461  -0.258  1.00  0.00    -0.334 N 
HETATM   20  C3  UNL     1       4.715  -0.926  -0.293  1.00  0.00     0.131 A 
ATOM     21  H2  UNL     1       3.294   0.518  -0.481  1.00  0.00     0.168 HD
HETATM   22  N1  UNL     1       5.828  -0.258  -0.595  1.00  0.00    -0.339 N 
HETATM   23  C16 UNL     1       4.874  -2.243   0.016  1.00  0.00     0.093 A 
HETATM   24  C2  UNL     1       6.968  -0.855  -0.584  1.00  0.00     0.049 A 
ATOM     25  H1  UNL     1       5.776   0.732  -0.836  1.00  0.00     0.168 HD
HETATM   26  C1  UNL     1       8.324  -0.252  -0.894  1.00  0.00     0.076 C 
HETATM   27  S2  UNL     1       6.572  -2.452  -0.138  1.00  0.00    -0.066 SA
HETATM   28  S1  UNL     1       3.255  -2.732   0.335  1.00  0.00    -0.060 SA
ENDBRANCH  17  18
ENDBRANCH  15  17
ENDBRANCH  14  15
BRANCH  14  29
HETATM   29  C8  UNL     1       0.761   1.149   2.486  1.00  0.00     0.204 C 
HETATM   30  O1  UNL     1       0.224   1.782   3.429  1.00  0.00    -0.646 OA
HETATM   31  O2  UNL     1       1.931   0.478   2.717  1.00  0.00    -0.646 OA
ENDBRANCH  14  29
ENDBRANCH  12  14
ENDBRANCH  10  12
ENDBRANCH   9  10
BRANCH   9  32
HETATM   32  C15 UNL     1      -4.313   1.514   0.374  1.00  0.00     0.166 C 
HETATM   33  N6  UNL     1      -4.969   2.020  -0.566  1.00  0.00    -0.249 N 
ATOM     34  H6  UNL     1      -5.357   2.933  -0.329  1.00  0.00     0.196 HD
BRANCH  32  35
HETATM   35  O5  UNL     1      -4.251   2.310   1.540  1.00  0.00    -0.346 OA
ATOM     36  H5  UNL     1      -4.695   3.150   1.546  1.00  0.00     0.219 HD
ENDBRANCH  32  35
BRANCH  33  37
HETATM   37  O6  UNL     1      -5.273   1.637  -1.800  1.00  0.00    -0.288 OA
ATOM     38  H6  UNL     1      -5.770   2.021  -2.513  1.00  0.00     0.244 HD
ENDBRANCH  33  37
ENDBRANCH   9  32
ENDBRANCH   7   9
ENDBRANCH   1   7
TORSDOF 12
