REMARK  4 active torsions:
REMARK  status: ('A' for Active; 'I' for Inactive)
REMARK    1  A    between atoms: C2_2  and  C4_5 
REMARK    2  A    between atoms: C4_5  and  C5_7 
REMARK    3  A    between atoms: C5_7  and  N1_8 
REMARK    4  A    between atoms: N3_17  and  C10_18 
ROOT
HETATM    1  N1  UNL     1       1.135  -0.811   0.767  1.00  0.00    -0.255 NA
HETATM    2  C6  UNL     1       0.388  -1.839   0.016  1.00  0.00     0.119 C 
HETATM    3  C7  UNL     1      -0.861  -2.078   0.830  1.00  0.00     0.126 C 
HETATM    4  C8  UNL     1      -1.634  -3.167   0.251  1.00  0.00     0.233 C 
HETATM    5  O1  UNL     1      -1.605  -4.323   0.729  1.00  0.00    -0.273 OA
HETATM    6  N2  UNL     1      -2.441  -2.903  -0.887  1.00  0.00    -0.279 N 
ATOM      7  H2  UNL     1      -2.683  -3.629  -1.561  1.00  0.00     0.173 HD
HETATM    8  C9  UNL     1      -2.894  -1.548  -1.027  1.00  0.00     0.326 C 
HETATM    9  O2  UNL     1      -3.609  -1.264  -2.015  1.00  0.00    -0.247 OA
HETATM   10  N3  UNL     1      -2.551  -0.546  -0.080  1.00  0.00    -0.310 N 
HETATM   11  C14 UNL     1      -1.589  -0.763   0.947  1.00  0.00     0.182 C 
HETATM   12  S1  UNL     1      -0.176   0.401   0.866  1.00  0.00    -0.056 SA
ENDROOT
BRANCH   1  13
HETATM   13  C5  UNL     1       2.256  -0.353   0.017  1.00  0.00     0.120 C 
BRANCH  13  14
HETATM   14  C4  UNL     1       3.068   0.665   0.747  1.00  0.00     0.090 C 
HETATM   15 BR2  UNL     1       1.975   2.241   1.010  1.00  0.00    -0.088 Br
BRANCH  14  16
HETATM   16  C2  UNL     1       4.249   1.109  -0.095  1.00  0.00     0.025 C 
HETATM   17  C1  UNL     1       5.017   2.186   0.631  1.00  0.00     0.028 C 
HETATM   18  C3  UNL     1       5.209  -0.042  -0.343  1.00  0.00     0.028 C 
HETATM   19 BR1  UNL     1       3.556   1.815  -1.750  1.00  0.00    -0.085 Br
ENDBRANCH  14  16
ENDBRANCH  13  14
ENDBRANCH   1  13
BRANCH  10  20
HETATM   20  C10 UNL     1      -3.223   0.723  -0.191  1.00  0.00     0.027 C 
HETATM   21  C11 UNL     1      -2.918   1.326  -1.560  1.00  0.00     0.038 C 
HETATM   22  C12 UNL     1      -4.729   0.578  -0.104  1.00  0.00     0.038 C 
HETATM   23  C13 UNL     1      -2.789   1.726   0.853  1.00  0.00     0.038 C 
ENDBRANCH  10  20
TORSDOF 4
