REMARK  2 active torsions:
REMARK  status: ('A' for Active; 'I' for Inactive)
REMARK    1  A    between atoms: C7_9  and  O1_10 
REMARK    2  A    between atoms: C10_15  and  O2_16 
ROOT
HETATM    1  C1  UNL     1       0.061  -0.788  -1.759  1.00  0.00     0.021 C 
HETATM    2  C2  UNL     1      -0.048  -0.701  -0.269  1.00  0.00     0.020 C 
HETATM    3  C3  UNL     1       1.186  -1.233   0.348  1.00  0.00     0.093 C 
HETATM    4  C4  UNL     1       2.179  -0.233   0.808  1.00  0.00     0.244 C 
HETATM    5  F1  UNL     1       3.453  -0.748   0.503  1.00  0.00    -0.206 F 
HETATM    6  F2  UNL     1       2.208  -0.158   2.212  1.00  0.00    -0.206 F 
HETATM    7  C5  UNL     1       2.110   1.110   0.199  1.00  0.00     0.082 C 
HETATM    8  C6  UNL     1       0.801   1.558  -0.322  1.00  0.00     0.046 C 
HETATM    9  C7  UNL     1      -0.311   0.738   0.189  1.00  0.00     0.085 C 
HETATM   10  C8  UNL     1      -1.651   1.002  -0.417  1.00  0.00     0.120 C 
HETATM   11 CL1  UNL     1      -2.526   2.233   0.565  1.00  0.00    -0.122 Cl
HETATM   12  C9  UNL     1      -2.373  -0.296  -0.218  1.00  0.00     0.055 C 
HETATM   13  C10 UNL     1      -1.323  -1.336   0.167  1.00  0.00     0.131 C 
ENDROOT
BRANCH   9  14
HETATM   14  O1  UNL     1      -0.471   0.776   1.554  1.00  0.00    -0.387 OA
ATOM     15  H1  UNL     1      -0.634   1.668   1.838  1.00  0.00     0.210 HD
ENDBRANCH   9  14
BRANCH  13  16
HETATM   16  O2  UNL     1      -1.283  -1.510   1.551  1.00  0.00    -0.395 OA
ATOM     17  H2  UNL     1      -2.096  -1.915   1.829  1.00  0.00     0.210 HD
ENDBRANCH  13  16
TORSDOF 2
