REMARK  7 active torsions:
REMARK  status: ('A' for Active; 'I' for Inactive)
REMARK    1  A    between atoms: C6_9  and  C7_10 
REMARK    2  A    between atoms: C7_10  and  N3_11 
REMARK    3  A    between atoms: C7_10  and  C9_15 
REMARK    4  A    between atoms: C9_15  and  C11_18 
REMARK    5  A    between atoms: C11_18  and  C12_20 
REMARK    6  A    between atoms: N6_22  and  C14_23 
REMARK    7  A    between atoms: C18_27  and  C19_28 
ROOT
HETATM    1  C1  UNL     1       4.098  -2.244   1.889  1.00  0.00     0.057 C 
HETATM    2  C2  UNL     1       4.349  -0.938   1.234  1.00  0.00    -0.006 A 
HETATM    3  S1  UNL     1       5.573   0.122   1.738  1.00  0.00    -0.078 SA
HETATM    4  C3  UNL     1       5.340   1.374   0.628  1.00  0.00     0.109 A 
HETATM    5  N1  UNL     1       6.084   2.596   0.529  1.00  0.00    -0.093 NA
HETATM    6  C4  UNL     1       4.264   0.916  -0.144  1.00  0.00     0.089 A 
HETATM    7  C5  UNL     1       3.837   1.863  -1.189  1.00  0.00     0.103 C 
HETATM    8  N2  UNL     1       3.516   2.660  -2.006  1.00  0.00    -0.191 NA
HETATM    9  C6  UNL     1       3.748  -0.286   0.169  1.00  0.00     0.025 A 
ENDROOT
BRANCH   9  10
HETATM   10  C7  UNL     1       2.595  -0.962  -0.507  1.00  0.00     0.057 C 
BRANCH  10  11
HETATM   11  N3  UNL     1       2.283  -2.076  -0.000  1.00  0.00    -0.295 N 
HETATM   12  C8  UNL     1       1.433  -3.068  -0.134  1.00  0.00     0.182 C 
HETATM   13  N4  UNL     1       0.713  -3.961  -0.227  1.00  0.00    -0.172 NA
ATOM     14  H3  UNL     1       2.906  -2.273   0.783  1.00  0.00     0.178 HD
ENDBRANCH  10  11
BRANCH  10  15
HETATM   15  C9  UNL     1       1.899  -0.497  -1.718  1.00  0.00     0.218 C 
HETATM   16  C10 UNL     1       2.676  -0.640  -2.927  1.00  0.00     0.078 C 
HETATM   17  N5  UNL     1       3.304  -0.771  -3.888  1.00  0.00    -0.196 NA
BRANCH  15  18
HETATM   18  C11 UNL     1       0.510  -1.008  -1.905  1.00  0.00     0.180 C 
HETATM   19  O1  UNL     1       0.265  -1.809  -2.844  1.00  0.00    -0.291 OA
BRANCH  18  20
HETATM   20  C12 UNL     1      -0.610  -0.620  -1.037  1.00  0.00     0.009 A 
HETATM   21  C13 UNL     1      -1.809  -1.140  -1.266  1.00  0.00     0.102 A 
HETATM   22  N6  UNL     1      -2.964  -0.839  -0.496  1.00  0.00    -0.362 N 
HETATM   23  C17 UNL     1      -2.778   0.089   0.580  1.00  0.00     0.094 A 
HETATM   24  C18 UNL     1      -1.626   0.635   0.851  1.00  0.00    -0.057 A 
HETATM   25  C22 UNL     1      -0.418   0.341   0.055  1.00  0.00     0.079 A 
BRANCH  22  26
HETATM   26  C14 UNL     1      -4.246  -1.428  -0.777  1.00  0.00     0.080 C 
HETATM   27  C15 UNL     1      -5.270  -0.918   0.204  1.00  0.00     0.032 C 
HETATM   28  C16 UNL     1      -4.740  -1.090  -2.167  1.00  0.00     0.032 C 
ENDBRANCH  22  26
BRANCH  24  29
HETATM   29  C19 UNL     1      -1.478   1.588   1.972  1.00  0.00     0.008 C 
HETATM   30  C20 UNL     1      -0.895   2.909   1.557  1.00  0.00     0.014 C 
HETATM   31  C21 UNL     1      -2.816   1.790   2.688  1.00  0.00     0.014 C 
ENDBRANCH  24  29
ENDBRANCH  18  20
ENDBRANCH  15  18
ENDBRANCH  10  15
ENDBRANCH   9  10
TORSDOF 7
