REMARK  1 active torsions:
REMARK  status: ('A' for Active; 'I' for Inactive)
REMARK    1  A    between atoms: C4_7  and  C5_8 
ROOT
HETATM    1  C5  UNL     1       1.632   0.701  -0.600  1.00  0.00     0.107 C 
HETATM    2  N2  UNL     1       0.800  -0.153   0.062  1.00  0.00    -0.375 N 
HETATM    3  C6  UNL     1       1.375  -1.019   1.036  1.00  0.00     0.142 C 
HETATM    4  C7  UNL     1       1.230  -2.469   0.616  1.00  0.00     0.133 C 
HETATM    5  N3  UNL     1       0.106  -2.724  -0.226  1.00  0.00    -0.417 N 
ATOM      6  H3  UNL     1      -0.383  -3.618  -0.175  1.00  0.00     0.153 HD
HETATM    7  C8  UNL     1      -0.326  -1.721  -1.137  1.00  0.00     0.145 C 
HETATM    8  C9  UNL     1      -0.518  -0.438  -0.312  1.00  0.00     0.055 C 
HETATM    9  C10 UNL     1      -1.158   0.613  -1.153  1.00  0.00     0.016 C 
HETATM   10  C11 UNL     1      -1.538   1.844  -0.334  1.00  0.00     0.012 C 
HETATM   11  C12 UNL     1      -2.571   1.454   0.717  1.00  0.00    -0.013 C 
HETATM   12  C13 UNL     1      -3.787   0.813   0.118  1.00  0.00     0.009 C 
HETATM   13  C14 UNL     1      -3.366  -0.397  -0.706  1.00  0.00    -0.013 C 
HETATM   14  C15 UNL     1      -2.434   0.110  -1.777  1.00  0.00     0.012 C 
HETATM   15  C16 UNL     1      -2.716  -1.372   0.232  1.00  0.00     0.012 C 
HETATM   16  C17 UNL     1      -1.449  -0.756   0.824  1.00  0.00     0.016 C 
HETATM   17  C18 UNL     1      -1.899   0.449   1.613  1.00  0.00     0.012 C 
ENDROOT
BRANCH   1  18
HETATM   18  C4  UNL     1       3.067   0.366  -0.627  1.00  0.00     0.043 A 
HETATM   19  C2  UNL     1       4.036   1.290  -0.120  1.00  0.00     0.024 A 
HETATM   20  C1  UNL     1       3.523   2.516   0.607  1.00  0.00     0.069 C 
HETATM   21  N1  UNL     1       5.229   0.987  -0.290  1.00  0.00    -0.362 N 
HETATM   22  C3  UNL     1       5.637  -0.093  -0.894  1.00  0.00     0.139 A 
ATOM     23  H1  UNL     1       5.937   1.628   0.068  1.00  0.00     0.165 HD
HETATM   24  S1  UNL     1       4.104  -0.827  -1.266  1.00  0.00    -0.082 SA
ENDBRANCH   1  18
TORSDOF 1
