REMARK  4 active torsions:
REMARK  status: ('A' for Active; 'I' for Inactive)
REMARK    1  A    between atoms: C2_2  and  C3_3 
REMARK    2  A    between atoms: C6_6  and  C7_7 
REMARK       I    between atoms: C7_7  and  N1_9 
REMARK    3  A    between atoms: C10_12  and  O2_14 
REMARK       I    between atoms: N2_18  and  C14_19 
REMARK    4  A    between atoms: C14_19  and  O4_21 
ROOT
HETATM    1  C3  UNL     1      -2.931  -0.804  -0.474  1.00  0.00     0.003 C 
HETATM    2  C4  UNL     1      -1.644  -1.590  -0.397  1.00  0.00     0.009 C 
HETATM    3  C5  UNL     1      -1.017  -1.358   0.938  1.00  0.00     0.035 C 
HETATM    4  C6  UNL     1      -0.484   0.079   0.927  1.00  0.00     0.181 C 
HETATM    5  N2  UNL     1      -1.659   0.910   0.780  1.00  0.00    -0.314 N 
HETATM    6  C14 UNL     1      -1.629   2.329   0.830  1.00  0.00     0.363 C 
HETATM    7  O3  UNL     1      -0.535   2.962   1.012  1.00  0.00    -0.238 OA
HETATM    8  C16 UNL     1      -2.930   0.255   0.571  1.00  0.00     0.133 C 
ENDROOT
BRANCH   4   9
HETATM    9  C7  UNL     1       0.434   0.196  -0.222  1.00  0.00     0.242 C 
HETATM   10  O1  UNL     1       0.060   0.965  -1.173  1.00  0.00    -0.271 OA
HETATM   11  N1  UNL     1       1.660  -0.446  -0.367  1.00  0.00    -0.350 N 
HETATM   12  C8  UNL     1       2.229  -1.353   0.619  1.00  0.00     0.129 C 
HETATM   13  C13 UNL     1       2.509  -0.254  -1.554  1.00  0.00     0.129 C 
HETATM   14  C9  UNL     1       3.736  -1.336   0.535  1.00  0.00     0.057 C 
HETATM   15  C10 UNL     1       4.307  -0.037   0.088  1.00  0.00     0.057 C 
HETATM   16  C11 UNL     1       5.776  -0.325  -0.271  1.00  0.00     0.046 C 
HETATM   17  C12 UNL     1       3.663   0.606  -1.086  1.00  0.00     0.057 C 
BRANCH  15  18
HETATM   18  O2  UNL     1       4.360   0.901   1.138  1.00  0.00    -0.390 OA
ATOM     19  H2  UNL     1       4.725   1.731   0.853  1.00  0.00     0.210 HD
ENDBRANCH  15  18
ENDBRANCH   4   9
BRANCH   6  20
HETATM   20  O4  UNL     1      -2.757   3.114   0.688  1.00  0.00    -0.309 OA
HETATM   21  C15 UNL     1      -2.721   4.538   0.740  1.00  0.00     0.215 C 
ENDBRANCH   6  20
BRANCH   1  22
HETATM   22  C2  UNL     1      -4.059  -1.795  -0.155  1.00  0.00     0.002 C 
HETATM   23  C1  UNL     1      -5.399  -1.137  -0.197  1.00  0.00     0.005 C 
ENDBRANCH   1  22
TORSDOF 4
