REMARK  13 active torsions:
REMARK  status: ('A' for Active; 'I' for Inactive)
REMARK    1  A    between atoms: C2_2  and  C3_3 
REMARK    2  A    between atoms: C3_3  and  C4_4 
REMARK    3  A    between atoms: C4_4  and  C5_5 
REMARK    4  A    between atoms: N2_11  and  C8_12 
REMARK    5  A    between atoms: C8_12  and  C9_13 
REMARK       I    between atoms: C9_13  and  N3_15 
REMARK    6  A    between atoms: N3_15  and  C10_17 
REMARK    7  A    between atoms: C10_17  and  C11_18 
REMARK    8  A    between atoms: C11_18  and  S1_19 
REMARK    9  A    between atoms: S1_19  and  N4_22 
REMARK   10  A    between atoms: N4_22  and  C12_24 
REMARK   11  A    between atoms: N5_26  and  C14_27 
REMARK   12  A    between atoms: C14_27  and  C15_28 
REMARK       I    between atoms: C15_28  and  N6_30 
REMARK   13  A    between atoms: C26_41  and  N7_42 
ROOT
HETATM    1  C10 UNL     1      -0.600  -2.905  -0.397  1.00  0.00     0.139 C 
ENDROOT
BRANCH   1   2
HETATM    2  N3  UNL     1      -1.932  -2.422  -0.138  1.00  0.00    -0.355 N 
HETATM    3  C9  UNL     1      -3.059  -3.280  -0.125  1.00  0.00     0.257 C 
HETATM    4  O2  UNL     1      -3.001  -4.510  -0.328  1.00  0.00    -0.267 OA
ATOM      5  H3  UNL     1      -2.069  -1.427   0.042  1.00  0.00     0.162 HD
BRANCH   3   6
HETATM    6  C8  UNL     1      -4.429  -2.732   0.145  1.00  0.00     0.169 C 
BRANCH   6   7
HETATM    7  N2  UNL     1      -4.393  -1.348   0.352  1.00  0.00    -0.302 N 
HETATM    8  C7  UNL     1      -4.542  -0.428  -0.750  1.00  0.00     0.323 C 
HETATM    9  N1  UNL     1      -4.567   0.957  -0.458  1.00  0.00    -0.331 N 
HETATM   10  O1  UNL     1      -4.644  -0.861  -1.917  1.00  0.00    -0.247 OA
HETATM   11  C4  UNL     1      -5.328   1.428   0.720  1.00  0.00     0.062 C 
ATOM     12  H1  UNL     1      -4.068   1.620  -1.051  1.00  0.00     0.165 HD
HETATM   13  C26 UNL     1      -5.299   0.367   1.770  1.00  0.00     0.202 C 
HETATM   14  C25 UNL     1      -4.219  -0.685   1.642  1.00  0.00     0.167 C 
BRANCH  11  15
HETATM   15  C3  UNL     1      -6.724   1.564   0.210  1.00  0.00     0.033 C 
BRANCH  15  16
HETATM   16  C2  UNL     1      -7.790   2.095   1.044  1.00  0.00    -0.002 C 
HETATM   17  C1  UNL     1      -7.685   3.489   1.551  1.00  0.00     0.005 C 
ENDBRANCH  15  16
ENDBRANCH  11  15
BRANCH  11  18
HETATM   18  C5  UNL     1      -4.620   2.677   1.125  1.00  0.00     0.029 C 
HETATM   19  C6  UNL     1      -4.467   3.632  -0.046  1.00  0.00     0.007 C 
ENDBRANCH  11  18
BRANCH  13  20
HETATM   20  N7  UNL     1      -5.296   0.837   3.131  1.00  0.00    -0.146 N 
HETATM   21  O6  UNL     1      -6.221   0.596   3.931  1.00  0.00    -0.536 OA
HETATM   22  O7  UNL     1      -4.248   1.582   3.608  1.00  0.00    -0.536 OA
ENDBRANCH  13  20
ENDBRANCH   6   7
ENDBRANCH   3   6
ENDBRANCH   1   2
BRANCH   1  23
HETATM   23  C11 UNL     1      -0.532  -3.484  -1.769  1.00  0.00     0.182 C 
BRANCH  23  24
HETATM   24  S1  UNL     1       1.055  -4.143  -2.198  1.00  0.00     0.228 S 
HETATM   25  O3  UNL     1       1.415  -5.278  -1.274  1.00  0.00    -0.206 OA
HETATM   26  O4  UNL     1       0.919  -4.672  -3.620  1.00  0.00    -0.206 OA
BRANCH  24  27
HETATM   27  N4  UNL     1       2.236  -2.920  -2.111  1.00  0.00    -0.313 N 
ATOM     28  H4  UNL     1       2.242  -2.107  -2.727  1.00  0.00     0.172 HD
BRANCH  27  29
HETATM   29  C12 UNL     1       3.220  -3.138  -1.094  1.00  0.00     0.114 C 
HETATM   30  C13 UNL     1       3.349  -1.938  -0.216  1.00  0.00     0.143 C 
HETATM   31  N5  UNL     1       3.552  -0.773  -0.996  1.00  0.00    -0.402 N 
HETATM   32  C21 UNL     1       4.364  -0.911  -2.153  1.00  0.00     0.118 C 
HETATM   33  C22 UNL     1       5.248  -2.108  -2.188  1.00  0.00     0.026 C 
HETATM   34  C23 UNL     1       4.607  -3.369  -1.720  1.00  0.00     0.008 C 
HETATM   35  C24 UNL     1       5.461  -3.992  -0.644  1.00  0.00     0.012 C 
BRANCH  31  36
HETATM   36  C14 UNL     1       3.679   0.460  -0.300  1.00  0.00     0.220 C 
BRANCH  36  37
HETATM   37  C15 UNL     1       4.880   0.639   0.509  1.00  0.00     0.237 C 
HETATM   38  O5  UNL     1       5.746  -0.253   0.578  1.00  0.00    -0.272 OA
HETATM   39  N6  UNL     1       5.078   1.838   1.230  1.00  0.00    -0.351 N 
HETATM   40  C16 UNL     1       6.282   2.036   2.053  1.00  0.00     0.126 C 
HETATM   41  C20 UNL     1       4.144   2.948   1.226  1.00  0.00     0.126 C 
HETATM   42  C17 UNL     1       7.173   2.980   1.275  1.00  0.00     0.020 C 
HETATM   43  C18 UNL     1       6.310   3.895   0.446  1.00  0.00     0.003 C 
HETATM   44  C19 UNL     1       4.991   4.221   1.150  1.00  0.00     0.020 C 
ENDBRANCH  36  37
ENDBRANCH  31  36
ENDBRANCH  27  29
ENDBRANCH  24  27
ENDBRANCH  23  24
ENDBRANCH   1  23
TORSDOF 13
