REMARK  12 active torsions:
REMARK  status: ('A' for Active; 'I' for Inactive)
REMARK    1  A    between atoms: C2_3  and  N2_4 
REMARK       I    between atoms: N2_4  and  C3_6 
REMARK    2  A    between atoms: C3_6  and  C4_8 
REMARK       I    between atoms: N3_13  and  C9_14 
REMARK    3  A    between atoms: C9_14  and  C10_16 
REMARK       I    between atoms: N4_17  and  C11_19 
REMARK    4  A    between atoms: C11_19  and  C12_21 
REMARK    5  A    between atoms: C12_21  and  C13_22 
REMARK    6  A    between atoms: C12_21  and  N5_26 
REMARK    7  A    between atoms: C13_22  and  C14_23 
REMARK       I    between atoms: N5_26  and  C15_28 
REMARK    8  A    between atoms: C15_28  and  C16_30 
REMARK    9  A    between atoms: C16_30  and  C17_31 
REMARK   10  A    between atoms: C16_30  and  C20_36 
REMARK   11  A    between atoms: C17_31  and  C18_32 
REMARK   12  A    between atoms: C18_32  and  C19_33 
ROOT
HETATM    1  N1  UNL     1       3.307   3.283  -1.205  1.00  0.00    -0.195 NA
HETATM    2  C1  UNL     1       4.183   2.976  -0.520  1.00  0.00     0.091 C 
HETATM    3  C2  UNL     1       5.270   2.576   0.342  1.00  0.00     0.122 C 
HETATM    4  C26 UNL     1       6.645   2.634  -0.287  1.00  0.00     0.047 C 
HETATM    5  C27 UNL     1       7.178   3.137   1.044  1.00  0.00     0.007 C 
HETATM    6  C28 UNL     1       5.747   3.604   1.344  1.00  0.00     0.047 C 
ENDROOT
BRANCH   3   7
HETATM    7  N2  UNL     1       4.988   1.311   1.014  1.00  0.00    -0.337 N 
HETATM    8  C3  UNL     1       4.755   0.119   0.283  1.00  0.00     0.242 C 
HETATM    9  O1  UNL     1       4.804   0.195  -0.984  1.00  0.00    -0.271 OA
ATOM     10  H2  UNL     1       4.958   1.284   2.033  1.00  0.00     0.164 HD
BRANCH   8  11
HETATM   11  C4  UNL     1       4.473  -1.139   0.991  1.00  0.00     0.179 C 
HETATM   12  C5  UNL     1       5.549  -1.487   2.008  1.00  0.00     0.035 C 
HETATM   13  C6  UNL     1       5.428  -2.923   2.452  1.00  0.00     0.004 C 
HETATM   14  C7  UNL     1       5.486  -3.907   1.329  1.00  0.00     0.020 C 
HETATM   15  C8  UNL     1       5.441  -3.175   0.014  1.00  0.00     0.127 C 
HETATM   16  N3  UNL     1       4.302  -2.258   0.062  1.00  0.00    -0.334 N 
HETATM   17  C9  UNL     1       3.145  -2.456  -0.729  1.00  0.00     0.259 C 
HETATM   18  O2  UNL     1       3.132  -3.457  -1.481  1.00  0.00    -0.267 OA
BRANCH  17  19
HETATM   19  C10 UNL     1       2.000  -1.569  -0.706  1.00  0.00     0.165 C 
HETATM   20  N4  UNL     1       0.984  -1.791  -1.437  1.00  0.00    -0.330 N 
HETATM   21  C11 UNL     1      -0.161  -0.962  -1.458  1.00  0.00     0.245 C 
ATOM     22  H4  UNL     1       0.995  -2.612  -2.042  1.00  0.00     0.168 HD
HETATM   23  O3  UNL     1      -0.070   0.185  -1.941  1.00  0.00    -0.271 OA
BRANCH  21  24
HETATM   24  C12 UNL     1      -1.430  -1.518  -0.891  1.00  0.00     0.186 C 
BRANCH  24  25
HETATM   25  C13 UNL     1      -1.705  -2.865  -1.479  1.00  0.00     0.147 C 
BRANCH  25  26
HETATM   26  C14 UNL     1      -1.851  -2.860  -2.939  1.00  0.00     0.175 C 
HETATM   27  O4  UNL     1      -2.118  -3.906  -3.582  1.00  0.00    -0.648 OA
HETATM   28  O5  UNL     1      -1.694  -1.682  -3.635  1.00  0.00    -0.648 OA
ENDBRANCH  25  26
ENDBRANCH  24  25
BRANCH  24  29
HETATM   29  N5  UNL     1      -2.521  -0.596  -0.969  1.00  0.00    -0.347 N 
HETATM   30  C15 UNL     1      -3.119  -0.012   0.183  1.00  0.00     0.223 C 
HETATM   31  O6  UNL     1      -2.663  -0.325   1.306  1.00  0.00    -0.273 OA
ATOM     32  H5  UNL     1      -2.886  -0.347  -1.888  1.00  0.00     0.163 HD
BRANCH  30  33
HETATM   33  C16 UNL     1      -4.261   0.945  -0.015  1.00  0.00     0.082 C 
BRANCH  33  34
HETATM   34  C17 UNL     1      -3.752   2.051  -0.857  1.00  0.00     0.023 C 
BRANCH  34  35
HETATM   35  C18 UNL     1      -2.603   2.743  -0.182  1.00  0.00     0.100 C 
BRANCH  35  36
HETATM   36  C19 UNL     1      -2.908   3.397   1.091  1.00  0.00     0.231 C 
HETATM   37  N6  UNL     1      -1.851   3.843   1.925  1.00  0.00    -0.062 NA
HETATM   38  O7  UNL     1      -4.080   3.576   1.464  1.00  0.00    -0.277 OA
ENDBRANCH  35  36
ENDBRANCH  34  35
ENDBRANCH  33  34
BRANCH  33  39
HETATM   39  C20 UNL     1      -5.426   0.200  -0.605  1.00  0.00    -0.002 C 
HETATM   40  C21 UNL     1      -5.828  -0.900   0.352  1.00  0.00     0.005 C 
HETATM   41  C22 UNL     1      -6.980  -0.473   1.237  1.00  0.00     0.000 C 
HETATM   42  C23 UNL     1      -8.233  -0.286   0.420  1.00  0.00     0.000 C 
HETATM   43  C24 UNL     1      -7.870   0.199  -0.947  1.00  0.00     0.000 C 
HETATM   44  C25 UNL     1      -6.593   1.043  -0.948  1.00  0.00     0.005 C 
ENDBRANCH  33  39
ENDBRANCH  30  33
ENDBRANCH  24  29
ENDBRANCH  21  24
ENDBRANCH  17  19
ENDBRANCH   8  11
ENDBRANCH   3   7
TORSDOF 12
