REMARK  11 active torsions:
REMARK  status: ('A' for Active; 'I' for Inactive)
REMARK    1  A    between atoms: C2_2  and  C3_3 
REMARK    2  A    between atoms: C2_2  and  C17_28 
REMARK    3  A    between atoms: C3_3  and  C4_4 
REMARK    4  A    between atoms: C4_4  and  C5_5 
REMARK    5  A    between atoms: C5_5  and  C7_7 
REMARK    6  A    between atoms: C7_7  and  O1_8 
REMARK    7  A    between atoms: C7_7  and  C8_10 
REMARK    8  A    between atoms: C8_10  and  N1_11 
REMARK    9  A    between atoms: N1_11  and  C9_14 
REMARK   10  A    between atoms: C9_14  and  C10_15 
REMARK   11  A    between atoms: C12_18  and  C13_19 
ROOT
HETATM    1  N1  UNL     1       0.811  -2.256   0.915  1.00  0.00    -0.068 N 
ATOM      2  H11 UNL     1       0.247  -1.986   0.109  1.00  0.00     0.277 HD
ATOM      3  H12 UNL     1       1.343  -3.019   0.497  1.00  0.00     0.277 HD
ENDROOT
BRANCH   1   4
HETATM    4  C8  UNL     1      -0.020  -2.734   1.989  1.00  0.00     0.264 C 
BRANCH   4   5
HETATM    5  C7  UNL     1      -1.033  -1.716   2.359  1.00  0.00     0.147 C 
BRANCH   5   6
HETATM    6  C5  UNL     1      -1.955  -1.302   1.223  1.00  0.00     0.012 C 
HETATM    7  C6  UNL     1      -2.864  -2.471   0.842  1.00  0.00     0.012 C 
BRANCH   6   8
HETATM    8  C4  UNL     1      -2.862  -0.240   1.786  1.00  0.00     0.011 C 
BRANCH   8   9
HETATM    9  C3  UNL     1      -3.905   0.278   0.883  1.00  0.00     0.034 C 
BRANCH   9  10
HETATM   10  C2  UNL     1      -3.382   0.997  -0.282  1.00  0.00    -0.086 C 
HETATM   11  C1  UNL     1      -2.125   1.377  -0.354  1.00  0.00     0.014 C 
BRANCH  10  12
HETATM   12  C17 UNL     1      -4.306   1.323  -1.432  1.00  0.00     0.005 C 
HETATM   13  C18 UNL     1      -3.546   2.088  -2.473  1.00  0.00     0.014 C 
HETATM   14  C19 UNL     1      -4.877   0.074  -2.056  1.00  0.00     0.014 C 
ENDBRANCH  10  12
ENDBRANCH   9  10
ENDBRANCH   8   9
ENDBRANCH   6   8
ENDBRANCH   5   6
BRANCH   5  15
HETATM   15  O1  UNL     1      -1.814  -2.224   3.434  1.00  0.00    -0.394 OA
ATOM     16  H1  UNL     1      -1.238  -2.483   4.144  1.00  0.00     0.210 HD
ENDBRANCH   5  15
ENDBRANCH   4   5
ENDBRANCH   1   4
BRANCH   1  17
HETATM   17  C9  UNL     1       1.674  -1.190   1.317  1.00  0.00     0.291 C 
BRANCH  17  18
HETATM   18  C10 UNL     1       2.497  -0.727   0.173  1.00  0.00     0.059 A 
HETATM   19  C11 UNL     1       2.333  -0.989  -1.170  1.00  0.00     0.171 A 
HETATM   20  O2  UNL     1       3.290  -0.383  -1.837  1.00  0.00    -0.302 OA
HETATM   21  C12 UNL     1       4.077   0.263  -1.010  1.00  0.00     0.176 A 
HETATM   22  N3  UNL     1       3.608   0.065   0.226  1.00  0.00    -0.335 N 
ATOM     23  H3  UNL     1       4.017   0.447   1.078  1.00  0.00     0.168 HD
BRANCH  21  24
HETATM   24  C13 UNL     1       5.259   1.064  -1.328  1.00  0.00     0.108 A 
HETATM   25  C14 UNL     1       6.076   1.728  -0.438  1.00  0.00     0.070 A 
HETATM   26  C15 UNL     1       7.073   2.354  -1.136  1.00  0.00     0.075 A 
HETATM   27  C16 UNL     1       8.173   3.184  -0.554  1.00  0.00     0.079 C 
HETATM   28  O3  UNL     1       6.852   2.069  -2.393  1.00  0.00    -0.242 OA
HETATM   29  N2  UNL     1       5.803   1.319  -2.548  1.00  0.00    -0.257 N 
ATOM     30  H2  UNL     1       5.445   0.977  -3.440  1.00  0.00     0.195 HD
ENDBRANCH  21  24
ENDBRANCH  17  18
ENDBRANCH   1  17
TORSDOF 11
