REMARK  9 active torsions:
REMARK  status: ('A' for Active; 'I' for Inactive)
REMARK    1  A    between atoms: C2_2  and  C3_3 
REMARK    2  A    between atoms: C2_2  and  C14_31 
REMARK    3  A    between atoms: C3_3  and  O1_4 
REMARK    4  A    between atoms: C3_3  and  C4_6 
REMARK    5  A    between atoms: C4_6  and  N1_7 
REMARK    6  A    between atoms: N4_16  and  C9_17 
REMARK    7  A    between atoms: C14_31  and  N10_32 
REMARK    8  A    between atoms: C14_31  and  C15_36 
REMARK       I    between atoms: C15_36  and  N11_38 
REMARK    9  A    between atoms: N11_38  and  C16_40 
ROOT
HETATM    1  C9  UNL     1       6.148  -0.323  -0.077  1.00  0.00     0.194 A 
HETATM    2  N5  UNL     1       6.639  -0.605   1.165  1.00  0.00    -0.325 N 
ATOM      3  H5  UNL     1       6.049  -0.433   1.979  1.00  0.00     0.168 HD
HETATM    4  C10 UNL     1       7.874  -1.102   1.353  1.00  0.00     0.157 A 
HETATM    5  C11 UNL     1       8.349  -1.384   2.685  1.00  0.00     0.121 C 
HETATM    6  N6  UNL     1       8.735  -1.602   3.748  1.00  0.00    -0.190 NA
HETATM    7  C12 UNL     1       8.696  -1.345   0.289  1.00  0.00     0.157 A 
HETATM    8  N7  UNL     1      10.014  -1.872   0.443  1.00  0.00    -0.079 NA
HETATM    9  N8  UNL     1       8.250  -1.081  -0.949  1.00  0.00    -0.306 N 
ATOM     10  H8  UNL     1       8.849  -1.257  -1.756  1.00  0.00     0.170 HD
HETATM   11  C13 UNL     1       7.004  -0.581  -1.126  1.00  0.00     0.292 A 
HETATM   12  O2  UNL     1       6.634  -0.351  -2.303  1.00  0.00    -0.264 OA
ENDROOT
BRANCH   1  13
HETATM   13  N4  UNL     1       4.838   0.198  -0.237  1.00  0.00    -0.252 N 
HETATM   14  C8  UNL     1       3.876  -0.543  -0.987  1.00  0.00     0.274 A 
HETATM   15  N3  UNL     1       2.564   0.034  -0.990  1.00  0.00    -0.355 N 
HETATM   16  C7  UNL     1       2.217   1.284  -0.388  1.00  0.00     0.152 A 
ATOM     17  H3  UNL     1       1.821  -0.486  -1.457  1.00  0.00     0.163 HD
HETATM   18  N1  UNL     1       1.094   2.014  -0.303  1.00  0.00    -0.324 N 
HETATM   19  C6  UNL     1       3.235   1.952   0.270  1.00  0.00     0.166 A 
HETATM   20  C5  UNL     1       1.394   3.121   0.395  1.00  0.00     0.186 A 
HETATM   21  N2  UNL     1       2.689   3.096   0.749  1.00  0.00    -0.334 N 
ATOM     22  H2  UNL     1       3.177   3.813   1.285  1.00  0.00     0.168 HD
HETATM   23  N9  UNL     1       4.548   1.425   0.355  1.00  0.00    -0.277 N 
ATOM     24  H9  UNL     1       5.277   1.942   0.847  1.00  0.00     0.189 HD
BRANCH  18  25
HETATM   25  C4  UNL     1      -0.195   1.629  -0.875  1.00  0.00     0.163 C 
BRANCH  25  26
HETATM   26  C3  UNL     1      -1.018   0.858   0.081  1.00  0.00     0.142 C 
BRANCH  26  27
HETATM   27  C2  UNL     1      -2.344   0.386  -0.343  1.00  0.00     0.052 C 
HETATM   28  C1  UNL     1      -2.287  -0.604  -1.506  1.00  0.00     0.015 C 
BRANCH  27  29
HETATM   29  C14 UNL     1      -3.411   1.392  -0.575  1.00  0.00     0.280 C 
BRANCH  29  30
HETATM   30  N10 UNL     1      -3.137   2.106  -1.805  1.00  0.00    -0.066 N 
ATOM     31 3H10 UNL     1      -2.206   2.522  -1.811  1.00  0.00     0.275 HD
ATOM     32 2H10 UNL     1      -3.020   1.477  -2.599  1.00  0.00     0.275 HD
ATOM     33 1H10 UNL     1      -3.870   2.797  -1.964  1.00  0.00     0.275 HD
ENDBRANCH  29  30
BRANCH  29  34
HETATM   34  C15 UNL     1      -4.746   0.726  -0.732  1.00  0.00     0.249 C 
HETATM   35  O3  UNL     1      -5.422   0.837  -1.788  1.00  0.00    -0.271 OA
HETATM   36  N11 UNL     1      -5.283  -0.060   0.338  1.00  0.00    -0.348 N 
ATOM     37  H11 UNL     1      -4.747  -0.158   1.200  1.00  0.00     0.163 HD
BRANCH  36  38
HETATM   38  C16 UNL     1      -6.546  -0.708   0.229  1.00  0.00     0.150 C 
HETATM   39  C17 UNL     1      -6.458  -2.216   0.360  1.00  0.00     0.052 C 
HETATM   40  C18 UNL     1      -7.858  -2.543   0.837  1.00  0.00     0.123 C 
HETATM   41  N12 UNL     1      -8.215  -1.393   1.633  1.00  0.00    -0.380 N 
HETATM   42  C19 UNL     1      -7.498  -0.370   1.309  1.00  0.00     0.112 C 
ATOM     43  H12 UNL     1      -8.936  -1.389   2.354  1.00  0.00     0.160 HD
HETATM   44  N13 UNL     1      -7.604   0.909   1.904  1.00  0.00    -0.086 NA
ENDBRANCH  36  38
ENDBRANCH  29  34
ENDBRANCH  27  29
ENDBRANCH  26  27
BRANCH  26  45
HETATM   45  O1  UNL     1      -0.283  -0.283   0.485  1.00  0.00    -0.393 OA
ATOM     46  H1  UNL     1       0.574   0.022   0.759  1.00  0.00     0.210 HD
ENDBRANCH  26  45
ENDBRANCH  25  26
ENDBRANCH  18  25
ENDBRANCH   1  13
TORSDOF 9
