REMARK  4 active torsions:
REMARK  status: ('A' for Active; 'I' for Inactive)
REMARK    1  A    between atoms: N1_2  and  O1_3 
REMARK    2  A    between atoms: O1_3  and  C2_4 
REMARK    3  A    between atoms: C2_4  and  C3_5 
REMARK    4  A    between atoms: N2_9  and  O2_10 
ROOT
HETATM    1  C3  UNL     1      -0.493  -0.380  -0.375  1.00  0.00    -0.015 A 
HETATM    2  C4  UNL     1      -1.478   0.440  -0.935  1.00  0.00     0.012 A 
HETATM    3  C5  UNL     1      -2.572   0.826  -0.196  1.00  0.00     0.020 A 
HETATM    4  C6  UNL     1      -2.706   0.404   1.110  1.00  0.00     0.122 A 
HETATM    5  N2  UNL     1      -1.743  -0.378   1.607  1.00  0.00    -0.247 N 
HETATM    6  C7  UNL     1      -0.661  -0.775   0.918  1.00  0.00     0.131 A 
ENDROOT
BRANCH   1   7
HETATM    7  C2  UNL     1       0.623  -0.726  -1.262  1.00  0.00     0.235 C 
BRANCH   7   8
HETATM    8  O1  UNL     1       1.701  -1.332  -0.661  1.00  0.00    -0.282 OA
BRANCH   8   9
HETATM    9  N1  UNL     1       2.297  -0.613   0.285  1.00  0.00    -0.105 NA
HETATM   10  C1  UNL     1       2.601   0.742  -0.138  1.00  0.00     0.167 C 
ENDBRANCH   8   9
ENDBRANCH   7   8
ENDBRANCH   1   7
BRANCH   5  11
HETATM   11  O2  UNL     1      -1.858  -0.813   2.920  1.00  0.00    -0.284 OA
ATOM     12  H2  UNL     1      -1.173  -1.369   3.273  1.00  0.00     0.245 HD
ENDBRANCH   5  11
TORSDOF 4
