REMARK  2 active torsions:
REMARK  status: ('A' for Active; 'I' for Inactive)
REMARK    1  A    between atoms: O1_2  and  C2_3 
REMARK    2  A    between atoms: C3_6  and  N2_7 
ROOT
HETATM    1  C2  UNL     1       0.484   0.339   0.462  1.00  0.00     0.241 A 
HETATM    2  N1  UNL     1      -0.088  -0.717  -0.130  1.00  0.00    -0.155 N 
ATOM      3  H1  UNL     1       0.428  -1.596  -0.172  1.00  0.00     0.188 HD
HETATM    4  C3  UNL     1      -1.314  -0.662  -0.669  1.00  0.00     0.683 A 
HETATM    5  N3  UNL     1      -2.013   0.477  -0.627  1.00  0.00    -0.141 N 
ATOM      6  H3  UNL     1      -2.947   0.529  -1.034  1.00  0.00     0.189 HD
HETATM    7  C4  UNL     1      -1.464   1.548  -0.040  1.00  0.00     0.341 A 
HETATM    8  O2  UNL     1      -2.137   2.631  -0.005  1.00  0.00    -0.246 OA
HETATM    9  N4  UNL     1      -0.219   1.487   0.505  1.00  0.00    -0.273 N 
ATOM     10  H4  UNL     1       0.183   2.313   0.948  1.00  0.00     0.174 HD
ENDROOT
BRANCH   4  11
HETATM   11  N2  UNL     1      -1.880  -1.683  -1.248  1.00  0.00    -0.234 N 
ATOM     12  H22 UNL     1      -1.347  -2.552  -1.280  1.00  0.00     0.174 HD
ATOM     13  H21 UNL     1      -2.813  -1.641  -1.658  1.00  0.00     0.174 HD
ENDBRANCH   4  11
BRANCH   1  14
HETATM   14  O1  UNL     1       1.732   0.330   1.026  1.00  0.00    -0.327 OA
HETATM   15  C1  UNL     1       2.589  -0.787   1.062  1.00  0.00     0.213 C 
ENDBRANCH   1  14
TORSDOF 2
