REMARK  9 active torsions:
REMARK  status: ('A' for Active; 'I' for Inactive)
REMARK    1  A    between atoms: C2_2  and  C3_3 
REMARK    2  A    between atoms: C6_6  and  N1_7 
REMARK       I    between atoms: N1_7  and  C7_9 
REMARK    3  A    between atoms: C7_9  and  C8_11 
REMARK    4  A    between atoms: N2_15  and  C12_16 
REMARK    5  A    between atoms: C12_16  and  O2_17 
REMARK    6  A    between atoms: C12_16  and  C13_19 
REMARK    7  A    between atoms: C13_19  and  C14_20 
REMARK    8  A    between atoms: C13_19  and  N3_22 
REMARK       I    between atoms: N4_25  and  C18_26 
REMARK    9  A    between atoms: C18_26  and  C19_28 
ROOT
HETATM    1  C12 UNL     1      -0.614  -1.111   0.676  1.00  0.00     0.137 C 
ENDROOT
BRANCH   1   2
HETATM    2  N2  UNL     1       0.640  -1.674   0.947  1.00  0.00    -0.350 N 
HETATM    3  C8  UNL     1       1.694  -1.209   1.784  1.00  0.00     0.178 C 
HETATM    4  C9  UNL     1       2.247  -2.475   2.461  1.00  0.00     0.037 C 
HETATM    5  C10 UNL     1       2.151  -3.476   1.321  1.00  0.00     0.022 C 
HETATM    6  C11 UNL     1       1.070  -2.982   0.402  1.00  0.00     0.126 C 
BRANCH   3   7
HETATM    7  C7  UNL     1       2.864  -0.615   1.079  1.00  0.00     0.240 C 
HETATM    8  N1  UNL     1       2.973  -0.418  -0.295  1.00  0.00    -0.355 N 
ATOM      9  H1  UNL     1       2.165  -0.726  -0.836  1.00  0.00     0.162 HD
HETATM   10  O1  UNL     1       3.818  -0.276   1.862  1.00  0.00    -0.271 OA
BRANCH   8  11
HETATM   11  C6  UNL     1       4.027   0.142  -1.068  1.00  0.00     0.085 C 
HETATM   12  C5  UNL     1       5.078  -0.822  -1.480  1.00  0.00     0.026 C 
HETATM   13  C4  UNL     1       6.307   0.024  -1.713  1.00  0.00     0.010 C 
HETATM   14  C3  UNL     1       6.251   0.931  -0.479  1.00  0.00     0.009 C 
HETATM   15  C24 UNL     1       4.771   1.291  -0.433  1.00  0.00     0.033 C 
BRANCH  14  16
HETATM   16  C2  UNL     1       7.104   2.116  -0.630  1.00  0.00    -0.032 C 
HETATM   17  C1  UNL     1       7.917   2.253  -1.666  1.00  0.00     0.007 C 
ENDBRANCH  14  16
ENDBRANCH   8  11
ENDBRANCH   3   7
ENDBRANCH   1   2
BRANCH   1  18
HETATM   18  O2  UNL     1      -1.333  -1.786  -0.178  1.00  0.00    -0.348 OA
ATOM     19  H2  UNL     1      -2.183  -1.404  -0.362  1.00  0.00     0.219 HD
ENDBRANCH   1  18
BRANCH   1  20
HETATM   20  C13 UNL     1      -1.199   0.128   1.240  1.00  0.00     0.157 C 
BRANCH  20  21
HETATM   21  C14 UNL     1      -0.401   1.339   0.888  1.00  0.00     0.029 C 
HETATM   22  C15 UNL     1      -1.063   2.604   1.482  1.00  0.00     0.007 C 
ENDBRANCH  20  21
BRANCH  20  23
HETATM   23  N3  UNL     1      -2.590   0.257   0.965  1.00  0.00    -0.378 N 
HETATM   24  C16 UNL     1      -3.466  -0.712   1.493  1.00  0.00     0.143 C 
HETATM   25  C17 UNL     1      -4.878  -0.118   1.428  1.00  0.00     0.146 C 
HETATM   26  N4  UNL     1      -5.186   0.072   0.026  1.00  0.00    -0.346 N 
HETATM   27  C18 UNL     1      -6.534  -0.053  -0.442  1.00  0.00     0.224 C 
HETATM   28  C22 UNL     1      -4.094   0.388  -0.872  1.00  0.00     0.170 C 
HETATM   29  O3  UNL     1      -7.430  -0.324   0.373  1.00  0.00    -0.273 OA
HETATM   30  C23 UNL     1      -3.030   1.107  -0.052  1.00  0.00     0.079 C 
BRANCH  27  31
HETATM   31  C19 UNL     1      -6.913   0.130  -1.861  1.00  0.00     0.078 A 
HETATM   32  C20 UNL     1      -8.203  -0.452  -2.308  1.00  0.00     0.015 A 
HETATM   33  C21 UNL     1      -8.142   1.036  -2.079  1.00  0.00     0.015 A 
ENDBRANCH  27  31
ENDBRANCH  20  23
ENDBRANCH   1  20
TORSDOF 9
