REMARK  2 active torsions:
REMARK  status: ('A' for Active; 'I' for Inactive)
REMARK    1  A    between atoms: O1_2  and  C2_3 
REMARK    2  A    between atoms: C2_3  and  C3_5 
ROOT
HETATM    1  C3  UNL     1       0.627  -0.206   0.308  1.00  0.00     0.053 C 
HETATM    2  C4  UNL     1       0.050  -0.802   1.538  1.00  0.00     0.022 C 
HETATM    3  C5  UNL     1      -1.352  -0.488   1.842  1.00  0.00     0.026 C 
HETATM    4  C6  UNL     1      -2.273  -0.344   0.680  1.00  0.00     0.080 C 
HETATM    5  C7  UNL     1      -2.278   1.130   0.251  1.00  0.00     0.029 C 
HETATM    6  C8  UNL     1      -1.082   1.397  -0.633  1.00  0.00    -0.007 C 
HETATM    7  C9  UNL     1      -1.230   0.532  -1.858  1.00  0.00     0.071 C 
HETATM    8  C10 UNL     1      -1.116  -0.917  -1.360  1.00  0.00     0.173 C 
HETATM    9  F1  UNL     1      -1.288  -1.726  -2.464  1.00  0.00    -0.220 F 
HETATM   10  C11 UNL     1       0.310  -1.086  -0.909  1.00  0.00     0.086 C 
HETATM   11  N1  UNL     1      -2.073  -1.217  -0.393  1.00  0.00    -0.384 N 
ATOM     12  H1  UNL     1      -2.626  -2.071  -0.468  1.00  0.00     0.156 HD
HETATM   13  C12 UNL     1       0.216   1.226   0.079  1.00  0.00     0.025 C 
ENDROOT
BRANCH   1  14
HETATM   14  C2  UNL     1       2.108  -0.236   0.429  1.00  0.00     0.267 C 
HETATM   15  O2  UNL     1       2.623  -0.721   1.466  1.00  0.00    -0.264 OA
BRANCH  14  16
HETATM   16  O1  UNL     1       2.953   0.248  -0.556  1.00  0.00    -0.326 OA
HETATM   17  C1  UNL     1       4.349   0.171  -0.341  1.00  0.00     0.213 C 
ENDBRANCH  14  16
ENDBRANCH   1  14
TORSDOF 2
