REMARK  4 active torsions:
REMARK  status: ('A' for Active; 'I' for Inactive)
REMARK    1  A    between atoms: C2_2  and  C3_3 
REMARK    2  A    between atoms: N2_9  and  C7_10 
REMARK    3  A    between atoms: C7_10  and  C8_11 
REMARK    4  A    between atoms: C12_19  and  N5_20 
ROOT
HETATM    1  C3  UNL     1       2.988   0.402   0.487  1.00  0.00     0.053 A 
HETATM    2  N1  UNL     1       2.003  -0.527   0.437  1.00  0.00    -0.352 N 
ATOM      3  H1  UNL     1       2.185  -1.478   0.758  1.00  0.00     0.166 HD
HETATM    4  C4  UNL     1       0.785  -0.200  -0.034  1.00  0.00     0.102 A 
HETATM    5  C5  UNL     1      -0.372  -0.944  -0.191  1.00  0.00     0.055 A 
HETATM    6  C6  UNL     1      -0.484  -2.380   0.173  1.00  0.00     0.072 C 
HETATM    7  N2  UNL     1      -1.285  -0.111  -0.709  1.00  0.00    -0.292 N 
HETATM    8  N3  UNL     1      -0.744   1.080  -0.872  1.00  0.00    -0.281 N 
ATOM      9  H3  UNL     1      -1.236   1.888  -1.253  1.00  0.00     0.189 HD
HETATM   10  C11 UNL     1       0.547   1.093  -0.469  1.00  0.00     0.151 A 
HETATM   11  N4  UNL     1       1.496   2.032  -0.434  1.00  0.00    -0.324 N 
ATOM     12  H4  UNL     1       1.310   2.981  -0.757  1.00  0.00     0.169 HD
HETATM   13  C12 UNL     1       2.719   1.680   0.047  1.00  0.00     0.123 A 
ENDROOT
BRANCH   7  14
HETATM   14  C7  UNL     1      -2.643  -0.491  -1.029  1.00  0.00     0.153 C 
BRANCH  14  15
HETATM   15  C8  UNL     1      -3.598  -0.285   0.127  1.00  0.00    -0.003 C 
HETATM   16  C9  UNL     1      -4.970  -0.728  -0.362  1.00  0.00     0.011 C 
HETATM   17  C10 UNL     1      -3.725   1.181   0.483  1.00  0.00     0.011 C 
ENDBRANCH  14  15
ENDBRANCH   7  14
BRANCH   1  18
HETATM   18  C2  UNL     1       4.341   0.014   1.003  1.00  0.00     0.056 C 
HETATM   19  C1  UNL     1       5.342  -0.211  -0.086  1.00  0.00     0.011 C 
ENDBRANCH   1  18
BRANCH  13  20
HETATM   20  N5  UNL     1       3.662   2.571   0.108  1.00  0.00    -0.384 N 
ATOM     21  H52 UNL     1       4.579   2.307   0.469  1.00  0.00     0.157 HD
ATOM     22  H51 UNL     1       3.463   3.517  -0.218  1.00  0.00     0.157 HD
ENDBRANCH  13  20
TORSDOF 4
