REMARK  3 active torsions:
REMARK  status: ('A' for Active; 'I' for Inactive)
REMARK    1  A    between atoms: C4_8  and  C5_9 
REMARK    2  A    between atoms: C5_9  and  C6_10 
REMARK    3  A    between atoms: C6_10  and  C7_11 
ROOT
HETATM    1  C1  UNL     1       7.078   0.547   0.332  1.00  0.00     0.098 C 
HETATM    2  C2  UNL     1       5.601   0.285   0.171  1.00  0.00     0.123 A 
HETATM    3  N1  UNL     1       4.868   0.452  -0.942  1.00  0.00    -0.323 N 
ATOM      4  H1  UNL     1       5.215   0.783  -1.843  1.00  0.00     0.169 HD
HETATM    5  C3  UNL     1       3.598   0.108  -0.664  1.00  0.00     0.161 A 
HETATM    6  N2  UNL     1       2.333  -0.016  -1.148  1.00  0.00    -0.328 N 
ATOM      7  H2  UNL     1       2.049   0.200  -2.104  1.00  0.00     0.169 HD
HETATM    8  C4  UNL     1       1.514  -0.463  -0.186  1.00  0.00     0.084 A 
HETATM    9  N4  UNL     1       2.277  -0.619   0.909  1.00  0.00    -0.323 N 
ATOM     10  H4  UNL     1       1.936  -0.950   1.812  1.00  0.00     0.169 HD
HETATM   11  C12 UNL     1       3.556  -0.278   0.650  1.00  0.00     0.195 A 
HETATM   12  O1  UNL     1       4.784  -0.148   1.088  1.00  0.00    -0.277 OA
ENDROOT
BRANCH   8  13
HETATM   13  C5  UNL     1       0.051  -0.727  -0.328  1.00  0.00     0.077 C 
BRANCH  13  14
HETATM   14  C6  UNL     1      -0.762   0.504   0.000  1.00  0.00     0.012 C 
BRANCH  14  15
HETATM   15  C7  UNL     1      -2.223   0.120  -0.178  1.00  0.00    -0.011 C 
HETATM   16  C8  UNL     1      -2.612  -1.014   0.738  1.00  0.00     0.032 C 
HETATM   17  C9  UNL     1      -4.113  -1.064   0.904  1.00  0.00     0.232 C 
HETATM   18  N3  UNL     1      -4.814  -0.538  -0.239  1.00  0.00    -0.075 N 
HETATM   19  C10 UNL     1      -4.522   0.844  -0.506  1.00  0.00     0.232 C 
ATOM     20  H32 UNL     1      -4.638  -1.110  -1.065  1.00  0.00     0.277 HD
ATOM     21  H31 UNL     1      -5.819  -0.682  -0.144  1.00  0.00     0.277 HD
HETATM   22  C11 UNL     1      -3.158   1.261   0.043  1.00  0.00     0.032 C 
ENDBRANCH  14  15
ENDBRANCH  13  14
ENDBRANCH   8  13
TORSDOF 3
