REMARK  2 active torsions:
REMARK  status: ('A' for Active; 'I' for Inactive)
REMARK    1  A    between atoms: C4_4  and  N1_5 
REMARK    2  A    between atoms: N1_5  and  C5_8 
ROOT
HETATM    1  N1  UNL     1       1.441  -0.769   0.899  1.00  0.00    -0.033 N 
ATOM      2  H11 UNL     1       1.398  -1.682   1.352  1.00  0.00     0.281 HD
ATOM      3  H12 UNL     1       1.872  -0.227   1.648  1.00  0.00     0.281 HD
ENDROOT
BRANCH   1   4
HETATM    4  C4  UNL     1       0.131  -0.285   0.617  1.00  0.00     0.190 C 
HETATM    5  C3  UNL     1       0.052   1.123   0.123  1.00  0.00     0.033 C 
HETATM    6  C2  UNL     1      -1.368   1.597   0.128  1.00  0.00     0.002 C 
HETATM    7  C1  UNL     1      -2.411   0.601  -0.110  1.00  0.00     0.000 C 
HETATM    8  C7  UNL     1      -2.051  -0.828  -0.209  1.00  0.00     0.002 C 
HETATM    9  C6  UNL     1      -0.589  -1.100  -0.470  1.00  0.00     0.033 C 
ENDBRANCH   1   4
BRANCH   1  10
HETATM   10  C5  UNL     1       2.308  -0.815  -0.263  1.00  0.00     0.416 A 
HETATM   11  N2  UNL     1       3.575  -1.302   0.074  1.00  0.00    -0.280 N 
HETATM   12  N3  UNL     1       4.131  -0.220  -0.087  1.00  0.00    -0.244 N 
ATOM     13  H2  UNL     1       3.914  -2.223   0.353  1.00  0.00     0.185 HD
HETATM   14  N4  UNL     1       2.991   0.413  -0.437  1.00  0.00    -0.069 NA
ATOM     15  H3  UNL     1       5.099   0.088   0.008  1.00  0.00     0.203 HD
ENDBRANCH   1  10
TORSDOF 2
