REMARK  6 active torsions:
REMARK  status: ('A' for Active; 'I' for Inactive)
REMARK    1  A    between atoms: C3_3  and  C4_4 
REMARK    2  A    between atoms: C4_4  and  O1_5 
REMARK    3  A    between atoms: C4_4  and  N1_7 
REMARK    4  A    between atoms: N1_7  and  N2_9 
REMARK    5  A    between atoms: N4_14  and  N5_15 
REMARK    6  A    between atoms: C7_20  and  C8_21 
ROOT
HETATM    1  C1  UNL     1       0.325  -2.253   0.150  1.00  0.00     0.050 C 
HETATM    2  C2  UNL     1      -0.173  -0.843   0.178  1.00  0.00    -0.023 A 
HETATM    3  C3  UNL     1       0.726   0.142  -0.153  1.00  0.00     0.066 A 
HETATM    4  C5  UNL     1       0.163   1.426  -0.263  1.00  0.00     0.156 A 
HETATM    5  N3  UNL     1       1.026   2.524  -0.610  1.00  0.00    -0.080 NA
HETATM    6  N4  UNL     1      -1.139   1.678  -0.059  1.00  0.00    -0.211 N 
HETATM    7  C6  UNL     1      -1.994   0.716   0.267  1.00  0.00     0.283 A 
HETATM    8  O2  UNL     1      -3.231   0.928   0.467  1.00  0.00    -0.265 OA
HETATM    9  C7  UNL     1      -1.514  -0.596   0.396  1.00  0.00     0.106 A 
ENDROOT
BRANCH   3  10
HETATM   10  C4  UNL     1       2.121  -0.027  -0.356  1.00  0.00     0.168 C 
BRANCH  10  11
HETATM   11  O1  UNL     1       2.736   1.078  -0.755  1.00  0.00    -0.344 OA
ATOM     12  H1  UNL     1       3.669   0.965  -0.891  1.00  0.00     0.219 HD
ENDBRANCH  10  11
BRANCH  10  13
HETATM   13  N1  UNL     1       3.005  -1.079  -0.229  1.00  0.00    -0.286 N 
ATOM     14  H1  UNL     1       2.692  -1.999   0.081  1.00  0.00     0.188 HD
BRANCH  13  15
HETATM   15  N2  UNL     1       4.384  -0.828  -0.550  1.00  0.00    -0.343 N 
ATOM     16  H22 UNL     1       4.681   0.098  -0.858  1.00  0.00     0.176 HD
ATOM     17  H21 UNL     1       5.037  -1.606  -0.456  1.00  0.00     0.176 HD
ENDBRANCH  13  15
ENDBRANCH  10  13
ENDBRANCH   3  10
BRANCH   9  18
HETATM   18  C8  UNL     1      -2.454  -1.605   0.854  1.00  0.00     0.271 C 
HETATM   19  N6  UNL     1      -3.882  -1.340   0.772  1.00  0.00    -0.057 NA
HETATM   20  O3  UNL     1      -2.141  -2.700   1.319  1.00  0.00    -0.271 OA
ENDBRANCH   9  18
BRANCH   6  21
HETATM   21  N5  UNL     1      -1.618   2.995  -0.192  1.00  0.00    -0.334 N 
ATOM     22  H52 UNL     1      -0.961   3.734  -0.442  1.00  0.00     0.177 HD
ATOM     23  H51 UNL     1      -2.608   3.187  -0.037  1.00  0.00     0.177 HD
ENDBRANCH   6  21
TORSDOF 6
