REMARK  6 active torsions:
REMARK  status: ('A' for Active; 'I' for Inactive)
REMARK    1  A    between atoms: C2_2  and  O1_6 
REMARK    2  A    between atoms: O1_6  and  C3_7 
REMARK    3  A    between atoms: C6_10  and  C7_11 
REMARK    4  A    between atoms: C15_20  and  O2_22 
REMARK    5  A    between atoms: O2_22  and  O3_23 
REMARK    6  A    between atoms: C17_25  and  O4_26 
ROOT
HETATM    1  C3  UNL     1      -0.084   1.560  -1.005  1.00  0.00     0.170 C 
HETATM    2  C4  UNL     1      -1.416   1.092  -0.449  1.00  0.00    -0.049 C 
HETATM    3  C5  UNL     1      -2.429   2.135  -0.036  1.00  0.00     0.046 C 
HETATM    4  C6  UNL     1      -1.496  -0.220  -0.384  1.00  0.00    -0.051 C 
HETATM    5  C12 UNL     1      -0.191  -0.785  -0.833  1.00  0.00     0.030 C 
HETATM    6  C13 UNL     1       0.306  -1.991  -0.171  1.00  0.00     0.013 C 
HETATM    7  C14 UNL     1       1.812  -2.067  -0.020  1.00  0.00     0.044 C 
HETATM    8  C15 UNL     1       2.412  -0.846   0.561  1.00  0.00     0.119 C 
HETATM    9  C16 UNL     1       3.837  -0.665   0.039  1.00  0.00     0.052 C 
HETATM   10  C17 UNL     1       1.608   0.421   0.349  1.00  0.00     0.167 C 
HETATM   11  C18 UNL     1       0.776   0.376  -0.886  1.00  0.00     0.023 C 
HETATM   12  C19 UNL     1       1.636   0.264  -2.147  1.00  0.00     0.022 C 
ENDROOT
BRANCH   1  13
HETATM   13  O1  UNL     1       0.287   2.730  -0.349  1.00  0.00    -0.329 OA
BRANCH  13  14
HETATM   14  C2  UNL     1       1.389   3.514  -0.575  1.00  0.00     0.108 C 
HETATM   15  C1  UNL     1       2.101   4.303   0.482  1.00  0.00     0.097 C 
HETATM   16  N1  UNL     1       1.798   3.534  -1.818  1.00  0.00    -0.384 N 
ATOM     17  H12 UNL     1       2.618   4.117  -1.986  1.00  0.00     0.157 HD
ATOM     18  H11 UNL     1       1.313   2.997  -2.537  1.00  0.00     0.157 HD
ENDBRANCH  13  14
ENDBRANCH   1  13
BRANCH   4  19
HETATM   19  C7  UNL     1      -2.688  -0.933   0.116  1.00  0.00     0.043 C 
HETATM   20  S1  UNL     1      -4.238   0.056  -0.199  1.00  0.00    -0.082 SA
HETATM   21  C8  UNL     1      -2.962  -2.217  -0.634  1.00  0.00     0.026 C 
HETATM   22  C9  UNL     1      -3.080  -3.296   0.419  1.00  0.00     0.002 C 
HETATM   23  C10 UNL     1      -3.618  -2.535   1.601  1.00  0.00     0.002 C 
HETATM   24  C11 UNL     1      -2.761  -1.254   1.562  1.00  0.00     0.026 C 
ENDBRANCH   4  19
BRANCH  10  25
HETATM   25  O4  UNL     1       0.786   0.615   1.437  1.00  0.00    -0.392 OA
ATOM     26  H4  UNL     1       0.282   1.409   1.304  1.00  0.00     0.210 HD
ENDBRANCH  10  25
BRANCH   8  27
HETATM   27  O2  UNL     1       2.557  -0.981   1.962  1.00  0.00    -0.230 OA
BRANCH  27  28
HETATM   28  O3  UNL     1       3.085   0.086   2.494  1.00  0.00    -0.250 OA
ATOM     29  H3  UNL     1       3.182  -0.005   3.435  1.00  0.00     0.253 HD
ENDBRANCH  27  28
ENDBRANCH   8  27
TORSDOF 6
