REMARK  7 active torsions:
REMARK  status: ('A' for Active; 'I' for Inactive)
REMARK    1  A    between atoms: C2_2  and  O1_3 
REMARK    2  A    between atoms: C2_2  and  C6_7 
REMARK    3  A    between atoms: O1_3  and  C3_4 
REMARK    4  A    between atoms: C3_4  and  C4_5 
REMARK    5  A    between atoms: C6_7  and  C7_8 
REMARK    6  A    between atoms: C7_8  and  N1_10 
REMARK    7  A    between atoms: C9_17  and  N3_18 
ROOT
HETATM    1  C6  UNL     1      -0.466  -0.109   0.170  1.00  0.00     0.209 C 
HETATM    2  N2  UNL     1      -0.680  -0.155   1.611  1.00  0.00    -0.029 N 
ATOM      3  H21 UNL     1       0.027   0.376   2.120  1.00  0.00     0.281 HD
ATOM      4  H22 UNL     1      -0.481  -1.078   1.998  1.00  0.00     0.281 HD
HETATM    5  C9  UNL     1      -1.989   0.277   1.919  1.00  0.00     0.382 C 
HETATM    6  C10 UNL     1      -2.760   0.121   0.643  1.00  0.00     0.074 C 
HETATM    7  C11 UNL     1      -1.704   0.470  -0.393  1.00  0.00    -0.002 C 
HETATM    8  C12 UNL     1      -1.656   2.015  -0.373  1.00  0.00     0.018 C 
HETATM    9  C13 UNL     1      -2.181   0.068  -1.721  1.00  0.00     0.018 C 
ENDROOT
BRANCH   1  10
HETATM   10  C2  UNL     1       0.711   0.815  -0.039  1.00  0.00     0.076 C 
HETATM   11  C1  UNL     1       1.004   1.658   0.925  1.00  0.00     0.048 C 
BRANCH  10  12
HETATM   12  O1  UNL     1       1.483   0.827  -1.177  1.00  0.00    -0.354 OA
BRANCH  12  13
HETATM   13  C3  UNL     1       2.766   1.379  -1.195  1.00  0.00     0.175 C 
BRANCH  13  14
HETATM   14  C4  UNL     1       3.787   0.771  -0.305  1.00  0.00     0.022 C 
HETATM   15  C5  UNL     1       4.030  -0.686  -0.651  1.00  0.00     0.007 C 
ENDBRANCH  13  14
ENDBRANCH  12  13
ENDBRANCH  10  12
ENDBRANCH   1  10
BRANCH   1  16
HETATM   16  C7  UNL     1      -0.050  -1.469  -0.209  1.00  0.00     0.223 C 
HETATM   17  C8  UNL     1      -1.114  -2.548  -0.026  1.00  0.00     0.043 C 
BRANCH  16  18
HETATM   18  N1  UNL     1       0.511  -1.589  -1.539  1.00  0.00    -0.072 N 
ATOM     19  H13 UNL     1      -0.138  -1.214  -2.230  1.00  0.00     0.274 HD
ATOM     20  H12 UNL     1       1.288  -0.938  -1.653  1.00  0.00     0.274 HD
ATOM     21  H11 UNL     1       0.799  -2.531  -1.802  1.00  0.00     0.274 HD
ENDBRANCH  16  18
ENDBRANCH   1  16
BRANCH   5  22
HETATM   22  N3  UNL     1      -2.560  -0.533   2.988  1.00  0.00    -0.050 N 
ATOM     23  H33 UNL     1      -2.533  -1.528   2.764  1.00  0.00     0.276 HD
ATOM     24  H32 UNL     1      -1.962  -0.545   3.814  1.00  0.00     0.276 HD
ATOM     25  H31 UNL     1      -3.505  -0.221   3.210  1.00  0.00     0.276 HD
ENDBRANCH   5  22
TORSDOF 7
