REMARK  7 active torsions:
REMARK  status: ('A' for Active; 'I' for Inactive)
REMARK    1  A    between atoms: C7_7  and  O1_8 
REMARK    2  A    between atoms: O1_8  and  C8_9 
REMARK    3  A    between atoms: C8_9  and  C9_11 
REMARK    4  A    between atoms: C9_11  and  N1_12 
REMARK    5  A    between atoms: N1_12  and  C10_15 
REMARK    6  A    between atoms: C10_15  and  C11_16 
REMARK    7  A    between atoms: C11_16  and  N2_17 
ROOT
HETATM    1  O1  UNL     1      -1.031   0.735  -0.262  1.00  0.00    -0.309 OA
ENDROOT
BRANCH   1   2
HETATM    2  C7  UNL     1      -2.324   0.165  -0.140  1.00  0.00     0.072 C 
HETATM    3  C6  UNL     1      -2.352  -1.058  -1.021  1.00  0.00     0.039 C 
HETATM    4  C5  UNL     1      -3.667  -1.338  -1.649  1.00  0.00     0.007 C 
HETATM    5  C4  UNL     1      -4.853  -1.186  -0.751  1.00  0.00    -0.013 C 
HETATM    6  C3  UNL     1      -5.429   0.211  -0.914  1.00  0.00     0.014 C 
HETATM    7  C18 UNL     1      -4.601  -1.561   0.669  1.00  0.00     0.009 C 
HETATM    8  C2  UNL     1      -4.642   1.200  -0.090  1.00  0.00    -0.041 C 
HETATM    9  C1  UNL     1      -5.280   2.575  -0.263  1.00  0.00     0.015 C 
HETATM   10  C19 UNL     1      -4.792   0.837   1.368  1.00  0.00     0.014 C 
HETATM   11  C20 UNL     1      -3.256   1.253  -0.585  1.00  0.00     0.048 C 
HETATM   12  C17 UNL     1      -4.062  -0.475   1.543  1.00  0.00    -0.011 C 
HETATM   13  C16 UNL     1      -2.596  -0.310   1.269  1.00  0.00     0.043 C 
ENDBRANCH   1   2
BRANCH   1  14
HETATM   14  C8  UNL     1       0.146   0.132   0.052  1.00  0.00     0.285 C 
HETATM   15  O2  UNL     1       0.105  -1.033   0.494  1.00  0.00    -0.263 OA
BRANCH  14  16
HETATM   16  C9  UNL     1       1.486   0.757  -0.092  1.00  0.00     0.343 C 
BRANCH  16  17
HETATM   17  N1  UNL     1       2.545  -0.106   0.336  1.00  0.00    -0.065 N 
ATOM     18  H12 UNL     1       2.433  -0.425   1.298  1.00  0.00     0.277 HD
ATOM     19  H11 UNL     1       2.518  -1.022  -0.113  1.00  0.00     0.277 HD
BRANCH  17  20
HETATM   20  C10 UNL     1       3.805   0.600   0.113  1.00  0.00     0.263 C 
BRANCH  20  21
HETATM   21  C11 UNL     1       4.984  -0.221   0.581  1.00  0.00     0.299 C 
BRANCH  21  22
HETATM   22  N2  UNL     1       6.184   0.542   0.324  1.00  0.00     0.090 N 
HETATM   23  C12 UNL     1       7.378  -0.170   0.803  1.00  0.00     0.272 C 
HETATM   24  C13 UNL     1       7.475  -1.317  -0.178  1.00  0.00     0.032 C 
HETATM   25  C14 UNL     1       6.799  -0.815  -1.444  1.00  0.00     0.032 C 
HETATM   26  C15 UNL     1       6.495   0.626  -1.092  1.00  0.00     0.272 C 
ENDBRANCH  21  22
ENDBRANCH  20  21
ENDBRANCH  17  20
ENDBRANCH  16  17
ENDBRANCH  14  16
ENDBRANCH   1  14
TORSDOF 7
