REMARK  11 active torsions:
REMARK  status: ('A' for Active; 'I' for Inactive)
REMARK    1  A    between atoms: C2_2  and  C3_3 
REMARK    2  A    between atoms: C3_3  and  C4_4 
REMARK    3  A    between atoms: C4_4  and  C5_5 
REMARK    4  A    between atoms: C5_5  and  C6_6 
REMARK    5  A    between atoms: C6_6  and  C7_7 
REMARK    6  A    between atoms: C7_7  and  C8_8 
REMARK    7  A    between atoms: C8_8  and  C9_9 
REMARK    8  A    between atoms: C10_10  and  C11_11 
REMARK    9  A    between atoms: C11_11  and  C12_12 
REMARK   10  A    between atoms: C12_12  and  C13_13 
REMARK   11  A    between atoms: C13_13  and  C14_14 
ROOT
HETATM    1  C9  UNL     1      -0.044   0.840  -0.812  1.00  0.00    -0.031 C 
HETATM    2  C10 UNL     1      -0.949   0.024  -0.324  1.00  0.00    -0.031 C 
ENDROOT
BRANCH   2   3
HETATM    3  C11 UNL     1      -2.384   0.273  -0.612  1.00  0.00     0.027 C 
BRANCH   3   4
HETATM    4  C12 UNL     1      -2.900  -0.937  -1.334  1.00  0.00     0.011 C 
BRANCH   4   5
HETATM    5  C13 UNL     1      -4.349  -0.817  -1.691  1.00  0.00     0.076 C 
BRANCH   5   6
HETATM    6  C14 UNL     1      -5.264  -0.704  -0.517  1.00  0.00     0.072 C 
HETATM    7  N1  UNL     1      -4.954  -0.889   0.701  1.00  0.00    -0.378 N 
HETATM    8  C15 UNL     1      -6.053  -0.708   1.620  1.00  0.00     0.140 C 
ATOM      9  H1  UNL     1      -4.013  -1.143   1.003  1.00  0.00     0.160 HD
HETATM   10  C16 UNL     1      -7.071   0.016   0.758  1.00  0.00     0.140 C 
HETATM   11  N2  UNL     1      -6.660  -0.397  -0.566  1.00  0.00    -0.378 N 
ATOM     12  H2  UNL     1      -7.260  -0.458  -1.389  1.00  0.00     0.160 HD
ENDBRANCH   5   6
ENDBRANCH   4   5
ENDBRANCH   3   4
ENDBRANCH   2   3
BRANCH   1  13
HETATM   13  C8  UNL     1       1.404   0.603  -0.532  1.00  0.00     0.027 C 
BRANCH  13  14
HETATM   14  C7  UNL     1       1.931   1.814   0.189  1.00  0.00     0.004 C 
BRANCH  14  15
HETATM   15  C6  UNL     1       3.390   1.683   0.503  1.00  0.00     0.000 C 
BRANCH  15  16
HETATM   16  C5  UNL     1       3.642   0.511   1.375  1.00  0.00     0.000 C 
BRANCH  16  17
HETATM   17  C4  UNL     1       5.101   0.337   1.740  1.00  0.00     0.004 C 
BRANCH  17  18
HETATM   18  C3  UNL     1       5.974   0.147   0.530  1.00  0.00     0.026 C 
BRANCH  18  19
HETATM   19  C2  UNL     1       5.579  -1.059  -0.251  1.00  0.00    -0.037 C 
HETATM   20  C1  UNL     1       6.432  -2.054  -0.449  1.00  0.00     0.007 C 
ENDBRANCH  18  19
ENDBRANCH  17  18
ENDBRANCH  16  17
ENDBRANCH  15  16
ENDBRANCH  14  15
ENDBRANCH  13  14
ENDBRANCH   1  13
TORSDOF 11
