REMARK  11 active torsions:
REMARK  status: ('A' for Active; 'I' for Inactive)
REMARK    1  A    between atoms: C2_2  and  C3_3 
REMARK    2  A    between atoms: C3_3  and  C4_4 
REMARK    3  A    between atoms: C4_4  and  C5_5 
REMARK    4  A    between atoms: C5_5  and  C6_6 
REMARK    5  A    between atoms: C7_7  and  C8_8 
REMARK    6  A    between atoms: C8_8  and  C9_9 
REMARK    7  A    between atoms: C9_9  and  C10_10 
REMARK    8  A    between atoms: C10_10  and  C11_11 
REMARK    9  A    between atoms: C11_11  and  C12_12 
REMARK   10  A    between atoms: C12_12  and  C13_13 
REMARK   11  A    between atoms: C13_13  and  C14_14 
ROOT
HETATM    1  C10 UNL     1      -1.357   0.814  -1.256  1.00  0.00     0.000 C 
ENDROOT
BRANCH   1   2
HETATM    2  C9  UNL     1       0.060   1.296  -1.357  1.00  0.00     0.004 C 
BRANCH   2   3
HETATM    3  C8  UNL     1       0.690   1.326   0.002  1.00  0.00     0.027 C 
BRANCH   3   4
HETATM    4  C7  UNL     1       2.107   1.811  -0.062  1.00  0.00    -0.031 C 
HETATM    5  C6  UNL     1       3.075   1.010   0.361  1.00  0.00    -0.031 C 
BRANCH   5   6
HETATM    6  C5  UNL     1       4.489   1.471   0.307  1.00  0.00     0.027 C 
BRANCH   6   7
HETATM    7  C4  UNL     1       5.287   0.554  -0.563  1.00  0.00     0.007 C 
BRANCH   7   8
HETATM    8  C3  UNL     1       5.254  -0.852  -0.013  1.00  0.00     0.026 C 
BRANCH   8   9
HETATM    9  C2  UNL     1       5.809  -0.910   1.343  1.00  0.00    -0.037 C 
HETATM   10  C1  UNL     1       6.862  -1.665   1.598  1.00  0.00     0.007 C 
ENDBRANCH   8   9
ENDBRANCH   7   8
ENDBRANCH   6   7
ENDBRANCH   5   6
ENDBRANCH   3   4
ENDBRANCH   2   3
ENDBRANCH   1   2
BRANCH   1  11
HETATM   11  C11 UNL     1      -1.489  -0.558  -0.689  1.00  0.00     0.000 C 
BRANCH  11  12
HETATM   12  C12 UNL     1      -2.933  -0.987  -0.631  1.00  0.00     0.008 C 
BRANCH  12  13
HETATM   13  C13 UNL     1      -3.789  -0.104   0.212  1.00  0.00     0.084 C 
BRANCH  13  14
HETATM   14  C14 UNL     1      -5.217  -0.606   0.227  1.00  0.00     0.113 C 
HETATM   15  N1  UNL     1      -5.678  -1.629  -0.374  1.00  0.00    -0.372 N 
HETATM   16  C15 UNL     1      -7.101  -1.815  -0.137  1.00  0.00     0.148 C 
ATOM     17  H1  UNL     1      -5.114  -2.248  -0.956  1.00  0.00     0.161 HD
HETATM   18  C16 UNL     1      -7.301  -0.944   1.096  1.00  0.00     0.196 C 
HETATM   19  O1  UNL     1      -6.256  -0.010   0.917  1.00  0.00    -0.338 OA
ENDBRANCH  13  14
ENDBRANCH  12  13
ENDBRANCH  11  12
ENDBRANCH   1  11
TORSDOF 11
