REMARK  4 active torsions:
REMARK  status: ('A' for Active; 'I' for Inactive)
REMARK    1  A    between atoms: N3_10  and  C4_12 
REMARK    2  A    between atoms: C4_12  and  C5_13 
REMARK    3  A    between atoms: C5_13  and  S1_14 
REMARK    4  A    between atoms: S1_14  and  C6_15 
ROOT
HETATM    1  N1  UNL     1      -5.279  -0.256   0.350  1.00  0.00    -0.381 N 
ATOM      2  H11 UNL     1      -5.519  -1.209   0.624  1.00  0.00     0.157 HD
ATOM      3  H12 UNL     1      -6.005   0.432   0.150  1.00  0.00     0.157 HD
HETATM    4  C1  UNL     1      -4.020   0.079   0.255  1.00  0.00     0.171 A 
HETATM    5  N2  UNL     1      -3.688   1.398  -0.125  1.00  0.00    -0.302 N 
ATOM      6  H2  UNL     1      -4.418   2.082  -0.324  1.00  0.00     0.171 HD
HETATM    7  C2  UNL     1      -2.300   1.756  -0.226  1.00  0.00     0.291 A 
HETATM    8  O1  UNL     1      -2.015   2.918  -0.561  1.00  0.00    -0.264 OA
HETATM    9  C3  UNL     1      -1.240   0.806   0.050  1.00  0.00     0.173 A 
HETATM   10  N3  UNL     1      -0.034   1.131  -0.041  1.00  0.00    -0.371 N 
ATOM     11  H3  UNL     1       0.142   2.097  -0.319  1.00  0.00     0.161 HD
HETATM   12  N5  UNL     1      -1.603  -0.508   0.429  1.00  0.00    -0.302 N 
ATOM     13  H5  UNL     1      -0.872  -1.192   0.627  1.00  0.00     0.171 HD
HETATM   14  C7  UNL     1      -2.987  -0.899   0.540  1.00  0.00     0.290 A 
HETATM   15  O2  UNL     1      -3.308  -2.067   0.877  1.00  0.00    -0.264 OA
ENDROOT
BRANCH  10  16
HETATM   16  C4  UNL     1       1.129   0.335   0.191  1.00  0.00     0.132 C 
BRANCH  16  17
HETATM   17  C5  UNL     1       1.522  -0.547  -0.939  1.00  0.00     0.101 C 
BRANCH  17  18
HETATM   18  S1  UNL     1       3.005  -1.482  -0.492  1.00  0.00    -0.102 SA
BRANCH  18  19
HETATM   19  C6  UNL     1       4.450  -0.495  -0.315  1.00  0.00     0.149 C 
HETATM   20  N4  UNL     1       5.667  -1.119   0.064  1.00  0.00    -0.082 NA
HETATM   21  S2  UNL     1       4.455   1.108  -0.575  1.00  0.00    -0.056 SA
ENDBRANCH  18  19
ENDBRANCH  17  18
ENDBRANCH  16  17
ENDBRANCH  10  16
TORSDOF 4
