REMARK  9 active torsions:
REMARK  status: ('A' for Active; 'I' for Inactive)
REMARK    1  A    between atoms: N1_1  and  C1_4 
REMARK    2  A    between atoms: C2_7  and  N3_8 
REMARK    3  A    between atoms: N3_8  and  C3_10 
REMARK    4  A    between atoms: C3_10  and  C4_11 
REMARK    5  A    between atoms: C4_11  and  C5_12 
REMARK    6  A    between atoms: C5_12  and  C6_13 
REMARK    7  A    between atoms: C6_13  and  N4_14 
REMARK    8  A    between atoms: C7_16  and  C8_17 
REMARK    9  A    between atoms: C8_17  and  N5_18 
ROOT
HETATM    1  C1  UNL     1      -2.766   3.129  -0.593  1.00  0.00     0.678 A 
HETATM    2  N2  UNL     1      -2.503   1.916  -1.130  1.00  0.00    -0.176 N 
ATOM      3  H2  UNL     1      -1.705   1.839  -1.761  1.00  0.00     0.186 HD
HETATM    4  C2  UNL     1      -3.218   0.807  -0.891  1.00  0.00     0.134 A 
HETATM    5  C14 UNL     1      -4.335   0.883  -0.018  1.00  0.00     0.051 A 
HETATM    6  C15 UNL     1      -5.165  -0.105   0.343  1.00  0.00    -0.021 A 
HETATM    7  C16 UNL     1      -6.184   0.220   1.212  1.00  0.00     0.060 A 
HETATM    8  S1  UNL     1      -5.947   1.883   1.491  1.00  0.00    -0.067 SA
HETATM    9  C17 UNL     1      -4.567   2.127   0.504  1.00  0.00     0.105 A 
HETATM   10  N6  UNL     1      -3.820   3.221   0.236  1.00  0.00    -0.185 N 
ATOM     11  H6  UNL     1      -4.056   4.117   0.663  1.00  0.00     0.185 HD
HETATM   12  C18 UNL     1      -7.174  -0.752   1.703  1.00  0.00     0.167 C 
HETATM   13  O1  UNL     1      -7.726  -0.569   2.818  1.00  0.00    -0.292 OA
HETATM   14  C19 UNL     1      -7.550  -1.955   0.921  1.00  0.00     0.085 C 
HETATM   15  C20 UNL     1      -6.707  -1.946  -0.317  1.00  0.00     0.012 C 
HETATM   16  C21 UNL     1      -5.246  -1.580  -0.003  1.00  0.00     0.041 C 
ENDROOT
BRANCH   4  17
HETATM   17  N3  UNL     1      -2.887  -0.276  -1.447  1.00  0.00    -0.355 N 
ATOM     18  H3  UNL     1      -3.466  -1.086  -1.228  1.00  0.00     0.166 HD
BRANCH  17  19
HETATM   19  C3  UNL     1      -1.819  -0.503  -2.330  1.00  0.00     0.062 C 
BRANCH  19  20
HETATM   20  C4  UNL     1      -0.651  -1.247  -1.697  1.00  0.00     0.046 C 
BRANCH  20  21
HETATM   21  C5  UNL     1      -0.081  -0.478  -0.531  1.00  0.00     0.025 C 
BRANCH  21  22
HETATM   22  C6  UNL     1       1.077  -1.204   0.110  1.00  0.00     0.119 C 
BRANCH  22  23
HETATM   23  N4  UNL     1       2.153  -1.426  -0.806  1.00  0.00    -0.400 N 
HETATM   24  C7  UNL     1       3.349  -1.066  -0.642  1.00  0.00     0.085 C 
ATOM     25  H4  UNL     1       1.932  -1.921  -1.670  1.00  0.00     0.158 HD
BRANCH  24  26
HETATM   26  C8  UNL     1       3.833  -0.340   0.553  1.00  0.00     0.316 C 
BRANCH  26  27
HETATM   27  N5  UNL     1       5.200   0.054   0.418  1.00  0.00     0.093 N 
HETATM   28  C9  UNL     1       6.153  -1.012   0.415  1.00  0.00     0.273 C 
HETATM   29  C10 UNL     1       7.495  -0.602   0.965  1.00  0.00     0.030 C 
HETATM   30  C11 UNL     1       7.895   0.773   0.474  1.00  0.00     0.003 C 
HETATM   31  C12 UNL     1       6.836   1.793   0.791  1.00  0.00     0.030 C 
HETATM   32  C13 UNL     1       5.551   1.157   1.259  1.00  0.00     0.273 C 
ENDBRANCH  26  27
ENDBRANCH  24  26
ENDBRANCH  22  23
ENDBRANCH  21  22
ENDBRANCH  20  21
ENDBRANCH  19  20
ENDBRANCH  17  19
ENDBRANCH   4  17
BRANCH   1  33
HETATM   33  N1  UNL     1      -2.014   4.122  -0.894  1.00  0.00    -0.234 N 
ATOM     34  H12 UNL     1      -1.214   4.052  -1.523  1.00  0.00     0.174 HD
ATOM     35  H11 UNL     1      -2.212   5.037  -0.489  1.00  0.00     0.174 HD
ENDBRANCH   1  33
TORSDOF 9
