REMARK  9 active torsions:
REMARK  status: ('A' for Active; 'I' for Inactive)
REMARK    1  A    between atoms: C2_2  and  N1_3 
REMARK    2  A    between atoms: C2_2  and  C15_26 
REMARK       I    between atoms: N1_3  and  C3_5 
REMARK    3  A    between atoms: C3_5  and  C4_7 
REMARK    4  A    between atoms: C4_7  and  C5_8 
REMARK    5  A    between atoms: C4_7  and  N4_16 
REMARK    6  A    between atoms: C5_8  and  C6_9 
REMARK       I    between atoms: N4_16  and  C9_18 
REMARK    7  A    between atoms: C9_18  and  O3_20 
REMARK    8  A    between atoms: O3_20  and  C10_21 
REMARK       I    between atoms: C15_26  and  N5_28 
REMARK    9  A    between atoms: N5_28  and  C16_30 
ROOT
HETATM    1  C4  UNL     1      -2.073  -0.763  -0.526  1.00  0.00     0.087 C 
ENDROOT
BRANCH   1   2
HETATM    2  C3  UNL     1      -0.768  -0.765   0.132  1.00  0.00     0.265 C 
HETATM    3  N1  UNL     1       0.428  -1.314  -0.342  1.00  0.00    -0.343 N 
ATOM      4  H1  UNL     1       0.433  -1.772  -1.254  1.00  0.00     0.163 HD
HETATM    5  O1  UNL     1      -0.709  -0.191   1.281  1.00  0.00    -0.266 OA
BRANCH   3   6
HETATM    6  C2  UNL     1       1.655  -1.255   0.414  1.00  0.00     0.172 C 
HETATM    7  C1  UNL     1       2.155  -2.638   0.806  1.00  0.00     0.042 C 
BRANCH   6   8
HETATM    8  C15 UNL     1       2.731  -0.579  -0.350  1.00  0.00     0.240 C 
HETATM    9  O4  UNL     1       2.510  -0.148  -1.501  1.00  0.00    -0.271 OA
HETATM   10  N5  UNL     1       4.023  -0.411   0.209  1.00  0.00    -0.355 N 
ATOM     11  H5  UNL     1       4.217  -0.758   1.148  1.00  0.00     0.162 HD
BRANCH  10  12
HETATM   12  C16 UNL     1       5.082   0.258  -0.554  1.00  0.00     0.084 C 
HETATM   13  C17 UNL     1       6.311  -0.587  -0.674  1.00  0.00     0.025 C 
HETATM   14  C18 UNL     1       7.531   0.064  -0.091  1.00  0.00     0.002 C 
HETATM   15  C19 UNL     1       7.751   1.469  -0.544  1.00  0.00     0.000 C 
HETATM   16  C20 UNL     1       6.471   2.262  -0.689  1.00  0.00     0.002 C 
HETATM   17  C21 UNL     1       5.408   1.583   0.149  1.00  0.00     0.025 C 
ENDBRANCH  10  12
ENDBRANCH   6   8
ENDBRANCH   3   6
ENDBRANCH   1   2
BRANCH   1  18
HETATM   18  C5  UNL     1      -2.143  -1.445  -1.843  1.00  0.00     0.121 C 
BRANCH  18  19
HETATM   19  C6  UNL     1      -1.856  -2.890  -1.825  1.00  0.00     0.031 A 
HETATM   20  C7  UNL     1      -1.770  -3.690  -2.941  1.00  0.00     0.114 A 
HETATM   21  N2  UNL     1      -1.529  -4.944  -2.510  1.00  0.00    -0.360 N 
HETATM   22  C8  UNL     1      -1.461  -4.957  -1.173  1.00  0.00     0.180 A 
ATOM     23  H2  UNL     1      -1.416  -5.760  -3.112  1.00  0.00     0.166 HD
HETATM   24  N3  UNL     1      -1.664  -3.692  -0.770  1.00  0.00    -0.354 N 
ATOM     25  H3  UNL     1      -1.671  -3.385   0.203  1.00  0.00     0.166 HD
ENDBRANCH  18  19
ENDBRANCH   1  18
BRANCH   1  26
HETATM   26  N4  UNL     1      -2.790   0.482  -0.450  1.00  0.00    -0.301 N 
HETATM   27  C9  UNL     1      -3.938   0.621   0.349  1.00  0.00     0.365 C 
HETATM   28  O2  UNL     1      -4.403  -0.333   1.041  1.00  0.00    -0.238 OA
ATOM     29  H4  UNL     1      -2.458   1.282  -0.988  1.00  0.00     0.171 HD
BRANCH  27  30
HETATM   30  O3  UNL     1      -4.654   1.820   0.442  1.00  0.00    -0.298 OA
BRANCH  30  31
HETATM   31  C10 UNL     1      -5.820   1.918   1.270  1.00  0.00     0.133 C 
HETATM   32  C11 UNL     1      -5.532   3.025   2.259  1.00  0.00     0.032 C 
HETATM   33  C12 UNL     1      -6.741   3.908   2.325  1.00  0.00     0.002 C 
HETATM   34  C13 UNL     1      -7.798   3.173   1.530  1.00  0.00     0.002 C 
HETATM   35  C14 UNL     1      -7.027   2.350   0.509  1.00  0.00     0.032 C 
ENDBRANCH  30  31
ENDBRANCH  27  30
ENDBRANCH   1  26
TORSDOF 9
