REMARK  8 active torsions:
REMARK  status: ('A' for Active; 'I' for Inactive)
REMARK       I    between atoms: C1_2  and  N1_3 
REMARK    1  A    between atoms: C1_2  and  C7_10 
REMARK    2  A    between atoms: N1_3  and  C2_5 
REMARK    3  A    between atoms: C10_13  and  N2_14 
REMARK    4  A    between atoms: N2_14  and  C11_17 
REMARK    5  A    between atoms: C11_17  and  C12_18 
REMARK    6  A    between atoms: C12_18  and  C13_19 
REMARK    7  A    between atoms: C13_19  and  N3_20 
REMARK    8  A    between atoms: N4_23  and  C16_24 
ROOT
HETATM    1  N2  UNL     1      -0.311  -0.557  -1.091  1.00  0.00    -0.071 N 
ATOM      2  H21 UNL     1      -0.145  -0.236  -2.045  1.00  0.00     0.277 HD
ATOM      3  H22 UNL     1      -0.030  -1.530  -1.209  1.00  0.00     0.277 HD
ENDROOT
BRANCH   1   4
HETATM    4  C10 UNL     1      -1.704  -0.438  -0.715  1.00  0.00     0.186 C 
HETATM    5  C9  UNL     1      -1.976  -1.112   0.612  1.00  0.00     0.034 C 
HETATM    6  C8  UNL     1      -3.147  -2.037   0.547  1.00  0.00     0.016 C 
HETATM    7  C7  UNL     1      -4.320  -1.485  -0.215  1.00  0.00     0.078 C 
HETATM    8  C24 UNL     1      -3.986  -0.722  -1.450  1.00  0.00     0.016 C 
HETATM    9  C23 UNL     1      -2.551  -1.025  -1.814  1.00  0.00     0.034 C 
BRANCH   7  10
HETATM   10  C1  UNL     1      -5.108  -0.570   0.686  1.00  0.00     0.222 C 
HETATM   11  O1  UNL     1      -4.595  -0.315   1.831  1.00  0.00    -0.273 OA
HETATM   12  N1  UNL     1      -6.336  -0.019   0.301  1.00  0.00    -0.356 N 
ATOM     13  H1  UNL     1      -6.724  -0.242  -0.615  1.00  0.00     0.162 HD
BRANCH  12  14
HETATM   14  C2  UNL     1      -7.063   0.867   1.192  1.00  0.00     0.084 C 
HETATM   15  C3  UNL     1      -8.405   0.240   1.483  1.00  0.00     0.025 C 
HETATM   16  C4  UNL     1      -9.064   0.308   0.120  1.00  0.00     0.002 C 
HETATM   17  C5  UNL     1      -8.524   1.564  -0.521  1.00  0.00     0.002 C 
HETATM   18  C6  UNL     1      -7.447   2.095   0.412  1.00  0.00     0.025 C 
ENDBRANCH  12  14
ENDBRANCH   7  10
ENDBRANCH   1   4
BRANCH   1  19
HETATM   19  C11 UNL     1       0.528   0.138  -0.131  1.00  0.00     0.234 C 
BRANCH  19  20
HETATM   20  C12 UNL     1       1.986  -0.090  -0.492  1.00  0.00     0.057 C 
BRANCH  20  21
HETATM   21  C13 UNL     1       2.809   0.662   0.507  1.00  0.00     0.274 C 
BRANCH  21  22
HETATM   22  N3  UNL     1       4.199   0.466   0.247  1.00  0.00     0.091 N 
HETATM   23  C14 UNL     1       4.528  -0.920   0.562  1.00  0.00     0.292 C 
HETATM   24  C15 UNL     1       6.020  -0.904   0.928  1.00  0.00     0.154 C 
HETATM   25  N4  UNL     1       6.674  -0.220  -0.164  1.00  0.00    -0.364 N 
HETATM   26  C21 UNL     1       5.932   0.055  -1.371  1.00  0.00     0.154 C 
HETATM   27  C22 UNL     1       4.682   0.876  -1.026  1.00  0.00     0.292 C 
BRANCH  25  28
HETATM   28  C16 UNL     1       8.024   0.165  -0.016  1.00  0.00     0.102 A 
HETATM   29  C17 UNL     1       8.350   1.378   0.559  1.00  0.00     0.048 A 
HETATM   30  C18 UNL     1       9.669   1.713   0.685  1.00  0.00     0.005 A 
HETATM   31  C19 UNL     1      10.664   0.862   0.247  1.00  0.00     0.017 A 
HETATM   32  C20 UNL     1      10.262  -0.337  -0.320  1.00  0.00     0.089 A 
HETATM   33  N5  UNL     1       8.976  -0.697  -0.458  1.00  0.00    -0.352 N 
ATOM     34  H5  UNL     1       8.722  -1.590  -0.881  1.00  0.00     0.166 HD
ENDBRANCH  25  28
ENDBRANCH  21  22
ENDBRANCH  20  21
ENDBRANCH  19  20
ENDBRANCH   1  19
TORSDOF 8
