REMARK  6 active torsions:
REMARK  status: ('A' for Active; 'I' for Inactive)
REMARK    1  A    between atoms: O1_2  and  C2_3 
REMARK    2  A    between atoms: C2_3  and  C3_4 
REMARK    3  A    between atoms: C3_4  and  N1_5 
REMARK    4  A    between atoms: C8_10  and  C9_11 
REMARK    5  A    between atoms: C9_11  and  N2_12 
REMARK       I    between atoms: N2_12  and  C10_14 
REMARK       I    between atoms: C10_14  and  N3_16 
REMARK    6  A    between atoms: N3_16  and  C11_18 
ROOT
HETATM    1  N2  UNL     1       0.518  -0.480   0.196  1.00  0.00    -0.341 N 
ATOM      2  H2  UNL     1       0.616  -1.041   1.043  1.00  0.00     0.164 HD
HETATM    3  C10 UNL     1      -0.764  -0.042  -0.218  1.00  0.00     0.316 C 
HETATM    4  O2  UNL     1      -0.816   0.638  -1.266  1.00  0.00    -0.247 OA
HETATM    5  N3  UNL     1      -1.925  -0.375   0.544  1.00  0.00    -0.334 N 
ATOM      6  H3  UNL     1      -1.782  -0.934   1.385  1.00  0.00     0.165 HD
ENDROOT
BRANCH   1   7
HETATM    7  C9  UNL     1       1.685  -0.135  -0.577  1.00  0.00     0.149 C 
BRANCH   7   8
HETATM    8  C8  UNL     1       2.906  -0.754   0.121  1.00  0.00     0.101 C 
HETATM    9  N1  UNL     1       4.121  -0.482  -0.546  1.00  0.00    -0.385 N 
HETATM   10  C4  UNL     1       5.206  -1.348  -0.302  1.00  0.00     0.058 C 
HETATM   11  C5  UNL     1       4.806  -2.752  -0.705  1.00  0.00     0.044 C 
HETATM   12  C6  UNL     1       3.691  -3.160   0.194  1.00  0.00     0.007 C 
HETATM   13  C7  UNL     1       2.578  -2.193   0.335  1.00  0.00     0.027 C 
BRANCH   9  14
HETATM   14  C3  UNL     1       4.485   0.885  -0.674  1.00  0.00     0.148 C 
BRANCH  14  15
HETATM   15  C2  UNL     1       4.966   1.416   0.659  1.00  0.00     0.186 C 
BRANCH  15  16
HETATM   16  O1  UNL     1       5.342   2.748   0.616  1.00  0.00    -0.394 OA
HETATM   17  C1  UNL     1       6.375   3.005  -0.265  1.00  0.00     0.201 C 
ENDBRANCH  15  16
ENDBRANCH  14  15
ENDBRANCH   9  14
ENDBRANCH   7   8
ENDBRANCH   1   7
BRANCH   5  18
HETATM   18  C11 UNL     1      -3.256   0.000   0.239  1.00  0.00     0.035 C 
HETATM   19  C12 UNL     1      -4.174  -0.563   1.306  1.00  0.00     0.035 C 
HETATM   20  C13 UNL     1      -5.592  -0.095   1.185  1.00  0.00    -0.012 C 
HETATM   21  C14 UNL     1      -6.113  -0.590  -0.148  1.00  0.00     0.009 C 
HETATM   22  C18 UNL     1      -5.568   1.414   1.270  1.00  0.00     0.009 C 
HETATM   23  C15 UNL     1      -5.217  -0.054  -1.215  1.00  0.00    -0.012 C 
HETATM   24  C16 UNL     1      -5.324   1.463  -1.222  1.00  0.00     0.009 C 
HETATM   25  C20 UNL     1      -3.775  -0.497  -1.080  1.00  0.00     0.035 C 
HETATM   26  C17 UNL     1      -4.800   1.954   0.100  1.00  0.00    -0.012 C 
HETATM   27  C19 UNL     1      -3.341   1.520   0.195  1.00  0.00     0.035 C 
ENDBRANCH   5  18
TORSDOF 6
