REMARK  7 active torsions:
REMARK  status: ('A' for Active; 'I' for Inactive)
REMARK    1  A    between atoms: C1_2  and  C2_3 
REMARK       I    between atoms: C1_2  and  N2_13 
REMARK    2  A    between atoms: C2_3  and  C3_4 
REMARK    3  A    between atoms: C3_4  and  N1_5 
REMARK    4  A    between atoms: N2_13  and  C11_15 
REMARK    5  A    between atoms: C11_15  and  C12_16 
REMARK    6  A    between atoms: C18_22  and  C19_23 
REMARK    7  A    between atoms: C19_23  and  O2_24 
ROOT
HETATM    1  O1  UNL     1       0.029   0.836   0.175  1.00  0.00    -0.273 OA
HETATM    2  C1  UNL     1       0.269   0.026  -0.725  1.00  0.00     0.222 C 
HETATM    3  N2  UNL     1      -0.725  -0.541  -1.528  1.00  0.00    -0.360 N 
ATOM      4  H2  UNL     1      -0.399  -1.188  -2.246  1.00  0.00     0.162 HD
ENDROOT
BRANCH   3   5
HETATM    5  C11 UNL     1      -2.143  -0.332  -1.475  1.00  0.00     0.127 C 
BRANCH   5   6
HETATM    6  C12 UNL     1      -2.909  -0.752  -0.317  1.00  0.00     0.008 C 
HETATM    7  C13 UNL     1      -2.696  -0.234   1.045  1.00  0.00     0.007 C 
HETATM    8  C14 UNL     1      -3.943  -0.661   1.850  1.00  0.00     0.005 C 
HETATM    9  C15 UNL     1      -4.708  -1.492   0.899  1.00  0.00    -0.010 C 
HETATM   10  C16 UNL     1      -6.183  -1.352   0.960  1.00  0.00     0.005 C 
HETATM   11  C20 UNL     1      -4.388  -0.840  -0.459  1.00  0.00     0.001 C 
HETATM   12  C17 UNL     1      -6.465  -0.044   0.300  1.00  0.00     0.007 C 
HETATM   13  C18 UNL     1      -5.258   0.274  -0.608  1.00  0.00     0.014 C 
BRANCH  13  14
HETATM   14  C19 UNL     1      -4.894   1.669  -0.341  1.00  0.00     0.169 C 
BRANCH  14  15
HETATM   15  O2  UNL     1      -6.009   2.506  -0.644  1.00  0.00    -0.400 OA
ATOM     16  H2  UNL     1      -5.773   3.410  -0.471  1.00  0.00     0.209 HD
ENDBRANCH  14  15
ENDBRANCH  13  14
ENDBRANCH   5   6
ENDBRANCH   3   5
BRANCH   2  17
HETATM   17  C2  UNL     1       1.720  -0.326  -0.919  1.00  0.00     0.147 C 
BRANCH  17  18
HETATM   18  C3  UNL     1       2.582   0.474   0.022  1.00  0.00     0.072 C 
BRANCH  18  19
HETATM   19  N1  UNL     1       3.951   0.241  -0.061  1.00  0.00    -0.369 N 
HETATM   20  C4  UNL     1       4.531  -0.960   0.348  1.00  0.00     0.064 C 
HETATM   21  C5  UNL     1       5.818  -0.812   1.133  1.00  0.00     0.049 C 
HETATM   22  C6  UNL     1       6.667   0.294   0.594  1.00  0.00    -0.008 C 
HETATM   23  C7  UNL     1       6.868   0.102  -0.883  1.00  0.00     0.007 C 
HETATM   24  C10 UNL     1       5.879   1.578   0.643  1.00  0.00     0.030 C 
HETATM   25  C8  UNL     1       5.698   0.796  -1.562  1.00  0.00     0.026 C 
HETATM   26  C9  UNL     1       4.815   1.294  -0.406  1.00  0.00     0.088 C 
ENDBRANCH  18  19
ENDBRANCH  17  18
ENDBRANCH   2  17
TORSDOF 7
