REMARK  15 active torsions:
REMARK  status: ('A' for Active; 'I' for Inactive)
REMARK    1  A    between atoms: N1_1  and  C1_4 
REMARK    2  A    between atoms: C2_7  and  O1_8 
REMARK    3  A    between atoms: O1_8  and  C3_9 
REMARK    4  A    between atoms: C3_9  and  C4_10 
REMARK    5  A    between atoms: C4_10  and  N3_11 
REMARK    6  A    between atoms: C4_10  and  C10_28 
REMARK    7  A    between atoms: N3_11  and  N4_13 
REMARK       I    between atoms: N4_13  and  C5_15 
REMARK    8  A    between atoms: C5_15  and  C6_17 
REMARK    9  A    between atoms: C7_19  and  O4_20 
REMARK   10  A    between atoms: C8_22  and  O5_23 
REMARK   11  A    between atoms: C9_25  and  O6_26 
REMARK   12  A    between atoms: C11_31  and  N5_32 
REMARK   13  A    between atoms: C12_38  and  O9_39 
REMARK   14  A    between atoms: C13_41  and  O10_42 
REMARK   15  A    between atoms: C14_46  and  N10_47 
ROOT
HETATM    1  C1  UNL     1      -2.557   3.077   1.005  1.00  0.00     0.152 A 
HETATM    2  N2  UNL     1      -1.610   2.084   1.022  1.00  0.00    -0.317 N 
ATOM      3  H2  UNL     1      -0.721   2.206   1.508  1.00  0.00     0.169 HD
HETATM    4  C2  UNL     1      -1.900   0.951   0.376  1.00  0.00     0.190 A 
HETATM    5  C11 UNL     1      -3.110   0.780  -0.286  1.00  0.00     0.177 A 
HETATM    6  N9  UNL     1      -4.025   1.774  -0.287  1.00  0.00    -0.316 N 
ATOM      7  H9  UNL     1      -4.913   1.648  -0.773  1.00  0.00     0.169 HD
HETATM    8  C14 UNL     1      -3.765   2.937   0.356  1.00  0.00     0.219 A 
ENDROOT
BRANCH   4   9
HETATM    9  O1  UNL     1      -1.030  -0.111   0.322  1.00  0.00    -0.330 OA
BRANCH   9  10
HETATM   10  C3  UNL     1      -0.023  -0.175  -0.651  1.00  0.00     0.215 C 
BRANCH  10  11
HETATM   11  C4  UNL     1       1.012   0.918  -0.567  1.00  0.00     0.224 C 
BRANCH  11  12
HETATM   12  N3  UNL     1       1.748   0.969   0.597  1.00  0.00    -0.316 N 
ATOM     13  H3  UNL     1       1.290   1.410   1.395  1.00  0.00     0.181 HD
BRANCH  12  14
HETATM   14  N4  UNL     1       2.994   0.510   0.814  1.00  0.00    -0.268 N 
HETATM   15  C5  UNL     1       3.469  -0.785   0.755  1.00  0.00     0.296 C 
HETATM   16  O2  UNL     1       2.716  -1.747   0.451  1.00  0.00    -0.264 OA
ATOM     17  H4  UNL     1       3.686   1.219   1.056  1.00  0.00     0.190 HD
BRANCH  15  18
HETATM   18  C6  UNL     1       4.858  -1.125   1.038  1.00  0.00     0.183 A 
HETATM   19  O3  UNL     1       5.352  -2.365   0.969  1.00  0.00    -0.277 OA
HETATM   20  C7  UNL     1       6.614  -2.392   1.266  1.00  0.00     0.221 A 
HETATM   21  C8  UNL     1       7.045  -1.122   1.562  1.00  0.00     0.161 A 
HETATM   22  C9  UNL     1       5.905  -0.331   1.408  1.00  0.00     0.144 A 
BRANCH  20  23
HETATM   23  O4  UNL     1       7.440  -3.535   1.291  1.00  0.00    -0.339 OA
ATOM     24  H4  UNL     1       8.365  -3.555   1.509  1.00  0.00     0.220 HD
ENDBRANCH  20  23
BRANCH  21  25
HETATM   25  O5  UNL     1       8.299  -0.675   1.932  1.00  0.00    -0.354 OA
ATOM     26  H5  UNL     1       8.597   0.203   2.137  1.00  0.00     0.218 HD
ENDBRANCH  21  25
BRANCH  22  27
HETATM   27  O6  UNL     1       5.916   1.043   1.620  1.00  0.00    -0.355 OA
ATOM     28  H6  UNL     1       6.645   1.596   1.877  1.00  0.00     0.218 HD
ENDBRANCH  22  27
ENDBRANCH  15  18
ENDBRANCH  12  14
ENDBRANCH  11  12
BRANCH  11  29
HETATM   29  C10 UNL     1       1.837   0.852  -1.831  1.00  0.00     0.200 C 
HETATM   30  O7  UNL     1       3.065   0.861  -1.795  1.00  0.00    -0.646 OA
HETATM   31  O8  UNL     1       1.145   0.779  -3.041  1.00  0.00    -0.646 OA
ENDBRANCH  11  29
ENDBRANCH  10  11
ENDBRANCH   9  10
ENDBRANCH   4   9
BRANCH   5  32
HETATM   32  N5  UNL     1      -3.372  -0.450  -0.928  1.00  0.00    -0.222 N 
HETATM   33  N6  UNL     1      -3.543  -0.583  -2.304  1.00  0.00    -0.000 NA
HETATM   34  N7  UNL     1      -4.269  -1.720  -2.570  1.00  0.00    -0.228 N 
HETATM   35  N8  UNL     1      -5.203  -2.121  -1.697  1.00  0.00    -0.291 N 
ATOM     36  H7  UNL     1      -4.098  -2.253  -3.423  1.00  0.00     0.205 HD
HETATM   37  C12 UNL     1      -4.963  -2.082  -0.307  1.00  0.00     0.284 C 
ATOM     38  H8  UNL     1      -6.101  -2.460  -2.042  1.00  0.00     0.184 HD
HETATM   39  C13 UNL     1      -3.488  -1.673  -0.120  1.00  0.00     0.291 C 
BRANCH  37  40
HETATM   40  O9  UNL     1      -5.095  -3.314   0.337  1.00  0.00    -0.371 OA
ATOM     41  H9  UNL     1      -4.933  -3.288   1.273  1.00  0.00     0.212 HD
ENDBRANCH  37  40
BRANCH  39  42
HETATM   42  O10 UNL     1      -2.657  -2.637  -0.696  1.00  0.00    -0.371 OA
ATOM     43  H10 UNL     1      -2.732  -3.427  -0.174  1.00  0.00     0.212 HD
ENDBRANCH  39  42
ENDBRANCH   5  32
BRANCH   1  44
HETATM   44  N1  UNL     1      -2.335   4.187   1.609  1.00  0.00    -0.382 N 
ATOM     45  H12 UNL     1      -1.441   4.291   2.089  1.00  0.00     0.157 HD
ATOM     46  H11 UNL     1      -3.039   4.925   1.596  1.00  0.00     0.157 HD
ENDBRANCH   1  44
BRANCH   8  47
HETATM   47  N10 UNL     1      -4.705   4.005   0.376  1.00  0.00    -0.094 N 
HETATM   48  O11 UNL     1      -4.366   5.201   0.412  1.00  0.00    -0.530 OA
HETATM   49  O12 UNL     1      -6.057   3.743   0.355  1.00  0.00    -0.530 OA
ENDBRANCH   8  47
TORSDOF 15
