REMARK  3 active torsions:
REMARK  status: ('A' for Active; 'I' for Inactive)
REMARK    1  A    between atoms: C2_2  and  N1_3 
REMARK    2  A    between atoms: N3_14  and  O2_16 
REMARK    3  A    between atoms: C10_18  and  C11_19 
ROOT
HETATM    1  N1  UNL     1       0.215   1.715   0.181  1.00  0.00    -0.327 N 
HETATM    2  C3  UNL     1      -0.517   1.568   1.383  1.00  0.00     0.319 C 
HETATM    3  O1  UNL     1      -0.701   2.392   2.317  1.00  0.00    -0.247 OA
HETATM    4  N2  UNL     1      -1.078   0.228   1.404  1.00  0.00    -0.326 N 
ATOM      5  H2  UNL     1      -1.362  -0.341   2.201  1.00  0.00     0.165 HD
HETATM    6  C4  UNL     1      -1.126  -0.086  -0.025  1.00  0.00     0.096 C 
HETATM    7  C5  UNL     1      -2.206   0.929  -0.517  1.00  0.00     0.040 C 
HETATM    8  C6  UNL     1      -3.573   0.300  -0.368  1.00  0.00     0.003 C 
HETATM    9  C7  UNL     1      -3.692  -0.672   0.781  1.00  0.00     0.006 C 
HETATM   10  C8  UNL     1      -2.718  -1.829   0.655  1.00  0.00     0.057 C 
HETATM   11  C9  UNL     1      -1.696  -1.356  -0.381  1.00  0.00     0.040 C 
HETATM   12  N3  UNL     1      -1.577  -2.061  -1.344  1.00  0.00    -0.275 N 
ATOM     13  H3  UNL     1      -2.176  -2.861  -1.141  1.00  0.00     0.193 HD
HETATM   14  C10 UNL     1       0.182   0.359  -0.464  1.00  0.00     0.127 C 
ENDROOT
BRANCH  14  15
HETATM   15  C11 UNL     1       1.428  -0.276   0.013  1.00  0.00     0.011 C 
HETATM   16  C12 UNL     1       1.621  -0.550   1.443  1.00  0.00     0.007 C 
HETATM   17  C13 UNL     1       2.984  -1.248   1.601  1.00  0.00     0.000 C 
HETATM   18  C14 UNL     1       3.881  -1.034   0.425  1.00  0.00     0.000 C 
HETATM   19  C15 UNL     1       3.316  -1.698  -0.812  1.00  0.00     0.000 C 
HETATM   20  C16 UNL     1       1.813  -1.461  -0.811  1.00  0.00     0.007 C 
ENDBRANCH  14  15
BRANCH  12  21
HETATM   21  O2  UNL     1      -1.079  -2.327  -2.507  1.00  0.00    -0.290 OA
ATOM     22  H2  UNL     1      -0.985  -2.885  -3.270  1.00  0.00     0.244 HD
ENDBRANCH  12  21
BRANCH   1  23
HETATM   23  C2  UNL     1       0.870   2.879  -0.304  1.00  0.00     0.123 C 
HETATM   24  C1  UNL     1      -0.065   3.684  -1.161  1.00  0.00     0.026 C 
ENDBRANCH   1  23
TORSDOF 3
