REMARK  9 active torsions:
REMARK  status: ('A' for Active; 'I' for Inactive)
REMARK    1  A    between atoms: S1_2  and  N1_4 
REMARK    2  A    between atoms: S1_2  and  C19_36 
REMARK    3  A    between atoms: N1_4  and  C1_6 
REMARK    4  A    between atoms: C4_9  and  S2_10 
REMARK    5  A    between atoms: S2_10  and  N2_13 
REMARK    6  A    between atoms: N2_13  and  C5_15 
REMARK    7  A    between atoms: C8_18  and  C9_19 
REMARK    8  A    between atoms: C9_19  and  C10_24 
REMARK    9  A    between atoms: N3_20  and  O5_22 
ROOT
HETATM    1  S2  UNL     1       0.316  -1.213  -2.958  1.00  0.00     0.266 S 
HETATM    2  O3  UNL     1       1.300  -1.983  -3.832  1.00  0.00    -0.200 OA
HETATM    3  O4  UNL     1      -0.426  -0.326  -3.964  1.00  0.00    -0.200 OA
ENDROOT
BRANCH   1   4
HETATM    4  C4  UNL     1       1.233  -0.225  -1.854  1.00  0.00     0.118 A 
HETATM    5  C3  UNL     1       1.184  -0.314  -0.485  1.00  0.00     0.031 A 
HETATM    6  C2  UNL     1       1.949   0.500   0.342  1.00  0.00     0.032 A 
HETATM    7  C1  UNL     1       2.806   1.452  -0.169  1.00  0.00     0.045 A 
HETATM    8  C18 UNL     1       2.861   1.548  -1.542  1.00  0.00     0.074 A 
HETATM    9  C17 UNL     1       2.108   0.746  -2.366  1.00  0.00     0.141 A 
HETATM   10  F1  UNL     1       2.173   0.853  -3.721  1.00  0.00    -0.204 F 
BRANCH   7  11
HETATM   11  N1  UNL     1       3.589   2.284   0.662  1.00  0.00    -0.281 N 
ATOM     12  H1  UNL     1       3.131   2.713   1.466  1.00  0.00     0.179 HD
BRANCH  11  13
HETATM   13  S1  UNL     1       5.234   2.624   0.424  1.00  0.00     0.263 S 
HETATM   14  O1  UNL     1       5.519   3.284  -0.910  1.00  0.00    -0.200 OA
HETATM   15  O2  UNL     1       5.739   3.574   1.473  1.00  0.00    -0.200 OA
BRANCH  13  16
HETATM   16  C19 UNL     1       6.240   1.196   0.498  1.00  0.00     0.079 A 
HETATM   17  C20 UNL     1       6.765   0.821   1.728  1.00  0.00     0.025 A 
HETATM   18  C21 UNL     1       7.562  -0.286   1.869  1.00  0.00     0.002 A 
HETATM   19  C22 UNL     1       7.839  -1.034   0.745  1.00  0.00     0.000 A 
HETATM   20  C23 UNL     1       7.328  -0.680  -0.487  1.00  0.00     0.002 A 
HETATM   21  C24 UNL     1       6.541   0.424  -0.591  1.00  0.00     0.025 A 
ENDBRANCH  13  16
ENDBRANCH  11  13
ENDBRANCH   7  11
ENDBRANCH   1   4
BRANCH   1  22
HETATM   22  N2  UNL     1      -0.737  -2.321  -2.233  1.00  0.00    -0.281 N 
ATOM     23  H2  UNL     1      -0.594  -3.318  -2.394  1.00  0.00     0.179 HD
BRANCH  22  24
HETATM   24  C5  UNL     1      -1.810  -1.907  -1.410  1.00  0.00     0.042 A 
HETATM   25  C6  UNL     1      -2.078  -2.630  -0.274  1.00  0.00     0.031 A 
HETATM   26  C7  UNL     1      -3.128  -2.282   0.551  1.00  0.00     0.016 A 
HETATM   27  C8  UNL     1      -3.973  -1.195   0.295  1.00  0.00    -0.005 A 
HETATM   28  C15 UNL     1      -3.683  -0.494  -0.842  1.00  0.00     0.016 A 
HETATM   29  C16 UNL     1      -2.614  -0.839  -1.692  1.00  0.00     0.031 A 
BRANCH  27  30
HETATM   30  C9  UNL     1      -5.047  -0.895   1.228  1.00  0.00     0.091 C 
HETATM   31  N3  UNL     1      -5.196  -1.564   2.280  1.00  0.00    -0.266 N 
ATOM     32  H3  UNL     1      -6.005  -1.166   2.757  1.00  0.00     0.194 HD
BRANCH  31  33
HETATM   33  O5  UNL     1      -4.785  -2.519   3.015  1.00  0.00    -0.289 OA
ATOM     34  H5  UNL     1      -4.898  -3.025   3.811  1.00  0.00     0.244 HD
ENDBRANCH  31  33
BRANCH  30  35
HETATM   35  C10 UNL     1      -6.025   0.178   1.021  1.00  0.00     0.061 A 
HETATM   36  C11 UNL     1      -7.006   0.376   2.002  1.00  0.00     0.032 A 
HETATM   37  C12 UNL     1      -7.973   1.369   1.874  1.00  0.00     0.004 A 
HETATM   38  C13 UNL     1      -7.973   2.178   0.760  1.00  0.00     0.017 A 
HETATM   39  C14 UNL     1      -6.999   1.954  -0.177  1.00  0.00     0.088 A 
HETATM   40  N4  UNL     1      -6.086   0.985  -0.012  1.00  0.00    -0.364 N 
ATOM     41  H4  UNL     1      -5.386   0.867  -0.745  1.00  0.00     0.165 HD
ENDBRANCH  30  35
ENDBRANCH  27  30
ENDBRANCH  22  24
ENDBRANCH   1  22
TORSDOF 9
