REMARK  13 active torsions:
REMARK  status: ('A' for Active; 'I' for Inactive)
REMARK    1  A    between atoms: C2_2  and  C3_3 
REMARK    2  A    between atoms: C3_3  and  C4_4 
REMARK    3  A    between atoms: C4_4  and  C5_5 
REMARK    4  A    between atoms: C5_5  and  C6_6 
REMARK    5  A    between atoms: C6_6  and  C7_7 
REMARK    6  A    between atoms: C7_7  and  C8_8 
REMARK    7  A    between atoms: C8_8  and  S1_9 
REMARK    8  A    between atoms: S1_9  and  N1_12 
REMARK    9  A    between atoms: C12_16  and  C13_17 
REMARK       I    between atoms: C13_17  and  N2_19 
REMARK   10  A    between atoms: C15_26  and  C16_27 
REMARK   11  A    between atoms: C16_27  and  C17_28 
REMARK   12  A    between atoms: C17_28  and  S2_29 
REMARK   13  A    between atoms: S2_29  and  C18_30 
ROOT
HETATM    1  C13 UNL     1      -0.028  -1.505   0.094  1.00  0.00     0.242 C 
HETATM    2  O3  UNL     1       0.534  -2.627  -0.070  1.00  0.00    -0.271 OA
HETATM    3  N2  UNL     1       0.493  -0.410   0.792  1.00  0.00    -0.305 N 
ATOM      4  H2  UNL     1      -0.155   0.181   1.313  1.00  0.00     0.171 HD
HETATM    5  C14 UNL     1       1.739  -0.106   0.815  1.00  0.00     0.167 A 
HETATM    6  N3  UNL     1       2.780  -0.698   0.233  1.00  0.00    -0.279 N 
ATOM      7  H3  UNL     1       2.646  -1.530  -0.342  1.00  0.00     0.189 HD
HETATM    8  N4  UNL     1       3.946  -0.213   0.403  1.00  0.00    -0.296 N 
ATOM      9  H4  UNL     1       4.749  -0.660  -0.039  1.00  0.00     0.187 HD
HETATM   10  C15 UNL     1       4.124   0.865   1.148  1.00  0.00     0.070 A 
HETATM   11  S5  UNL     1       2.524   1.208   1.636  1.00  0.00    -0.038 SA
ENDROOT
BRANCH   1  12
HETATM   12  C12 UNL     1      -1.392  -1.420  -0.558  1.00  0.00     0.166 C 
HETATM   13  N1  UNL     1      -2.042  -0.180  -0.245  1.00  0.00    -0.197 NA
HETATM   14  C9  UNL     1      -2.429   0.479  -1.451  1.00  0.00     0.108 C 
HETATM   15  C10 UNL     1      -1.950  -0.328  -2.617  1.00  0.00     0.018 C 
HETATM   16  C11 UNL     1      -1.211  -1.504  -2.041  1.00  0.00     0.031 C 
BRANCH  13  17
HETATM   17  S1  UNL     1      -3.530  -0.494   0.655  1.00  0.00     0.212 S 
HETATM   18  O1  UNL     1      -3.073  -1.227   1.909  1.00  0.00    -0.211 OA
HETATM   19  O2  UNL     1      -4.259  -1.470  -0.178  1.00  0.00    -0.211 OA
BRANCH  17  20
HETATM   20  C8  UNL     1      -4.316   1.011   1.046  1.00  0.00     0.157 C 
BRANCH  20  21
HETATM   21  C7  UNL     1      -5.547   1.035   1.814  1.00  0.00     0.016 C 
BRANCH  21  22
HETATM   22  C6  UNL     1      -6.859   0.569   1.405  1.00  0.00     0.001 C 
BRANCH  22  23
HETATM   23  C5  UNL     1      -7.064  -0.825   0.990  1.00  0.00     0.000 C 
BRANCH  23  24
HETATM   24  C4  UNL     1      -8.560  -1.141   0.781  1.00  0.00     0.000 C 
BRANCH  24  25
HETATM   25  C3  UNL     1      -9.099  -0.263  -0.280  1.00  0.00    -0.000 C 
BRANCH  25  26
HETATM   26  C2  UNL     1     -10.571  -0.549  -0.576  1.00  0.00    -0.005 C 
HETATM   27  C1  UNL     1     -10.953   0.432  -1.678  1.00  0.00     0.005 C 
ENDBRANCH  25  26
ENDBRANCH  24  25
ENDBRANCH  23  24
ENDBRANCH  22  23
ENDBRANCH  21  22
ENDBRANCH  20  21
ENDBRANCH  17  20
ENDBRANCH  13  17
ENDBRANCH   1  12
BRANCH  10  28
HETATM   28  C16 UNL     1       5.408   1.582   1.479  1.00  0.00     0.077 C 
BRANCH  28  29
HETATM   29  C17 UNL     1       6.001   1.049   2.763  1.00  0.00     0.088 C 
BRANCH  29  30
HETATM   30  S2  UNL     1       7.539   1.960   3.052  1.00  0.00    -0.104 SA
BRANCH  30  31
HETATM   31  C18 UNL     1       8.740   1.499   1.780  1.00  0.00     0.113 A 
HETATM   32  N5  UNL     1       8.627   0.658   0.782  1.00  0.00    -0.334 N 
HETATM   33  C19 UNL     1       9.626   0.463  -0.026  1.00  0.00     0.163 A 
ATOM     34  H5  UNL     1       7.752   0.154   0.639  1.00  0.00     0.168 HD
HETATM   35  C20 UNL     1      10.778   1.168   0.217  1.00  0.00     0.027 A 
HETATM   36  S4  UNL     1       9.712  -0.622  -1.433  1.00  0.00     0.275 S 
HETATM   37  S3  UNL     1      10.347   2.069   1.596  1.00  0.00    -0.067 SA
HETATM   38  C21 UNL     1      11.950   0.950  -0.699  1.00  0.00     0.069 C 
HETATM   39  C22 UNL     1      12.229  -0.563  -0.740  1.00  0.00     0.137 C 
HETATM   40  N6  UNL     1      11.295  -1.265  -1.581  1.00  0.00    -0.314 N 
ATOM     41  H6  UNL     1      11.543  -2.046  -2.188  1.00  0.00     0.172 HD
HETATM   42  O4  UNL     1       9.350   0.151  -2.693  1.00  0.00    -0.199 OA
HETATM   43  O5  UNL     1       8.716  -1.755  -1.270  1.00  0.00    -0.199 OA
ENDBRANCH  30  31
ENDBRANCH  29  30
ENDBRANCH  28  29
ENDBRANCH  10  28
TORSDOF 13
