REMARK  12 active torsions:
REMARK  status: ('A' for Active; 'I' for Inactive)
REMARK    1  A    between atoms: C2_2  and  C3_4 
REMARK    2  A    between atoms: C3_4  and  N1_5 
REMARK    3  A    between atoms: N1_5  and  C4_7 
REMARK    4  A    between atoms: C4_7  and  C5_8 
REMARK    5  A    between atoms: C5_8  and  S1_9 
REMARK    6  A    between atoms: S1_9  and  C6_10 
REMARK    7  A    between atoms: C14_18  and  C15_19 
REMARK    8  A    between atoms: C15_19  and  C16_20 
REMARK    9  A    between atoms: C16_20  and  C17_21 
REMARK   10  A    between atoms: C17_21  and  N2_22 
REMARK   11  A    between atoms: N2_22  and  C18_24 
REMARK   12  A    between atoms: C18_24  and  C19_25 
ROOT
HETATM    1  C3  UNL     1       1.541  -0.328   0.557  1.00  0.00     0.086 C 
HETATM    2  C12 UNL     1       0.424  -0.084   1.566  1.00  0.00     0.039 C 
HETATM    3  C13 UNL     1      -0.878  -0.027   0.860  1.00  0.00     0.007 C 
HETATM    4  C14 UNL     1      -0.580  -0.072  -0.598  1.00  0.00    -0.011 C 
HETATM    5  C25 UNL     1       0.835  -0.577  -0.724  1.00  0.00     0.043 C 
ENDROOT
BRANCH   1   6
HETATM    6  C2  UNL     1       2.273  -1.580   0.969  1.00  0.00     0.150 C 
HETATM    7  C1  UNL     1       1.628  -2.905   0.874  1.00  0.00     0.093 C 
HETATM    8  O1  UNL     1       3.393  -1.487   1.377  1.00  0.00    -0.296 OA
ENDBRANCH   1   6
BRANCH   1   9
HETATM    9  N1  UNL     1       2.355   0.840   0.566  1.00  0.00    -0.406 N 
ATOM     10  H1  UNL     1       2.161   1.614   1.202  1.00  0.00     0.154 HD
BRANCH   9  11
HETATM   11  C4  UNL     1       3.447   0.890  -0.341  1.00  0.00     0.125 C 
BRANCH  11  12
HETATM   12  C5  UNL     1       4.099   2.268  -0.177  1.00  0.00     0.093 C 
BRANCH  12  13
HETATM   13  S1  UNL     1       5.512   2.541  -1.202  1.00  0.00    -0.163 SA
BRANCH  13  14
HETATM   14  C6  UNL     1       6.998   1.668  -0.854  1.00  0.00     0.047 C 
HETATM   15  C7  UNL     1       7.673   2.032   0.438  1.00  0.00     0.015 C 
HETATM   16  C8  UNL     1       8.198   0.899   1.233  1.00  0.00     0.001 C 
HETATM   17  C9  UNL     1       8.790  -0.233   0.471  1.00  0.00     0.000 C 
HETATM   18  C10 UNL     1       8.346  -0.320  -0.972  1.00  0.00     0.001 C 
HETATM   19  C11 UNL     1       6.877   0.165  -0.957  1.00  0.00     0.015 C 
ENDBRANCH  13  14
ENDBRANCH  12  13
ENDBRANCH  11  12
ENDBRANCH   9  11
ENDBRANCH   1   9
BRANCH   4  20
HETATM   20  C15 UNL     1      -1.558  -1.071  -1.232  1.00  0.00     0.010 C 
BRANCH  20  21
HETATM   21  C16 UNL     1      -3.002  -0.570  -0.981  1.00  0.00     0.045 C 
BRANCH  21  22
HETATM   22  C17 UNL     1      -3.900  -1.577  -1.604  1.00  0.00     0.060 C 
BRANCH  22  23
HETATM   23  N2  UNL     1      -5.258  -1.413  -1.606  1.00  0.00    -0.382 N 
ATOM     24  H2  UNL     1      -5.664  -1.219  -2.521  1.00  0.00     0.164 HD
BRANCH  23  25
HETATM   25  C18 UNL     1      -6.161  -1.467  -0.575  1.00  0.00     0.064 C 
BRANCH  25  26
HETATM   26  C19 UNL     1      -6.115  -0.309   0.393  1.00  0.00     0.024 C 
HETATM   27  C20 UNL     1      -7.203  -0.525   1.454  1.00  0.00     0.010 C 
HETATM   28  C21 UNL     1      -7.751   0.827   1.832  1.00  0.00     0.001 C 
HETATM   29  C22 UNL     1      -8.598   1.308   0.648  1.00  0.00     0.000 C 
HETATM   30  C23 UNL     1      -7.830   1.204  -0.633  1.00  0.00     0.001 C 
HETATM   31  C24 UNL     1      -6.353   0.984  -0.330  1.00  0.00     0.010 C 
ENDBRANCH  25  26
ENDBRANCH  23  25
ENDBRANCH  22  23
ENDBRANCH  21  22
ENDBRANCH  20  21
ENDBRANCH   4  20
TORSDOF 12
