REMARK  4 active torsions:
REMARK  status: ('A' for Active; 'I' for Inactive)
REMARK    1  A    between atoms: C2_2  and  C3_3 
REMARK    2  A    between atoms: C3_3  and  N1_4 
REMARK    3  A    between atoms: C7_8  and  C8_9 
REMARK    4  A    between atoms: C12_18  and  O1_19 
ROOT
HETATM    1  N1  UNL     1      -0.907  -0.607   0.434  1.00  0.00    -0.331 N 
HETATM    2  C4  UNL     1      -0.496  -1.086  -0.749  1.00  0.00     0.011 A 
HETATM    3  C5  UNL     1      -1.251  -1.919  -1.754  1.00  0.00     0.068 C 
HETATM    4  C6  UNL     1       0.813  -0.711  -0.963  1.00  0.00     0.041 A 
HETATM    5  C7  UNL     1       1.232   0.025   0.124  1.00  0.00     0.033 A 
HETATM    6  C12 UNL     1       0.148   0.070   0.965  1.00  0.00     0.154 A 
ENDROOT
BRANCH   5   7
HETATM    7  C8  UNL     1       2.542   0.629   0.339  1.00  0.00     0.060 A 
HETATM    8  C9  UNL     1       3.647   0.076   0.949  1.00  0.00     0.120 A 
HETATM    9 CL1  UNL     1       3.690  -1.537   1.615  1.00  0.00    -0.063 Cl
HETATM   10  N2  UNL     1       4.680   0.957   0.955  1.00  0.00    -0.320 N 
HETATM   11  C10 UNL     1       4.264   2.085   0.355  1.00  0.00     0.229 A 
ATOM     12  H2  UNL     1       5.608   0.792   1.346  1.00  0.00     0.169 HD
HETATM   13  F1  UNL     1       4.976   3.215   0.148  1.00  0.00    -0.183 F 
HETATM   14  C11 UNL     1       2.942   1.897  -0.032  1.00  0.00     0.186 A 
HETATM   15  F2  UNL     1       2.168   2.810  -0.671  1.00  0.00    -0.200 F 
ENDBRANCH   5   7
BRANCH   6  16
HETATM   16  O1  UNL     1       0.117   0.704   2.175  1.00  0.00    -0.345 OA
ATOM     17  H1  UNL     1       0.853   1.176   2.546  1.00  0.00     0.219 HD
ENDBRANCH   6  16
BRANCH   1  18
HETATM   18  C3  UNL     1      -2.208  -0.798   0.958  1.00  0.00     0.131 C 
BRANCH  18  19
HETATM   19  C2  UNL     1      -3.259   0.181   0.722  1.00  0.00     0.016 C 
HETATM   20  C1  UNL     1      -3.565   0.389  -0.738  1.00  0.00     0.006 C 
ENDBRANCH  18  19
ENDBRANCH   1  18
TORSDOF 4
