REMARK  3 active torsions:
REMARK  status: ('A' for Active; 'I' for Inactive)
REMARK    1  A    between atoms: C8_9  and  C9_10 
REMARK    2  A    between atoms: C9_10  and  C10_11 
REMARK    3  A    between atoms: C10_11  and  C11_12 
ROOT
HETATM    1  C1  UNL     1       3.937   1.561   0.820  1.00  0.00     0.050 C 
HETATM    2  C2  UNL     1       2.609   1.011   0.421  1.00  0.00    -0.038 A 
HETATM    3  C3  UNL     1       2.460  -0.352   0.386  1.00  0.00     0.038 A 
HETATM    4  C4  UNL     1       1.231  -0.918   0.017  1.00  0.00     0.044 A 
HETATM    5  C5  UNL     1       0.132  -0.125  -0.320  1.00  0.00    -0.000 A 
HETATM    6  C6  UNL     1       0.324   1.231  -0.274  1.00  0.00     0.036 A 
HETATM    7  C7  UNL     1       1.546   1.819   0.091  1.00  0.00     0.040 A 
HETATM    8 CL1  UNL     1       1.748   3.541   0.137  1.00  0.00    -0.084 Cl
HETATM    9  C8  UNL     1      -1.173  -0.748  -0.637  1.00  0.00     0.167 C 
HETATM   10  O1  UNL     1      -1.093  -2.130  -0.902  1.00  0.00    -0.312 OA
HETATM   11  C12 UNL     1      -0.033  -2.931  -0.563  1.00  0.00     0.218 C 
HETATM   12  N1  UNL     1      -0.095  -4.232  -0.659  1.00  0.00    -0.365 N 
ATOM     13  H11 UNL     1       0.694  -4.828  -0.407  1.00  0.00     0.159 HD
ATOM     14  H12 UNL     1      -0.954  -4.668  -0.995  1.00  0.00     0.159 HD
HETATM   15  N2  UNL     1       1.157  -2.327  -0.097  1.00  0.00    -0.322 N 
ATOM     16  H2  UNL     1       1.959  -2.904   0.156  1.00  0.00     0.169 HD
ENDROOT
BRANCH   9  17
HETATM   17  C9  UNL     1      -2.215  -0.595   0.424  1.00  0.00     0.043 C 
BRANCH  17  18
HETATM   18  C10 UNL     1      -2.683   0.745   0.788  1.00  0.00     0.074 C 
BRANCH  18  19
HETATM   19  C11 UNL     1      -3.390   1.502  -0.317  1.00  0.00     0.353 C 
HETATM   20  F1  UNL     1      -4.516   0.812  -0.746  1.00  0.00    -0.214 F 
HETATM   21  F2  UNL     1      -3.863   2.684   0.252  1.00  0.00    -0.214 F 
ENDBRANCH  18  19
ENDBRANCH  17  18
ENDBRANCH   9  17
TORSDOF 3
