REMARK  4 active torsions:
REMARK  status: ('A' for Active; 'I' for Inactive)
REMARK    1  A    between atoms: C3_3  and  C4_4 
REMARK    2  A    between atoms: C7_11  and  N3_12 
REMARK    3  A    between atoms: N3_12  and  C8_14 
REMARK    4  A    between atoms: C11_17  and  C12_18 
ROOT
HETATM    1  N3  UNL     1      -0.470  -1.093   1.093  1.00  0.00    -0.340 N 
ATOM      2  H3  UNL     1      -0.672  -1.710   1.879  1.00  0.00     0.167 HD
ENDROOT
BRANCH   1   3
HETATM    3  C7  UNL     1      -1.423  -0.498   0.436  1.00  0.00     0.128 A 
HETATM    4  C2  UNL     1      -2.801  -0.586   0.696  1.00  0.00     0.012 A 
HETATM    5  C1  UNL     1      -3.336  -1.410   1.804  1.00  0.00     0.055 C 
HETATM    6  C3  UNL     1      -3.459   0.230  -0.155  1.00  0.00     0.059 A 
HETATM    7  N1  UNL     1      -2.477   0.822  -0.942  1.00  0.00    -0.298 N 
HETATM    8  N2  UNL     1      -1.292   0.347  -0.546  1.00  0.00    -0.285 N 
ATOM      9  H1  UNL     1      -2.633   1.499  -1.689  1.00  0.00     0.187 HD
ATOM     10  H2  UNL     1      -0.399   0.613  -0.960  1.00  0.00     0.188 HD
BRANCH   6  11
HETATM   11  C4  UNL     1      -4.901   0.446  -0.394  1.00  0.00    -0.059 C 
HETATM   12  C5  UNL     1      -5.127   1.980  -0.165  1.00  0.00     0.045 C 
HETATM   13  C6  UNL     1      -5.907  -0.422   0.092  1.00  0.00     0.045 C 
ENDBRANCH   6  11
ENDBRANCH   1   3
BRANCH   1  14
HETATM   14  C8  UNL     1       0.897  -0.840   0.658  1.00  0.00     0.049 A 
HETATM   15  C9  UNL     1       1.278   0.500   0.568  1.00  0.00     0.033 A 
HETATM   16  C10 UNL     1       2.547   0.798   0.151  1.00  0.00     0.027 A 
HETATM   17  C11 UNL     1       3.452  -0.229  -0.182  1.00  0.00     0.016 A 
HETATM   18  N4  UNL     1       3.073  -1.491  -0.083  1.00  0.00    -0.367 N 
HETATM   19  C16 UNL     1       1.784  -1.810   0.342  1.00  0.00     0.117 A 
ATOM     20  H4  UNL     1       3.728  -2.237  -0.319  1.00  0.00     0.165 HD
BRANCH  17  21
HETATM   21  C12 UNL     1       4.749   0.211  -0.640  1.00  0.00     0.069 C 
HETATM   22  C13 UNL     1       5.784   0.509   0.489  1.00  0.00     0.016 C 
HETATM   23  C14 UNL     1       6.828   0.190  -0.575  1.00  0.00     0.039 C 
HETATM   24  C15 UNL     1       5.756  -0.763  -1.163  1.00  0.00     0.180 C 
HETATM   25  F1  UNL     1       5.854  -1.934  -0.440  1.00  0.00    -0.249 F 
ENDBRANCH  17  21
ENDBRANCH   1  14
TORSDOF 4
