REMARK  4 active torsions:
REMARK  status: ('A' for Active; 'I' for Inactive)
REMARK       I    between atoms: C1_2  and  N1_3 
REMARK    1  A    between atoms: C1_2  and  C7_15 
REMARK    2  A    between atoms: N1_3  and  N2_5 
REMARK    3  A    between atoms: N2_5  and  C2_6 
REMARK    4  A    between atoms: C2_6  and  C3_7 
ROOT
HETATM    1  O1  UNL     1      -0.095   1.586  -1.100  1.00  0.00    -0.267 OA
HETATM    2  C1  UNL     1      -0.601   0.657  -0.368  1.00  0.00     0.262 C 
HETATM    3  N1  UNL     1       0.295   0.043   0.514  1.00  0.00    -0.270 N 
ATOM      4  H1  UNL     1      -0.057  -0.701   1.116  1.00  0.00     0.185 HD
ENDROOT
BRANCH   3   5
HETATM    5  N2  UNL     1       1.648   0.391   0.619  1.00  0.00    -0.133 NA
BRANCH   5   6
HETATM    6  C2  UNL     1       2.434  -0.704   0.088  1.00  0.00     0.183 C 
BRANCH   6   7
HETATM    7  C3  UNL     1       3.872  -0.265   0.237  1.00  0.00     0.024 A 
HETATM    8  S1  UNL     1       4.499   1.179   0.882  1.00  0.00    -0.078 SA
HETATM    9  C4  UNL     1       6.159   0.874   0.681  1.00  0.00     0.098 A 
HETATM   10 CL1  UNL     1       7.517   1.928   1.120  1.00  0.00    -0.074 Cl
HETATM   11  C5  UNL     1       6.184  -0.368   0.107  1.00  0.00     0.085 A 
HETATM   12 CL2  UNL     1       7.765  -1.109  -0.294  1.00  0.00    -0.080 Cl
HETATM   13  C6  UNL     1       4.996  -0.960  -0.125  1.00  0.00     0.072 A 
HETATM   14 CL3  UNL     1       4.861  -2.584  -0.872  1.00  0.00    -0.081 Cl
ENDBRANCH   6   7
ENDBRANCH   5   6
ENDBRANCH   3   5
BRANCH   2  15
HETATM   15  C7  UNL     1      -2.010   0.337  -0.516  1.00  0.00     0.007 C 
HETATM   16  C8  UNL     1      -2.754   0.994  -1.394  1.00  0.00    -0.014 C 
HETATM   17  C9  UNL     1      -4.176   0.634  -1.507  1.00  0.00     0.028 C 
HETATM   18  C10 UNL     1      -4.829   0.428  -0.160  1.00  0.00     0.004 C 
HETATM   19  C11 UNL     1      -4.023  -0.389   0.777  1.00  0.00     0.005 C 
HETATM   20  C12 UNL     1      -2.628  -0.703   0.290  1.00  0.00     0.044 C 
ENDBRANCH   2  15
TORSDOF 4
