REMARK  5 active torsions:
REMARK  status: ('A' for Active; 'I' for Inactive)
REMARK    1  A    between atoms: N1_2  and  C2_3 
REMARK    2  A    between atoms: C2_3  and  C3_4 
REMARK    3  A    between atoms: C3_4  and  N2_5 
REMARK    4  A    between atoms: C8_13  and  C9_14 
REMARK    5  A    between atoms: C9_14  and  N3_15 
ROOT
HETATM    1  C1  UNL     1       0.184   0.353  -1.739  1.00  0.00     0.273 C 
HETATM    2  N1  UNL     1       0.139  -0.107  -0.340  1.00  0.00    -0.064 N 
HETATM    3  C4  UNL     1       0.017  -1.536  -0.399  1.00  0.00     0.237 C 
HETATM    4  C5  UNL     1      -1.362  -1.978  -0.864  1.00  0.00     0.028 C 
HETATM    5  C6  UNL     1      -2.283  -1.556   0.293  1.00  0.00     0.004 C 
HETATM    6  C7  UNL     1      -2.261  -0.055   0.240  1.00  0.00     0.035 C 
HETATM    7  C8  UNL     1      -0.897   0.560   0.367  1.00  0.00     0.215 C 
ENDROOT
BRANCH   2   8
HETATM    8  C2  UNL     1       1.411   0.267   0.234  1.00  0.00     0.264 C 
BRANCH   8   9
HETATM    9  C3  UNL     1       2.408  -0.840   0.356  1.00  0.00     0.257 C 
BRANCH   9  10
HETATM   10  N2  UNL     1       3.601  -0.317   0.929  1.00  0.00    -0.078 N 
ATOM     11  H23 UNL     1       3.966   0.482   0.410  1.00  0.00     0.274 HD
ATOM     12  H22 UNL     1       3.433   0.157   1.817  1.00  0.00     0.274 HD
ATOM     13  H21 UNL     1       4.281  -1.072   1.012  1.00  0.00     0.274 HD
ENDBRANCH   9  10
ENDBRANCH   8   9
ENDBRANCH   2   8
BRANCH   7  14
HETATM   14  C9  UNL     1      -1.061   2.017  -0.021  1.00  0.00     0.263 C 
BRANCH  14  15
HETATM   15  N3  UNL     1       0.121   2.794   0.219  1.00  0.00    -0.077 N 
ATOM     16  H33 UNL     1       0.425   2.707   1.189  1.00  0.00     0.274 HD
ATOM     17  H32 UNL     1       0.930   2.381  -0.246  1.00  0.00     0.274 HD
ATOM     18  H31 UNL     1       0.011   3.774  -0.042  1.00  0.00     0.274 HD
ENDBRANCH  14  15
ENDBRANCH   7  14
TORSDOF 5
