REMARK  12 active torsions:
REMARK  status: ('A' for Active; 'I' for Inactive)
REMARK    1  A    between atoms: C7_7  and  O1_8 
REMARK    2  A    between atoms: N1_11  and  C9_12 
REMARK    3  A    between atoms: C16_20  and  C17_21 
REMARK    4  A    between atoms: C17_21  and  C18_22 
REMARK    5  A    between atoms: C19_24  and  C20_25 
REMARK    6  A    between atoms: C22_27  and  C23_28 
REMARK    7  A    between atoms: C23_28  and  O4_29 
REMARK    8  A    between atoms: C23_28  and  C26_33 
REMARK    9  A    between atoms: O4_29  and  C24_30 
REMARK   10  A    between atoms: C24_30  and  C25_31 
REMARK   11  A    between atoms: C26_33  and  O5_34 
REMARK   12  A    between atoms: N2_36  and  O6_38 
ROOT
HETATM    1  C9  UNL     1      -1.696   0.731   0.019  1.00  0.00     0.038 A 
HETATM    2  C10 UNL     1      -0.773   1.244   0.876  1.00  0.00     0.032 A 
HETATM    3  C11 UNL     1       0.453   1.642   0.390  1.00  0.00     0.040 A 
HETATM    4  C12 UNL     1       0.816   1.552  -0.944  1.00  0.00     0.084 A 
HETATM    5  C13 UNL     1      -0.134   1.030  -1.795  1.00  0.00     0.048 A 
HETATM    6  C14 UNL     1      -1.370   0.623  -1.337  1.00  0.00     0.048 A 
HETATM    7  C15 UNL     1       0.501   1.049  -3.108  1.00  0.00     0.196 C 
HETATM    8  O2  UNL     1      -0.054   0.927  -4.218  1.00  0.00    -0.289 OA
HETATM    9  C16 UNL     1       1.956   1.243  -2.874  1.00  0.00     0.239 C 
HETATM   10  O7  UNL     1       1.976   1.890  -1.627  1.00  0.00    -0.332 OA
ENDROOT
BRANCH   9  11
HETATM   11  C17 UNL     1       2.519  -0.150  -2.649  1.00  0.00     0.015 C 
HETATM   12  C19 UNL     1       3.122  -0.427  -1.528  1.00  0.00     0.019 C 
BRANCH  11  13
HETATM   13  C18 UNL     1       2.354  -1.112  -3.714  1.00  0.00     0.268 C 
HETATM   14  O3  UNL     1       2.751  -2.283  -3.696  1.00  0.00    -0.302 OA
ENDBRANCH  11  13
BRANCH  12  15
HETATM   15  C20 UNL     1       3.694  -1.757  -1.237  1.00  0.00     0.212 C 
HETATM   16  C21 UNL     1       5.069  -1.908  -1.811  1.00  0.00     0.073 C 
HETATM   17  C22 UNL     1       5.678  -1.790  -0.432  1.00  0.00     0.225 C 
HETATM   18  N3  UNL     1       4.315  -1.825   0.093  1.00  0.00    -0.060 N 
ATOM     19  H32 UNL     1       4.046  -1.130   0.789  1.00  0.00     0.278 HD
ATOM     20  H31 UNL     1       4.054  -2.593   0.711  1.00  0.00     0.278 HD
BRANCH  17  21
HETATM   21  C23 UNL     1       6.295  -0.474  -0.091  1.00  0.00     0.228 C 
BRANCH  21  22
HETATM   22  O4  UNL     1       6.326  -0.259   1.296  1.00  0.00    -0.373 OA
BRANCH  22  23
HETATM   23  C24 UNL     1       5.531   0.791   1.681  1.00  0.00     0.200 C 
BRANCH  23  24
HETATM   24  C25 UNL     1       5.565   1.021   3.167  1.00  0.00     0.248 C 
HETATM   25  F1  UNL     1       5.110  -0.135   3.816  1.00  0.00    -0.253 F 
ENDBRANCH  23  24
ENDBRANCH  22  23
ENDBRANCH  21  22
BRANCH  21  26
HETATM   26  C26 UNL     1       7.595  -0.207  -0.708  1.00  0.00     0.167 C 
HETATM   27  N2  UNL     1       8.248  -1.027  -1.379  1.00  0.00    -0.249 N 
ATOM     28  H2  UNL     1       9.127  -0.636  -1.717  1.00  0.00     0.196 HD
BRANCH  26  29
HETATM   29  O5  UNL     1       8.128   1.075  -0.514  1.00  0.00    -0.346 OA
ATOM     30  H5  UNL     1       8.972   1.248  -0.914  1.00  0.00     0.219 HD
ENDBRANCH  26  29
BRANCH  27  31
HETATM   31  O6  UNL     1       8.077  -2.287  -1.761  1.00  0.00    -0.288 OA
ATOM     32  H6  UNL     1       8.575  -2.913  -2.273  1.00  0.00     0.244 HD
ENDBRANCH  27  31
ENDBRANCH  21  26
ENDBRANCH  17  21
ENDBRANCH  12  15
ENDBRANCH   9  11
BRANCH   1  33
HETATM   33  N1  UNL     1      -2.970   0.306   0.464  1.00  0.00    -0.315 N 
HETATM   34  C8  UNL     1      -3.129  -1.059   0.870  1.00  0.00     0.164 C 
HETATM   35  C7  UNL     1      -4.302  -1.134   1.831  1.00  0.00     0.141 C 
HETATM   36  C6  UNL     1      -5.592  -0.712   1.162  1.00  0.00     0.029 C 
HETATM   37  C5  UNL     1      -6.658  -0.692   2.226  1.00  0.00     0.008 C 
HETATM   38  C28 UNL     1      -5.442   0.569   0.412  1.00  0.00     0.088 C 
HETATM   39  C4  UNL     1      -7.966  -0.265   1.645  1.00  0.00     0.001 C 
HETATM   40  C3  UNL     1      -7.852   0.862   0.654  1.00  0.00     0.005 C 
HETATM   41  C2  UNL     1      -6.532   1.571   0.721  1.00  0.00    -0.005 C 
HETATM   42  C1  UNL     1      -6.337   2.296   2.007  1.00  0.00     0.011 C 
HETATM   43  C27 UNL     1      -4.094   1.173   0.526  1.00  0.00     0.229 C 
HETATM   44  O8  UNL     1      -3.885   2.414   0.675  1.00  0.00    -0.273 OA
BRANCH  35  45
HETATM   45  O1  UNL     1      -4.367  -2.457   2.269  1.00  0.00    -0.394 OA
ATOM     46  H1  UNL     1      -3.557  -2.722   2.689  1.00  0.00     0.210 HD
ENDBRANCH  35  45
ENDBRANCH   1  33
TORSDOF 12
