REMARK  12 active torsions:
REMARK  status: ('A' for Active; 'I' for Inactive)
REMARK    1  A    between atoms: C2_2  and  N1_4 
REMARK    2  A    between atoms: N1_4  and  C4_6 
REMARK    3  A    between atoms: C6_10  and  C7_11 
REMARK    4  A    between atoms: C7_11  and  C8_12 
REMARK    5  A    between atoms: C8_12  and  N3_13 
REMARK    6  A    between atoms: N3_13  and  C9_15 
REMARK    7  A    between atoms: C9_15  and  C10_16 
REMARK    8  A    between atoms: C13_19  and  C14_20 
REMARK    9  A    between atoms: C14_20  and  N4_21 
REMARK   10  A    between atoms: N4_21  and  C15_23 
REMARK   11  A    between atoms: C18_29  and  N7_30 
REMARK   12  A    between atoms: N7_30  and  C19_32 
ROOT
HETATM    1  C14 UNL     1      -0.852  -0.271  -0.972  1.00  0.00     0.126 C 
ENDROOT
BRANCH   1   2
HETATM    2  C13 UNL     1       0.692  -0.194  -1.136  1.00  0.00     0.003 C 
HETATM    3  C12 UNL     1       1.253  -0.635   0.158  1.00  0.00     0.007 C 
HETATM    4  C11 UNL     1       2.603  -0.060   0.539  1.00  0.00     0.007 C 
HETATM    5  C10 UNL     1       2.533   1.429   0.230  1.00  0.00     0.003 C 
HETATM    6  C27 UNL     1       2.398   1.648  -1.243  1.00  0.00     0.007 C 
HETATM    7  C26 UNL     1       0.981   1.175  -1.619  1.00  0.00     0.007 C 
BRANCH   5   8
HETATM    8  C9  UNL     1       3.503   2.266   0.927  1.00  0.00     0.118 C 
BRANCH   8   9
HETATM    9  N3  UNL     1       4.896   2.085   0.772  1.00  0.00    -0.420 N 
ATOM     10  H3  UNL     1       5.463   1.712   1.533  1.00  0.00     0.153 HD
BRANCH   9  11
HETATM   11  C8  UNL     1       5.489   2.439  -0.479  1.00  0.00     0.119 C 
BRANCH  11  12
HETATM   12  C7  UNL     1       6.975   2.383  -0.450  1.00  0.00     0.067 C 
BRANCH  12  13
HETATM   13  C6  UNL     1       7.485   1.025  -0.140  1.00  0.00     0.003 A 
HETATM   14  C5  UNL     1       6.859  -0.169   0.073  1.00  0.00     0.105 A 
HETATM   15  N2  UNL     1       7.577  -1.218   0.332  1.00  0.00    -0.346 N 
HETATM   16  C4  UNL     1       8.902  -1.095   0.383  1.00  0.00     0.145 A 
ATOM     17  H2  UNL     1       7.134  -2.122   0.494  1.00  0.00     0.167 HD
HETATM   18  S1  UNL     1       9.147   0.558   0.052  1.00  0.00    -0.057 SA
BRANCH  16  19
HETATM   19  N1  UNL     1       9.778  -2.045   0.629  1.00  0.00    -0.367 N 
ATOM     20  H1  UNL     1       9.490  -3.007   0.811  1.00  0.00     0.162 HD
BRANCH  19  21
HETATM   21  C2  UNL     1      11.164  -1.656   0.628  1.00  0.00     0.075 C 
HETATM   22  C1  UNL     1      12.062  -2.847   0.930  1.00  0.00     0.032 C 
HETATM   23  C3  UNL     1      11.528  -0.999  -0.666  1.00  0.00     0.032 C 
ENDBRANCH  19  21
ENDBRANCH  16  19
ENDBRANCH  12  13
ENDBRANCH  11  12
ENDBRANCH   9  11
ENDBRANCH   8   9
ENDBRANCH   5   8
ENDBRANCH   1   2
BRANCH   1  24
HETATM   24  N4  UNL     1      -1.264   0.586   0.096  1.00  0.00    -0.376 N 
ATOM     25  H4  UNL     1      -0.538   1.164   0.520  1.00  0.00     0.161 HD
BRANCH  24  26
HETATM   26  C15 UNL     1      -2.443   0.707   0.578  1.00  0.00     0.118 A 
HETATM   27  C16 UNL     1      -2.623   1.607   1.628  1.00  0.00     0.068 A 
HETATM   28  C17 UNL     1      -3.859   1.785   2.202  1.00  0.00     0.139 A 
HETATM   29  N5  UNL     1      -4.944   1.088   1.762  1.00  0.00    -0.083 N 
HETATM   30  N6  UNL     1      -6.205   1.068   2.135  1.00  0.00    -0.111 N 
HETATM   31  C25 UNL     1      -4.740   0.236   0.757  1.00  0.00     0.719 A 
HETATM   32  C18 UNL     1      -6.888   0.162   1.348  1.00  0.00     0.708 A 
ATOM     33  H6  UNL     1      -6.612   1.630   2.883  1.00  0.00     0.207 HD
HETATM   34  N9  UNL     1      -5.964  -0.324   0.521  1.00  0.00    -0.019 N 
ATOM     35  H9  UNL     1      -6.147  -1.025  -0.197  1.00  0.00     0.203 HD
HETATM   36  N10 UNL     1      -3.530   0.035   0.165  1.00  0.00    -0.175 N 
ATOM     37  H10 UNL     1      -3.448  -0.634  -0.601  1.00  0.00     0.186 HD
BRANCH  32  38
HETATM   38  N7  UNL     1      -8.105  -0.031   1.531  1.00  0.00    -0.220 N 
ATOM     39  H7  UNL     1      -8.422   0.563   2.298  1.00  0.00     0.178 HD
BRANCH  38  40
HETATM   40  C19 UNL     1      -9.167  -0.758   1.067  1.00  0.00     0.102 C 
HETATM   41  C20 UNL     1      -8.964  -2.081   0.417  1.00  0.00     0.056 C 
HETATM   42  C21 UNL     1      -9.465  -2.109  -1.016  1.00  0.00     0.274 C 
HETATM   43  N8  UNL     1     -10.890  -1.848  -1.079  1.00  0.00     0.084 N 
HETATM   44  C22 UNL     1     -11.173  -1.211  -2.344  1.00  0.00     0.309 C 
HETATM   45  C23 UNL     1     -11.315  -0.937  -0.034  1.00  0.00     0.274 C 
HETATM   46  C24 UNL     1     -10.138   0.024   0.172  1.00  0.00     0.056 C 
ENDBRANCH  38  40
ENDBRANCH  32  38
ENDBRANCH  24  26
ENDBRANCH   1  24
TORSDOF 12
