REMARK  12 active torsions:
REMARK  status: ('A' for Active; 'I' for Inactive)
REMARK    1  A    between atoms: C3_3  and  C4_4 
REMARK    2  A    between atoms: C7_8  and  N1_9 
REMARK    3  A    between atoms: N1_9  and  C8_10 
REMARK    4  A    between atoms: N3_13  and  C9_14 
REMARK    5  A    between atoms: C12_17  and  N4_18 
REMARK    6  A    between atoms: N4_18  and  C13_21 
REMARK    7  A    between atoms: C13_21  and  C14_22 
REMARK    8  A    between atoms: C14_22  and  O1_23 
REMARK    9  A    between atoms: C20_30  and  C21_31 
REMARK       I    between atoms: C21_31  and  N6_33 
REMARK   10  A    between atoms: N6_33  and  C22_35 
REMARK   11  A    between atoms: C25_38  and  N7_40 
REMARK   12  A    between atoms: C29_46  and  O3_47 
ROOT
HETATM    1  C1  UNL     1      -6.006   8.492   0.825  1.00  0.00     0.112 C 
HETATM    2  C2  UNL     1      -5.182   7.307   0.622  1.00  0.00    -0.105 C 
HETATM    3  C3  UNL     1      -4.518   6.339   0.448  1.00  0.00    -0.061 C 
ENDROOT
BRANCH   3   4
HETATM    4  C4  UNL     1      -3.731   5.147   0.227  1.00  0.00     0.089 A 
HETATM    5  C5  UNL     1      -4.135   4.207  -0.675  1.00  0.00     0.141 A 
HETATM    6  F1  UNL     1      -5.289   4.402  -1.383  1.00  0.00    -0.204 F 
HETATM    7  C6  UNL     1      -3.352   3.103  -0.825  1.00  0.00     0.088 A 
HETATM    8  C7  UNL     1      -2.184   2.863  -0.135  1.00  0.00     0.115 A 
HETATM    9  C28 UNL     1      -1.812   3.872   0.788  1.00  0.00     0.083 A 
HETATM   10  C29 UNL     1      -2.569   4.984   0.961  1.00  0.00     0.093 A 
BRANCH   8  11
HETATM   11  N1  UNL     1      -1.450   1.813  -0.265  1.00  0.00    -0.385 NA
BRANCH  11  12
HETATM   12  C8  UNL     1      -0.771   0.821  -0.390  1.00  0.00     0.211 A 
HETATM   13  N2  UNL     1       0.607   0.721  -0.293  1.00  0.00    -0.271 N 
HETATM   14  N3  UNL     1       1.006  -0.500  -0.445  1.00  0.00    -0.294 N 
ATOM     15  H2  UNL     1       1.229   1.511  -0.123  1.00  0.00     0.190 HD
HETATM   16  C19 UNL     1      -0.035  -1.295  -0.649  1.00  0.00     0.132 A 
HETATM   17  C20 UNL     1      -1.171  -0.496  -0.622  1.00  0.00     0.108 A 
BRANCH  14  18
HETATM   18  C9  UNL     1       2.396  -0.929  -0.422  1.00  0.00     0.125 C 
HETATM   19  C10 UNL     1       3.240   0.124   0.283  1.00  0.00     0.030 C 
HETATM   20  C11 UNL     1       4.692  -0.196   0.300  1.00  0.00     0.035 C 
HETATM   21  C12 UNL     1       5.247  -0.860  -0.909  1.00  0.00     0.187 C 
HETATM   22  C16 UNL     1       4.309  -1.840  -1.552  1.00  0.00     0.054 C 
HETATM   23  C17 UNL     1       2.971  -1.102  -1.787  1.00  0.00     0.119 C 
HETATM   24  C18 UNL     1       2.111  -1.849  -2.649  1.00  0.00     0.066 C 
HETATM   25  N5  UNL     1       1.433  -2.460  -3.372  1.00  0.00    -0.197 NA
BRANCH  21  26
HETATM   26  N4  UNL     1       6.484  -1.520  -0.592  1.00  0.00    -0.069 N 
ATOM     27  H42 UNL     1       6.370  -2.234   0.127  1.00  0.00     0.277 HD
ATOM     28  H41 UNL     1       6.805  -2.127  -1.346  1.00  0.00     0.277 HD
BRANCH  26  29
HETATM   29  C13 UNL     1       7.487  -0.506  -0.222  1.00  0.00     0.258 C 
BRANCH  29  30
HETATM   30  C14 UNL     1       8.773  -1.183   0.115  1.00  0.00     0.194 C 
BRANCH  30  31
HETATM   31  O1  UNL     1       9.768  -0.298   0.454  1.00  0.00    -0.394 OA
HETATM   32  C15 UNL     1       9.408   0.456   1.545  1.00  0.00     0.201 C 
ENDBRANCH  30  31
ENDBRANCH  29  30
ENDBRANCH  26  29
ENDBRANCH  21  26
ENDBRANCH  14  18
BRANCH  17  33
HETATM   33  C21 UNL     1      -2.507  -1.032  -0.844  1.00  0.00     0.258 C 
HETATM   34  O2  UNL     1      -3.321  -0.408  -1.540  1.00  0.00    -0.267 OA
HETATM   35  N6  UNL     1      -2.881  -2.269  -0.269  1.00  0.00    -0.352 N 
ATOM     36  H6  UNL     1      -2.219  -2.790   0.307  1.00  0.00     0.163 HD
BRANCH  35  37
HETATM   37  C22 UNL     1      -4.237  -2.800  -0.509  1.00  0.00     0.087 C 
HETATM   38  C23 UNL     1      -4.116  -3.913  -1.547  1.00  0.00     0.028 C 
HETATM   39  C24 UNL     1      -5.218  -4.869  -1.213  1.00  0.00     0.040 C 
HETATM   40  C25 UNL     1      -5.199  -4.845   0.304  1.00  0.00     0.122 C 
HETATM   41  C26 UNL     1      -4.172  -5.796   0.862  1.00  0.00     0.046 C 
HETATM   42  C27 UNL     1      -4.825  -3.428   0.692  1.00  0.00     0.063 C 
BRANCH  40  43
HETATM   43  N7  UNL     1      -6.501  -5.132   0.837  1.00  0.00    -0.071 N 
ATOM     44  H73 UNL     1      -7.210  -4.504   0.459  1.00  0.00     0.275 HD
ATOM     45  H72 UNL     1      -6.869  -6.013   0.479  1.00  0.00     0.275 HD
ATOM     46  H71 UNL     1      -6.488  -5.116   1.857  1.00  0.00     0.275 HD
ENDBRANCH  40  43
ENDBRANCH  35  37
ENDBRANCH  17  33
ENDBRANCH  11  12
ENDBRANCH   8  11
BRANCH  10  47
HETATM   47  O3  UNL     1      -2.229   6.003   1.864  1.00  0.00    -0.354 OA
HETATM   48  C30 UNL     1      -1.046   5.868   2.620  1.00  0.00     0.210 C 
ENDBRANCH  10  47
ENDBRANCH   3   4
TORSDOF 12
