REMARK  6 active torsions:
REMARK  status: ('A' for Active; 'I' for Inactive)
REMARK    1  A    between atoms: C3_3  and  C4_4 
REMARK    2  A    between atoms: C5_5  and  C6_6 
REMARK    3  A    between atoms: C6_6  and  N1_7 
REMARK    4  A    between atoms: C12_18  and  N4_19 
REMARK    5  A    between atoms: N4_19  and  C13_21 
REMARK    6  A    between atoms: C13_21  and  C16_24 
ROOT
HETATM    1  C1  UNL     1      -2.995  -4.817  -1.351  1.00  0.00     0.112 C 
HETATM    2  C2  UNL     1      -2.407  -3.537  -0.953  1.00  0.00    -0.105 C 
HETATM    3  C3  UNL     1      -1.937  -2.479  -0.612  1.00  0.00    -0.064 C 
ENDROOT
BRANCH   3   4
HETATM    4  C4  UNL     1      -1.400  -1.214  -0.199  1.00  0.00     0.057 A 
HETATM    5  C5  UNL     1      -2.105  -0.080   0.230  1.00  0.00     0.059 A 
HETATM    6  N2  UNL     1      -1.223   0.864   0.515  1.00  0.00    -0.342 N 
HETATM    7  C11 UNL     1       0.034   0.388   0.288  1.00  0.00     0.134 A 
ATOM      8  H2  UNL     1      -1.448   1.800   0.851  1.00  0.00     0.167 HD
HETATM    9  N3  UNL     1       1.257   0.910   0.409  1.00  0.00    -0.176 N 
HETATM   10  C19 UNL     1      -0.070  -0.908  -0.158  1.00  0.00     0.045 A 
HETATM   11  C12 UNL     1       2.385   0.235   0.119  1.00  0.00     0.680 A 
ATOM     12  H3  UNL     1       1.341   1.872   0.739  1.00  0.00     0.186 HD
HETATM   13  N5  UNL     1       2.274  -1.023  -0.313  1.00  0.00    -0.201 N 
HETATM   14  C18 UNL     1       1.053  -1.623  -0.462  1.00  0.00     0.123 A 
ATOM     15  H5  UNL     1       3.119  -1.549  -0.537  1.00  0.00     0.183 HD
BRANCH   5  16
HETATM   16  C6  UNL     1      -3.576  -0.090   0.308  1.00  0.00     0.331 C 
BRANCH  16  17
HETATM   17  N1  UNL     1      -4.143   1.157   0.754  1.00  0.00     0.098 N 
HETATM   18  C7  UNL     1      -3.889   2.238  -0.106  1.00  0.00     0.299 C 
HETATM   19  C8  UNL     1      -5.072   2.835  -0.801  1.00  0.00     0.198 C 
HETATM   20  O1  UNL     1      -6.294   2.512  -0.296  1.00  0.00    -0.388 OA
HETATM   21  C9  UNL     1      -6.425   1.174   0.059  1.00  0.00     0.198 C 
HETATM   22  C10 UNL     1      -5.469   0.952   1.216  1.00  0.00     0.299 C 
ENDBRANCH  16  17
ENDBRANCH   5  16
BRANCH  11  23
HETATM   23  N4  UNL     1       3.484   0.817   0.267  1.00  0.00    -0.217 N 
ATOM     24  H4  UNL     1       3.413   1.777   0.604  1.00  0.00     0.178 HD
BRANCH  23  25
HETATM   25  C13 UNL     1       4.824   0.364   0.043  1.00  0.00     0.039 C 
HETATM   26  C14 UNL     1       5.084  -0.065  -1.384  1.00  0.00     0.038 C 
HETATM   27  C15 UNL     1       5.107  -0.791   0.972  1.00  0.00     0.038 C 
BRANCH  25  28
HETATM   28  C16 UNL     1       5.732   1.542   0.388  1.00  0.00     0.026 C 
HETATM   29  C17 UNL     1       7.178   1.229   0.206  1.00  0.00     0.007 C 
ENDBRANCH  25  28
ENDBRANCH  23  25
ENDBRANCH  11  23
ENDBRANCH   3   4
TORSDOF 6
