REMARK  7 active torsions:
REMARK  status: ('A' for Active; 'I' for Inactive)
REMARK    1  A    between atoms: C2_2  and  C5_5 
REMARK    2  A    between atoms: C7_7  and  C8_8 
REMARK    3  A    between atoms: C9_14  and  N2_15 
REMARK    4  A    between atoms: N2_15  and  N3_17 
REMARK    5  A    between atoms: N3_17  and  C10_18 
REMARK    6  A    between atoms: C10_18  and  C11_19 
REMARK    7  A    between atoms: C14_23  and  C15_24 
ROOT
HETATM    1  C5  UNL     1      -4.206  -0.064   0.665  1.00  0.00     0.036 A 
HETATM    2  C6  UNL     1      -4.082   0.279  -0.663  1.00  0.00     0.056 A 
HETATM    3  C7  UNL     1      -2.839   0.535  -1.206  1.00  0.00     0.082 A 
HETATM    4  N1  UNL     1      -1.767   0.441  -0.409  1.00  0.00    -0.189 N 
ATOM      5  H1  UNL     1      -0.841   0.627  -0.794  1.00  0.00     0.184 HD
HETATM    6  C9  UNL     1      -1.884   0.107   0.887  1.00  0.00     0.707 A 
HETATM    7  N4  UNL     1      -3.087  -0.139   1.408  1.00  0.00    -0.193 N 
ATOM      8  H4  UNL     1      -3.160  -0.390   2.394  1.00  0.00     0.184 HD
ENDROOT
BRANCH   6   9
HETATM    9  N2  UNL     1      -0.788   0.021   1.630  1.00  0.00    -0.065 N 
ATOM     10  H2  UNL     1      -0.917  -0.237   2.608  1.00  0.00     0.221 HD
BRANCH   9  11
HETATM   11  N3  UNL     1       0.405   0.227   1.248  1.00  0.00    -0.323 NA
BRANCH  11  12
HETATM   12  C10 UNL     1       1.537   0.409   0.875  1.00  0.00     0.229 C 
BRANCH  12  13
HETATM   13  C11 UNL     1       2.155  -0.577  -0.075  1.00  0.00     0.046 A 
HETATM   14  S1  UNL     1       1.298  -1.842  -0.879  1.00  0.00    -0.099 SA
HETATM   15  C12 UNL     1       2.548  -2.401  -1.881  1.00  0.00     0.051 A 
HETATM   16  C13 UNL     1       3.593  -1.597  -1.565  1.00  0.00     0.020 A 
HETATM   17  C14 UNL     1       3.393  -0.635  -0.612  1.00  0.00    -0.010 A 
BRANCH  17  18
HETATM   18  C15 UNL     1       4.553   0.168  -0.128  1.00  0.00    -0.050 C 
HETATM   19  C16 UNL     1       4.676   0.692   1.054  1.00  0.00    -0.019 C 
HETATM   20  C17 UNL     1       5.945   1.477   1.325  1.00  0.00     0.028 C 
HETATM   21  C18 UNL     1       7.166   0.784   0.822  1.00  0.00     0.004 C 
HETATM   22  C19 UNL     1       6.933  -0.061  -0.412  1.00  0.00     0.005 C 
HETATM   23  C20 UNL     1       5.682   0.469  -1.080  1.00  0.00     0.039 C 
ENDBRANCH  17  18
ENDBRANCH  12  13
ENDBRANCH  11  12
ENDBRANCH   9  11
ENDBRANCH   6   9
BRANCH   3  24
HETATM   24  C8  UNL     1      -2.619   0.901  -2.624  1.00  0.00     0.231 C 
HETATM   25 CL1  UNL     1      -1.315   2.110  -2.818  1.00  0.00    -0.077 Cl
HETATM   26 CL2  UNL     1      -2.209  -0.551  -3.573  1.00  0.00    -0.077 Cl
HETATM   27 CL3  UNL     1      -4.118   1.606  -3.254  1.00  0.00    -0.077 Cl
ENDBRANCH   3  24
BRANCH   1  28
HETATM   28  C2  UNL     1      -5.555  -0.330   1.202  1.00  0.00    -0.008 C 
HETATM   29  C1  UNL     1      -5.511  -0.635   2.677  1.00  0.00     0.021 C 
HETATM   30  C3  UNL     1      -6.407   0.904   0.929  1.00  0.00     0.021 C 
HETATM   31  C4  UNL     1      -6.208  -1.509   0.515  1.00  0.00     0.021 C 
ENDBRANCH   1  28
TORSDOF 7
