REMARK  9 active torsions:
REMARK  status: ('A' for Active; 'I' for Inactive)
REMARK    1  A    between atoms: C2_2  and  O1_3 
REMARK    2  A    between atoms: C2_2  and  C3_5 
REMARK    3  A    between atoms: C12_16  and  C13_17 
REMARK    4  A    between atoms: C13_17  and  C15_19 
REMARK    5  A    between atoms: C15_19  and  C16_20 
REMARK    6  A    between atoms: C16_20  and  O3_21 
REMARK    7  A    between atoms: C16_20  and  C17_23 
REMARK    8  A    between atoms: C17_23  and  O4_24 
REMARK    9  A    between atoms: C17_23  and  N1_26 
ROOT
HETATM    1  C3  UNL     1      -2.209   1.307  -0.405  1.00  0.00     0.028 C 
HETATM    2  C4  UNL     1      -3.198   1.901   0.579  1.00  0.00     0.017 C 
HETATM    3  C5  UNL     1      -4.314   1.128   1.051  1.00  0.00     0.019 C 
HETATM    4  C6  UNL     1      -3.903   0.572   2.427  1.00  0.00     0.010 C 
HETATM    5  C7  UNL     1      -2.883  -0.464   2.301  1.00  0.00     0.016 C 
HETATM    6  C8  UNL     1      -2.421  -0.874   0.878  1.00  0.00     0.002 C 
HETATM    7  C9  UNL     1      -1.743  -2.179   1.254  1.00  0.00     0.061 C 
HETATM    8  C10 UNL     1      -0.880  -2.884   0.349  1.00  0.00     0.245 C 
HETATM    9  F1  UNL     1       0.198  -3.437   1.097  1.00  0.00    -0.241 F 
HETATM   10  C11 UNL     1      -0.464  -2.015  -0.718  1.00  0.00     0.190 C 
HETATM   11  O2  UNL     1      -0.052  -2.560  -1.758  1.00  0.00    -0.289 OA
HETATM   12  C12 UNL     1      -0.479  -0.488  -0.703  1.00  0.00     0.003 C 
HETATM   13  C22 UNL     1      -1.493   0.107   0.196  1.00  0.00     0.005 C 
HETATM   14  C23 UNL     1      -0.723   0.776   1.363  1.00  0.00     0.022 C 
HETATM   15  C24 UNL     1      -3.719  -1.115   0.206  1.00  0.00    -0.042 A 
HETATM   16  C25 UNL     1      -4.061  -2.240  -0.472  1.00  0.00     0.008 A 
HETATM   17  C26 UNL     1      -5.329  -2.353  -1.020  1.00  0.00     0.001 A 
HETATM   18  C27 UNL     1      -6.243  -1.343  -0.884  1.00  0.00     0.001 A 
HETATM   19  C28 UNL     1      -5.944  -0.183  -0.206  1.00  0.00     0.008 A 
HETATM   20  C29 UNL     1      -4.657  -0.120   0.323  1.00  0.00    -0.047 A 
ENDROOT
BRANCH  12  21
HETATM   21  C13 UNL     1       0.928  -0.103  -0.853  1.00  0.00    -0.070 C 
HETATM   22  C14 UNL     1       1.330   1.327  -0.897  1.00  0.00     0.044 C 
BRANCH  21  23
HETATM   23  C15 UNL     1       1.993  -0.930  -0.273  1.00  0.00     0.070 C 
BRANCH  23  24
HETATM   24  C16 UNL     1       3.422  -0.535  -0.419  1.00  0.00     0.181 C 
BRANCH  24  25
HETATM   25  O3  UNL     1       3.903  -0.365  -1.694  1.00  0.00    -0.391 OA
ATOM     26  H3  UNL     1       4.814  -0.113  -1.787  1.00  0.00     0.210 HD
ENDBRANCH  24  25
BRANCH  24  27
HETATM   27  C17 UNL     1       4.108   0.255   0.608  1.00  0.00     0.385 C 
BRANCH  27  28
HETATM   28  O4  UNL     1       4.239   1.627   0.404  1.00  0.00    -0.366 OA
ATOM     29  H4  UNL     1       4.684   2.139   1.069  1.00  0.00     0.212 HD
ENDBRANCH  27  28
BRANCH  27  30
HETATM   30  N1  UNL     1       5.515  -0.190   0.682  1.00  0.00     0.119 N 
HETATM   31  C18 UNL     1       6.257   0.019  -0.507  1.00  0.00     0.276 C 
HETATM   32  C19 UNL     1       7.695   0.341  -0.068  1.00  0.00     0.032 C 
HETATM   33  C20 UNL     1       7.677   0.159   1.426  1.00  0.00     0.032 C 
HETATM   34  C21 UNL     1       6.211   0.394   1.785  1.00  0.00     0.276 C 
ENDBRANCH  27  30
ENDBRANCH  24  27
ENDBRANCH  23  24
ENDBRANCH  21  23
ENDBRANCH  12  21
BRANCH   1  35
HETATM   35  C2  UNL     1      -2.777   1.262  -1.767  1.00  0.00     0.119 C 
HETATM   36  C1  UNL     1      -3.232   2.639  -2.258  1.00  0.00     0.040 C 
BRANCH  35  37
HETATM   37  O1  UNL     1      -1.782   1.177  -2.817  1.00  0.00    -0.396 OA
ATOM     38  H1  UNL     1      -1.500   0.323  -2.512  1.00  0.00     0.210 HD
ENDBRANCH  35  37
ENDBRANCH   1  35
TORSDOF 9
