REMARK  4 active torsions:
REMARK  status: ('A' for Active; 'I' for Inactive)
REMARK    1  A    between atoms: N1_1  and  C1_5 
REMARK    2  A    between atoms: C2_9  and  O1_10 
REMARK    3  A    between atoms: O1_10  and  N3_11 
REMARK    4  A    between atoms: N3_11  and  C3_13 
ROOT
HETATM    1  C1  UNL     1      -3.383   0.652   0.004  1.00  0.00     0.530 C 
HETATM    2  N2  UNL     1      -2.873  -0.572  -0.545  1.00  0.00     0.029 N 
ATOM      3  H21 UNL     1      -3.005  -0.821  -1.525  1.00  0.00     0.288 HD
ATOM      4  H22 UNL     1      -3.271  -1.480  -0.305  1.00  0.00     0.288 HD
HETATM    5  C2  UNL     1      -1.577  -0.130  -0.023  1.00  0.00     0.499 C 
HETATM    6  O2  UNL     1      -2.247   0.845   0.752  1.00  0.00    -0.282 OA
ENDROOT
BRANCH   5   7
HETATM    7  O1  UNL     1      -0.964  -1.073   0.749  1.00  0.00    -0.222 OA
BRANCH   7   8
HETATM    8  N3  UNL     1       0.273  -1.373   0.539  1.00  0.00    -0.293 N 
ATOM      9  H3  UNL     1       0.648  -2.248   0.904  1.00  0.00     0.188 HD
BRANCH   8  10
HETATM   10  C3  UNL     1       1.112  -0.507  -0.188  1.00  0.00     0.106 C 
HETATM   11  C4  UNL     1       2.536  -1.070  -0.290  1.00  0.00     0.027 C 
HETATM   12  C5  UNL     1       3.349   0.193  -0.270  1.00  0.00     0.002 C 
HETATM   13  C6  UNL     1       2.704   0.947   0.874  1.00  0.00     0.002 C 
HETATM   14  C7  UNL     1       1.237   0.808   0.530  1.00  0.00     0.027 C 
ENDBRANCH   8  10
ENDBRANCH   7   8
ENDBRANCH   5   7
BRANCH   1  15
HETATM   15  N1  UNL     1      -4.529   0.455   0.899  1.00  0.00    -0.027 N 
ATOM     16  H13 UNL     1      -5.269  -0.067   0.430  1.00  0.00     0.279 HD
ATOM     17  H12 UNL     1      -4.300  -0.207   1.641  1.00  0.00     0.279 HD
ATOM     18  H11 UNL     1      -4.891   1.325   1.289  1.00  0.00     0.279 HD
ENDBRANCH   1  15
TORSDOF 4
