REMARK  3 active torsions:
REMARK  status: ('A' for Active; 'I' for Inactive)
REMARK    1  A    between atoms: C2_2  and  C3_3 
REMARK    2  A    between atoms: C3_3  and  C4_4 
REMARK    3  A    between atoms: N4_15  and  C10_17 
ROOT
HETATM    1  C4  UNL     1      -3.005   0.479  -0.073  1.00  0.00    -0.063 C 
HETATM    2  C5  UNL     1      -2.921  -0.875  -0.097  1.00  0.00     0.097 C 
HETATM    3  N1  UNL     1      -1.759  -1.280  -0.796  1.00  0.00    -0.322 N 
HETATM    4  C6  UNL     1      -0.722  -2.045  -0.203  1.00  0.00     0.102 C 
HETATM    5  N2  UNL     1      -0.996  -3.127   0.314  1.00  0.00    -0.387 N 
ATOM      6  H21 UNL     1      -0.250  -3.677   0.740  1.00  0.00     0.157 HD
ATOM      7  H22 UNL     1      -1.887  -3.622   0.338  1.00  0.00     0.157 HD
HETATM    8  C7  UNL     1       0.624  -1.297  -0.239  1.00  0.00     0.206 C 
HETATM    9  C8  UNL     1       1.647  -2.014  -0.874  1.00  0.00     0.077 C 
HETATM   10  N3  UNL     1       2.460  -2.612  -1.400  1.00  0.00    -0.196 NA
HETATM   11  C9  UNL     1       0.343   0.098  -0.721  1.00  0.00     0.020 C 
HETATM   12  N4  UNL     1       1.251   0.966  -0.457  1.00  0.00    -0.361 N 
ATOM     13  H4  UNL     1       1.048   1.909  -0.789  1.00  0.00     0.165 HD
HETATM   14  C18 UNL     1      -0.844   0.605  -1.455  1.00  0.00     0.081 C 
HETATM   15  C19 UNL     1      -1.896   1.281  -0.662  1.00  0.00     0.049 C 
HETATM   16  C20 UNL     1      -1.553  -0.670  -2.088  1.00  0.00     0.120 C 
HETATM   17  C21 UNL     1      -0.724  -1.352  -3.072  1.00  0.00     0.058 C 
HETATM   18 CL1  UNL     1      -3.046  -0.021  -2.800  1.00  0.00    -0.095 Cl
ENDROOT
BRANCH  12  19
HETATM   19  C10 UNL     1       2.458   0.835   0.203  1.00  0.00     0.033 A 
HETATM   20  C11 UNL     1       2.630   0.673   1.564  1.00  0.00     0.036 A 
HETATM   21  C12 UNL     1       3.870   0.558   2.148  1.00  0.00    -0.059 A 
HETATM   22  C13 UNL     1       3.962   0.386   3.620  1.00  0.00     0.048 C 
HETATM   23  C14 UNL     1       5.014   0.600   1.384  1.00  0.00     0.013 A 
HETATM   24  C15 UNL     1       4.885   0.763   0.003  1.00  0.00    -0.059 A 
HETATM   25  C16 UNL     1       6.133   0.805  -0.800  1.00  0.00     0.048 C 
HETATM   26  C17 UNL     1       3.632   0.876  -0.561  1.00  0.00     0.036 A 
ENDBRANCH  12  19
BRANCH   1  27
HETATM   27  C3  UNL     1      -4.158   1.052   0.605  1.00  0.00     0.035 C 
BRANCH  27  28
HETATM   28  C2  UNL     1      -5.083   0.001   1.178  1.00  0.00    -0.000 C 
HETATM   29  C1  UNL     1      -6.237   0.678   1.854  1.00  0.00     0.005 C 
ENDBRANCH  27  28
ENDBRANCH   1  27
TORSDOF 3
