REMARK  6 active torsions:
REMARK  status: ('A' for Active; 'I' for Inactive)
REMARK    1  A    between atoms: C2_2  and  N1_4 
REMARK    2  A    between atoms: N1_4  and  C4_5 
REMARK    3  A    between atoms: N1_4  and  C13_20 
REMARK    4  A    between atoms: C4_5  and  N2_7 
REMARK    5  A    between atoms: N2_7  and  C5_9 
REMARK    6  A    between atoms: C6_11  and  C7_12 
ROOT
HETATM    1  C5  UNL     1       1.677   0.127   0.087  1.00  0.00     0.097 A 
HETATM    2  S2  UNL     1       2.592   1.608   0.400  1.00  0.00    -0.075 SA
HETATM    3  C6  UNL     1       4.159   0.989   0.337  1.00  0.00    -0.008 A 
HETATM    4  C10 UNL     1       3.954  -0.335   0.081  1.00  0.00     0.040 A 
HETATM    5  C11 UNL     1       2.670  -0.765  -0.042  1.00  0.00     0.079 A 
HETATM    6  C12 UNL     1       2.430  -2.227  -0.168  1.00  0.00     0.102 C 
HETATM    7  N3  UNL     1       2.271  -3.400  -0.226  1.00  0.00    -0.191 NA
ENDROOT
BRANCH   1   8
HETATM    8  N2  UNL     1       0.255   0.115   0.121  1.00  0.00    -0.326 N 
ATOM      9  H2  UNL     1      -0.123   0.849   0.720  1.00  0.00     0.169 HD
BRANCH   8  10
HETATM   10  C4  UNL     1      -0.727  -0.640  -0.453  1.00  0.00     0.179 C 
HETATM   11  S1  UNL     1      -0.346  -1.704  -1.685  1.00  0.00    -0.040 SA
BRANCH  10  12
HETATM   12  N1  UNL     1      -2.158  -0.521  -0.230  1.00  0.00    -0.323 N 
BRANCH  12  13
HETATM   13  C2  UNL     1      -2.972  -1.493  -0.937  1.00  0.00    -0.015 C 
HETATM   14  C1  UNL     1      -3.129  -1.200  -2.406  1.00  0.00     0.063 C 
HETATM   15  C3  UNL     1      -4.154  -2.055  -0.264  1.00  0.00     0.063 C 
ENDBRANCH  12  13
BRANCH  12  16
HETATM   16  C13 UNL     1      -2.659   0.536   0.576  1.00  0.00     0.028 C 
HETATM   17  C14 UNL     1      -2.282   0.403   2.037  1.00  0.00     0.038 C 
HETATM   18  C15 UNL     1      -2.213   1.920   0.110  1.00  0.00     0.038 C 
HETATM   19  C16 UNL     1      -4.190   0.662   0.496  1.00  0.00     0.038 C 
ENDBRANCH  12  16
ENDBRANCH  10  12
ENDBRANCH   8  10
ENDBRANCH   1   8
BRANCH   3  20
HETATM   20  C7  UNL     1       5.494   1.690   0.513  1.00  0.00     0.045 A 
HETATM   21  C8  UNL     1       6.433   0.925   1.402  1.00  0.00     0.032 A 
HETATM   22  C9  UNL     1       6.708   1.127  -0.067  1.00  0.00     0.092 A 
HETATM   23 CL1  UNL     1       8.032   2.302  -0.379  1.00  0.00    -0.124 Cl
ENDBRANCH   3  20
TORSDOF 6
