REMARK  4 active torsions:
REMARK  status: ('A' for Active; 'I' for Inactive)
REMARK    1  A    between atoms: C2_2  and  C4_4 
REMARK    2  A    between atoms: C4_4  and  C5_5 
REMARK    3  A    between atoms: C8_8  and  C9_9 
REMARK    4  A    between atoms: C12_14  and  O1_16 
ROOT
HETATM    1  C9  UNL     1      -0.643   1.265  -0.787  1.00  0.00     0.051 C 
HETATM    2  C10 UNL     1      -0.793   2.374   0.182  1.00  0.00     0.165 C 
HETATM    3  C11 UNL     1      -1.189   3.639  -0.482  1.00  0.00     0.075 C 
HETATM    4  N1  UNL     1      -1.489   4.637  -0.993  1.00  0.00    -0.196 NA
HETATM    5  S1  UNL     1      -2.004   2.067   1.468  1.00  0.00    -0.111 SA
HETATM    6  C12 UNL     1      -3.460   1.318   0.622  1.00  0.00     0.108 C 
HETATM    7  C13 UNL     1      -4.186   0.590   1.702  1.00  0.00     0.058 C 
HETATM    8  C14 UNL     1      -3.072   0.617  -0.585  1.00  0.00     0.039 C 
HETATM    9  C15 UNL     1      -3.911  -0.562  -1.017  1.00  0.00    -0.010 C 
HETATM   10  C16 UNL     1      -5.357  -0.275  -1.195  1.00  0.00     0.010 C 
HETATM   11  C17 UNL     1      -3.666  -1.798  -0.213  1.00  0.00     0.005 C 
HETATM   12  C18 UNL     1      -2.256  -2.101   0.075  1.00  0.00     0.001 C 
HETATM   13  C19 UNL     1      -1.298  -0.974   0.217  1.00  0.00     0.006 C 
HETATM   14  C20 UNL     1      -1.635   0.144  -0.697  1.00  0.00     0.004 C 
ENDROOT
BRANCH   1  15
HETATM   15  C8  UNL     1       0.718   0.697  -0.654  1.00  0.00    -0.049 A 
HETATM   16  C7  UNL     1       1.381   0.501   0.533  1.00  0.00     0.008 A 
HETATM   17  C6  UNL     1       2.643  -0.050   0.578  1.00  0.00     0.011 A 
HETATM   18  C5  UNL     1       3.305  -0.433  -0.570  1.00  0.00    -0.019 A 
HETATM   19  C22 UNL     1       2.634  -0.234  -1.773  1.00  0.00     0.123 A 
HETATM   20  C21 UNL     1       1.371   0.318  -1.806  1.00  0.00     0.050 A 
HETATM   21  F1  UNL     1       3.276  -0.610  -2.922  1.00  0.00    -0.206 F 
BRANCH  18  22
HETATM   22  C4  UNL     1       4.637  -1.044  -0.628  1.00  0.00     0.045 C 
BRANCH  22  23
HETATM   23  C2  UNL     1       5.446  -0.978   0.620  1.00  0.00    -0.018 C 
HETATM   24  C1  UNL     1       6.771  -1.697   0.294  1.00  0.00     0.010 C 
HETATM   25  C3  UNL     1       5.881   0.446   0.964  1.00  0.00     0.010 C 
ENDBRANCH  22  23
ENDBRANCH  18  22
ENDBRANCH   1  15
BRANCH   6  26
HETATM   26  O1  UNL     1      -4.281   2.429   0.297  1.00  0.00    -0.379 OA
ATOM     27  H1  UNL     1      -5.032   2.043  -0.139  1.00  0.00     0.211 HD
ENDBRANCH   6  26
TORSDOF 4
