REMARK  5 active torsions:
REMARK  status: ('A' for Active; 'I' for Inactive)
REMARK    1  A    between atoms: C1_4  and  N2_5 
REMARK    2  A    between atoms: C1_4  and  C9_19 
REMARK    3  A    between atoms: N2_5  and  N3_7 
REMARK    4  A    between atoms: C2_9  and  C3_10 
REMARK    5  A    between atoms: C8_15  and  N4_16 
ROOT
HETATM    1  N2  UNL     1       0.750   0.292  -0.466  1.00  0.00    -0.286 N 
ATOM      2  H2  UNL     1       0.584   1.201  -0.897  1.00  0.00     0.188 HD
ENDROOT
BRANCH   1   3
HETATM    3  C1  UNL     1       1.842   0.128   0.439  1.00  0.00     0.123 C 
HETATM    4  N1  UNL     1       1.578  -0.264   1.630  1.00  0.00    -0.384 N 
ATOM      5  H12 UNL     1       0.620  -0.449   1.926  1.00  0.00     0.157 HD
ATOM      6  H11 UNL     1       2.358  -0.381   2.277  1.00  0.00     0.157 HD
BRANCH   3   7
HETATM    7  C9  UNL     1       3.207   0.391   0.017  1.00  0.00     0.011 A 
HETATM    8  C10 UNL     1       3.524   0.834  -1.248  1.00  0.00     0.032 A 
HETATM    9  C11 UNL     1       4.850   1.045  -1.555  1.00  0.00     0.088 A 
HETATM   10  N5  UNL     1       5.835   0.836  -0.673  1.00  0.00    -0.375 N 
HETATM   11  C12 UNL     1       5.542   0.404   0.563  1.00  0.00     0.088 A 
ATOM     12  H5  UNL     1       6.805   1.005  -0.940  1.00  0.00     0.164 HD
HETATM   13  C13 UNL     1       4.226   0.182   0.907  1.00  0.00     0.032 A 
ENDBRANCH   3   7
ENDBRANCH   1   3
BRANCH   1  14
HETATM   14  N3  UNL     1      -0.047  -0.722  -0.750  1.00  0.00    -0.309 N 
HETATM   15  C2  UNL     1      -1.191  -1.139  -0.637  1.00  0.00     0.121 C 
ATOM     16  H3  UNL     1       0.497  -1.422  -1.254  1.00  0.00     0.186 HD
BRANCH  15  17
HETATM   17  C3  UNL     1      -2.333  -0.499   0.007  1.00  0.00     0.014 A 
HETATM   18  C4  UNL     1      -2.206   0.789   0.522  1.00  0.00     0.015 A 
HETATM   19  C5  UNL     1      -3.288   1.430   1.088  1.00  0.00     0.001 A 
HETATM   20  C6  UNL     1      -4.520   0.840   1.171  1.00  0.00     0.002 A 
HETATM   21  C7  UNL     1      -4.668  -0.418   0.677  1.00  0.00     0.037 A 
HETATM   22  C8  UNL     1      -3.575  -1.088   0.095  1.00  0.00     0.114 A 
BRANCH  22  23
HETATM   23  N4  UNL     1      -3.831  -2.388  -0.384  1.00  0.00    -0.115 N 
HETATM   24  O1  UNL     1      -3.094  -3.379  -0.354  1.00  0.00    -0.532 OA
HETATM   25  O2  UNL     1      -5.108  -2.632  -0.926  1.00  0.00    -0.532 OA
ENDBRANCH  22  23
ENDBRANCH  15  17
ENDBRANCH   1  14
TORSDOF 5
