REMARK  4 active torsions:
REMARK  status: ('A' for Active; 'I' for Inactive)
REMARK       I    between atoms: C1_2  and  N1_3 
REMARK       I    between atoms: C1_2  and  N3_13 
REMARK    1  A    between atoms: N1_3  and  N2_5 
REMARK    2  A    between atoms: C2_7  and  C3_8 
REMARK    3  A    between atoms: N3_13  and  N4_15 
REMARK    4  A    between atoms: C7_17  and  C8_18 
ROOT
HETATM    1  O1  UNL     1       0.044  -0.094  -1.801  1.00  0.00    -0.244 OA
HETATM    2  C1  UNL     1       0.337  -0.757  -0.794  1.00  0.00     0.353 C 
HETATM    3  N1  UNL     1      -0.602  -0.884   0.267  1.00  0.00    -0.251 N 
ATOM      4  H1  UNL     1      -0.345  -1.432   1.088  1.00  0.00     0.191 HD
HETATM    5  N3  UNL     1       1.614  -1.416  -0.651  1.00  0.00    -0.251 N 
ATOM      6  H3  UNL     1       1.839  -1.957   0.184  1.00  0.00     0.191 HD
ENDROOT
BRANCH   3   7
HETATM    7  N2  UNL     1      -1.858  -0.288   0.224  1.00  0.00    -0.307 N 
HETATM    8  C2  UNL     1      -2.937  -0.994   0.143  1.00  0.00     0.120 C 
ATOM      9  H2  UNL     1      -1.929   0.729   0.257  1.00  0.00     0.186 HD
BRANCH   8  10
HETATM   10  C3  UNL     1      -4.225  -0.291   0.102  1.00  0.00     0.005 A 
HETATM   11  C4  UNL     1      -4.432   1.075   0.141  1.00  0.00     0.039 A 
HETATM   12  C5  UNL     1      -5.786   1.274   0.078  1.00  0.00     0.142 A 
HETATM   13  O2  UNL     1      -6.377   0.110   0.005  1.00  0.00    -0.334 OA
HETATM   14  C6  UNL     1      -5.479  -0.860   0.016  1.00  0.00     0.154 A 
ENDBRANCH   8  10
ENDBRANCH   3   7
BRANCH   5  15
HETATM   15  N4  UNL     1       2.507  -1.289  -1.670  1.00  0.00    -0.307 N 
HETATM   16  C7  UNL     1       3.546  -0.629  -1.698  1.00  0.00     0.126 C 
ATOM     17  H4  UNL     1       2.287  -1.808  -2.520  1.00  0.00     0.186 HD
BRANCH  16  18
HETATM   18  C8  UNL     1       4.099   0.198  -0.637  1.00  0.00     0.021 A 
HETATM   19  C9  UNL     1       3.677   0.485   0.626  1.00  0.00     0.021 A 
HETATM   20  C10 UNL     1       4.439   1.313   1.383  1.00  0.00     0.008 A 
HETATM   21  C11 UNL     1       5.579   1.801   0.819  1.00  0.00     0.050 A 
HETATM   22  S1  UNL     1       5.578   1.115  -0.728  1.00  0.00    -0.101 SA
ENDBRANCH  16  18
ENDBRANCH   5  15
TORSDOF 4
