REMARK  14 active torsions:
REMARK  status: ('A' for Active; 'I' for Inactive)
REMARK    1  A    between atoms: C2_2  and  C3_3 
REMARK    2  A    between atoms: C3_3  and  C4_4 
REMARK    3  A    between atoms: C3_3  and  C18_22 
REMARK    4  A    between atoms: C4_4  and  C5_5 
REMARK    5  A    between atoms: C6_6  and  C7_7 
REMARK    6  A    between atoms: C8_8  and  C9_9 
REMARK    7  A    between atoms: C12_12  and  O1_13 
REMARK    8  A    between atoms: C14_16  and  O2_17 
REMARK    9  A    between atoms: C18_22  and  C20_24 
REMARK   10  A    between atoms: C20_24  and  C21_25 
REMARK   11  A    between atoms: C21_25  and  C22_26 
REMARK   12  A    between atoms: C22_26  and  C23_27 
REMARK   13  A    between atoms: C26_30  and  O3_32 
REMARK   14  A    between atoms: O3_32  and  C28_33 
ROOT
HETATM    1  C18 UNL     1      -0.828   0.245   1.346  1.00  0.00     0.022 C 
HETATM    2  C19 UNL     1      -1.147   0.146   2.822  1.00  0.00     0.015 C 
ENDROOT
BRANCH   1   3
HETATM    3  C3  UNL     1       0.658   0.178   1.197  1.00  0.00    -0.010 C 
BRANCH   3   4
HETATM    4  C2  UNL     1       1.269  -1.074   1.623  1.00  0.00     0.006 C 
HETATM    5  C1  UNL     1       0.724  -2.153   2.092  1.00  0.00     0.012 C 
ENDBRANCH   3   4
BRANCH   3   6
HETATM    6  C4  UNL     1       1.384   1.145   0.787  1.00  0.00    -0.121 C 
BRANCH   6   7
HETATM    7  C5  UNL     1       2.165   2.191   0.345  1.00  0.00     0.056 C 
HETATM    8  C6  UNL     1       3.486   2.172   0.249  1.00  0.00     0.008 C 
BRANCH   8   9
HETATM    9  C7  UNL     1       4.393   1.110   0.565  1.00  0.00     0.001 C 
HETATM   10  C8  UNL     1       5.724   1.305   0.385  1.00  0.00     0.000 C 
BRANCH  10  11
HETATM   11  C9  UNL     1       6.687   0.292   0.679  1.00  0.00     0.004 C 
HETATM   12  C10 UNL     1       7.987   0.325   0.551  1.00  0.00    -0.067 C 
HETATM   13  C11 UNL     1       8.822  -0.863   0.925  1.00  0.00     0.067 C 
HETATM   14  C15 UNL     1       8.679   1.510   0.033  1.00  0.00     0.002 C 
HETATM   15  C12 UNL     1       9.752  -1.278  -0.195  1.00  0.00     0.124 C 
HETATM   16  C13 UNL     1      10.346  -0.056  -0.871  1.00  0.00     0.065 C 
HETATM   17  C14 UNL     1      10.174   1.180  -0.060  1.00  0.00     0.132 C 
HETATM   18  C16 UNL     1       8.196   1.795  -1.371  1.00  0.00     0.022 C 
HETATM   19  C17 UNL     1       8.483   2.751   0.883  1.00  0.00     0.022 C 
BRANCH  15  20
HETATM   20  O1  UNL     1       8.983  -1.966  -1.134  1.00  0.00    -0.395 OA
ATOM     21  H1  UNL     1       9.567  -2.226  -1.837  1.00  0.00     0.210 HD
ENDBRANCH  15  20
BRANCH  17  22
HETATM   22  O2  UNL     1      10.791   2.224  -0.761  1.00  0.00    -0.394 OA
ATOM     23  H2  UNL     1      10.681   3.013  -0.243  1.00  0.00     0.210 HD
ENDBRANCH  17  22
ENDBRANCH  10  11
ENDBRANCH   8   9
ENDBRANCH   6   7
ENDBRANCH   3   6
ENDBRANCH   1   3
BRANCH   1  24
HETATM   24  C20 UNL     1      -1.616  -0.641   0.468  1.00  0.00     0.009 C 
BRANCH  24  25
HETATM   25  C21 UNL     1      -3.124  -0.476   0.717  1.00  0.00     0.002 C 
BRANCH  25  26
HETATM   26  C22 UNL     1      -3.838  -1.430  -0.176  1.00  0.00     0.017 C 
BRANCH  26  27
HETATM   27  C23 UNL     1      -5.338  -1.368  -0.034  1.00  0.00     0.025 C 
HETATM   28  C24 UNL     1      -5.623  -1.698   1.441  1.00  0.00     0.024 C 
HETATM   29  C25 UNL     1      -5.948  -0.061  -0.350  1.00  0.00     0.060 C 
HETATM   30  C26 UNL     1      -7.334  -0.065  -0.910  1.00  0.00     0.096 C 
HETATM   31  C27 UNL     1      -7.354   0.473  -2.346  1.00  0.00     0.052 C 
HETATM   32  C30 UNL     1      -8.044  -1.353  -0.938  1.00  0.00    -0.006 A 
HETATM   33  C31 UNL     1      -9.430  -1.421  -1.015  1.00  0.00     0.014 A 
HETATM   34  C35 UNL     1      -7.364  -2.535  -0.920  1.00  0.00     0.061 A 
HETATM   35  C32 UNL     1     -10.055  -2.643  -1.070  1.00  0.00     0.046 A 
HETATM   36  C33 UNL     1      -9.358  -3.840  -1.053  1.00  0.00     0.155 A 
HETATM   37  F1  UNL     1      -9.973  -5.061  -1.107  1.00  0.00    -0.203 F 
HETATM   38  C34 UNL     1      -7.986  -3.791  -0.977  1.00  0.00     0.169 A 
HETATM   39  F2  UNL     1      -7.223  -4.930  -0.959  1.00  0.00    -0.202 F 
HETATM   40  C36 UNL     1      -5.909  -2.495  -0.819  1.00  0.00     0.171 C 
HETATM   41  O5  UNL     1      -5.198  -3.370  -1.369  1.00  0.00    -0.291 OA
BRANCH  30  42
HETATM   42  O3  UNL     1      -8.168   0.837  -0.158  1.00  0.00    -0.306 OA
BRANCH  42  43
HETATM   43  C28 UNL     1      -7.823   2.191  -0.103  1.00  0.00     0.255 C 
HETATM   44  C29 UNL     1      -8.694   3.093   0.675  1.00  0.00     0.126 C 
HETATM   45  O4  UNL     1      -6.785   2.537  -0.729  1.00  0.00    -0.266 OA
ENDBRANCH  42  43
ENDBRANCH  30  42
ENDBRANCH  26  27
ENDBRANCH  25  26
ENDBRANCH  24  25
ENDBRANCH   1  24
TORSDOF 14
