REMARK  6 active torsions:
REMARK  status: ('A' for Active; 'I' for Inactive)
REMARK    1  A    between atoms: C2_2  and  N1_3 
REMARK    2  A    between atoms: N1_3  and  C3_4 
REMARK    3  A    between atoms: N1_3  and  C11_18 
REMARK    4  A    between atoms: N3_10  and  C8_12 
REMARK    5  A    between atoms: C8_12  and  C9_13 
REMARK    6  A    between atoms: C9_13  and  S1_14 
ROOT
HETATM    1  C3  UNL     1      -0.090  -0.227  -0.013  1.00  0.00     0.106 A 
HETATM    2  C4  UNL     1       0.145  -0.645  -1.325  1.00  0.00     0.075 A 
HETATM    3  C5  UNL     1       1.412  -0.936  -1.812  1.00  0.00     0.053 A 
HETATM    4  N2  UNL     1       1.617  -1.360  -3.150  1.00  0.00    -0.102 NA
HETATM    5  C6  UNL     1       2.477  -0.800  -0.943  1.00  0.00     0.075 A 
HETATM    6  C7  UNL     1       2.248  -0.387   0.353  1.00  0.00     0.104 A 
HETATM    7  N3  UNL     1       3.197  -0.242   1.205  1.00  0.00    -0.376 N 
ATOM      8  H3  UNL     1       2.914   0.068   2.135  1.00  0.00     0.161 HD
HETATM    9  N4  UNL     1       0.974  -0.112   0.784  1.00  0.00    -0.329 N 
ATOM     10  H4  UNL     1       0.836   0.191   1.748  1.00  0.00     0.169 HD
ENDROOT
BRANCH   1  11
HETATM   11  N1  UNL     1      -1.428   0.041   0.453  1.00  0.00    -0.363 N 
BRANCH  11  12
HETATM   12  C2  UNL     1      -1.602   0.737   1.697  1.00  0.00     0.120 C 
HETATM   13  C1  UNL     1      -2.142   2.147   1.550  1.00  0.00     0.026 C 
ENDBRANCH  11  12
BRANCH  11  14
HETATM   14  C11 UNL     1      -2.600  -0.391  -0.334  1.00  0.00     0.085 C 
HETATM   15  C12 UNL     1      -3.514  -1.181   0.565  1.00  0.00     0.025 C 
HETATM   16  C13 UNL     1      -4.834  -0.539   0.829  1.00  0.00     0.002 C 
HETATM   17  C14 UNL     1      -5.449  -0.273  -0.553  1.00  0.00     0.000 C 
HETATM   18  C15 UNL     1      -4.655   0.838  -1.147  1.00  0.00     0.002 C 
HETATM   19  C16 UNL     1      -3.175   0.642  -1.182  1.00  0.00     0.025 C 
ENDBRANCH  11  14
ENDBRANCH   1  11
BRANCH   7  20
HETATM   20  C8  UNL     1       4.594  -0.457   1.022  1.00  0.00     0.131 C 
BRANCH  20  21
HETATM   21  C9  UNL     1       5.378   0.847   0.998  1.00  0.00     0.093 C 
BRANCH  21  22
HETATM   22  S1  UNL     1       7.137   0.504   0.757  1.00  0.00    -0.172 SA
HETATM   23  C10 UNL     1       7.415  -0.190  -0.896  1.00  0.00     0.089 C 
ENDBRANCH  21  22
ENDBRANCH  20  21
ENDBRANCH   7  20
TORSDOF 6
