REMARK  6 active torsions:
REMARK  status: ('A' for Active; 'I' for Inactive)
REMARK    1  A    between atoms: C2_2  and  O1_3 
REMARK    2  A    between atoms: O1_3  and  C3_4 
REMARK    3  A    between atoms: C6_10  and  C7_11 
REMARK    4  A    between atoms: C12_16  and  C13_17 
REMARK    5  A    between atoms: C12_16  and  C15_19 
REMARK    6  A    between atoms: C15_19  and  O3_21 
ROOT
HETATM    1  C3  UNL     1      -1.314  -1.246  -0.219  1.00  0.00     0.240 C 
HETATM    2  N1  UNL     1      -0.778  -2.485  -0.772  1.00  0.00    -0.357 N 
ATOM      3  H1  UNL     1      -1.390  -3.301  -0.800  1.00  0.00     0.162 HD
HETATM    4  C4  UNL     1       0.526  -2.624  -1.267  1.00  0.00     0.075 C 
HETATM    5  S1  UNL     1       1.012  -4.006  -1.967  1.00  0.00    -0.066 SA
HETATM    6  C5  UNL     1       1.495  -1.504  -1.161  1.00  0.00     0.075 C 
HETATM    7  C6  UNL     1       1.027  -0.633  -0.047  1.00  0.00     0.019 C 
HETATM    8  C12 UNL     1      -0.349  -0.095  -0.375  1.00  0.00     0.095 C 
ENDROOT
BRANCH   8   9
HETATM    9  C13 UNL     1      -0.464   0.424  -1.760  1.00  0.00     0.020 C 
HETATM   10  C14 UNL     1      -1.803   0.933  -2.140  1.00  0.00     0.006 C 
ENDBRANCH   8   9
BRANCH   8  11
HETATM   11  C15 UNL     1      -0.736   0.935   0.651  1.00  0.00     0.272 C 
HETATM   12  O2  UNL     1      -1.025   2.121   0.379  1.00  0.00    -0.264 OA
BRANCH  11  13
HETATM   13  O3  UNL     1      -0.786   0.591   2.004  1.00  0.00    -0.326 OA
HETATM   14  C16 UNL     1      -1.147   1.547   2.982  1.00  0.00     0.213 C 
ENDBRANCH  11  13
ENDBRANCH   8  11
BRANCH   1  15
HETATM   15  O1  UNL     1      -2.589  -0.999  -0.636  1.00  0.00    -0.366 OA
BRANCH  15  16
HETATM   16  C2  UNL     1      -3.501  -1.087   0.392  1.00  0.00     0.166 C 
HETATM   17  C1  UNL     1      -4.871  -0.793  -0.238  1.00  0.00     0.033 C 
ENDBRANCH  15  16
ENDBRANCH   1  15
BRANCH   7  18
HETATM   18  C7  UNL     1       1.987   0.371   0.456  1.00  0.00    -0.009 C 
HETATM   19  C8  UNL     1       2.492   1.388  -0.485  1.00  0.00     0.005 C 
HETATM   20  C9  UNL     1       3.759   1.893   0.174  1.00  0.00     0.000 C 
HETATM   21  C10 UNL     1       4.103   0.883   1.273  1.00  0.00     0.000 C 
HETATM   22  C11 UNL     1       3.258  -0.349   0.905  1.00  0.00     0.005 C 
ENDBRANCH   7  18
TORSDOF 6
