REMARK  11 active torsions:
REMARK  status: ('A' for Active; 'I' for Inactive)
REMARK    1  A    between atoms: O1_2  and  C2_3 
REMARK    2  A    between atoms: C4_5  and  N1_6 
REMARK       I    between atoms: N1_6  and  C5_8 
REMARK    3  A    between atoms: C5_8  and  C6_10 
REMARK    4  A    between atoms: C6_10  and  O3_11 
REMARK    5  A    between atoms: O3_11  and  C7_12 
REMARK    6  A    between atoms: C7_12  and  C8_14 
REMARK    7  A    between atoms: C10_16  and  N2_17 
REMARK    8  A    between atoms: C12_21  and  N3_22 
REMARK    9  A    between atoms: C14_26  and  O9_27 
REMARK   10  A    between atoms: O9_27  and  C15_28 
REMARK   11  A    between atoms: C20_33  and  O10_34 
ROOT
HETATM    1  N1  UNL     1      -0.507  -0.361  -0.396  1.00  0.00    -0.323 N 
ATOM      2  H1  UNL     1      -0.847  -1.267  -0.719  1.00  0.00     0.169 HD
HETATM    3  C5  UNL     1       0.873  -0.283  -0.152  1.00  0.00     0.246 C 
HETATM    4  O2  UNL     1       1.451   0.736   0.245  1.00  0.00    -0.271 OA
ENDROOT
BRANCH   1   5
HETATM    5  C4  UNL     1      -1.482   0.636  -0.257  1.00  0.00     0.074 A 
HETATM    6  C3  UNL     1      -1.164   1.946   0.014  1.00  0.00     0.069 A 
HETATM    7  C2  UNL     1      -2.148   2.944   0.109  1.00  0.00     0.073 A 
HETATM    8  C22 UNL     1      -3.445   2.575  -0.078  1.00  0.00     0.076 A 
HETATM    9  C20 UNL     1      -3.810   1.280  -0.351  1.00  0.00     0.106 A 
HETATM   10  C14 UNL     1      -2.832   0.293  -0.443  1.00  0.00     0.129 A 
BRANCH   7  11
HETATM   11  O1  UNL     1      -1.721   4.220   0.385  1.00  0.00    -0.356 OA
HETATM   12  C1  UNL     1      -2.539   5.338   0.518  1.00  0.00     0.210 C 
ENDBRANCH   7  11
BRANCH   9  13
HETATM   13  O10 UNL     1      -5.145   0.979  -0.530  1.00  0.00    -0.353 OA
HETATM   14  C21 UNL     1      -6.111   1.988  -0.434  1.00  0.00     0.210 C 
ENDBRANCH   9  13
BRANCH  10  15
HETATM   15  O9  UNL     1      -3.212  -1.007  -0.713  1.00  0.00    -0.341 OA
BRANCH  15  16
HETATM   16  C15 UNL     1      -3.548  -1.949   0.287  1.00  0.00     0.129 C 
HETATM   17  C16 UNL     1      -2.999  -3.331   0.040  1.00  0.00     0.032 C 
HETATM   18  C17 UNL     1      -3.802  -4.159   1.028  1.00  0.00     0.002 C 
HETATM   19  C18 UNL     1      -5.177  -3.600   0.865  1.00  0.00     0.002 C 
HETATM   20  C19 UNL     1      -5.062  -2.227   0.267  1.00  0.00     0.032 C 
ENDBRANCH  15  16
ENDBRANCH  10  15
ENDBRANCH   1   5
BRANCH   3  21
HETATM   21  C6  UNL     1       1.701  -1.528  -0.392  1.00  0.00     0.282 C 
BRANCH  21  22
HETATM   22  O3  UNL     1       3.058  -1.264  -0.160  1.00  0.00    -0.308 OA
BRANCH  22  23
HETATM   23  C7  UNL     1       3.847  -0.382  -0.850  1.00  0.00     0.293 C 
HETATM   24  O4  UNL     1       3.346   0.272  -1.795  1.00  0.00    -0.259 OA
BRANCH  23  25
HETATM   25  C8  UNL     1       5.249  -0.175  -0.526  1.00  0.00     0.044 A 
HETATM   26  C9  UNL     1       5.875  -0.863   0.508  1.00  0.00     0.053 A 
HETATM   27  C10 UNL     1       7.201  -0.656   0.801  1.00  0.00     0.106 A 
HETATM   28  C11 UNL     1       7.934   0.243   0.070  1.00  0.00     0.072 A 
HETATM   29  C12 UNL     1       7.354   0.962  -0.981  1.00  0.00     0.106 A 
HETATM   30  C13 UNL     1       6.022   0.713  -1.229  1.00  0.00     0.053 A 
BRANCH  27  31
HETATM   31  N2  UNL     1       7.791  -1.380   1.861  1.00  0.00    -0.116 N 
HETATM   32  O5  UNL     1       9.011  -1.222   2.167  1.00  0.00    -0.532 OA
HETATM   33  O6  UNL     1       7.062  -2.285   2.601  1.00  0.00    -0.532 OA
ENDBRANCH  27  31
BRANCH  29  34
HETATM   34  N3  UNL     1       8.132   1.882  -1.718  1.00  0.00    -0.116 N 
HETATM   35  O7  UNL     1       9.324   2.056  -1.441  1.00  0.00    -0.532 OA
HETATM   36  O8  UNL     1       7.557   2.580  -2.742  1.00  0.00    -0.532 OA
ENDBRANCH  29  34
ENDBRANCH  23  25
ENDBRANCH  22  23
ENDBRANCH  21  22
ENDBRANCH   3  21
TORSDOF 11
