REMARK  2 active torsions:
REMARK  status: ('A' for Active; 'I' for Inactive)
REMARK    1  A    between atoms: C3_4  and  C4_5 
REMARK    2  A    between atoms: C4_5  and  O1_6 
ROOT
HETATM    1  N1  UNL     1       0.118   1.391   2.958  1.00  0.00    -0.195 NA
HETATM    2  C1  UNL     1       0.071   1.225   1.826  1.00  0.00     0.081 C 
HETATM    3  C2  UNL     1       0.026   1.001   0.408  1.00  0.00     0.194 C 
HETATM    4  C3  UNL     1       1.396   1.022  -0.239  1.00  0.00     0.062 C 
HETATM    5  C5  UNL     1       1.065   0.321  -1.569  1.00  0.00     0.152 C 
HETATM    6  N2  UNL     1      -0.287  -0.014  -1.513  1.00  0.00    -0.320 N 
HETATM    7  C6  UNL     1      -1.510  -0.265  -1.737  1.00  0.00     0.101 A 
HETATM    8  C7  UNL     1      -2.289  -0.519  -1.412  1.00  0.00    -0.007 A 
HETATM    9  C8  UNL     1      -2.989  -0.907  -0.332  1.00  0.00     0.045 A 
HETATM   10  C9  UNL     1      -1.587  -0.773   0.597  1.00  0.00     0.119 A 
HETATM   11  N3  UNL     1      -0.401  -0.338   0.052  1.00  0.00    -0.211 NA
ENDROOT
BRANCH   4  12
HETATM   12  C4  UNL     1       2.334   0.121   0.553  1.00  0.00     0.173 C 
BRANCH  12  13
HETATM   13  O1  UNL     1       1.866  -1.187   0.575  1.00  0.00    -0.400 OA
ATOM     14  H1  UNL     1       2.451  -1.749   1.069  1.00  0.00     0.209 HD
ENDBRANCH  12  13
ENDBRANCH   4  12
TORSDOF 2
