REMARK  4 active torsions:
REMARK  status: ('A' for Active; 'I' for Inactive)
REMARK    1  A    between atoms: C2_2  and  C7_12 
REMARK    2  A    between atoms: N1_3  and  N2_5 
REMARK       I    between atoms: N2_5  and  C3_7 
REMARK    3  A    between atoms: C3_7  and  C4_9 
REMARK    4  A    between atoms: C9_15  and  C10_16 
ROOT
HETATM    1  C1  UNL     1       0.406  -0.409   1.438  1.00  0.00     0.072 C 
HETATM    2  C2  UNL     1       0.655   0.037   0.053  1.00  0.00     0.050 C 
HETATM    3  N1  UNL     1      -0.284   0.379  -0.752  1.00  0.00    -0.300 N 
ATOM      4  H1  UNL     1      -0.082   0.683  -1.705  1.00  0.00     0.186 HD
ENDROOT
BRANCH   2   5
HETATM    5  C7  UNL     1       2.048   0.096  -0.441  1.00  0.00     0.080 A 
HETATM    6  C8  UNL     1       2.473   0.481  -1.688  1.00  0.00     0.175 A 
HETATM    7  O2  UNL     1       3.783   0.397  -1.738  1.00  0.00    -0.302 OA
HETATM    8  C9  UNL     1       4.223  -0.027  -0.573  1.00  0.00     0.189 A 
HETATM    9  N3  UNL     1       3.163  -0.221   0.248  1.00  0.00    -0.332 N 
ATOM     10  H3  UNL     1       3.201  -0.548   1.213  1.00  0.00     0.168 HD
BRANCH   8  11
HETATM   11  C10 UNL     1       5.649  -0.265  -0.187  1.00  0.00     0.427 C 
HETATM   12  F1  UNL     1       5.786  -1.569   0.219  1.00  0.00    -0.205 F 
HETATM   13  F2  UNL     1       5.994   0.549   0.899  1.00  0.00    -0.205 F 
ENDBRANCH   8  11
ENDBRANCH   2   5
BRANCH   3  14
HETATM   14  N2  UNL     1      -1.602   0.318  -0.268  1.00  0.00    -0.270 N 
HETATM   15  C3  UNL     1      -2.525  -0.509  -0.944  1.00  0.00     0.240 C 
HETATM   16  O1  UNL     1      -2.165  -1.161  -1.944  1.00  0.00    -0.271 OA
ATOM     17  H2  UNL     1      -1.884   0.857   0.550  1.00  0.00     0.190 HD
BRANCH  15  18
HETATM   18  C4  UNL     1      -3.914  -0.604  -0.475  1.00  0.00     0.080 A 
HETATM   19  C5  UNL     1      -4.063  -0.627   1.045  1.00  0.00     0.015 A 
HETATM   20  C6  UNL     1      -4.549   0.530   0.242  1.00  0.00     0.015 A 
ENDBRANCH  15  18
ENDBRANCH   3  14
TORSDOF 4
