REMARK  4 active torsions:
REMARK  status: ('A' for Active; 'I' for Inactive)
REMARK    1  A    between atoms: C3_5  and  N2_6 
REMARK    2  A    between atoms: N2_6  and  C4_8 
REMARK    3  A    between atoms: C4_8  and  O1_9 
REMARK    4  A    between atoms: C4_8  and  C5_11 
ROOT
HETATM    1  C5  UNL     1       1.645   0.746   0.594  1.00  0.00     0.000 A 
HETATM    2  C6  UNL     1       2.261   1.973   0.473  1.00  0.00     0.054 A 
HETATM    3  C7  UNL     1       3.578   2.128   0.129  1.00  0.00     0.118 A 
HETATM    4  F1  UNL     1       4.134   3.360   0.024  1.00  0.00    -0.206 F 
HETATM    5  C8  UNL     1       4.348   1.017  -0.113  1.00  0.00     0.065 A 
HETATM    6  C9  UNL     1       3.767  -0.223  -0.002  1.00  0.00     0.054 A 
HETATM    7  C10 UNL     1       4.572  -1.378  -0.255  1.00  0.00     0.100 C 
HETATM    8  N3  UNL     1       5.210  -2.319  -0.455  1.00  0.00    -0.191 NA
HETATM    9  C11 UNL     1       2.427  -0.377   0.348  1.00  0.00    -0.030 A 
HETATM   10  C12 UNL     1       1.803  -1.709   0.468  1.00  0.00     0.050 C 
ENDROOT
BRANCH   1  11
HETATM   11  C4  UNL     1       0.234   0.684   0.967  1.00  0.00     0.254 C 
BRANCH  11  12
HETATM   12  N2  UNL     1      -0.526  -0.251   0.163  1.00  0.00    -0.340 N 
ATOM     13  H2  UNL     1      -0.072  -0.980  -0.387  1.00  0.00     0.164 HD
BRANCH  12  14
HETATM   14  C3  UNL     1      -1.827  -0.109   0.181  1.00  0.00     0.148 A 
HETATM   15  N1  UNL     1      -2.739  -0.831  -0.464  1.00  0.00    -0.339 N 
HETATM   16  C2  UNL     1      -4.006  -0.518  -0.305  1.00  0.00     0.032 A 
ATOM     17  H1  UNL     1      -2.463  -1.607  -1.066  1.00  0.00     0.168 HD
HETATM   18  C1  UNL     1      -5.124  -1.280  -0.996  1.00  0.00     0.070 C 
HETATM   19  C13 UNL     1      -4.304   0.533   0.515  1.00  0.00     0.077 A 
HETATM   20  S1  UNL     1      -2.755   1.034   1.030  1.00  0.00    -0.045 SA
HETATM   21 BR1  UNL     1      -6.035   1.244   0.959  1.00  0.00    -0.041 Br
ENDBRANCH  12  14
ENDBRANCH  11  12
BRANCH  11  22
HETATM   22  O1  UNL     1      -0.350   1.940   0.765  1.00  0.00    -0.372 OA
ATOM     23  H1  UNL     1       0.148   2.553   1.292  1.00  0.00     0.212 HD
ENDBRANCH  11  22
ENDBRANCH   1  11
TORSDOF 4
