REMARK  7 active torsions:
REMARK  status: ('A' for Active; 'I' for Inactive)
REMARK    1  A    between atoms: C3_3  and  C5_5 
REMARK    2  A    between atoms: C5_5  and  C6_6 
REMARK    3  A    between atoms: C6_6  and  N1_7 
REMARK    4  A    between atoms: C6_6  and  C14_20 
REMARK       I    between atoms: N1_7  and  C7_9 
REMARK    5  A    between atoms: C7_9  and  C8_11 
REMARK    6  A    between atoms: C8_11  and  N2_13 
REMARK       I    between atoms: N2_13  and  C10_15 
REMARK    7  A    between atoms: C10_15  and  C11_17 
REMARK       I    between atoms: C14_20  and  N3_22 
ROOT
HETATM    1  C1  UNL     1      -5.509   0.070   1.780  1.00  0.00     0.012 C 
HETATM    2  C2  UNL     1      -4.468   0.670   1.875  1.00  0.00    -0.113 C 
HETATM    3  C3  UNL     1      -3.245   1.404   2.030  1.00  0.00     0.062 C 
HETATM    4  C4  UNL     1      -3.337   2.647   1.116  1.00  0.00     0.023 C 
ENDROOT
BRANCH   3   5
HETATM    5  C5  UNL     1      -1.992   0.683   1.842  1.00  0.00     0.051 C 
BRANCH   5   6
HETATM    6  C6  UNL     1      -1.628   0.056   0.557  1.00  0.00     0.177 C 
BRANCH   6   7
HETATM    7  N1  UNL     1      -0.293  -0.554   0.832  1.00  0.00    -0.346 N 
HETATM    8  C7  UNL     1       0.862  -0.171   0.146  1.00  0.00     0.240 C 
HETATM    9  O1  UNL     1       0.782   0.719  -0.736  1.00  0.00    -0.271 OA
ATOM     10  H1  UNL     1      -0.222  -1.277   1.548  1.00  0.00     0.163 HD
BRANCH   8  11
HETATM   11  C8  UNL     1       2.182  -0.774   0.420  1.00  0.00     0.172 C 
HETATM   12  C9  UNL     1       2.078  -2.272   0.202  1.00  0.00     0.042 C 
BRANCH  11  13
HETATM   13  N2  UNL     1       3.221  -0.209  -0.422  1.00  0.00    -0.348 N 
HETATM   14  C10 UNL     1       4.309   0.511   0.128  1.00  0.00     0.222 C 
HETATM   15  O2  UNL     1       4.404   0.678   1.352  1.00  0.00    -0.273 OA
ATOM     16  H2  UNL     1       3.166  -0.334  -1.433  1.00  0.00     0.163 HD
BRANCH  14  17
HETATM   17  C11 UNL     1       5.339   1.064  -0.780  1.00  0.00     0.078 A 
HETATM   18  C12 UNL     1       5.831   0.184  -1.883  1.00  0.00     0.015 A 
HETATM   19  C13 UNL     1       5.010   1.411  -2.178  1.00  0.00     0.015 A 
ENDBRANCH  14  17
ENDBRANCH  11  13
ENDBRANCH   8  11
ENDBRANCH   6   7
BRANCH   6  20
HETATM   20  C14 UNL     1      -2.431  -1.075   0.085  1.00  0.00     0.240 C 
HETATM   21  O3  UNL     1      -2.309  -2.194   0.625  1.00  0.00    -0.271 OA
HETATM   22  N3  UNL     1      -3.335  -0.900  -0.981  1.00  0.00    -0.364 N 
HETATM   23  C15 UNL     1      -4.145  -2.013  -1.477  1.00  0.00     0.149 C 
ATOM     24  H3  UNL     1      -3.427   0.019  -1.415  1.00  0.00     0.161 HD
ENDBRANCH   6  20
ENDBRANCH   5   6
ENDBRANCH   3   5
TORSDOF 7
