REMARK  9 active torsions:
REMARK  status: ('A' for Active; 'I' for Inactive)
REMARK    1  A    between atoms: C2_2  and  C4_4 
REMARK    2  A    between atoms: C4_4  and  C5_5 
REMARK    3  A    between atoms: C5_5  and  C6_6 
REMARK    4  A    between atoms: C6_6  and  C7_7 
REMARK    5  A    between atoms: C7_7  and  N1_8 
REMARK    6  A    between atoms: C7_7  and  N2_12 
REMARK    7  A    between atoms: N3_15  and  C10_16 
REMARK    8  A    between atoms: C10_16  and  C11_17 
REMARK    9  A    between atoms: C11_17  and  N4_18 
ROOT
HETATM    1  N2  UNL     1      -0.190   1.602   0.107  1.00  0.00     0.122 N 
HETATM    2  C8  UNL     1       0.726   1.666  -1.004  1.00  0.00     0.305 C 
HETATM    3  C9  UNL     1       2.137   1.790  -0.463  1.00  0.00     0.302 C 
HETATM    4  N3  UNL     1       2.441   0.623   0.294  1.00  0.00     0.093 N 
HETATM    5  C13 UNL     1       1.350  -0.231   0.625  1.00  0.00     0.302 C 
HETATM    6  C14 UNL     1       0.058   0.477   0.956  1.00  0.00     0.305 C 
ENDROOT
BRANCH   1   7
HETATM    7  C7  UNL     1      -1.536   1.705  -0.408  1.00  0.00     0.417 C 
BRANCH   7   8
HETATM    8  C6  UNL     1      -1.927   0.606  -1.311  1.00  0.00     0.065 C 
BRANCH   8   9
HETATM    9  C5  UNL     1      -3.282   0.755  -1.903  1.00  0.00     0.004 C 
BRANCH   9  10
HETATM   10  C4  UNL     1      -4.486   0.655  -1.067  1.00  0.00     0.004 C 
BRANCH  10  11
HETATM   11  C2  UNL     1      -4.843  -0.644  -0.460  1.00  0.00    -0.023 C 
HETATM   12  C1  UNL     1      -6.125  -0.509   0.393  1.00  0.00     0.009 C 
HETATM   13  C3  UNL     1      -3.874  -1.439   0.297  1.00  0.00     0.009 C 
ENDBRANCH  10  11
ENDBRANCH   9  10
ENDBRANCH   8   9
ENDBRANCH   7   8
BRANCH   7  14
HETATM   14  N1  UNL     1      -2.397   1.883   0.717  1.00  0.00    -0.048 N 
ATOM     15  H13 UNL     1      -3.362   2.003   0.410  1.00  0.00     0.276 HD
ATOM     16  H12 UNL     1      -2.486   1.010   1.238  1.00  0.00     0.276 HD
ATOM     17  H11 UNL     1      -2.127   2.643   1.341  1.00  0.00     0.276 HD
ENDBRANCH   7  14
ENDBRANCH   1   7
BRANCH   4  18
HETATM   18  C10 UNL     1       3.474  -0.139  -0.416  1.00  0.00     0.292 C 
BRANCH  18  19
HETATM   19  C11 UNL     1       3.847  -1.395   0.351  1.00  0.00     0.152 C 
BRANCH  19  20
HETATM   20  N4  UNL     1       4.860  -2.089  -0.408  1.00  0.00    -0.365 N 
HETATM   21  C12 UNL     1       6.105  -1.887  -0.195  1.00  0.00     0.197 C 
HETATM   22  N5  UNL     1       7.113  -2.557  -0.928  1.00  0.00    -0.067 NA
HETATM   23  N6  UNL     1       6.497  -0.961   0.808  1.00  0.00    -0.067 NA
ATOM     24  H4  UNL     1       4.577  -2.754  -1.128  1.00  0.00     0.161 HD
ENDBRANCH  19  20
ENDBRANCH  18  19
ENDBRANCH   4  18
TORSDOF 9
