REMARK  5 active torsions:
REMARK  status: ('A' for Active; 'I' for Inactive)
REMARK    1  A    between atoms: N1_1  and  C1_4 
REMARK    2  A    between atoms: C2_10  and  C3_11 
REMARK    3  A    between atoms: C3_11  and  C5_18 
REMARK    4  A    between atoms: N4_12  and  O2_14 
REMARK    5  A    between atoms: O2_14  and  C4_15 
ROOT
HETATM    1  C1  UNL     1      -2.114  -1.380   0.261  1.00  0.00     0.152 A 
HETATM    2  N2  UNL     1      -3.467  -1.488   0.408  1.00  0.00    -0.224 N 
ATOM      3  H2  UNL     1      -3.990  -2.351   0.554  1.00  0.00     0.198 HD
HETATM    4  O1  UNL     1      -3.965  -0.295   0.329  1.00  0.00    -0.155 OA
HETATM    5  N3  UNL     1      -3.023   0.582   0.141  1.00  0.00    -0.235 N 
ATOM      6  H3  UNL     1      -3.170   1.587   0.048  1.00  0.00     0.197 HD
HETATM    7  C2  UNL     1      -1.825  -0.030   0.087  1.00  0.00     0.137 A 
ENDROOT
BRANCH   7   8
HETATM    8  C3  UNL     1      -0.519   0.584  -0.109  1.00  0.00     0.163 C 
HETATM    9  N4  UNL     1       0.544  -0.124  -0.138  1.00  0.00    -0.247 N 
ATOM     10  H4  UNL     1       0.462  -1.134  -0.021  1.00  0.00     0.195 HD
BRANCH   9  11
HETATM   11  O2  UNL     1       1.780   0.414  -0.319  1.00  0.00    -0.183 OA
BRANCH  11  12
HETATM   12  C4  UNL     1       2.908  -0.297   0.105  1.00  0.00     0.394 C 
HETATM   13  N5  UNL     1       4.223   0.219  -0.060  1.00  0.00    -0.031 NA
HETATM   14  O3  UNL     1       2.748  -1.432   0.650  1.00  0.00    -0.240 OA
ENDBRANCH  11  12
ENDBRANCH   9  11
BRANCH   8  15
HETATM   15  C5  UNL     1      -0.401   2.023  -0.275  1.00  0.00     0.231 C 
HETATM   16  O4  UNL     1      -1.425   2.748  -0.251  1.00  0.00    -0.643 OA
HETATM   17  O5  UNL     1       0.823   2.647  -0.464  1.00  0.00    -0.643 OA
ENDBRANCH   8  15
ENDBRANCH   7   8
BRANCH   1  18
HETATM   18  N1  UNL     1      -1.229  -2.319   0.274  1.00  0.00    -0.382 N 
ATOM     19  H12 UNL     1      -1.441  -3.309   0.402  1.00  0.00     0.157 HD
ATOM     20  H11 UNL     1      -0.218  -2.238   0.164  1.00  0.00     0.157 HD
ENDBRANCH   1  18
TORSDOF 5
