REMARK  3 active torsions:
REMARK  status: ('A' for Active; 'I' for Inactive)
REMARK    1  A    between atoms: S1_2  and  C2_3 
REMARK    2  A    between atoms: C3_6  and  N2_7 
REMARK    3  A    between atoms: N4_18  and  O1_20 
ROOT
HETATM    1  C2  UNL     1       3.416   0.498  -0.299  1.00  0.00     0.146 A 
HETATM    2  N1  UNL     1       2.819   0.997   0.767  1.00  0.00    -0.323 N 
ATOM      3  H1  UNL     1       3.409   1.496   1.433  1.00  0.00     0.169 HD
HETATM    4  C3  UNL     1       1.520   0.913   1.060  1.00  0.00     0.114 A 
HETATM    5  C4  UNL     1       0.656   0.233   0.176  1.00  0.00     0.049 A 
HETATM    6  C5  UNL     1      -0.679   0.050   0.299  1.00  0.00    -0.022 A 
HETATM    7  C6  UNL     1      -1.280  -0.666  -0.752  1.00  0.00     0.038 A 
HETATM    8  S2  UNL     1       0.004  -1.025  -1.803  1.00  0.00    -0.069 SA
HETATM    9  C7  UNL     1       1.272  -0.286  -0.933  1.00  0.00     0.091 A 
HETATM   10  N3  UNL     1       2.617  -0.158  -1.166  1.00  0.00    -0.330 N 
ATOM     11  H3  UNL     1       3.021  -0.566  -2.009  1.00  0.00     0.168 HD
HETATM   12  C8  UNL     1      -2.706  -1.017  -0.921  1.00  0.00     0.049 C 
HETATM   13  N4  UNL     1      -2.920  -1.875  -1.823  1.00  0.00    -0.272 N 
ATOM     14  H4  UNL     1      -3.873  -2.183  -2.016  1.00  0.00     0.194 HD
HETATM   15  C9  UNL     1      -3.870  -0.452  -0.142  1.00  0.00     0.060 C 
HETATM   16  C10 UNL     1      -3.599   1.033  -0.040  1.00  0.00     0.006 C 
HETATM   17  C11 UNL     1      -2.622   1.464   0.965  1.00  0.00     0.005 C 
HETATM   18  C12 UNL     1      -1.581   0.507   1.427  1.00  0.00     0.041 C 
ENDROOT
BRANCH  13  19
HETATM   19  O1  UNL     1      -1.878  -2.392  -2.541  1.00  0.00    -0.290 OA
ATOM     20  H1  UNL     1      -2.039  -3.037  -3.219  1.00  0.00     0.244 HD
ENDBRANCH  13  19
BRANCH   4  21
HETATM   21  N2  UNL     1       1.082   1.458   2.129  1.00  0.00    -0.385 N 
ATOM     22  H22 UNL     1       1.707   1.950   2.768  1.00  0.00     0.157 HD
ATOM     23  H21 UNL     1       0.089   1.394   2.353  1.00  0.00     0.157 HD
ENDBRANCH   4  21
BRANCH   1  24
HETATM   24  S1  UNL     1       5.141   0.642  -0.631  1.00  0.00    -0.098 SA
HETATM   25  C1  UNL     1       6.064  -0.735   0.070  1.00  0.00     0.099 C 
ENDBRANCH   1  24
TORSDOF 3
