REMARK  0 active torsions:
REMARK  status: ('A' for Active; 'I' for Inactive)
ROOT
HETATM    1  C1  UNL     1      -1.350  -1.138   0.492  1.00  0.00     0.011 C 
HETATM    2  C2  UNL     1      -2.029  -0.103  -0.393  1.00  0.00     0.012 C 
HETATM    3  C3  UNL     1      -1.849   1.292   0.114  1.00  0.00     0.086 C 
HETATM    4  S1  UNL     1      -0.721   2.285  -0.862  1.00  0.00    -0.098 SA
HETATM    5  S2  UNL     1       1.075   1.327  -1.329  1.00  0.00    -0.097 SA
HETATM    6  C4  UNL     1       2.219   1.205   0.056  1.00  0.00     0.096 C 
HETATM    7  C5  UNL     1       2.599  -0.275   0.184  1.00  0.00     0.084 C 
HETATM    8  S3  UNL     1       1.294  -1.232   0.948  1.00  0.00    -0.168 SA
HETATM    9  C6  UNL     1      -0.057  -1.628  -0.155  1.00  0.00     0.074 C 
ENDROOT
TORSDOF 0
