REMARK  7 active torsions:
REMARK  status: ('A' for Active; 'I' for Inactive)
REMARK    1  A    between atoms: C3_3  and  N1_4 
REMARK    2  A    between atoms: C3_3  and  C4_8 
REMARK    3  A    between atoms: N1_4  and  N2_5 
REMARK       I    between atoms: C4_8  and  N3_10 
REMARK       I    between atoms: N3_10  and  C5_12 
REMARK       I    between atoms: C5_12  and  N4_14 
REMARK    4  A    between atoms: N4_14  and  C6_16 
REMARK    5  A    between atoms: C6_16  and  C7_17 
REMARK    6  A    between atoms: C8_18  and  C9_19 
REMARK    7  A    between atoms: C10_20  and  C11_21 
ROOT
HETATM    1  C1  UNL     1       7.307  -0.766  -0.077  1.00  0.00     0.021 C 
HETATM    2  C2  UNL     1       6.172  -1.186  -0.178  1.00  0.00    -0.037 C 
HETATM    3  C3  UNL     1       4.846  -1.704  -0.314  1.00  0.00     0.250 C 
ENDROOT
BRANCH   3   4
HETATM    4  N1  UNL     1       4.674  -2.954  -0.173  1.00  0.00    -0.318 NA
BRANCH   4   5
HETATM    5  N2  UNL     1       4.513  -4.073   0.370  1.00  0.00    -0.279 N 
ATOM      6  H22 UNL     1       4.543  -3.736   1.332  1.00  0.00     0.191 HD
ATOM      7  H21 UNL     1       4.375  -5.077   0.483  1.00  0.00     0.191 HD
ENDBRANCH   4   5
ENDBRANCH   3   4
BRANCH   3   8
HETATM    8  C4  UNL     1       3.748  -0.866  -0.581  1.00  0.00     0.301 C 
HETATM    9  O1  UNL     1       2.944  -0.896  -1.408  1.00  0.00    -0.264 OA
HETATM   10  N3  UNL     1       3.637   0.418   0.571  1.00  0.00    -0.272 N 
HETATM   11  C5  UNL     1       2.520   0.985   0.042  1.00  0.00     0.323 C 
ATOM     12  H3  UNL     1       4.214   0.666   1.375  1.00  0.00     0.174 HD
HETATM   13  O2  UNL     1       1.818   0.631  -0.931  1.00  0.00    -0.247 OA
HETATM   14  N4  UNL     1       2.018   2.230   0.693  1.00  0.00    -0.332 N 
ATOM     15  H4  UNL     1       2.514   2.603   1.503  1.00  0.00     0.165 HD
BRANCH  14  16
HETATM   16  C6  UNL     1       0.864   2.911   0.212  1.00  0.00     0.219 C 
BRANCH  16  17
HETATM   17  C7  UNL     1      -0.349   2.071   0.220  1.00  0.00    -0.073 C 
HETATM   18  C8  UNL     1      -1.336   1.388   0.201  1.00  0.00    -0.013 C 
BRANCH  18  19
HETATM   19  C9  UNL     1      -2.484   0.569   0.187  1.00  0.00    -0.015 C 
HETATM   20  C10 UNL     1      -3.479  -0.112   0.175  1.00  0.00    -0.088 C 
BRANCH  20  21
HETATM   21  C11 UNL     1      -4.708  -0.946   0.188  1.00  0.00     0.058 C 
HETATM   22  C12 UNL     1      -5.476  -0.678  -1.069  1.00  0.00     0.023 C 
HETATM   23  C13 UNL     1      -5.551  -0.634   1.423  1.00  0.00     0.023 C 
ENDBRANCH  20  21
ENDBRANCH  18  19
ENDBRANCH  16  17
ENDBRANCH  14  16
ENDBRANCH   3   8
TORSDOF 7
