REMARK  2 active torsions:
REMARK  status: ('A' for Active; 'I' for Inactive)
REMARK    1  A    between atoms: C4_8  and  S1_9 
REMARK    2  A    between atoms: S1_9  and  C5_11 
ROOT
HETATM    1  N1  UNL     1      -4.575   0.028  -0.656  1.00  0.00    -0.083 NA
HETATM    2  C1  UNL     1      -3.359   0.162   0.063  1.00  0.00     0.123 A 
HETATM    3  C2  UNL     1      -3.301   0.883   1.233  1.00  0.00     0.119 A 
HETATM    4  C3  UNL     1      -2.082   0.948   1.899  1.00  0.00     0.250 A 
HETATM    5  O1  UNL     1      -2.028   1.611   3.004  1.00  0.00    -0.268 OA
HETATM    6  N2  UNL     1      -1.007   0.319   1.397  1.00  0.00    -0.302 N 
ATOM      7  H2  UNL     1      -0.123   0.377   1.902  1.00  0.00     0.171 HD
HETATM    8  C4  UNL     1      -1.055  -0.374   0.270  1.00  0.00     0.185 A 
HETATM    9  N4  UNL     1      -2.239  -0.434  -0.366  1.00  0.00    -0.323 N 
ATOM     10  H4  UNL     1      -2.287  -0.969  -1.233  1.00  0.00     0.169 HD
ENDROOT
BRANCH   8  11
HETATM   11  S1  UNL     1       0.272  -1.179  -0.413  1.00  0.00     0.136 S 
HETATM   12  O2  UNL     1      -0.006  -1.497  -2.052  1.00  0.00    -0.243 OA
BRANCH  11  13
HETATM   13  C5  UNL     1       1.838  -0.440  -0.276  1.00  0.00     0.108 A 
HETATM   14  C6  UNL     1       2.869  -1.264  -0.587  1.00  0.00     0.040 A 
HETATM   15  C7  UNL     1       4.239  -0.834  -0.539  1.00  0.00     0.004 A 
HETATM   16  C8  UNL     1       4.502   0.397  -0.180  1.00  0.00     0.017 A 
HETATM   17  C9  UNL     1       3.373   1.271   0.153  1.00  0.00     0.089 A 
HETATM   18  N3  UNL     1       2.166   0.841   0.093  1.00  0.00    -0.358 N 
ATOM     19  H3  UNL     1       1.411   1.484   0.332  1.00  0.00     0.166 HD
ENDBRANCH  11  13
ENDBRANCH   8  11
TORSDOF 2
