REMARK  3 active torsions:
REMARK  status: ('A' for Active; 'I' for Inactive)
REMARK    1  A    between atoms: N1_1  and  C1_5 
REMARK    2  A    between atoms: C1_5  and  C2_6 
REMARK    3  A    between atoms: C1_5  and  C7_18 
ROOT
HETATM    1  C2  UNL     1       0.559   0.930   0.174  1.00  0.00     0.033 C 
HETATM    2  C3  UNL     1       1.655   0.278  -0.124  1.00  0.00     0.099 A 
HETATM    3  C4  UNL     1       2.744   0.171   0.879  1.00  0.00     0.264 A 
HETATM    4  O1  UNL     1       2.611   0.710   2.019  1.00  0.00    -0.267 OA
HETATM    5  N2  UNL     1       3.953  -0.524   0.613  1.00  0.00    -0.275 N 
ATOM      6  H2  UNL     1       4.679  -0.577   1.328  1.00  0.00     0.173 HD
HETATM    7  C5  UNL     1       4.149  -1.139  -0.634  1.00  0.00     0.329 A 
HETATM    8  O2  UNL     1       5.228  -1.754  -0.859  1.00  0.00    -0.246 OA
HETATM    9  N3  UNL     1       3.154  -1.073  -1.629  1.00  0.00    -0.275 N 
ATOM     10  H3  UNL     1       3.302  -1.521  -2.533  1.00  0.00     0.173 HD
HETATM   11  C6  UNL     1       1.953  -0.384  -1.367  1.00  0.00     0.264 A 
HETATM   12  O3  UNL     1       1.103  -0.355  -2.281  1.00  0.00    -0.267 OA
ENDROOT
BRANCH   1  13
HETATM   13  C1  UNL     1      -0.635   1.194  -0.574  1.00  0.00     0.240 C 
BRANCH  13  14
HETATM   14  N1  UNL     1      -1.120   2.551  -0.241  1.00  0.00    -0.068 N 
ATOM     15  H13 UNL     1      -1.253   2.681   0.762  1.00  0.00     0.275 HD
ATOM     16  H12 UNL     1      -0.406   3.265  -0.384  1.00  0.00     0.275 HD
ATOM     17  H11 UNL     1      -1.970   2.739  -0.773  1.00  0.00     0.275 HD
ENDBRANCH  13  14
BRANCH  13  18
HETATM   18  C7  UNL     1      -1.723   0.290  -0.048  1.00  0.00    -0.024 A 
HETATM   19  C8  UNL     1      -2.204  -0.763  -0.798  1.00  0.00     0.009 A 
HETATM   20  C9  UNL     1      -3.196  -1.562  -0.279  1.00  0.00     0.001 A 
HETATM   21  C10 UNL     1      -3.713  -1.327   0.970  1.00  0.00     0.000 A 
HETATM   22  C11 UNL     1      -3.241  -0.278   1.731  1.00  0.00     0.001 A 
HETATM   23  C12 UNL     1      -2.251   0.522   1.218  1.00  0.00     0.009 A 
ENDBRANCH  13  18
ENDBRANCH   1  13
TORSDOF 3
