REMARK  3 active torsions:
REMARK  status: ('A' for Active; 'I' for Inactive)
REMARK    1  A    between atoms: O1_2  and  C2_3 
REMARK    2  A    between atoms: C5_12  and  O2_13 
REMARK    3  A    between atoms: C5_12  and  C6_15 
ROOT
HETATM    1  C2  UNL     1       2.732   0.614   0.101  1.00  0.00     0.186 A 
HETATM    2  N1  UNL     1       3.204  -0.433   0.760  1.00  0.00    -0.278 N 
ATOM      3  H1  UNL     1       4.124  -0.461   1.199  1.00  0.00     0.189 HD
HETATM    4  N2  UNL     1       2.346  -1.438   0.784  1.00  0.00    -0.296 N 
ATOM      5  H2  UNL     1       2.484  -2.346   1.229  1.00  0.00     0.187 HD
HETATM    6  C3  UNL     1       1.240  -1.026   0.098  1.00  0.00     0.086 A 
HETATM    7  C4  UNL     1       1.454   0.263  -0.345  1.00  0.00     0.112 A 
HETATM    8  N3  UNL     1       0.427   0.685  -0.999  1.00  0.00    -0.344 N 
ATOM      9  H3  UNL     1       0.339   1.607  -1.427  1.00  0.00     0.163 HD
HETATM   10  C5  UNL     1      -0.578  -0.349  -1.031  1.00  0.00     0.203 A 
HETATM   11  C11 UNL     1       0.048  -1.448  -0.278  1.00  0.00     0.008 A 
HETATM   12  C12 UNL     1      -0.495  -2.800   0.038  1.00  0.00     0.051 C 
ENDROOT
BRANCH  10  13
HETATM   13  O2  UNL     1      -0.772  -0.683  -2.378  1.00  0.00    -0.362 OA
ATOM     14  H2  UNL     1      -1.434  -1.364  -2.399  1.00  0.00     0.213 HD
ENDBRANCH  10  13
BRANCH  10  15
HETATM   15  C6  UNL     1      -1.830   0.144  -0.408  1.00  0.00     0.069 A 
HETATM   16  C7  UNL     1      -2.042   1.512  -0.296  1.00  0.00     0.030 A 
HETATM   17  C8  UNL     1      -3.183   2.037   0.271  1.00  0.00     0.003 A 
HETATM   18  C9  UNL     1      -4.139   1.143   0.741  1.00  0.00     0.017 A 
HETATM   19  C10 UNL     1      -3.895  -0.211   0.614  1.00  0.00     0.088 A 
HETATM   20  N4  UNL     1      -2.766  -0.669   0.052  1.00  0.00    -0.365 N 
ATOM     21  H4  UNL     1      -2.625  -1.676  -0.023  1.00  0.00     0.165 HD
ENDBRANCH  10  15
BRANCH   1  22
HETATM   22  O1  UNL     1       3.323   1.855  -0.146  1.00  0.00    -0.338 OA
HETATM   23  C1  UNL     1       4.630   2.099   0.357  1.00  0.00     0.211 C 
ENDBRANCH   1  22
TORSDOF 3
