REMARK  8 active torsions:
REMARK  status: ('A' for Active; 'I' for Inactive)
REMARK    1  A    between atoms: N1_1  and  C1_4 
REMARK    2  A    between atoms: C3_12  and  N5_13 
REMARK    3  A    between atoms: C4_20  and  N9_21 
REMARK    4  A    between atoms: C5_27  and  S1_28 
REMARK    5  A    between atoms: S1_28  and  C6_29 
REMARK    6  A    between atoms: C6_29  and  C7_30 
REMARK    7  A    between atoms: C7_30  and  C8_31 
REMARK    8  A    between atoms: C8_31  and  N12_32 
ROOT
HETATM    1  C1  UNL     1      -4.662  -3.275  -0.433  1.00  0.00     0.131 A 
HETATM    2  N2  UNL     1      -6.003  -3.306  -0.286  1.00  0.00    -0.283 N 
ATOM      3  H2  UNL     1      -6.573  -4.150  -0.336  1.00  0.00     0.188 HD
HETATM    4  N3  UNL     1      -6.474  -2.092  -0.069  1.00  0.00    -0.283 N 
ATOM      5  H3  UNL     1      -7.457  -1.862   0.074  1.00  0.00     0.188 HD
HETATM    6  C2  UNL     1      -5.461  -1.201  -0.064  1.00  0.00     0.153 A 
HETATM    7  N4  UNL     1      -5.378   0.137   0.107  1.00  0.00    -0.170 N 
ATOM      8  H4  UNL     1      -6.236   0.663   0.275  1.00  0.00     0.186 HD
HETATM    9  C3  UNL     1      -4.207   0.805   0.065  1.00  0.00     0.744 A 
HETATM   10  N10 UNL     1      -3.085   0.094  -0.158  1.00  0.00    -0.064 N 
HETATM   11  N11 UNL     1      -1.812   0.467  -0.251  1.00  0.00    -0.257 N 
ATOM     12  H11 UNL     1      -1.481   1.427  -0.158  1.00  0.00     0.190 HD
HETATM   13  C5  UNL     1      -1.020  -0.594  -0.484  1.00  0.00     0.161 A 
HETATM   14  N17 UNL     1      -1.866  -1.658  -0.531  1.00  0.00    -0.319 N 
ATOM     15  H17 UNL     1      -1.586  -2.625  -0.693  1.00  0.00     0.169 HD
HETATM   16  C11 UNL     1      -3.129  -1.240  -0.332  1.00  0.00     0.165 A 
HETATM   17  C12 UNL     1      -4.317  -1.939  -0.292  1.00  0.00     0.101 A 
ENDROOT
BRANCH   9  18
HETATM   18  N5  UNL     1      -4.157   2.224   0.250  1.00  0.00     0.109 N 
HETATM   19  N6  UNL     1      -3.206   2.872   0.881  1.00  0.00    -0.191 N 
HETATM   20  N7  UNL     1      -3.486   4.146   0.857  1.00  0.00    -0.212 N 
ATOM     21  H6  UNL     1      -2.386   2.450   1.317  1.00  0.00     0.211 HD
HETATM   22  N8  UNL     1      -4.617   4.321   0.211  1.00  0.00    -0.114 N 
ATOM     23  H7  UNL     1      -2.919   4.886   1.272  1.00  0.00     0.210 HD
HETATM   24  C4  UNL     1      -5.048   3.110  -0.176  1.00  0.00     0.729 A 
ATOM     25  H8  UNL     1      -5.081   5.212   0.036  1.00  0.00     0.207 HD
BRANCH  24  26
HETATM   26  N9  UNL     1      -6.143   2.853  -0.849  1.00  0.00    -0.231 N 
ATOM     27  H92 UNL     1      -6.470   1.933  -1.143  1.00  0.00     0.174 HD
ATOM     28  H91 UNL     1      -6.828   3.534  -1.176  1.00  0.00     0.174 HD
ENDBRANCH  24  26
ENDBRANCH   9  18
BRANCH  13  29
HETATM   29  S1  UNL     1       0.763  -0.642  -0.692  1.00  0.00    -0.092 SA
BRANCH  29  30
HETATM   30  C6  UNL     1       1.484  -0.875   0.966  1.00  0.00     0.083 C 
BRANCH  30  31
HETATM   31  C7  UNL     1       2.976  -0.934   0.923  1.00  0.00     0.026 C 
BRANCH  31  32
HETATM   32  C8  UNL     1       3.582   0.333   0.358  1.00  0.00     0.114 C 
BRANCH  32  33
HETATM   33  N12 UNL     1       5.033   0.210   0.344  1.00  0.00    -0.198 NA
HETATM   34  N13 UNL     1       5.431  -0.869  -0.414  1.00  0.00    -0.146 NA
HETATM   35  C9  UNL     1       6.109  -0.365  -1.580  1.00  0.00     0.243 C 
HETATM   36  N14 UNL     1       6.123   1.064  -1.511  1.00  0.00    -0.166 NA
HETATM   37  N15 UNL     1       7.395   1.533  -1.107  1.00  0.00    -0.050 NA
HETATM   38  C10 UNL     1       5.636   1.392  -0.187  1.00  0.00     0.280 C 
HETATM   39  N16 UNL     1       6.976   1.687   0.211  1.00  0.00    -0.092 NA
ENDBRANCH  32  33
ENDBRANCH  31  32
ENDBRANCH  30  31
ENDBRANCH  29  30
ENDBRANCH  13  29
BRANCH   1  40
HETATM   40  N1  UNL     1      -3.842  -4.250  -0.657  1.00  0.00    -0.384 N 
ATOM     41  H12 UNL     1      -4.096  -5.232  -0.761  1.00  0.00     0.157 HD
ATOM     42  H11 UNL     1      -2.828  -4.227  -0.768  1.00  0.00     0.157 HD
ENDBRANCH   1  40
TORSDOF 8
