REMARK  4 active torsions:
REMARK  status: ('A' for Active; 'I' for Inactive)
REMARK    1  A    between atoms: C2_2  and  C4_4 
REMARK    2  A    between atoms: C4_4  and  C7_7 
REMARK    3  A    between atoms: C8_12  and  C9_13 
REMARK    4  A    between atoms: C9_13  and  N3_14 
ROOT
HETATM    1  C7  UNL     1      -1.927  -0.133   0.443  1.00  0.00     0.058 A 
HETATM    2  N1  UNL     1      -1.236   0.559   1.396  1.00  0.00    -0.302 N 
ATOM      3  H1  UNL     1      -1.642   0.937   2.252  1.00  0.00     0.186 HD
HETATM    4  N2  UNL     1       0.034   0.669   1.050  1.00  0.00    -0.297 N 
ATOM      5  H2  UNL     1       0.751   1.144   1.598  1.00  0.00     0.187 HD
HETATM    6  C8  UNL     1       0.240   0.064  -0.129  1.00  0.00     0.087 A 
HETATM    7  C15 UNL     1      -0.997  -0.439  -0.508  1.00  0.00     0.088 A 
HETATM    8 CL1  UNL     1      -1.289  -1.329  -1.983  1.00  0.00    -0.080 Cl
ENDROOT
BRANCH   6   9
HETATM    9  C9  UNL     1       1.489  -0.070  -0.932  1.00  0.00     0.122 C 
BRANCH   9  10
HETATM   10  N3  UNL     1       2.634   0.502  -0.344  1.00  0.00    -0.364 N 
HETATM   11  C10 UNL     1       3.095  -0.029   0.879  1.00  0.00     0.157 C 
HETATM   12  C11 UNL     1       4.184  -1.054   0.599  1.00  0.00     0.292 C 
HETATM   13  N4  UNL     1       5.282  -0.476  -0.100  1.00  0.00     0.090 N 
HETATM   14  C12 UNL     1       6.210   0.248   0.711  1.00  0.00     0.310 C 
HETATM   15  C13 UNL     1       4.896   0.211  -1.310  1.00  0.00     0.316 C 
HETATM   16  C14 UNL     1       3.650   1.017  -1.163  1.00  0.00     0.093 C 
ENDBRANCH   9  10
ENDBRANCH   6   9
BRANCH   1  17
HETATM   17  C4  UNL     1      -3.362  -0.447   0.484  1.00  0.00     0.001 C 
HETATM   18  C5  UNL     1      -3.946   0.106   1.770  1.00  0.00     0.022 C 
HETATM   19  C6  UNL     1      -3.625  -1.941   0.505  1.00  0.00     0.022 C 
BRANCH  17  20
HETATM   20  C2  UNL     1      -4.109   0.142  -0.680  1.00  0.00    -0.009 C 
HETATM   21  C1  UNL     1      -5.576  -0.215  -0.600  1.00  0.00     0.011 C 
HETATM   22  C3  UNL     1      -3.977   1.625  -0.789  1.00  0.00     0.011 C 
ENDBRANCH  17  20
ENDBRANCH   1  17
TORSDOF 4
