REMARK  9 active torsions:
REMARK  status: ('A' for Active; 'I' for Inactive)
REMARK    1  A    between atoms: C4_7  and  C5_8 
REMARK    2  A    between atoms: C5_8  and  C6_9 
REMARK    3  A    between atoms: C6_9  and  C7_10 
REMARK    4  A    between atoms: C7_10  and  C8_11 
REMARK    5  A    between atoms: C8_11  and  N2_12 
REMARK    6  A    between atoms: N4_22  and  C15_23 
REMARK    7  A    between atoms: C15_23  and  C16_24 
REMARK    8  A    between atoms: C16_24  and  C17_25 
REMARK    9  A    between atoms: C22_30  and  O2_31 
ROOT
HETATM    1  C1  UNL     1       1.942  -2.381  -0.539  1.00  0.00     0.070 C 
HETATM    2  C2  UNL     1       0.707  -1.620  -0.028  1.00  0.00     0.192 C 
HETATM    3  C3  UNL     1      -0.209  -2.688   0.513  1.00  0.00     0.070 C 
HETATM    4  N1  UNL     1       1.123  -0.840   1.137  1.00  0.00    -0.045 N 
ATOM      5  H11 UNL     1       1.778  -1.374   1.709  1.00  0.00     0.280 HD
ATOM      6  H12 UNL     1       0.352  -0.747   1.798  1.00  0.00     0.280 HD
HETATM    7  C4  UNL     1       1.668   0.444   0.819  1.00  0.00     0.190 C 
HETATM    8  C13 UNL     1       1.986   0.685  -0.607  1.00  0.00     0.053 C 
HETATM    9  C14 UNL     1       0.768   0.349  -1.451  1.00  0.00     0.126 C 
HETATM   10  N4  UNL     1       0.116  -0.841  -1.011  1.00  0.00    -0.362 N 
ENDROOT
BRANCH  10  11
HETATM   11  C15 UNL     1      -1.234  -0.887  -1.365  1.00  0.00     0.061 C 
BRANCH  11  12
HETATM   12  C16 UNL     1      -2.120  -0.296  -0.295  1.00  0.00     0.050 C 
BRANCH  12  13
HETATM   13  C17 UNL     1      -3.556  -0.382  -0.737  1.00  0.00     0.007 C 
HETATM   14  C18 UNL     1      -3.951  -1.828  -0.967  1.00  0.00     0.045 C 
HETATM   15  C19 UNL     1      -5.431  -1.759  -0.842  1.00  0.00    -0.051 A 
HETATM   16  C20 UNL     1      -6.375  -2.693  -1.282  1.00  0.00     0.010 A 
HETATM   17  C24 UNL     1      -5.795  -0.609  -0.205  1.00  0.00    -0.040 A 
HETATM   18  C21 UNL     1      -7.697  -2.403  -1.046  1.00  0.00     0.037 A 
HETATM   19  C22 UNL     1      -8.094  -1.252  -0.407  1.00  0.00     0.066 A 
HETATM   20  C23 UNL     1      -7.138  -0.353   0.015  1.00  0.00     0.045 A 
HETATM   21  C25 UNL     1      -4.570   0.210   0.152  1.00  0.00    -0.008 C 
HETATM   22  C26 UNL     1      -4.946   1.633  -0.200  1.00  0.00     0.015 C 
HETATM   23  C30 UNL     1      -4.342   0.129   1.618  1.00  0.00     0.015 C 
HETATM   24  C27 UNL     1      -5.191   2.480   1.017  1.00  0.00     0.001 C 
HETATM   25  C28 UNL     1      -3.928   2.596   1.853  1.00  0.00     0.000 C 
HETATM   26  C29 UNL     1      -3.499   1.210   2.219  1.00  0.00     0.001 C 
BRANCH  19  27
HETATM   27  O2  UNL     1      -9.413  -0.971  -0.176  1.00  0.00    -0.361 OA
ATOM     28  H2  UNL     1      -9.687  -0.176   0.265  1.00  0.00     0.217 HD
ENDBRANCH  19  27
ENDBRANCH  12  13
ENDBRANCH  11  12
ENDBRANCH  10  11
BRANCH   7  29
HETATM   29  C5  UNL     1       2.658   0.945   1.799  1.00  0.00     0.033 C 
BRANCH  29  30
HETATM   30  C6  UNL     1       3.868   0.166   2.089  1.00  0.00     0.004 C 
BRANCH  30  31
HETATM   31  C7  UNL     1       4.826  -0.057   0.982  1.00  0.00     0.030 C 
BRANCH  31  32
HETATM   32  C8  UNL     1       5.416   1.215   0.408  1.00  0.00     0.273 C 
BRANCH  32  33
HETATM   33  N2  UNL     1       6.298   0.846  -0.674  1.00  0.00     0.098 N 
HETATM   34  C9  UNL     1       6.879   1.932  -1.385  1.00  0.00     0.292 C 
HETATM   35  C10 UNL     1       8.311   2.237  -1.081  1.00  0.00     0.152 C 
HETATM   36  N3  UNL     1       9.081   1.054  -1.380  1.00  0.00    -0.358 N 
HETATM   37  C11 UNL     1       8.449  -0.190  -1.099  1.00  0.00     0.246 C 
ATOM     38  H3  UNL     1      10.022   1.106  -1.770  1.00  0.00     0.162 HD
HETATM   39  O1  UNL     1       8.905  -1.260  -1.513  1.00  0.00    -0.272 OA
HETATM   40  C12 UNL     1       7.194  -0.201  -0.280  1.00  0.00     0.374 C 
ENDBRANCH  32  33
ENDBRANCH  31  32
ENDBRANCH  30  31
ENDBRANCH  29  30
ENDBRANCH   7  29
TORSDOF 9
