REMARK  10 active torsions:
REMARK  status: ('A' for Active; 'I' for Inactive)
REMARK       I    between atoms: N1_6  and  C6_7 
REMARK    1  A    between atoms: C6_7  and  C7_9 
REMARK    2  A    between atoms: C7_9  and  C8_10 
REMARK    3  A    between atoms: C8_10  and  C9_11 
REMARK    4  A    between atoms: C11_16  and  C12_17 
REMARK    5  A    between atoms: C12_17  and  C13_18 
REMARK    6  A    between atoms: C13_18  and  C14_19 
REMARK    7  A    between atoms: C14_19  and  N4_23 
REMARK    8  A    between atoms: N4_23  and  C16_25 
REMARK    9  A    between atoms: C24_33  and  C25_34 
REMARK   10  A    between atoms: C25_34  and  C26_35 
ROOT
HETATM    1  C9  UNL     1       1.869  -1.343  -1.914  1.00  0.00     0.107 C 
HETATM    2  C10 UNL     1       1.451   0.035  -1.970  1.00  0.00     0.226 C 
HETATM    3  O2  UNL     1       2.052   0.945  -2.640  1.00  0.00    -0.273 OA
HETATM    4  N2  UNL     1       0.314   0.474  -1.266  1.00  0.00    -0.353 N 
ATOM      5  H2  UNL     1       0.271   1.432  -0.919  1.00  0.00     0.163 HD
HETATM    6  C11 UNL     1      -0.815  -0.444  -1.027  1.00  0.00     0.108 C 
HETATM    7  C23 UNL     1      -0.192  -1.773  -0.693  1.00  0.00     0.002 C 
HETATM    8  C24 UNL     1       0.998  -2.178  -1.083  1.00  0.00    -0.059 C 
ENDROOT
BRANCH   6   9
HETATM    9  C12 UNL     1      -1.630  -0.038   0.157  1.00  0.00     0.036 C 
BRANCH   9  10
HETATM   10  C13 UNL     1      -2.254   1.306   0.092  1.00  0.00     0.078 C 
BRANCH  10  11
HETATM   11  C14 UNL     1      -3.201   1.545  -0.992  1.00  0.00     0.076 C 
HETATM   12  N3  UNL     1      -2.900   2.380  -1.963  1.00  0.00    -0.389 N 
ATOM     13  H32 UNL     1      -1.981   2.810  -1.864  1.00  0.00     0.157 HD
ATOM     14  H31 UNL     1      -3.562   2.547  -2.721  1.00  0.00     0.157 HD
BRANCH  11  15
HETATM   15  N4  UNL     1      -4.481   0.946  -1.130  1.00  0.00    -0.345 N 
HETATM   16  C15 UNL     1      -4.585  -0.453  -1.362  1.00  0.00     0.157 C 
BRANCH  15  17
HETATM   17  C16 UNL     1      -5.600   1.818  -1.034  1.00  0.00     0.012 C 
HETATM   18  C17 UNL     1      -6.954   1.245  -1.115  1.00  0.00     0.021 C 
HETATM   19  C18 UNL     1      -7.452   0.269  -0.170  1.00  0.00    -0.025 C 
HETATM   20  C19 UNL     1      -6.929   0.147   1.196  1.00  0.00     0.027 C 
HETATM   21  C20 UNL     1      -6.108   1.235   1.750  1.00  0.00     0.004 C 
HETATM   22  C21 UNL     1      -6.425   2.605   1.216  1.00  0.00     0.006 C 
HETATM   23  C22 UNL     1      -5.516   2.855   0.057  1.00  0.00     0.057 C 
ENDBRANCH  15  17
ENDBRANCH  11  15
ENDBRANCH  10  11
ENDBRANCH   9  10
ENDBRANCH   6   9
BRANCH   8  24
HETATM   24  C25 UNL     1       1.425  -3.546  -0.614  1.00  0.00     0.148 C 
BRANCH  24  25
HETATM   25  C26 UNL     1       1.663  -4.472  -1.730  1.00  0.00     0.176 C 
HETATM   26  O3  UNL     1       1.481  -4.150  -2.916  1.00  0.00    -0.648 OA
HETATM   27  O4  UNL     1       2.109  -5.761  -1.454  1.00  0.00    -0.648 OA
ENDBRANCH  24  25
ENDBRANCH   8  24
BRANCH   1  28
HETATM   28  C8  UNL     1       3.334  -1.540  -1.638  1.00  0.00     0.028 C 
BRANCH  28  29
HETATM   29  C7  UNL     1       3.806  -0.967  -0.350  1.00  0.00     0.104 C 
BRANCH  29  30
HETATM   30  C6  UNL     1       5.262  -1.239  -0.218  1.00  0.00     0.219 C 
HETATM   31  N1  UNL     1       6.006  -0.813   0.927  1.00  0.00    -0.352 N 
HETATM   32  C5  UNL     1       7.423  -1.077   1.053  1.00  0.00     0.125 C 
HETATM   33  C27 UNL     1       5.342  -0.102   1.993  1.00  0.00     0.130 C 
HETATM   34  C4  UNL     1       8.164   0.039   1.749  1.00  0.00     0.020 C 
HETATM   35  C3  UNL     1       7.349   1.311   1.567  1.00  0.00     0.007 C 
HETATM   36  C2  UNL     1       6.104   1.128   2.416  1.00  0.00    -0.001 C 
HETATM   37  C1  UNL     1       5.238   2.347   2.339  1.00  0.00     0.011 C 
HETATM   38  O1  UNL     1       5.881  -1.854  -1.116  1.00  0.00    -0.273 OA
ENDBRANCH  29  30
ENDBRANCH  28  29
ENDBRANCH   1  28
TORSDOF 10
