REMARK  16 active torsions:
REMARK  status: ('A' for Active; 'I' for Inactive)
REMARK    1  A    between atoms: C2_2  and  O1_3 
REMARK    2  A    between atoms: O1_3  and  C3_4 
REMARK    3  A    between atoms: C3_4  and  C4_6 
REMARK    4  A    between atoms: C4_6  and  O3_7 
REMARK    5  A    between atoms: C6_11  and  C7_12 
REMARK    6  A    between atoms: C7_12  and  O5_13 
REMARK    7  A    between atoms: C7_12  and  C8_15 
REMARK    8  A    between atoms: C8_15  and  O6_16 
REMARK    9  A    between atoms: C9_19  and  O8_20 
REMARK   10  A    between atoms: O8_20  and  C10_21 
REMARK   11  A    between atoms: C11_25  and  O9_26 
REMARK   12  A    between atoms: C12_28  and  C13_29 
REMARK   13  A    between atoms: C13_29  and  O10_30 
REMARK   14  A    between atoms: C15_34  and  O12_35 
REMARK   15  A    between atoms: O12_35  and  C16_36 
REMARK   16  A    between atoms: C19_45  and  O13_47 
ROOT
HETATM    1  C4  UNL     1      -1.505   1.398   1.456  1.00  0.00     0.281 C 
HETATM    2  O4  UNL     1      -0.373   2.087   1.839  1.00  0.00    -0.336 OA
HETATM    3  C5  UNL     1       0.743   1.434   1.410  1.00  0.00     0.169 C 
HETATM    4  C6  UNL     1       1.329   0.571   2.490  1.00  0.00     0.185 C 
HETATM    5  O7  UNL     1       1.666  -0.641   1.954  1.00  0.00    -0.350 OA
HETATM    6  C9  UNL     1       1.320  -0.678   0.629  1.00  0.00     0.274 C 
HETATM    7  C14 UNL     1       0.272   0.372   0.407  1.00  0.00     0.108 C 
HETATM    8  C15 UNL     1      -1.073   0.014   1.003  1.00  0.00     0.208 C 
ENDROOT
BRANCH   8   9
HETATM    9  O12 UNL     1      -1.979  -0.411   0.101  1.00  0.00    -0.350 OA
BRANCH   9  10
HETATM   10  C16 UNL     1      -2.658  -1.554   0.259  1.00  0.00     0.278 C 
HETATM   11  N2  UNL     1      -2.191  -2.496  -0.743  1.00  0.00    -0.346 N 
HETATM   12  C17 UNL     1      -2.926  -2.974  -1.844  1.00  0.00     0.120 A 
ATOM     13  H2  UNL     1      -1.238  -2.845  -0.639  1.00  0.00     0.163 HD
HETATM   14  C18 UNL     1      -4.297  -3.184  -1.533  1.00  0.00     0.249 A 
HETATM   15  N3  UNL     1      -3.812  -3.455  -2.842  1.00  0.00    -0.349 N 
HETATM   16  N4  UNL     1      -4.584  -2.852  -0.164  1.00  0.00    -0.362 N 
HETATM   17  C19 UNL     1      -4.119  -1.559   0.320  1.00  0.00     0.170 C 
ATOM     18  H4  UNL     1      -5.092  -3.495   0.443  1.00  0.00     0.158 HD
HETATM   19  C20 UNL     1      -4.805  -0.527  -0.542  1.00  0.00     0.075 C 
ATOM     20  H3  UNL     1      -3.979  -3.767  -3.799  1.00  0.00     0.163 HD
BRANCH  17  21
HETATM   21  O13 UNL     1      -4.655  -1.434   1.605  1.00  0.00    -0.367 OA
ATOM     22  H13 UNL     1      -5.604  -1.437   1.645  1.00  0.00     0.212 HD
ENDBRANCH  17  21
ENDBRANCH   9  10
ENDBRANCH   8   9
BRANCH   1  23
HETATM   23  C3  UNL     1      -2.150   2.174   0.370  1.00  0.00     0.325 C 
HETATM   24  O2  UNL     1      -1.609   2.379  -0.745  1.00  0.00    -0.259 OA
BRANCH  23  25
HETATM   25  O1  UNL     1      -3.413   2.713   0.562  1.00  0.00    -0.318 OA
BRANCH  25  26
HETATM   26  C2  UNL     1      -4.026   3.445  -0.458  1.00  0.00     0.174 C 
HETATM   27  C1  UNL     1      -3.260   4.657  -0.880  1.00  0.00     0.034 C 
ENDBRANCH  25  26
ENDBRANCH  23  25
ENDBRANCH   1  23
BRANCH   1  28
HETATM   28  O3  UNL     1      -2.351   1.351   2.555  1.00  0.00    -0.356 OA
ATOM     29  H3  UNL     1      -1.938   0.854   3.251  1.00  0.00     0.213 HD
ENDBRANCH   1  28
BRANCH   6  30
HETATM   30  O8  UNL     1       2.448  -0.268  -0.107  1.00  0.00    -0.308 OA
BRANCH  30  31
HETATM   31  C10 UNL     1       2.826  -1.230  -1.042  1.00  0.00     0.475 C 
HETATM   32  N1  UNL     1       2.849  -0.681  -2.359  1.00  0.00     0.004 N 
HETATM   33  C11 UNL     1       4.141  -0.955  -2.937  1.00  0.00     0.355 C 
ATOM     34  H12 UNL     1       2.079  -1.016  -2.939  1.00  0.00     0.286 HD
ATOM     35  H11 UNL     1       2.612   0.311  -2.376  1.00  0.00     0.286 HD
HETATM   36  C12 UNL     1       4.857  -1.699  -1.858  1.00  0.00     0.206 C 
HETATM   37  O11 UNL     1       4.111  -1.635  -0.713  1.00  0.00    -0.327 OA
BRANCH  33  38
HETATM   38  O9  UNL     1       4.824   0.213  -3.264  1.00  0.00    -0.368 OA
ATOM     39  H9  UNL     1       5.675   0.032  -3.645  1.00  0.00     0.212 HD
ENDBRANCH  33  38
BRANCH  36  40
HETATM   40  C13 UNL     1       5.130  -3.144  -2.246  1.00  0.00     0.200 C 
BRANCH  40  41
HETATM   41  O10 UNL     1       5.887  -3.199  -3.410  1.00  0.00    -0.398 OA
ATOM     42  H10 UNL     1       6.058  -4.102  -3.652  1.00  0.00     0.209 HD
ENDBRANCH  40  41
ENDBRANCH  36  40
ENDBRANCH  30  31
ENDBRANCH   6  30
BRANCH   4  43
HETATM   43  C7  UNL     1       2.421   1.239   3.271  1.00  0.00     0.173 C 
BRANCH  43  44
HETATM   44  O5  UNL     1       1.975   2.445   3.761  1.00  0.00    -0.391 OA
ATOM     45  H5  UNL     1       2.667   2.868   4.256  1.00  0.00     0.210 HD
ENDBRANCH  43  44
BRANCH  43  46
HETATM   46  C8  UNL     1       3.707   1.365   2.490  1.00  0.00     0.198 C 
BRANCH  46  47
HETATM   47  O6  UNL     1       4.659   1.896   3.392  1.00  0.00    -0.398 OA
ATOM     48  H6  UNL     1       5.468   1.975   2.901  1.00  0.00     0.209 HD
ENDBRANCH  46  47
ENDBRANCH  43  46
ENDBRANCH   4  43
TORSDOF 16
