REMARK  10 active torsions:
REMARK  status: ('A' for Active; 'I' for Inactive)
REMARK    1  A    between atoms: O1_2  and  C2_3 
REMARK    2  A    between atoms: C3_4  and  C4_5 
REMARK    3  A    between atoms: C4_5  and  C5_6 
REMARK    4  A    between atoms: C6_9  and  C7_10 
REMARK    5  A    between atoms: C8_20  and  N6_21 
REMARK       I    between atoms: N6_21  and  C9_23 
REMARK    6  A    between atoms: C9_23  and  C10_25 
REMARK    7  A    between atoms: C11_29  and  C12_30 
REMARK    8  A    between atoms: C13_44  and  C14_45 
REMARK    9  A    between atoms: C14_45  and  O4_46 
REMARK   10  A    between atoms: C15_48  and  O5_49 
ROOT
HETATM    1  C5  UNL     1      -0.947   1.810   0.797  1.00  0.00     0.046 A 
HETATM    2  N1  UNL     1      -1.466   2.988   0.550  1.00  0.00    -0.348 N 
ATOM      3  H1  UNL     1      -2.458   3.144   0.732  1.00  0.00     0.166 HD
HETATM    4  C6  UNL     1      -0.747   3.962   0.079  1.00  0.00     0.123 A 
HETATM    5  S1  UNL     1       0.778   3.250  -0.053  1.00  0.00    -0.049 SA
HETATM    6  C8  UNL     1       0.368   1.621   0.551  1.00  0.00     0.102 A 
ENDROOT
BRANCH   6   7
HETATM    7  N6  UNL     1       1.329   0.602   0.680  1.00  0.00    -0.313 N 
HETATM    8  C9  UNL     1       1.427  -0.680   1.156  1.00  0.00     0.292 C 
HETATM    9  O2  UNL     1       0.564  -1.383   1.679  1.00  0.00    -0.264 OA
ATOM     10  H6  UNL     1       2.226   0.911   0.305  1.00  0.00     0.170 HD
BRANCH   8  11
HETATM   11  C10 UNL     1       2.764  -1.383   1.049  1.00  0.00     0.197 A 
HETATM   12  N7  UNL     1       3.050  -2.606   1.432  1.00  0.00    -0.238 N 
HETATM   13  O3  UNL     1       4.294  -2.871   1.190  1.00  0.00    -0.219 OA
ATOM     14  H7  UNL     1       2.388  -3.254   1.859  1.00  0.00     0.196 HD
HETATM   15  C11 UNL     1       4.837  -1.817   0.642  1.00  0.00     0.190 A 
HETATM   16  N13 UNL     1       3.896  -0.866   0.542  1.00  0.00    -0.316 N 
ATOM     17  H13 UNL     1       4.017   0.070   0.155  1.00  0.00     0.169 HD
BRANCH  15  18
HETATM   18  C12 UNL     1       6.238  -1.707   0.215  1.00  0.00     0.288 C 
HETATM   19  N8  UNL     1       6.394  -1.096  -1.091  1.00  0.00    -0.292 N 
HETATM   20  N9  UNL     1       7.408  -1.362  -1.834  1.00  0.00    -0.232 N 
ATOM     21  H8  UNL     1       5.686  -0.443  -1.426  1.00  0.00     0.184 HD
HETATM   22  N10 UNL     1       8.378  -2.250  -1.388  1.00  0.00    -0.215 N 
ATOM     23  H9  UNL     1       7.500  -0.922  -2.749  1.00  0.00     0.209 HD
HETATM   24  N11 UNL     1       8.229  -2.905  -0.178  1.00  0.00    -0.012 NA
ATOM     25  H10 UNL     1       9.207  -2.421  -1.957  1.00  0.00     0.206 HD
HETATM   26  N12 UNL     1       6.893  -3.009   0.170  1.00  0.00    -0.089 NA
ENDBRANCH  15  18
ENDBRANCH   8  11
ENDBRANCH   6   7
BRANCH   1  27
HETATM   27  C4  UNL     1      -1.879   0.720   1.306  1.00  0.00     0.096 C 
BRANCH  27  28
HETATM   28  C3  UNL     1      -2.261  -0.152   0.169  1.00  0.00     0.223 C 
HETATM   29  C2  UNL     1      -3.185  -1.276   0.554  1.00  0.00     0.182 C 
HETATM   30  C15 UNL     1      -3.724  -1.716  -0.774  1.00  0.00     0.181 C 
HETATM   31  C13 UNL     1      -3.479  -0.548  -1.685  1.00  0.00     0.240 C 
HETATM   32  N14 UNL     1      -3.004   0.545  -0.865  1.00  0.00    -0.059 N 
ATOM     33 2H14 UNL     1      -3.729   1.176  -0.524  1.00  0.00     0.278 HD
ATOM     34 1H14 UNL     1      -2.479   1.263  -1.364  1.00  0.00     0.278 HD
BRANCH  29  35
HETATM   35  O1  UNL     1      -4.144  -0.907   1.468  1.00  0.00    -0.386 OA
HETATM   36  C1  UNL     1      -4.098  -1.617   2.652  1.00  0.00     0.202 C 
ENDBRANCH  29  35
BRANCH  30  37
HETATM   37  O5  UNL     1      -3.029  -2.810  -1.288  1.00  0.00    -0.391 OA
ATOM     38  H5  UNL     1      -3.371  -3.089  -2.129  1.00  0.00     0.210 HD
ENDBRANCH  30  37
BRANCH  31  39
HETATM   39  C14 UNL     1      -4.712  -0.166  -2.474  1.00  0.00     0.199 C 
BRANCH  39  40
HETATM   40  O4  UNL     1      -5.071  -1.300  -3.221  1.00  0.00    -0.399 OA
ATOM     41  H4  UNL     1      -5.845  -1.060  -3.716  1.00  0.00     0.209 HD
ENDBRANCH  39  40
ENDBRANCH  31  39
ENDBRANCH  27  28
ENDBRANCH   1  27
BRANCH   4  42
HETATM   42  C7  UNL     1      -1.220   5.324  -0.235  1.00  0.00     0.171 A 
HETATM   43  N2  UNL     1      -2.475   5.755  -0.077  1.00  0.00    -0.266 N 
HETATM   44  N3  UNL     1      -2.516   7.022  -0.462  1.00  0.00    -0.227 N 
ATOM     45  H2  UNL     1      -3.260   5.207   0.276  1.00  0.00     0.190 HD
HETATM   46  N4  UNL     1      -1.303   7.354  -0.849  1.00  0.00    -0.227 N 
ATOM     47  H3  UNL     1      -3.336   7.628  -0.459  1.00  0.00     0.210 HD
HETATM   48  N5  UNL     1      -0.471   6.310  -0.717  1.00  0.00    -0.266 N 
ATOM     49  H4  UNL     1      -1.034   8.273  -1.199  1.00  0.00     0.210 HD
ATOM     50  H5  UNL     1       0.524   6.280  -0.939  1.00  0.00     0.190 HD
ENDBRANCH   4  42
TORSDOF 10
