REMARK  12 active torsions:
REMARK  status: ('A' for Active; 'I' for Inactive)
REMARK    1  A    between atoms: C3_3  and  C5_5 
REMARK    2  A    between atoms: C6_6  and  O1_7 
REMARK    3  A    between atoms: O1_7  and  C7_8 
REMARK    4  A    between atoms: C7_8  and  C8_10 
REMARK    5  A    between atoms: C8_10  and  C9_11 
REMARK    6  A    between atoms: C9_11  and  C10_12 
REMARK    7  A    between atoms: C18_20  and  O3_21 
REMARK    8  A    between atoms: C19_23  and  O4_24 
REMARK    9  A    between atoms: C20_26  and  O5_27 
REMARK   10  A    between atoms: C21_29  and  O6_30 
REMARK   11  A    between atoms: C22_32  and  S1_33 
REMARK   12  A    between atoms: S1_33  and  C23_34 
ROOT
HETATM    1  C1  UNL     1       2.262  -3.362   1.981  1.00  0.00     0.017 C 
HETATM    2  C2  UNL     1       1.131  -2.948   2.131  1.00  0.00    -0.082 C 
HETATM    3  C3  UNL     1      -0.267  -2.479   2.327  1.00  0.00    -0.004 C 
HETATM    4  C4  UNL     1      -0.654  -2.587   3.582  1.00  0.00     0.029 C 
ENDROOT
BRANCH   3   5
HETATM    5  C5  UNL     1      -0.984  -2.175   1.136  1.00  0.00     0.107 C 
HETATM    6  C6  UNL     1      -0.762  -0.805   0.473  1.00  0.00     0.122 C 
HETATM    7  C16 UNL     1      -1.379  -0.922  -0.877  1.00  0.00    -0.021 C 
HETATM    8  C22 UNL     1      -1.636   0.022   1.395  1.00  0.00     0.125 C 
HETATM    9  C17 UNL     1      -0.883  -0.273  -1.932  1.00  0.00     0.020 C 
HETATM   10  C18 UNL     1      -2.542  -1.788  -1.215  1.00  0.00     0.181 C 
HETATM   11  C19 UNL     1      -2.973  -2.721  -0.147  1.00  0.00     0.189 C 
HETATM   12  C20 UNL     1      -2.509  -2.162   1.222  1.00  0.00     0.124 C 
HETATM   13  C21 UNL     1      -2.949  -0.707   1.311  1.00  0.00     0.173 C 
BRANCH   6  14
HETATM   14  O1  UNL     1       0.471  -0.298   0.331  1.00  0.00    -0.303 OA
BRANCH  14  15
HETATM   15  C7  UNL     1       1.354   0.243   1.186  1.00  0.00     0.260 C 
HETATM   16  O2  UNL     1       0.978   0.366   2.377  1.00  0.00    -0.265 OA
BRANCH  15  17
HETATM   17  C8  UNL     1       2.745   0.700   0.794  1.00  0.00     0.116 C 
BRANCH  17  18
HETATM   18  C9  UNL     1       2.920   0.422  -0.658  1.00  0.00     0.048 C 
BRANCH  18  19
HETATM   19  C10 UNL     1       4.287   0.855  -1.066  1.00  0.00    -0.058 A 
HETATM   20  C11 UNL     1       4.570   2.125  -1.523  1.00  0.00     0.007 A 
HETATM   21  C12 UNL     1       5.854   2.493  -1.896  1.00  0.00     0.001 A 
HETATM   22  C13 UNL     1       6.865   1.565  -1.805  1.00  0.00     0.000 A 
HETATM   23  C14 UNL     1       6.588   0.300  -1.352  1.00  0.00     0.001 A 
HETATM   24  C15 UNL     1       5.301  -0.067  -0.979  1.00  0.00     0.007 A 
ENDBRANCH  18  19
ENDBRANCH  17  18
ENDBRANCH  15  17
ENDBRANCH  14  15
ENDBRANCH   6  14
BRANCH  10  25
HETATM   25  O3  UNL     1      -3.614  -1.091  -1.757  1.00  0.00    -0.388 OA
ATOM     26  H3  UNL     1      -4.356  -1.644  -1.973  1.00  0.00     0.210 HD
ENDBRANCH  10  25
BRANCH  11  27
HETATM   27  O4  UNL     1      -2.307  -3.932  -0.299  1.00  0.00    -0.390 OA
ATOM     28  H4  UNL     1      -2.583  -4.530   0.386  1.00  0.00     0.210 HD
ENDBRANCH  11  27
BRANCH  12  29
HETATM   29  O5  UNL     1      -3.038  -2.975   2.180  1.00  0.00    -0.384 OA
ATOM     30  H5  UNL     1      -3.986  -2.967   2.233  1.00  0.00     0.210 HD
ENDBRANCH  12  29
BRANCH  13  31
HETATM   31  O6  UNL     1      -3.652  -0.630   2.534  1.00  0.00    -0.391 OA
ATOM     32  H6  UNL     1      -3.927   0.278   2.590  1.00  0.00     0.210 HD
ENDBRANCH  13  31
BRANCH   8  33
HETATM   33  S1  UNL     1      -1.655   1.734   1.361  1.00  0.00    -0.117 SA
BRANCH  33  34
HETATM   34  C23 UNL     1      -2.225   2.711   0.069  1.00  0.00     0.022 A 
HETATM   35  C24 UNL     1      -1.330   3.205  -0.868  1.00  0.00     0.020 A 
HETATM   36  C25 UNL     1      -1.729   3.985  -1.894  1.00  0.00     0.001 A 
HETATM   37  C26 UNL     1      -3.047   4.339  -2.074  1.00  0.00     0.002 A 
HETATM   38  C27 UNL     1      -3.945   3.857  -1.153  1.00  0.00     0.025 A 
HETATM   39  C28 UNL     1      -3.566   3.063  -0.101  1.00  0.00     0.050 A 
HETATM   40 CL1  UNL     1      -4.768   2.490   1.071  1.00  0.00    -0.083 Cl
ENDBRANCH  33  34
ENDBRANCH   8  33
ENDBRANCH   3   5
TORSDOF 12
