REMARK  13 active torsions:
REMARK  status: ('A' for Active; 'I' for Inactive)
REMARK    1  A    between atoms: C2_2  and  C24_36 
REMARK    2  A    between atoms: C3_3  and  C4_4 
REMARK    3  A    between atoms: C4_4  and  C5_5 
REMARK    4  A    between atoms: C5_5  and  C7_7 
REMARK    5  A    between atoms: C8_8  and  O1_9 
REMARK    6  A    between atoms: O1_9  and  C9_10 
REMARK    7  A    between atoms: C9_10  and  C10_12 
REMARK    8  A    between atoms: C13_15  and  O3_16 
REMARK    9  A    between atoms: C18_24  and  C20_26 
REMARK   10  A    between atoms: C20_26  and  O4_27 
REMARK   11  A    between atoms: C20_26  and  C21_29 
REMARK   12  A    between atoms: C21_29  and  O5_31 
REMARK   13  A    between atoms: C23_33  and  O6_34 
ROOT
HETATM    1  C7  UNL     1      -0.530   0.565   0.257  1.00  0.00     0.054 C 
HETATM    2  C8  UNL     1       0.733   0.744  -0.540  1.00  0.00     0.180 C 
HETATM    3  C16 UNL     1       1.648   1.788   0.037  1.00  0.00     0.033 C 
HETATM    4 BR1  UNL     1       3.553   1.579  -0.085  1.00  0.00    -0.052 Br
HETATM    5  C17 UNL     1       1.165   2.863   0.632  1.00  0.00     0.018 C 
HETATM    6 BR2  UNL     1       2.456   4.115   1.330  1.00  0.00    -0.053 Br
HETATM    7  C18 UNL     1      -0.300   3.029   0.767  1.00  0.00     0.046 C 
HETATM    8  C19 UNL     1      -0.518   3.945   1.967  1.00  0.00     0.026 C 
HETATM    9  C23 UNL     1      -0.927   1.693   1.145  1.00  0.00     0.141 C 
ENDROOT
BRANCH   2  10
HETATM   10  O1  UNL     1       1.500  -0.454  -0.589  1.00  0.00    -0.306 OA
BRANCH  10  11
HETATM   11  C9  UNL     1       1.869  -0.944  -1.806  1.00  0.00     0.294 C 
HETATM   12  O2  UNL     1       1.505  -0.300  -2.848  1.00  0.00    -0.259 OA
BRANCH  11  13
HETATM   13  C10 UNL     1       2.649  -2.149  -2.015  1.00  0.00     0.039 A 
HETATM   14  C11 UNL     1       2.986  -2.580  -3.284  1.00  0.00     0.020 A 
HETATM   15  C12 UNL     1       3.732  -3.732  -3.484  1.00  0.00     0.037 A 
HETATM   16  C13 UNL     1       4.168  -4.492  -2.418  1.00  0.00     0.065 A 
HETATM   17  C14 UNL     1       3.836  -4.067  -1.149  1.00  0.00     0.037 A 
HETATM   18  C15 UNL     1       3.096  -2.924  -0.970  1.00  0.00     0.020 A 
BRANCH  16  19
HETATM   19  O3  UNL     1       4.921  -5.655  -2.615  1.00  0.00    -0.361 OA
ATOM     20  H3  UNL     1       5.221  -6.178  -1.881  1.00  0.00     0.217 HD
ENDBRANCH  16  19
ENDBRANCH  11  13
ENDBRANCH  10  11
ENDBRANCH   2  10
BRANCH   1  21
HETATM   21  C5  UNL     1      -0.565  -0.776   0.919  1.00  0.00    -0.006 C 
HETATM   22  C6  UNL     1       0.618  -1.079   1.803  1.00  0.00     0.011 C 
BRANCH  21  23
HETATM   23  C4  UNL     1      -1.791  -1.059   1.742  1.00  0.00     0.032 C 
BRANCH  23  24
HETATM   24  C3  UNL     1      -1.856  -2.473   2.185  1.00  0.00    -0.013 C 
HETATM   25  C2  UNL     1      -2.732  -3.382   1.926  1.00  0.00     0.011 C 
HETATM   26  C1  UNL     1      -2.535  -4.765   2.531  1.00  0.00     0.055 C 
BRANCH  25  27
HETATM   27  C24 UNL     1      -3.897  -3.254   1.101  1.00  0.00     0.204 C 
HETATM   28  O7  UNL     1      -4.228  -2.215   0.501  1.00  0.00    -0.644 OA
HETATM   29  O8  UNL     1      -4.788  -4.340   0.904  1.00  0.00    -0.644 OA
ENDBRANCH  25  27
ENDBRANCH  23  24
ENDBRANCH  21  23
ENDBRANCH   1  21
BRANCH   9  30
HETATM   30  O6  UNL     1      -2.309   1.815   1.130  1.00  0.00    -0.394 OA
ATOM     31  H6  UNL     1      -2.562   2.534   1.696  1.00  0.00     0.210 HD
ENDBRANCH   9  30
BRANCH   7  32
HETATM   32  C20 UNL     1      -0.917   3.641  -0.415  1.00  0.00     0.162 C 
BRANCH  32  33
HETATM   33  O4  UNL     1      -2.323   3.794  -0.255  1.00  0.00    -0.392 OA
ATOM     34  H4  UNL     1      -2.723   4.190  -1.020  1.00  0.00     0.210 HD
ENDBRANCH  32  33
BRANCH  32  35
HETATM   35  C21 UNL     1      -0.457   4.996  -0.825  1.00  0.00     0.144 C 
HETATM   36  C22 UNL     1      -1.162   5.443  -2.125  1.00  0.00     0.042 C 
BRANCH  35  37
HETATM   37  O5  UNL     1       0.892   5.119  -1.109  1.00  0.00    -0.393 OA
ATOM     38  H5  UNL     1       1.186   5.984  -1.371  1.00  0.00     0.210 HD
ENDBRANCH  35  37
ENDBRANCH  32  35
ENDBRANCH   7  32
TORSDOF 13
