REMARK  7 active torsions:
REMARK  status: ('A' for Active; 'I' for Inactive)
REMARK    1  A    between atoms: C2_2  and  C3_3 
REMARK    2  A    between atoms: C3_3  and  O1_4 
REMARK    3  A    between atoms: N1_7  and  C5_8 
REMARK    4  A    between atoms: C5_8  and  O2_9 
REMARK    5  A    between atoms: C5_8  and  C6_11 
REMARK    6  A    between atoms: C6_11  and  N2_12 
REMARK    7  A    between atoms: C14_20  and  O3_21 
ROOT
HETATM    1  C3  UNL     1      -2.741  -0.126  -0.324  1.00  0.00     0.101 C 
HETATM    2  C4  UNL     1      -1.253   0.256  -0.227  1.00  0.00     0.165 C 
HETATM    3  N1  UNL     1      -1.068   0.394   1.189  1.00  0.00    -0.356 N 
HETATM    4  C13 UNL     1      -2.269   1.039   1.715  1.00  0.00     0.159 C 
HETATM    5  C14 UNL     1      -3.358   0.696   0.740  1.00  0.00     0.172 C 
ENDROOT
BRANCH   3   6
HETATM    6  C5  UNL     1       0.018   0.049   1.996  1.00  0.00     0.148 C 
BRANCH   6   7
HETATM    7  O2  UNL     1      -0.184   0.222   3.270  1.00  0.00    -0.345 OA
ATOM      8  H2  UNL     1       0.555  -0.013   3.819  1.00  0.00     0.219 HD
ENDBRANCH   6   7
BRANCH   6   9
HETATM    9  C6  UNL     1       1.329  -0.470   1.664  1.00  0.00     0.116 C 
BRANCH   9  10
HETATM   10  N2  UNL     1       1.755  -0.620   0.339  1.00  0.00    -0.284 NA
HETATM   11  C7  UNL     1       2.072   0.614  -0.378  1.00  0.00     0.100 C 
HETATM   12  C8  UNL     1       3.566   0.529  -0.686  1.00  0.00     0.001 C 
HETATM   13  C9  UNL     1       3.710  -0.463  -1.813  1.00  0.00     0.007 C 
HETATM   14  C12 UNL     1       4.023  -0.321   0.482  1.00  0.00     0.025 C 
HETATM   15  C10 UNL     1       3.203  -1.747  -1.163  1.00  0.00     0.020 C 
HETATM   16  C11 UNL     1       2.952  -1.410   0.291  1.00  0.00     0.063 C 
ENDBRANCH   9  10
ENDBRANCH   6   9
ENDBRANCH   3   6
BRANCH   1  17
HETATM   17  C2  UNL     1      -3.293   0.028  -1.696  1.00  0.00     0.037 C 
HETATM   18  C1  UNL     1      -3.316   1.415  -2.239  1.00  0.00     0.008 C 
ENDBRANCH   1  17
BRANCH   1  19
HETATM   19  O1  UNL     1      -2.788  -1.491   0.039  1.00  0.00    -0.385 OA
ATOM     20  H1  UNL     1      -2.435  -1.589   0.916  1.00  0.00     0.210 HD
ENDBRANCH   1  19
BRANCH   5  21
HETATM   21  O3  UNL     1      -4.378   0.017   1.432  1.00  0.00    -0.391 OA
ATOM     22  H3  UNL     1      -4.774   0.545   2.115  1.00  0.00     0.210 HD
ENDBRANCH   5  21
TORSDOF 7
