REMARK  8 active torsions:
REMARK  status: ('A' for Active; 'I' for Inactive)
REMARK    1  A    between atoms: C2_2  and  O1_3 
REMARK    2  A    between atoms: O1_3  and  C3_4 
REMARK    3  A    between atoms: C3_4  and  C4_5 
REMARK    4  A    between atoms: C4_5  and  N1_6 
REMARK    5  A    between atoms: C7_10  and  S1_11 
REMARK    6  A    between atoms: S1_11  and  C8_12 
REMARK    7  A    between atoms: C8_12  and  C9_13 
REMARK    8  A    between atoms: C12_18  and  O3_19 
ROOT
HETATM    1  N1  UNL     1       3.319  -0.723  -0.037  1.00  0.00    -0.282 N 
HETATM    2  C5  UNL     1       2.300  -1.342   0.753  1.00  0.00     0.231 A 
HETATM    3  O2  UNL     1       2.585  -2.522   1.195  1.00  0.00    -0.273 OA
HETATM    4  C6  UNL     1       1.033  -0.789   1.086  1.00  0.00     0.150 A 
HETATM    5  C7  UNL     1       0.718   0.607   0.545  1.00  0.00    -0.002 A 
HETATM    6  C17 UNL     1       1.731   1.139  -0.200  1.00  0.00     0.019 A 
HETATM    7  C18 UNL     1       1.381   2.523  -0.719  1.00  0.00     0.055 C 
HETATM    8  C19 UNL     1       2.988   0.567  -0.515  1.00  0.00     0.257 A 
HETATM    9  O4  UNL     1       3.869   1.172  -1.233  1.00  0.00    -0.267 OA
ENDROOT
BRANCH   5  10
HETATM   10  S1  UNL     1      -0.703   1.373   0.839  1.00  0.00    -0.127 SA
BRANCH  10  11
HETATM   11  C8  UNL     1      -2.075   2.101   1.130  1.00  0.00     0.139 C 
BRANCH  11  12
HETATM   12  C9  UNL     1      -3.302   1.427   0.494  1.00  0.00     0.053 A 
HETATM   13  N2  UNL     1      -3.309   0.327  -0.253  1.00  0.00    -0.359 N 
HETATM   14  C10 UNL     1      -4.606   0.066  -0.620  1.00  0.00     0.018 A 
ATOM     15  H2  UNL     1      -2.492  -0.227  -0.509  1.00  0.00     0.165 HD
HETATM   16  C11 UNL     1      -5.418   1.048  -0.073  1.00  0.00    -0.000 A 
HETATM   17  C16 UNL     1      -5.137  -1.041  -1.451  1.00  0.00     0.057 C 
HETATM   18  C12 UNL     1      -4.591   1.890   0.619  1.00  0.00     0.097 A 
HETATM   19  C13 UNL     1      -6.895   0.978  -0.331  1.00  0.00     0.043 C 
HETATM   20  C14 UNL     1      -7.261  -0.489  -0.193  1.00  0.00     0.005 C 
HETATM   21  C15 UNL     1      -6.600  -1.241  -1.301  1.00  0.00     0.006 C 
BRANCH  18  22
HETATM   22  O3  UNL     1      -4.965   3.017   1.328  1.00  0.00    -0.358 OA
ATOM     23  H3  UNL     1      -5.855   3.337   1.414  1.00  0.00     0.217 HD
ENDBRANCH  18  22
ENDBRANCH  11  12
ENDBRANCH  10  11
ENDBRANCH   5  10
BRANCH   1  24
HETATM   24  C4  UNL     1       4.583  -1.396  -0.308  1.00  0.00     0.161 C 
BRANCH  24  25
HETATM   25  C3  UNL     1       5.556  -1.053   0.766  1.00  0.00     0.188 C 
BRANCH  25  26
HETATM   26  O1  UNL     1       6.759  -1.665   0.573  1.00  0.00    -0.390 OA
BRANCH  26  27
HETATM   27  C2  UNL     1       7.363  -1.297  -0.604  1.00  0.00     0.163 C 
HETATM   28  C1  UNL     1       8.718  -2.012  -0.711  1.00  0.00     0.033 C 
ENDBRANCH  26  27
ENDBRANCH  25  26
ENDBRANCH  24  25
ENDBRANCH   1  24
TORSDOF 8
