REMARK  5 active torsions:
REMARK  status: ('A' for Active; 'I' for Inactive)
REMARK    1  A    between atoms: C2_2  and  C3_3 
REMARK    2  A    between atoms: C4_4  and  C5_5 
REMARK    3  A    between atoms: C5_5  and  N1_6 
REMARK    4  A    between atoms: C7_12  and  S1_14 
REMARK    5  A    between atoms: S1_14  and  N3_15 
ROOT
HETATM    1  C1  UNL     1      -0.863  -2.065  -0.413  1.00  0.00     0.031 C 
HETATM    2  C2  UNL     1      -0.716  -0.558  -0.421  1.00  0.00     0.040 A 
HETATM    3  C6  UNL     1      -1.419   0.183  -1.600  1.00  0.00     0.047 A 
HETATM    4  C7  UNL     1      -1.869   0.322  -0.183  1.00  0.00     0.044 A 
HETATM    5  C8  UNL     1      -1.688   1.663   0.497  1.00  0.00     0.030 C 
ENDROOT
BRANCH   2   6
HETATM    6  C3  UNL     1       0.632  -0.087  -0.090  1.00  0.00    -0.093 C 
HETATM    7  C4  UNL     1       1.751   0.287   0.170  1.00  0.00    -0.085 C 
BRANCH   7   8
HETATM    8  C5  UNL     1       3.128   0.733   0.475  1.00  0.00     0.232 C 
BRANCH   8   9
HETATM    9  N1  UNL     1       4.016  -0.387   0.517  1.00  0.00    -0.332 N 
HETATM   10  N2  UNL     1       3.552  -1.525   0.384  1.00  0.00    -0.349 N 
ATOM     11  H22 UNL     1       2.548  -1.646   0.247  1.00  0.00     0.176 HD
ATOM     12  H21 UNL     1       4.185  -2.324   0.414  1.00  0.00     0.176 HD
ATOM     13  H1  UNL     1       5.017  -0.249   0.655  1.00  0.00     0.180 HD
ENDBRANCH   8   9
ENDBRANCH   7   8
ENDBRANCH   2   6
BRANCH   4  14
HETATM   14  S1  UNL     1      -3.325  -0.341   0.097  1.00  0.00    -0.051 SA
BRANCH  14  15
HETATM   15  N3  UNL     1      -4.308  -0.119  -0.890  1.00  0.00    -0.373 N 
ATOM     16  H32 UNL     1      -4.100   0.428  -1.725  1.00  0.00     0.164 HD
ATOM     17  H31 UNL     1      -5.222  -0.535  -0.714  1.00  0.00     0.164 HD
ENDBRANCH  14  15
ENDBRANCH   4  14
TORSDOF 5
