REMARK  3 active torsions:
REMARK  status: ('A' for Active; 'I' for Inactive)
REMARK    1  A    between atoms: C1_1  and  C6_14 
REMARK    2  A    between atoms: N1_2  and  N2_4 
REMARK    3  A    between atoms: N2_4  and  C2_6 
ROOT
HETATM    1  C1  UNL     1      -0.882   0.871   0.222  1.00  0.00     0.119 C 
HETATM    2  N1  UNL     1      -0.055   0.338   1.045  1.00  0.00    -0.309 N 
ATOM      3  H1  UNL     1      -0.306  -0.541   1.497  1.00  0.00     0.186 HD
ENDROOT
BRANCH   2   4
HETATM    4  N2  UNL     1       1.162   0.915   1.339  1.00  0.00    -0.285 N 
ATOM      5  H2  UNL     1       1.172   1.707   1.981  1.00  0.00     0.188 HD
BRANCH   4   6
HETATM    6  C2  UNL     1       2.289   0.517   0.854  1.00  0.00     0.135 A 
HETATM    7  C3  UNL     1       3.446   1.173   1.221  1.00  0.00     0.137 A 
HETATM    8  N3  UNL     1       4.645   0.792   0.740  1.00  0.00    -0.371 N 
HETATM    9  C4  UNL     1       4.771  -0.240  -0.115  1.00  0.00     0.104 A 
ATOM     10  H3  UNL     1       5.480   1.299   1.032  1.00  0.00     0.164 HD
HETATM   11  C5  UNL     1       3.614  -0.896  -0.481  1.00  0.00     0.106 A 
HETATM   12  N4  UNL     1       2.408  -0.516  -0.000  1.00  0.00    -0.349 N 
ATOM     13  H4  UNL     1       1.572  -1.023  -0.291  1.00  0.00     0.167 HD
ENDBRANCH   4   6
ENDBRANCH   2   4
BRANCH   1  14
HETATM   14  C6  UNL     1      -2.167   0.190  -0.041  1.00  0.00    -0.004 A 
HETATM   15  C7  UNL     1      -3.074   0.740  -0.921  1.00  0.00     0.015 A 
HETATM   16  C8  UNL     1      -4.278   0.098  -1.165  1.00  0.00     0.018 A 
HETATM   17  C9  UNL     1      -4.501  -1.088  -0.492  1.00  0.00     0.087 A 
HETATM   18  N5  UNL     1      -3.630  -1.622   0.357  1.00  0.00    -0.374 N 
HETATM   19  C10 UNL     1      -2.466  -0.998   0.590  1.00  0.00     0.100 A 
ATOM     20  H5  UNL     1      -3.845  -2.501   0.828  1.00  0.00     0.164 HD
ENDBRANCH   1  14
TORSDOF 3
