REMARK  4 active torsions:
REMARK  status: ('A' for Active; 'I' for Inactive)
REMARK       I    between atoms: C1_2  and  N1_3 
REMARK    1  A    between atoms: C1_2  and  C9_19 
REMARK    2  A    between atoms: N1_3  and  C2_5 
REMARK    3  A    between atoms: C3_10  and  S1_11 
REMARK    4  A    between atoms: S1_11  and  C4_12 
ROOT
HETATM    1  C2  UNL     1       1.507   0.117  -0.214  1.00  0.00     0.168 A 
HETATM    2  N2  UNL     1       0.573  -0.575  -0.874  1.00  0.00    -0.278 N 
ATOM      3  H2  UNL     1       0.825  -1.405  -1.411  1.00  0.00     0.189 HD
HETATM    4  N3  UNL     1      -0.632  -0.183  -0.822  1.00  0.00    -0.286 N 
ATOM      5  H3  UNL     1      -1.357  -0.701  -1.319  1.00  0.00     0.188 HD
HETATM    6  C3  UNL     1      -0.953   0.898  -0.123  1.00  0.00     0.132 A 
HETATM    7  S2  UNL     1       0.573   1.365   0.489  1.00  0.00    -0.026 SA
ENDROOT
BRANCH   1   8
HETATM    8  N1  UNL     1       2.795  -0.140  -0.155  1.00  0.00    -0.304 N 
HETATM    9  C1  UNL     1       3.584   0.751   0.617  1.00  0.00     0.252 C 
HETATM   10  O1  UNL     1       3.333   1.974   0.574  1.00  0.00    -0.270 OA
ATOM     11  H1  UNL     1       3.206  -0.938  -0.639  1.00  0.00     0.171 HD
BRANCH   9  12
HETATM   12  C9  UNL     1       4.683   0.222   1.458  1.00  0.00     0.213 C 
HETATM   13  C10 UNL     1       5.974   0.794   0.873  1.00  0.00     0.044 C 
HETATM   14  C11 UNL     1       6.227  -0.224  -0.220  1.00  0.00     0.029 C 
HETATM   15  C12 UNL     1       5.747  -1.493   0.470  1.00  0.00     0.168 C 
HETATM   16  O3  UNL     1       4.752  -1.137   1.332  1.00  0.00    -0.376 OA
ENDBRANCH   9  12
ENDBRANCH   1   8
BRANCH   6  17
HETATM   17  S1  UNL     1      -2.565   1.663   0.114  1.00  0.00    -0.071 SA
BRANCH  17  18
HETATM   18  C4  UNL     1      -3.841   0.766  -0.753  1.00  0.00     0.189 C 
HETATM   19  C5  UNL     1      -4.011  -0.608  -0.134  1.00  0.00     0.043 C 
HETATM   20  C6  UNL     1      -5.260  -0.633   0.720  1.00  0.00     0.005 C 
HETATM   21  C7  UNL     1      -6.476  -0.263  -0.108  1.00  0.00     0.026 C 
HETATM   22  C8  UNL     1      -6.036   0.664  -1.235  1.00  0.00     0.169 C 
HETATM   23  O2  UNL     1      -5.030   1.478  -0.680  1.00  0.00    -0.375 OA
ENDBRANCH  17  18
ENDBRANCH   6  17
TORSDOF 4
