REMARK  6 active torsions:
REMARK  status: ('A' for Active; 'I' for Inactive)
REMARK    1  A    between atoms: C2_2  and  C4_4 
REMARK    2  A    between atoms: C4_4  and  C5_5 
REMARK    3  A    between atoms: C5_5  and  O2_7 
REMARK    4  A    between atoms: O2_7  and  N1_8 
REMARK    5  A    between atoms: C6_10  and  O3_11 
REMARK    6  A    between atoms: C6_10  and  C7_13 
ROOT
HETATM    1  N1  UNL     1      -0.859  -0.439  -0.943  1.00  0.00    -0.236 N 
ATOM      2  H1  UNL     1      -1.303  -0.345  -1.857  1.00  0.00     0.197 HD
HETATM    3  C6  UNL     1      -1.450   0.057   0.090  1.00  0.00     0.177 C 
ENDROOT
BRANCH   1   4
HETATM    4  O2  UNL     1       0.338  -1.085  -0.857  1.00  0.00    -0.197 OA
BRANCH   4   5
HETATM    5  C5  UNL     1       1.503  -0.418  -0.458  1.00  0.00     0.285 C 
HETATM    6  O1  UNL     1       1.495   0.788  -0.166  1.00  0.00    -0.263 OA
BRANCH   5   7
HETATM    7  C4  UNL     1       2.748  -1.212  -0.398  1.00  0.00     0.146 C 
BRANCH   7   8
HETATM    8  C2  UNL     1       3.881  -0.380   0.034  1.00  0.00    -0.084 C 
HETATM    9  C1  UNL     1       4.555  -0.668   1.120  1.00  0.00     0.014 C 
HETATM   10  C3  UNL     1       4.274   0.805  -0.769  1.00  0.00     0.043 C 
ENDBRANCH   7   8
ENDBRANCH   5   7
ENDBRANCH   4   5
ENDBRANCH   1   4
BRANCH   3  11
HETATM   11  O3  UNL     1      -0.817  -0.089   1.329  1.00  0.00    -0.346 OA
ATOM     12  H3  UNL     1      -1.252   0.276   2.090  1.00  0.00     0.219 HD
ENDBRANCH   3  11
BRANCH   3  13
HETATM   13  C7  UNL     1      -2.730   0.758   0.061  1.00  0.00     0.169 C 
HETATM   14  F1  UNL     1      -2.699   2.066   0.514  1.00  0.00    -0.234 F 
HETATM   15  C8  UNL     1      -3.819  -0.058   0.768  1.00  0.00     0.052 C 
HETATM   16  C9  UNL     1      -4.773   0.487  -0.287  1.00  0.00     0.007 C 
HETATM   17  C10 UNL     1      -3.557   0.617  -1.187  1.00  0.00     0.052 C 
ENDBRANCH   3  13
TORSDOF 6
