REMARK  2 active torsions:
REMARK  status: ('A' for Active; 'I' for Inactive)
REMARK    1  A    between atoms: N2_9  and  C6_11 
REMARK    2  A    between atoms: C6_11  and  C7_12 
ROOT
HETATM    1  C1  UNL     1      -2.356   0.954  -0.788  1.00  0.00     0.002 C 
HETATM    2  C2  UNL     1      -3.383  -0.113  -0.485  1.00  0.00     0.027 C 
HETATM    3  C3  UNL     1      -2.748  -1.392  -0.005  1.00  0.00     0.232 C 
HETATM    4  N1  UNL     1      -1.332  -1.456  -0.286  1.00  0.00    -0.070 N 
ATOM      5  H11 UNL     1      -1.083  -0.941  -1.130  1.00  0.00     0.277 HD
ATOM      6  H12 UNL     1      -1.041  -2.385  -0.591  1.00  0.00     0.277 HD
HETATM    7  C4  UNL     1      -0.580  -0.996   0.888  1.00  0.00     0.284 C 
HETATM    8  C5  UNL     1      -0.041   0.345   0.567  1.00  0.00     0.008 C 
HETATM    9  N2  UNL     1       1.075   0.394  -0.013  1.00  0.00    -0.395 N 
ATOM     10  H2  UNL     1       1.442   1.320  -0.231  1.00  0.00     0.159 HD
HETATM   11  C10 UNL     1      -0.580   1.722   0.806  1.00  0.00     0.054 C 
HETATM   12  C11 UNL     1      -2.049   1.812   0.410  1.00  0.00     0.006 C 
ENDROOT
BRANCH   9  13
HETATM   13  C6  UNL     1       1.874  -0.723  -0.394  1.00  0.00     0.123 C 
BRANCH  13  14
HETATM   14  C7  UNL     1       3.201  -0.150  -0.911  1.00  0.00     0.003 A 
HETATM   15  C8  UNL     1       3.941   0.657   0.115  1.00  0.00     0.007 A 
HETATM   16  C9  UNL     1       4.447  -0.722  -0.314  1.00  0.00     0.007 A 
ENDBRANCH  13  14
ENDBRANCH   9  13
TORSDOF 2
