REMARK  1 active torsions:
REMARK  status: ('A' for Active; 'I' for Inactive)
REMARK    1  A    between atoms: C2_3  and  C3_4 
ROOT
HETATM    1  C1  UNL     1       0.891  -1.117  -2.834  1.00  0.00     0.222 C 
HETATM    2  N1  UNL     1       0.626  -0.593  -1.832  1.00  0.00    -0.458 NA
HETATM    3  C2  UNL     1       0.311   0.075  -0.604  1.00  0.00     0.116 A 
HETATM    4  C7  UNL     1       0.749   1.452  -0.480  1.00  0.00     0.072 A 
HETATM    5  C8  UNL     1       1.543   0.356   0.207  1.00  0.00     0.056 A 
HETATM    6  C9  UNL     1       2.907   0.117  -0.381  1.00  0.00     0.032 C 
HETATM    7  S1  UNL     1       1.436   0.224   2.008  1.00  0.00    -0.083 SA
ENDROOT
BRANCH   3   8
HETATM    8  C3  UNL     1      -0.838  -0.568   0.083  1.00  0.00     0.063 C 
HETATM    9  C4  UNL     1      -2.145  -0.628  -0.682  1.00  0.00     0.014 C 
HETATM   10  C5  UNL     1      -2.816  -0.609   0.698  1.00  0.00     0.038 C 
HETATM   11  C6  UNL     1      -1.597   0.242   1.111  1.00  0.00     0.177 C 
HETATM   12  F1  UNL     1      -1.879   1.534   0.802  1.00  0.00    -0.249 F 
ENDBRANCH   3   8
TORSDOF 1
