REMARK  4 active torsions:
REMARK  status: ('A' for Active; 'I' for Inactive)
REMARK    1  A    between atoms: C4_4  and  C6_7 
REMARK    2  A    between atoms: C6_7  and  C7_8 
REMARK    3  A    between atoms: C6_7  and  C8_11 
REMARK    4  A    between atoms: C7_8  and  O1_9 
ROOT
HETATM    1  C1  UNL     1      -3.816   0.700  -0.361  1.00  0.00     0.044 C 
HETATM    2  C2  UNL     1      -2.446   0.451   0.226  1.00  0.00    -0.070 C 
HETATM    3  C3  UNL     1      -2.213   1.141   1.497  1.00  0.00     0.044 C 
HETATM    4  C4  UNL     1      -1.665  -0.383  -0.373  1.00  0.00     0.030 C 
HETATM    5  C5  UNL     1      -2.316  -0.980  -1.595  1.00  0.00     0.096 C 
HETATM    6  N1  UNL     1      -2.837  -1.423  -2.554  1.00  0.00    -0.192 NA
ENDROOT
BRANCH   4   7
HETATM    7  C6  UNL     1      -0.291  -0.797  -0.235  1.00  0.00     0.057 C 
BRANCH   7   8
HETATM    8  C7  UNL     1      -0.264  -2.291   0.084  1.00  0.00     0.174 C 
BRANCH   8   9
HETATM    9  O1  UNL     1      -0.882  -2.950  -0.973  1.00  0.00    -0.400 OA
ATOM     10  H1  UNL     1      -0.865  -3.879  -0.775  1.00  0.00     0.209 HD
ENDBRANCH   8   9
ENDBRANCH   7   8
BRANCH   7  11
HETATM   11  C8  UNL     1       0.608  -0.020   0.652  1.00  0.00    -0.003 C 
HETATM   12  C9  UNL     1       1.993  -0.644   0.765  1.00  0.00     0.005 C 
HETATM   13  C10 UNL     1       2.800  -0.410  -0.481  1.00  0.00     0.000 C 
HETATM   14  C11 UNL     1       3.331   1.013  -0.508  1.00  0.00     0.000 C 
HETATM   15  C12 UNL     1       2.266   1.846   0.219  1.00  0.00     0.000 C 
HETATM   16  C13 UNL     1       0.933   1.262  -0.167  1.00  0.00     0.005 C 
ENDBRANCH   7  11
ENDBRANCH   4   7
TORSDOF 4
