REMARK  5 active torsions:
REMARK  status: ('A' for Active; 'I' for Inactive)
REMARK    1  A    between atoms: C2_2  and  C3_3 
REMARK    2  A    between atoms: C3_3  and  N1_4 
REMARK    3  A    between atoms: C3_3  and  C4_8 
REMARK    4  A    between atoms: C3_3  and  C6_12 
REMARK    5  A    between atoms: C4_8  and  O2_10 
ROOT
HETATM    1  C3  UNL     1      -0.071   0.292   0.305  1.00  0.00     0.230 C 
ENDROOT
BRANCH   1   2
HETATM    2  C2  UNL     1      -0.100   1.781   0.315  1.00  0.00     0.047 C 
HETATM    3  C1  UNL     1       0.051   2.489  -0.970  1.00  0.00     0.008 C 
ENDBRANCH   1   2
BRANCH   1   4
HETATM    4  N1  UNL     1      -0.250  -0.076   1.728  1.00  0.00    -0.059 N 
ATOM      5  H13 UNL     1       0.425   0.353   2.361  1.00  0.00     0.275 HD
ATOM      6  H12 UNL     1      -1.080   0.325   2.165  1.00  0.00     0.275 HD
ATOM      7  H11 UNL     1      -0.230  -1.096   1.721  1.00  0.00     0.275 HD
ENDBRANCH   1   4
BRANCH   1   8
HETATM    8  C4  UNL     1       1.241  -0.263  -0.094  1.00  0.00     0.296 C 
HETATM    9  O1  UNL     1       1.646  -0.156  -1.266  1.00  0.00    -0.262 OA
BRANCH   8  10
HETATM   10  O2  UNL     1       2.064  -0.916   0.810  1.00  0.00    -0.324 OA
HETATM   11  C5  UNL     1       3.324  -1.453   0.442  1.00  0.00     0.213 C 
ENDBRANCH   8  10
ENDBRANCH   1   8
BRANCH   1  12
HETATM   12  C6  UNL     1      -1.170  -0.359  -0.483  1.00  0.00     0.072 C 
HETATM   13  C7  UNL     1      -1.088  -1.870  -0.449  1.00  0.00     0.035 C 
HETATM   14  C8  UNL     1      -2.544   0.036  -0.009  1.00  0.00     0.035 C 
HETATM   15 CL1  UNL     1      -1.022   0.108  -2.192  1.00  0.00    -0.117 Cl
ENDBRANCH   1  12
TORSDOF 5
