REMARK  9 active torsions:
REMARK  status: ('A' for Active; 'I' for Inactive)
REMARK    1  A    between atoms: C2_2  and  O1_3 
REMARK    2  A    between atoms: O1_3  and  C3_4 
REMARK    3  A    between atoms: C6_7  and  N1_8 
REMARK       I    between atoms: N2_11  and  C9_12 
REMARK    4  A    between atoms: C9_12  and  C10_14 
REMARK    5  A    between atoms: C10_14  and  C11_15 
REMARK    6  A    between atoms: C11_15  and  C12_16 
REMARK       I    between atoms: C12_16  and  N3_18 
REMARK       I    between atoms: N3_18  and  C13_20 
REMARK    7  A    between atoms: C13_20  and  C14_22 
REMARK    8  A    between atoms: C25_33  and  O5_34 
REMARK    9  A    between atoms: O5_34  and  C26_35 
ROOT
HETATM    1  N1  UNL     1      -3.662   1.358   1.069  1.00  0.00    -0.378 N 
HETATM    2  C7  UNL     1      -2.878   1.596   2.263  1.00  0.00     0.143 C 
HETATM    3  C8  UNL     1      -1.866   0.453   2.330  1.00  0.00     0.145 C 
HETATM    4  N2  UNL     1      -1.153   0.406   1.083  1.00  0.00    -0.349 N 
HETATM    5  C9  UNL     1       0.255   0.377   1.080  1.00  0.00     0.220 C 
HETATM    6  O2  UNL     1       0.899   0.394   2.180  1.00  0.00    -0.273 OA
HETATM    7  C22 UNL     1      -1.880   0.382  -0.163  1.00  0.00     0.145 C 
HETATM    8  C23 UNL     1      -2.913   1.467  -0.179  1.00  0.00     0.143 C 
ENDROOT
BRANCH   5   9
HETATM    9  C10 UNL     1       1.034   0.326  -0.193  1.00  0.00     0.112 C 
BRANCH   9  10
HETATM   10  C11 UNL     1       2.500   0.211   0.117  1.00  0.00     0.112 C 
BRANCH  10  11
HETATM   11  C12 UNL     1       3.342   0.153  -1.102  1.00  0.00     0.224 C 
HETATM   12  O3  UNL     1       2.739   0.247  -2.207  1.00  0.00    -0.273 OA
HETATM   13  N3  UNL     1       4.764  -0.003  -1.017  1.00  0.00    -0.297 N 
HETATM   14  C13 UNL     1       5.606  -0.068  -2.150  1.00  0.00     0.232 C 
ATOM     15  H3  UNL     1       5.190  -0.070  -0.093  1.00  0.00     0.171 HD
HETATM   16  O4  UNL     1       5.123   0.023  -3.285  1.00  0.00    -0.272 OA
BRANCH  14  17
HETATM   17  C14 UNL     1       7.075  -0.248  -1.913  1.00  0.00     0.111 C 
HETATM   18  C15 UNL     1       7.258  -1.543  -1.261  1.00  0.00    -0.012 C 
HETATM   19  C16 UNL     1       8.463  -2.285  -0.994  1.00  0.00    -0.007 C 
HETATM   20  C17 UNL     1       9.692  -1.808  -0.375  1.00  0.00    -0.026 C 
HETATM   21  C18 UNL     1       9.800  -1.065   0.889  1.00  0.00     0.038 C 
HETATM   22  C19 UNL     1       9.463   0.467   0.797  1.00  0.00     0.083 C 
HETATM   23  C20 UNL     1       8.477   0.520  -0.205  1.00  0.00    -0.182 C 
HETATM   24  C21 UNL     1       7.484   1.010  -1.071  1.00  0.00     0.097 C 
ENDBRANCH  14  17
ENDBRANCH  10  11
ENDBRANCH   9  10
ENDBRANCH   5   9
BRANCH   1  25
HETATM   25  C6  UNL     1      -5.036   1.052   1.151  1.00  0.00     0.033 A 
HETATM   26  C5  UNL     1      -5.787   1.343   2.260  1.00  0.00     0.032 A 
HETATM   27  C4  UNL     1      -7.119   1.004   2.307  1.00  0.00     0.042 A 
HETATM   28  C3  UNL     1      -7.778   0.352   1.243  1.00  0.00     0.102 A 
HETATM   29  C25 UNL     1      -6.985   0.065   0.115  1.00  0.00     0.104 A 
HETATM   30  C24 UNL     1      -5.671   0.414   0.105  1.00  0.00     0.069 A 
BRANCH  28  31
HETATM   31  O1  UNL     1      -9.037   0.056   1.341  1.00  0.00    -0.349 OA
BRANCH  31  32
HETATM   32  C2  UNL     1     -10.282  -0.197   1.533  1.00  0.00     0.171 C 
HETATM   33  C1  UNL     1     -11.080   1.104   1.803  1.00  0.00     0.034 C 
ENDBRANCH  31  32
ENDBRANCH  28  31
BRANCH  29  34
HETATM   34  O5  UNL     1      -7.645  -0.581  -0.934  1.00  0.00    -0.349 OA
BRANCH  34  35
HETATM   35  C26 UNL     1      -6.970  -0.933  -2.130  1.00  0.00     0.171 C 
HETATM   36  C27 UNL     1      -7.971  -1.612  -3.038  1.00  0.00     0.034 C 
ENDBRANCH  34  35
ENDBRANCH  29  34
ENDBRANCH   1  25
TORSDOF 9
