REMARK  8 active torsions:
REMARK  status: ('A' for Active; 'I' for Inactive)
REMARK    1  A    between atoms: C5_6  and  C6_7 
REMARK    2  A    between atoms: C6_7  and  C7_8 
REMARK    3  A    between atoms: C6_7  and  N2_19 
REMARK       I    between atoms: C7_8  and  N1_10 
REMARK    4  A    between atoms: N1_10  and  C8_12 
REMARK    5  A    between atoms: N2_19  and  C15_20 
REMARK    6  A    between atoms: N2_19  and  C19_24 
REMARK    7  A    between atoms: C15_20  and  C16_21 
REMARK    8  A    between atoms: C24_32  and  N3_33 
ROOT
HETATM    1  C6  UNL     1      -0.770   0.133  -0.564  1.00  0.00     0.116 C 
ENDROOT
BRANCH   1   2
HETATM    2  C5  UNL     1      -1.394   1.185  -1.380  1.00  0.00     0.037 A 
HETATM    3  C4  UNL     1      -2.509   1.109  -2.158  1.00  0.00     0.129 A 
HETATM    4  C3  UNL     1      -3.015   2.179  -2.896  1.00  0.00     0.052 A 
HETATM    5  F1  UNL     1      -3.245  -0.025  -2.309  1.00  0.00    -0.205 F 
HETATM    6  C2  UNL     1      -2.381   3.418  -2.863  1.00  0.00    -0.026 A 
HETATM    7  C1  UNL     1      -2.917   4.559  -3.645  1.00  0.00     0.050 C 
HETATM    8  C24 UNL     1      -1.260   3.543  -2.095  1.00  0.00     0.109 A 
HETATM    9  C23 UNL     1      -0.788   2.476  -1.389  1.00  0.00     0.053 A 
BRANCH   8  10
HETATM   10  N3  UNL     1      -0.603   4.823  -2.063  1.00  0.00    -0.115 N 
HETATM   11  O4  UNL     1       0.632   4.797  -1.842  1.00  0.00    -0.532 OA
HETATM   12  O5  UNL     1      -1.249   6.010  -2.250  1.00  0.00    -0.532 OA
ENDBRANCH   8  10
ENDBRANCH   1   2
BRANCH   1  13
HETATM   13  C7  UNL     1       0.725   0.081  -0.773  1.00  0.00     0.269 C 
HETATM   14  O1  UNL     1       1.245   0.638  -1.779  1.00  0.00    -0.266 OA
HETATM   15  N1  UNL     1       1.594  -0.552   0.093  1.00  0.00    -0.351 N 
ATOM     16  H1  UNL     1       1.151  -0.956   0.918  1.00  0.00     0.163 HD
BRANCH  15  17
HETATM   17  C8  UNL     1       3.013  -0.736   0.027  1.00  0.00     0.084 C 
HETATM   18  C9  UNL     1       3.720   0.338  -0.750  1.00  0.00     0.025 C 
HETATM   19  C10 UNL     1       5.205   0.051  -0.928  1.00  0.00     0.002 C 
HETATM   20  C11 UNL     1       6.016   0.701   0.153  1.00  0.00     0.000 C 
HETATM   21  C12 UNL     1       5.963  -0.329   1.318  1.00  0.00     0.000 C 
HETATM   22  C13 UNL     1       4.565  -0.076   1.925  1.00  0.00     0.002 C 
HETATM   23  C14 UNL     1       3.567  -1.056   1.367  1.00  0.00     0.025 C 
ENDBRANCH  15  17
ENDBRANCH   1  13
BRANCH   1  24
HETATM   24  N2  UNL     1      -1.433  -0.923   0.029  1.00  0.00    -0.346 N 
BRANCH  24  25
HETATM   25  C15 UNL     1      -1.251  -2.155  -0.613  1.00  0.00     0.094 C 
BRANCH  25  26
HETATM   26  C16 UNL     1      -1.799  -3.442  -0.236  1.00  0.00    -0.072 C 
HETATM   27  C17 UNL     1      -1.489  -4.062   1.072  1.00  0.00     0.044 C 
HETATM   28  C18 UNL     1      -3.302  -3.589  -0.559  1.00  0.00     0.044 C 
ENDBRANCH  25  26
ENDBRANCH  24  25
BRANCH  24  29
HETATM   29  C19 UNL     1      -2.136  -0.826   1.220  1.00  0.00     0.104 C 
HETATM   30  C20 UNL     1      -1.405  -0.483   2.516  1.00  0.00     0.041 C 
HETATM   31  C21 UNL     1      -2.435  -0.769   3.594  1.00  0.00     0.142 C 
HETATM   32  S1  UNL     1      -3.790   0.219   2.955  1.00  0.00     0.146 S 
HETATM   33  O2  UNL     1      -3.814   1.578   3.545  1.00  0.00    -0.228 OA
HETATM   34  O3  UNL     1      -5.081  -0.505   3.087  1.00  0.00    -0.228 OA
HETATM   35  C22 UNL     1      -3.223   0.274   1.243  1.00  0.00     0.166 C 
ENDBRANCH  24  29
ENDBRANCH   1  24
TORSDOF 8
