REMARK  10 active torsions:
REMARK  status: ('A' for Active; 'I' for Inactive)
REMARK    1  A    between atoms: O1_2  and  C2_3 
REMARK    2  A    between atoms: C2_3  and  C3_5 
REMARK    3  A    between atoms: C3_5  and  C4_6 
REMARK    4  A    between atoms: C4_6  and  C5_7 
REMARK    5  A    between atoms: C4_6  and  C19_25 
REMARK    6  A    between atoms: C5_7  and  O4_9 
REMARK    7  A    between atoms: O4_9  and  C6_10 
REMARK    8  A    between atoms: C19_25  and  O7_26 
REMARK    9  A    between atoms: C19_25  and  C20_28 
REMARK   10  A    between atoms: C24_33  and  C25_34 
ROOT
HETATM    1  C4  UNL     1      -1.358  -1.467  -0.436  1.00  0.00     0.124 C 
ENDROOT
BRANCH   1   2
HETATM    2  C3  UNL     1      -1.572  -2.924  -0.662  1.00  0.00     0.128 C 
BRANCH   2   3
HETATM    3  C2  UNL     1      -0.706  -3.735   0.245  1.00  0.00     0.259 C 
HETATM    4  O2  UNL     1       0.352  -4.273  -0.143  1.00  0.00    -0.265 OA
BRANCH   3   5
HETATM    5  O1  UNL     1      -1.068  -3.912   1.570  1.00  0.00    -0.326 OA
HETATM    6  C1  UNL     1      -0.279  -4.674   2.476  1.00  0.00     0.213 C 
ENDBRANCH   3   5
ENDBRANCH   2   3
ENDBRANCH   1   2
BRANCH   1   7
HETATM    7  C5  UNL     1       0.067  -1.134  -0.722  1.00  0.00     0.266 C 
HETATM    8  O3  UNL     1       0.403  -0.636  -1.834  1.00  0.00    -0.265 OA
BRANCH   7   9
HETATM    9  O4  UNL     1       1.079  -1.338   0.180  1.00  0.00    -0.313 OA
BRANCH   9  10
HETATM   10  C6  UNL     1       2.437  -0.983  -0.131  1.00  0.00     0.166 C 
HETATM   11  C7  UNL     1       3.371  -2.109   0.051  1.00  0.00     0.035 C 
HETATM   12  C8  UNL     1       4.373  -1.888   1.190  1.00  0.00     0.005 C 
HETATM   13  C9  UNL     1       5.684  -1.350   0.733  1.00  0.00     0.032 C 
HETATM   14  C10 UNL     1       5.920   0.101   0.987  1.00  0.00     0.130 C 
HETATM   15  O5  UNL     1       4.862   0.807   1.484  1.00  0.00    -0.346 OA
HETATM   16  C18 UNL     1       6.104   0.758  -0.387  1.00  0.00     0.028 C 
HETATM   17  C11 UNL     1       3.936   0.801   0.486  1.00  0.00     0.198 A 
HETATM   18  O6  UNL     1       2.745   1.451   0.482  1.00  0.00    -0.339 OA
HETATM   19  C12 UNL     1       2.759   0.128   0.840  1.00  0.00     0.217 A 
HETATM   20  C13 UNL     1       4.645   0.797  -0.833  1.00  0.00     0.058 C 
HETATM   21  C14 UNL     1       4.451   2.172  -1.467  1.00  0.00     0.011 C 
HETATM   22  C15 UNL     1       5.844   2.750  -1.584  1.00  0.00     0.005 C 
HETATM   23  C16 UNL     1       6.479   2.199  -0.300  1.00  0.00    -0.012 C 
HETATM   24  C17 UNL     1       7.983   2.369  -0.377  1.00  0.00     0.010 C 
ENDBRANCH   9  10
ENDBRANCH   7   9
ENDBRANCH   1   7
BRANCH   1  25
HETATM   25  C19 UNL     1      -2.294  -0.497  -1.030  1.00  0.00     0.144 C 
BRANCH  25  26
HETATM   26  O7  UNL     1      -2.367  -0.669  -2.410  1.00  0.00    -0.394 OA
ATOM     27  H7  UNL     1      -2.971  -0.043  -2.793  1.00  0.00     0.210 HD
ENDBRANCH  25  26
BRANCH  25  28
HETATM   28  C20 UNL     1      -3.643  -0.269  -0.460  1.00  0.00     0.026 A 
HETATM   29  C21 UNL     1      -4.530  -1.490  -0.430  1.00  0.00     0.018 C 
HETATM   30  C22 UNL     1      -5.963  -1.284  -0.132  1.00  0.00     0.034 C 
HETATM   31  C23 UNL     1      -6.137   0.137   0.398  1.00  0.00     0.131 C 
HETATM   32  O8  UNL     1      -5.120   0.325   1.323  1.00  0.00    -0.372 OA
HETATM   33  C29 UNL     1      -5.791   1.062  -0.750  1.00  0.00    -0.014 C 
HETATM   34  C24 UNL     1      -3.953   0.657   0.641  1.00  0.00     0.080 A 
HETATM   35  C28 UNL     1      -4.319   0.986  -0.770  1.00  0.00     0.046 A 
HETATM   36  C30 UNL     1      -6.447   0.631  -2.039  1.00  0.00     0.018 C 
HETATM   37  C31 UNL     1      -6.263   2.453  -0.405  1.00  0.00     0.018 C 
BRANCH  34  38
HETATM   38  C25 UNL     1      -3.065   1.609   1.332  1.00  0.00     0.013 C 
HETATM   39  C26 UNL     1      -3.873   2.300   2.477  1.00  0.00     0.012 C 
HETATM   40  C27 UNL     1      -2.625   2.815   0.506  1.00  0.00     0.012 C 
ENDBRANCH  34  38
ENDBRANCH  25  28
ENDBRANCH   1  25
TORSDOF 10
