REMARK  8 active torsions:
REMARK  status: ('A' for Active; 'I' for Inactive)
REMARK    1  A    between atoms: C8_9  and  O2_10 
REMARK    2  A    between atoms: O2_10  and  C9_11 
REMARK    3  A    between atoms: C9_11  and  C10_12 
REMARK    4  A    between atoms: C9_11  and  C16_27 
REMARK    5  A    between atoms: C10_12  and  C11_14 
REMARK    6  A    between atoms: C11_14  and  O4_15 
REMARK    7  A    between atoms: O4_15  and  C12_16 
REMARK    8  A    between atoms: C16_27  and  O6_28 
ROOT
HETATM    1  C9  UNL     1       0.305  -0.577   1.006  1.00  0.00     0.231 C 
ENDROOT
BRANCH   1   2
HETATM    2  O2  UNL     1       1.540  -0.029   0.574  1.00  0.00    -0.362 OA
BRANCH   2   3
HETATM    3  C8  UNL     1       2.170   0.722   1.553  1.00  0.00     0.192 C 
HETATM    4  C1  UNL     1       2.190   2.121   0.984  1.00  0.00     0.155 C 
HETATM    5  O1  UNL     1       1.197   2.756   1.303  1.00  0.00    -0.295 OA
HETATM    6  C2  UNL     1       3.123   2.863   0.150  1.00  0.00     0.081 C 
HETATM    7  C3  UNL     1       4.536   2.392   0.137  1.00  0.00     0.012 C 
HETATM    8  C4  UNL     1       4.747   0.995  -0.339  1.00  0.00    -0.010 A 
HETATM    9  C5  UNL     1       5.795   0.212   0.502  1.00  0.00     0.010 A 
HETATM   10  C6  UNL     1       4.317  -0.084   0.563  1.00  0.00    -0.007 A 
HETATM   11  C7  UNL     1       3.601   0.363   1.799  1.00  0.00     0.044 C 
ENDBRANCH   2   3
ENDBRANCH   1   2
BRANCH   1  12
HETATM   12  C10 UNL     1      -0.785  -0.111   0.152  1.00  0.00     0.182 C 
HETATM   13  O3  UNL     1      -0.460   0.623  -0.814  1.00  0.00    -0.293 OA
BRANCH  12  14
HETATM   14  C11 UNL     1      -2.226  -0.370   0.257  1.00  0.00     0.252 C 
BRANCH  14  15
HETATM   15  O4  UNL     1      -2.953   0.392  -0.704  1.00  0.00    -0.352 OA
BRANCH  15  16
HETATM   16  C12 UNL     1      -4.304   0.111  -0.561  1.00  0.00     0.297 C 
HETATM   17  O5  UNL     1      -5.016   1.292  -0.349  1.00  0.00    -0.306 OA
HETATM   18  C13 UNL     1      -5.894   1.436  -1.415  1.00  0.00     0.526 C 
HETATM   19  N1  UNL     1      -5.165   1.686  -2.635  1.00  0.00    -0.021 N 
HETATM   20  N2  UNL     1      -6.292   0.030  -1.627  1.00  0.00    -0.012 N 
HETATM   21  C14 UNL     1      -4.508   0.415  -2.985  1.00  0.00     0.275 C 
ATOM     22  H12 UNL     1      -5.744   2.064  -3.385  1.00  0.00     0.282 HD
ATOM     23  H11 UNL     1      -4.519   2.473  -2.569  1.00  0.00     0.282 HD
HETATM   24  C15 UNL     1      -4.909  -0.450  -1.828  1.00  0.00     0.271 C 
ATOM     25  H22 UNL     1      -6.859  -0.423  -0.910  1.00  0.00     0.283 HD
ATOM     26  H21 UNL     1      -6.981  -0.171  -2.352  1.00  0.00     0.283 HD
ENDBRANCH  15  16
ENDBRANCH  14  15
ENDBRANCH  12  14
ENDBRANCH   1  12
BRANCH   1  27
HETATM   27  C16 UNL     1       0.585  -2.058   1.007  1.00  0.00     0.138 A 
HETATM   28  C17 UNL     1      -0.517  -3.018   1.221  1.00  0.00     0.274 A 
HETATM   29  N3  UNL     1      -0.395  -3.547  -0.122  1.00  0.00    -0.069 N 
HETATM   30  C18 UNL     1       0.670  -2.598  -0.387  1.00  0.00     0.274 A 
ATOM     31  H32 UNL     1      -0.241  -4.545  -0.268  1.00  0.00     0.277 HD
ATOM     32  H31 UNL     1      -1.210  -3.587  -0.734  1.00  0.00     0.277 HD
BRANCH  27  33
HETATM   33  O6  UNL     1       1.685  -2.349   1.844  1.00  0.00    -0.383 OA
ATOM     34  H6  UNL     1       1.861  -3.282   1.845  1.00  0.00     0.210 HD
ENDBRANCH  27  33
ENDBRANCH   1  27
TORSDOF 8
