REMARK  1 active torsions:
REMARK  status: ('A' for Active; 'I' for Inactive)
REMARK    1  A    between atoms: C6_6  and  C7_7 
ROOT
HETATM    1  C1  UNL     1      -1.999   1.186  -0.207  1.00  0.00     0.046 C 
HETATM    2  C2  UNL     1      -1.233  -0.097   0.028  1.00  0.00     0.118 C 
HETATM    3  C3  UNL     1      -2.259  -1.223  -0.023  1.00  0.00     0.046 C 
HETATM    4  C4  UNL     1      -0.469  -0.104   1.313  1.00  0.00     0.039 C 
HETATM    5  C5  UNL     1       0.984  -0.528   1.101  1.00  0.00     0.018 C 
HETATM    6  C6  UNL     1       1.635   0.443   0.145  1.00  0.00     0.119 C 
HETATM    7  C8  UNL     1       0.739   0.626  -1.069  1.00  0.00     0.246 C 
HETATM    8  N1  UNL     1      -0.291  -0.360  -1.048  1.00  0.00    -0.066 N 
ATOM      9  H11 UNL     1      -0.760  -0.436  -1.951  1.00  0.00     0.278 HD
ATOM     10  H12 UNL     1       0.091  -1.304  -0.994  1.00  0.00     0.278 HD
ENDROOT
BRANCH   6  11
HETATM   11  C7  UNL     1       2.983  -0.105  -0.289  1.00  0.00     0.393 C 
HETATM   12  F1  UNL     1       2.876  -1.314  -0.919  1.00  0.00    -0.171 F 
HETATM   13  F2  UNL     1       3.747  -0.202   0.878  1.00  0.00    -0.171 F 
HETATM   14  F3  UNL     1       3.611   0.839  -1.078  1.00  0.00    -0.171 F 
ENDBRANCH   6  11
TORSDOF 1
