REMARK  2 active torsions:
REMARK  status: ('A' for Active; 'I' for Inactive)
REMARK    1  A    between atoms: N1_1  and  C1_5 
REMARK    2  A    between atoms: C5_9  and  C6_10 
ROOT
HETATM    1  C1  UNL     1      -1.730  -0.343   0.031  1.00  0.00     0.183 C 
HETATM    2  C2  UNL     1      -1.373   1.077  -0.250  1.00  0.00     0.033 C 
HETATM    3  C3  UNL     1      -0.101   1.543   0.357  1.00  0.00     0.002 C 
HETATM    4  C4  UNL     1       1.098   1.344  -0.544  1.00  0.00     0.010 C 
HETATM    5  C5  UNL     1       1.531  -0.099  -0.609  1.00  0.00     0.051 C 
HETATM    6  C7  UNL     1       0.405  -0.912  -1.153  1.00  0.00     0.012 C 
HETATM    7  C8  UNL     1      -0.617  -1.318  -0.142  1.00  0.00     0.033 C 
ENDROOT
BRANCH   1   8
HETATM    8  N1  UNL     1      -2.287  -0.476   1.375  1.00  0.00    -0.075 N 
ATOM      9  H13 UNL     1      -1.660  -0.096   2.084  1.00  0.00     0.274 HD
ATOM     10  H12 UNL     1      -3.079   0.150   1.520  1.00  0.00     0.274 HD
ATOM     11  H11 UNL     1      -2.531  -1.447   1.567  1.00  0.00     0.274 HD
ENDBRANCH   1   8
BRANCH   5  12
HETATM   12  C6  UNL     1       2.047  -0.571   0.719  1.00  0.00     0.357 C 
HETATM   13  F1  UNL     1       2.437  -1.877   0.657  1.00  0.00    -0.214 F 
HETATM   14  F2  UNL     1       3.168   0.188   1.021  1.00  0.00    -0.214 F 
ENDBRANCH   5  12
TORSDOF 2
