REMARK  9 active torsions:
REMARK  status: ('A' for Active; 'I' for Inactive)
REMARK    1  A    between atoms: C2_3  and  C3_5 
REMARK    2  A    between atoms: C3_5  and  N2_6 
REMARK    3  A    between atoms: N2_6  and  C4_9 
REMARK    4  A    between atoms: C4_9  and  C5_10 
REMARK    5  A    between atoms: C4_9  and  C8_15 
REMARK    6  A    between atoms: C5_10  and  C6_11 
REMARK    7  A    between atoms: C6_11  and  C7_12 
REMARK    8  A    between atoms: C8_15  and  C9_16 
REMARK    9  A    between atoms: C11_20  and  N5_21 
ROOT
HETATM    1  N1  UNL     1      -1.220   5.517   0.636  1.00  0.00    -0.188 NA
HETATM    2  C1  UNL     1      -0.821   4.444   0.808  1.00  0.00     0.140 C 
HETATM    3  C2  UNL     1      -0.327   3.106   1.044  1.00  0.00     0.253 C 
HETATM    4  O1  UNL     1       0.254   2.773   2.091  1.00  0.00    -0.279 OA
ENDROOT
BRANCH   3   5
HETATM    5  C3  UNL     1      -0.540   2.093  -0.039  1.00  0.00     0.327 C 
BRANCH   5   6
HETATM    6  N2  UNL     1       0.009   0.843   0.369  1.00  0.00    -0.063 N 
ATOM      7  H22 UNL     1       0.986   0.952   0.642  1.00  0.00     0.278 HD
ATOM      8  H21 UNL     1      -0.388   0.551   1.262  1.00  0.00     0.278 HD
BRANCH   6   9
HETATM    9  C4  UNL     1      -0.129  -0.200  -0.611  1.00  0.00     0.191 C 
BRANCH   9  10
HETATM   10  C5  UNL     1      -1.565  -0.492  -0.862  1.00  0.00     0.042 C 
BRANCH  10  11
HETATM   11  C6  UNL     1      -2.323  -0.940   0.364  1.00  0.00     0.101 C 
BRANCH  11  12
HETATM   12  C7  UNL     1      -3.737  -1.203   0.007  1.00  0.00     0.231 C 
HETATM   13  N3  UNL     1      -4.669  -1.633   0.969  1.00  0.00    -0.062 NA
HETATM   14  O2  UNL     1      -4.108  -1.036  -1.179  1.00  0.00    -0.277 OA
ENDBRANCH  11  12
ENDBRANCH  10  11
ENDBRANCH   9  10
BRANCH   9  15
HETATM   15  C8  UNL     1       0.679  -1.421  -0.262  1.00  0.00     0.080 C 
BRANCH  15  16
HETATM   16  C9  UNL     1       2.144  -1.090  -0.173  1.00  0.00     0.003 A 
HETATM   17  C10 UNL     1       3.081  -1.125  -1.175  1.00  0.00     0.105 A 
HETATM   18  N4  UNL     1       4.306  -0.794  -0.868  1.00  0.00    -0.346 N 
HETATM   19  C11 UNL     1       4.582  -0.444   0.383  1.00  0.00     0.142 A 
ATOM     20  H4  UNL     1       5.039  -0.804  -1.577  1.00  0.00     0.167 HD
HETATM   21  S1  UNL     1       3.076  -0.580   1.168  1.00  0.00    -0.058 SA
BRANCH  19  22
HETATM   22  N5  UNL     1       5.733  -0.081   0.898  1.00  0.00    -0.380 N 
ATOM     23  H52 UNL     1       6.635   0.000   0.428  1.00  0.00     0.158 HD
ATOM     24  H51 UNL     1       5.945   0.188   1.859  1.00  0.00     0.158 HD
ENDBRANCH  19  22
ENDBRANCH  15  16
ENDBRANCH   9  15
ENDBRANCH   6   9
ENDBRANCH   5   6
ENDBRANCH   3   5
TORSDOF 9
