REMARK  11 active torsions:
REMARK  status: ('A' for Active; 'I' for Inactive)
REMARK    1  A    between atoms: O1_2  and  C2_3 
REMARK    2  A    between atoms: C2_3  and  C3_4 
REMARK    3  A    between atoms: C8_9  and  C9_10 
REMARK       I    between atoms: C9_10  and  N1_12 
REMARK    4  A    between atoms: N1_12  and  C10_14 
REMARK    5  A    between atoms: C10_14  and  C11_15 
REMARK    6  A    between atoms: C13_19  and  C14_20 
REMARK    7  A    between atoms: N2_23  and  C15_24 
REMARK    8  A    between atoms: C15_24  and  O7_25 
REMARK    9  A    between atoms: C15_24  and  N3_27 
REMARK   10  A    between atoms: N3_27  and  C16_29 
REMARK   11  A    between atoms: C16_29  and  C17_30 
ROOT
HETATM    1  C2  UNL     1      -1.108  -2.681   0.027  1.00  0.00     0.085 C 
HETATM    2  C7  UNL     1      -1.197  -2.237   1.466  1.00  0.00     0.075 C 
HETATM    3  C8  UNL     1      -0.993  -0.743   1.448  1.00  0.00     0.182 C 
HETATM    4  N2  UNL     1      -0.606  -0.429   0.071  1.00  0.00    -0.331 N 
HETATM    5  C25 UNL     1      -1.451  -1.347  -0.691  1.00  0.00     0.166 C 
ENDROOT
BRANCH   4   6
HETATM    6  C15 UNL     1       0.400   0.468  -0.339  1.00  0.00     0.219 C 
BRANCH   6   7
HETATM    7  O7  UNL     1       0.275   0.807  -1.614  1.00  0.00    -0.332 OA
ATOM      8  H7  UNL     1       0.953   1.412  -1.890  1.00  0.00     0.220 HD
ENDBRANCH   6   7
BRANCH   6   9
HETATM    9  N3  UNL     1       1.467   1.052   0.302  1.00  0.00    -0.332 N 
ATOM     10  H3  UNL     1       1.675   0.764   1.258  1.00  0.00     0.168 HD
BRANCH   9  11
HETATM   11  C16 UNL     1       2.294   2.036  -0.301  1.00  0.00     0.106 C 
BRANCH  11  12
HETATM   12  C17 UNL     1       3.709   2.170   0.005  1.00  0.00     0.023 A 
HETATM   13  C18 UNL     1       4.198   3.237   0.787  1.00  0.00     0.047 A 
HETATM   14 CL1  UNL     1       3.010   4.197   1.648  1.00  0.00    -0.083 Cl
HETATM   15  C19 UNL     1       5.538   3.508   0.877  1.00  0.00     0.032 A 
HETATM   16  C20 UNL     1       6.496   2.750   0.197  1.00  0.00    -0.053 A 
HETATM   17  C21 UNL     1       7.940   3.015   0.347  1.00  0.00     0.049 C 
HETATM   18  C22 UNL     1       6.025   1.698  -0.584  1.00  0.00    -0.033 A 
HETATM   19  C23 UNL     1       7.065   1.001  -1.424  1.00  0.00     0.050 C 
HETATM   20  C24 UNL     1       4.668   1.433  -0.660  1.00  0.00     0.053 A 
HETATM   21 CL2  UNL     1       4.169   0.083  -1.696  1.00  0.00    -0.083 Cl
ENDBRANCH  11  12
ENDBRANCH   9  11
ENDBRANCH   6   9
ENDBRANCH   4   6
BRANCH   3  22
HETATM   22  C9  UNL     1      -2.339  -0.026   1.657  1.00  0.00     0.241 C 
HETATM   23  O2  UNL     1      -2.982  -0.312   2.667  1.00  0.00    -0.271 OA
HETATM   24  N1  UNL     1      -2.775   0.888   0.689  1.00  0.00    -0.339 N 
ATOM     25  H1  UNL     1      -2.163   1.099  -0.100  1.00  0.00     0.163 HD
BRANCH  24  26
HETATM   26  C10 UNL     1      -4.079   1.551   0.770  1.00  0.00     0.136 A 
HETATM   27  C12 UNL     1      -5.275   1.142   0.063  1.00  0.00     0.062 A 
HETATM   28  C13 UNL     1      -4.498   2.231  -0.525  1.00  0.00     0.128 A 
BRANCH  26  29
HETATM   29  C11 UNL     1      -4.179   2.309   2.049  1.00  0.00     0.203 C 
HETATM   30  O3  UNL     1      -5.338   2.782   2.305  1.00  0.00    -0.646 OA
HETATM   31  O4  UNL     1      -3.165   2.513   2.919  1.00  0.00    -0.646 OA
ENDBRANCH  26  29
BRANCH  28  32
HETATM   32  C14 UNL     1      -4.836   3.627  -0.606  1.00  0.00     0.180 C 
HETATM   33  O5  UNL     1      -5.615   4.272   0.197  1.00  0.00    -0.648 OA
HETATM   34  O6  UNL     1      -4.318   4.469  -1.608  1.00  0.00    -0.648 OA
ENDBRANCH  28  32
ENDBRANCH  24  26
ENDBRANCH   3  22
BRANCH   1  35
HETATM   35  O1  UNL     1       0.193  -2.966  -0.196  1.00  0.00    -0.382 OA
HETATM   36  C1  UNL     1       0.669  -3.223  -1.430  1.00  0.00     0.202 C 
ENDBRANCH   1  35
BRANCH   1  37
HETATM   37  C3  UNL     1      -2.101  -3.758  -0.262  1.00  0.00    -0.018 C 
HETATM   38  C4  UNL     1      -2.170  -4.277  -1.651  1.00  0.00     0.018 C 
HETATM   39  C5  UNL     1      -3.507  -3.465   0.192  1.00  0.00     0.018 C 
HETATM   40  C6  UNL     1      -1.661  -4.956   0.620  1.00  0.00     0.018 C 
ENDBRANCH   1  37
TORSDOF 11
