REMARK  11 active torsions:
REMARK  status: ('A' for Active; 'I' for Inactive)
REMARK    1  A    between atoms: C2_2  and  C3_4 
REMARK    2  A    between atoms: C2_2  and  C9_23 
REMARK    3  A    between atoms: C3_4  and  N1_5 
REMARK    4  A    between atoms: C3_4  and  C8_19 
REMARK    5  A    between atoms: N1_5  and  C4_7 
REMARK    6  A    between atoms: C4_7  and  O1_8 
REMARK    7  A    between atoms: C4_7  and  C5_10 
REMARK    8  A    between atoms: C5_10  and  C6_12 
REMARK    9  A    between atoms: C6_12  and  C7_15 
REMARK   10  A    between atoms: C9_23  and  C10_26 
REMARK   11  A    between atoms: C10_26  and  N2_27 
ROOT
HETATM    1  C3  UNL     1      -0.457  -0.980   0.046  1.00  0.00     0.085 C 
ENDROOT
BRANCH   1   2
HETATM    2  C2  UNL     1      -1.564  -0.009  -0.004  1.00  0.00     0.211 C 
HETATM    3  C1  UNL     1      -2.340   0.027  -1.301  1.00  0.00     0.065 C 
HETATM    4  F1  UNL     1      -0.971   1.284   0.014  1.00  0.00    -0.230 F 
BRANCH   2   5
HETATM    5  C9  UNL     1      -2.453   0.072   1.216  1.00  0.00     0.339 C 
HETATM    6  F6  UNL     1      -1.691  -0.003   2.358  1.00  0.00    -0.197 F 
HETATM    7  F7  UNL     1      -3.520  -0.755   1.234  1.00  0.00    -0.197 F 
BRANCH   5   8
HETATM    8  C10 UNL     1      -3.098   1.485   1.318  1.00  0.00     0.440 C 
HETATM    9  F8  UNL     1      -2.213   2.432   1.707  1.00  0.00    -0.213 F 
BRANCH   8  10
HETATM   10  N2  UNL     1      -3.894   1.774   0.177  1.00  0.00    -0.042 N 
ATOM     11  H23 UNL     1      -3.362   1.667  -0.687  1.00  0.00     0.278 HD
ATOM     12  H22 UNL     1      -4.597   1.052   0.019  1.00  0.00     0.278 HD
ATOM     13  H21 UNL     1      -4.317   2.700   0.244  1.00  0.00     0.278 HD
ENDBRANCH   8  10
ENDBRANCH   5   8
ENDBRANCH   2   5
ENDBRANCH   1   2
BRANCH   1  14
HETATM   14  N1  UNL     1       0.586  -0.856  -0.901  1.00  0.00    -0.358 N 
ATOM     15  H1  UNL     1       0.673  -1.602  -1.591  1.00  0.00     0.162 HD
BRANCH  14  16
HETATM   16  C4  UNL     1       1.497   0.177  -0.982  1.00  0.00     0.294 C 
BRANCH  16  17
HETATM   17  O1  UNL     1       2.342  -0.143  -2.106  1.00  0.00    -0.369 OA
ATOM     18  H1  UNL     1       2.969   0.568  -2.162  1.00  0.00     0.212 HD
ENDBRANCH  16  17
BRANCH  16  19
HETATM   19  C5  UNL     1       2.456   0.351   0.149  1.00  0.00     0.239 C 
HETATM   20  O2  UNL     1       2.051   0.627   1.237  1.00  0.00    -0.288 OA
BRANCH  19  21
HETATM   21  C6  UNL     1       3.928   0.175  -0.095  1.00  0.00     0.339 C 
HETATM   22  F2  UNL     1       4.089  -1.097  -0.606  1.00  0.00    -0.207 F 
HETATM   23 CL1  UNL     1       4.515   1.315  -1.329  1.00  0.00    -0.065 Cl
BRANCH  21  24
HETATM   24  C7  UNL     1       4.742   0.380   1.140  1.00  0.00     0.445 C 
HETATM   25  F3  UNL     1       4.588   1.644   1.674  1.00  0.00    -0.166 F 
HETATM   26  F4  UNL     1       6.077   0.267   0.763  1.00  0.00    -0.166 F 
HETATM   27  F5  UNL     1       4.497  -0.519   2.136  1.00  0.00    -0.166 F 
ENDBRANCH  21  24
ENDBRANCH  19  21
ENDBRANCH  16  19
ENDBRANCH  14  16
ENDBRANCH   1  14
BRANCH   1  28
HETATM   28  C8  UNL     1      -0.754  -2.439   0.168  1.00  0.00     0.230 C 
HETATM   29 CL2  UNL     1      -1.603  -3.024   1.553  1.00  0.00    -0.077 Cl
HETATM   30 CL3  UNL     1       0.831  -3.318   0.209  1.00  0.00    -0.077 Cl
HETATM   31 CL4  UNL     1      -1.566  -3.072  -1.291  1.00  0.00    -0.077 Cl
ENDBRANCH   1  28
TORSDOF 11
