REMARK  8 active torsions:
REMARK  status: ('A' for Active; 'I' for Inactive)
REMARK    1  A    between atoms: N2_4  and  C1_6 
REMARK    2  A    between atoms: C2_9  and  N4_10 
REMARK    3  A    between atoms: N6_16  and  C5_17 
REMARK    4  A    between atoms: C5_17  and  C6_18 
REMARK    5  A    between atoms: C6_18  and  C7_19 
REMARK    6  A    between atoms: C7_19  and  C8_20 
REMARK    7  A    between atoms: C8_20  and  C9_21 
REMARK    8  A    between atoms: C9_21  and  N7_22 
ROOT
HETATM    1  C1  UNL     1      -2.774   1.597   0.490  1.00  0.00     0.700 A 
HETATM    2  N3  UNL     1      -4.115   1.743   0.564  1.00  0.00    -0.174 N 
ATOM      3  H3  UNL     1      -4.520   2.558   1.024  1.00  0.00     0.186 HD
HETATM    4  C2  UNL     1      -4.915   0.798   0.022  1.00  0.00     0.140 A 
HETATM    5  C3  UNL     1      -4.367  -0.301  -0.601  1.00  0.00     0.106 A 
HETATM    6  N5  UNL     1      -5.126  -1.329  -1.190  1.00  0.00    -0.097 NA
HETATM    7  C4  UNL     1      -2.980  -0.414  -0.656  1.00  0.00     0.139 A 
HETATM    8  N6  UNL     1      -2.200   0.537  -0.110  1.00  0.00    -0.190 N 
ENDROOT
BRANCH   8   9
HETATM    9  C5  UNL     1      -0.752   0.427  -0.162  1.00  0.00     0.147 C 
BRANCH   9  10
HETATM   10  C6  UNL     1      -0.294  -0.313   1.060  1.00  0.00     0.021 C 
BRANCH  10  11
HETATM   11  C7  UNL     1       1.188  -0.495   1.128  1.00  0.00     0.003 C 
BRANCH  11  12
HETATM   12  C8  UNL     1       1.734  -1.273  -0.048  1.00  0.00     0.020 C 
BRANCH  12  13
HETATM   13  C9  UNL     1       3.243  -1.390   0.137  1.00  0.00     0.122 C 
BRANCH  13  14
HETATM   14  N7  UNL     1       3.813  -0.074   0.179  1.00  0.00    -0.367 N 
HETATM   15  C10 UNL     1       5.092   0.091   0.157  1.00  0.00     0.196 C 
HETATM   16  N8  UNL     1       5.914  -1.054   0.089  1.00  0.00    -0.067 NA
HETATM   17  N9  UNL     1       5.645   1.413   0.199  1.00  0.00    -0.067 NA
ATOM     18  H7  UNL     1       3.200   0.740   0.227  1.00  0.00     0.161 HD
ENDBRANCH  13  14
ENDBRANCH  12  13
ENDBRANCH  11  12
ENDBRANCH  10  11
ENDBRANCH   9  10
ENDBRANCH   8   9
BRANCH   1  19
HETATM   19  N2  UNL     1      -2.025   2.487   1.001  1.00  0.00    -0.138 N 
HETATM   20  N1  UNL     1      -1.362   3.544   1.052  1.00  0.00    -0.331 N 
ATOM     21  H12 UNL     1      -1.542   3.882   0.107  1.00  0.00     0.177 HD
ATOM     22  H11 UNL     1      -0.761   4.259   1.462  1.00  0.00     0.177 HD
ATOM     23  H2  UNL     1      -1.873   2.109   1.936  1.00  0.00     0.205 HD
ENDBRANCH   1  19
BRANCH   4  24
HETATM   24  N4  UNL     1      -6.194   0.883   0.062  1.00  0.00    -0.383 N 
ATOM     25  H42 UNL     1      -6.600   1.697   0.523  1.00  0.00     0.157 HD
ATOM     26  H41 UNL     1      -6.798   0.170  -0.347  1.00  0.00     0.157 HD
ENDBRANCH   4  24
TORSDOF 8
