REMARK  3 active torsions:
REMARK  status: ('A' for Active; 'I' for Inactive)
REMARK    1  A    between atoms: C3_3  and  N1_4 
REMARK    2  A    between atoms: N1_4  and  C4_7 
REMARK    3  A    between atoms: C4_7  and  C5_8 
ROOT
HETATM    1  C5  UNL     1      -0.333  -0.332  -0.033  1.00  0.00    -0.009 C 
HETATM    2  C6  UNL     1      -0.470   0.365  -1.370  1.00  0.00     0.016 C 
HETATM    3  C7  UNL     1      -1.970   0.687  -1.345  1.00  0.00    -0.011 C 
HETATM    4  C8  UNL     1      -2.326   1.605  -0.223  1.00  0.00     0.029 C 
HETATM    5  C9  UNL     1      -1.899   1.120   1.142  1.00  0.00     0.077 C 
HETATM    6  C10 UNL     1      -0.454   0.709   1.051  1.00  0.00     0.036 C 
HETATM    7  N2  UNL     1      -2.658   0.023   1.637  1.00  0.00    -0.417 N 
ATOM      8  H2  UNL     1      -3.529   0.146   2.154  1.00  0.00     0.153 HD
HETATM    9  C11 UNL     1      -2.101  -1.278   1.352  1.00  0.00     0.119 C 
HETATM   10  C12 UNL     1      -1.505  -1.264  -0.063  1.00  0.00     0.013 C 
HETATM   11  C13 UNL     1      -2.510  -0.705  -1.045  1.00  0.00     0.011 C 
ENDROOT
BRANCH   1  12
HETATM   12  C4  UNL     1       0.999  -1.044   0.082  1.00  0.00     0.242 C 
BRANCH  12  13
HETATM   13  N1  UNL     1       2.002  -0.007  -0.099  1.00  0.00    -0.070 N 
ATOM     14  H12 UNL     1       1.804   0.793   0.503  1.00  0.00     0.277 HD
ATOM     15  H11 UNL     1       1.900   0.436  -1.012  1.00  0.00     0.277 HD
BRANCH  13  16
HETATM   16  C3  UNL     1       3.354  -0.463   0.094  1.00  0.00     0.186 A 
HETATM   17  C1  UNL     1       4.382   0.145  -0.827  1.00  0.00     0.035 A 
HETATM   18  C2  UNL     1       4.360   0.534   0.607  1.00  0.00     0.035 A 
ENDBRANCH  13  16
ENDBRANCH  12  13
ENDBRANCH   1  12
TORSDOF 3
