REMARK  1 active torsions:
REMARK  status: ('A' for Active; 'I' for Inactive)
REMARK    1  A    between atoms: C5_5  and  N1_6 
ROOT
HETATM    1  C1  UNL     1      -1.832   1.211  -1.585  1.00  0.00     0.037 C 
HETATM    2  C2  UNL     1      -1.061   0.556  -0.426  1.00  0.00     0.021 C 
HETATM    3  C3  UNL     1      -1.782   0.967   0.831  1.00  0.00     0.037 C 
HETATM    4  C4  UNL     1      -1.265  -0.929  -0.634  1.00  0.00     0.062 C 
HETATM    5  C5  UNL     1      -0.310  -1.749   0.183  1.00  0.00     0.188 C 
HETATM    6  C6  UNL     1       1.088  -1.266   0.155  1.00  0.00     0.062 C 
HETATM    7  C7  UNL     1       1.299   0.183   0.001  1.00  0.00     0.021 C 
HETATM    8  C8  UNL     1       1.795   0.809   1.315  1.00  0.00     0.037 C 
HETATM    9  C9  UNL     1       2.522   0.366  -0.923  1.00  0.00     0.037 C 
HETATM   10  N2  UNL     1       0.275   0.973  -0.519  1.00  0.00    -0.405 N 
ATOM     11  H2  UNL     1       0.499   1.860  -0.970  1.00  0.00     0.154 HD
ENDROOT
BRANCH   5  12
HETATM   12  N1  UNL     1      -0.757  -1.901   1.560  1.00  0.00    -0.075 N 
ATOM     13  H13 UNL     1      -0.931  -0.995   1.994  1.00  0.00     0.274 HD
ATOM     14  H12 UNL     1      -1.702  -2.284   1.602  1.00  0.00     0.274 HD
ATOM     15  H11 UNL     1      -0.108  -2.458   2.115  1.00  0.00     0.274 HD
ENDBRANCH   5  12
TORSDOF 1
