REMARK  3 active torsions:
REMARK  status: ('A' for Active; 'I' for Inactive)
REMARK       I    between atoms: C1_2  and  N1_3 
REMARK    1  A    between atoms: C1_2  and  C4_8 
REMARK    2  A    between atoms: N1_3  and  C2_5 
REMARK    3  A    between atoms: C2_5  and  C3_6 
ROOT
HETATM    1  C4  UNL     1       0.194   0.356  -0.203  1.00  0.00     0.042 C 
HETATM    2  C5  UNL     1      -0.091  -1.104  -0.459  1.00  0.00     0.024 C 
HETATM    3  C6  UNL     1      -1.503  -1.469  -0.025  1.00  0.00    -0.013 C 
HETATM    4  C7  UNL     1      -2.535  -1.076  -1.027  1.00  0.00     0.005 C 
HETATM    5  C8  UNL     1      -3.013   0.302  -1.004  1.00  0.00     0.005 C 
HETATM    6  C9  UNL     1      -2.127   1.325  -0.363  1.00  0.00    -0.013 C 
HETATM    7  C10 UNL     1      -2.202   1.321   1.138  1.00  0.00     0.009 C 
HETATM    8  C11 UNL     1      -1.278   0.288   1.755  1.00  0.00    -0.013 C 
HETATM    9  C12 UNL     1      -1.805  -1.054   1.374  1.00  0.00     0.009 C 
HETATM   10  C13 UNL     1       0.112   0.570   1.293  1.00  0.00     0.024 C 
HETATM   11  C14 UNL     1      -0.756   1.244  -0.919  1.00  0.00     0.024 C 
ENDROOT
BRANCH   1  12
HETATM   12  C1  UNL     1       1.562   0.627  -0.714  1.00  0.00     0.226 C 
HETATM   13  O1  UNL     1       1.790   1.469  -1.619  1.00  0.00    -0.273 OA
HETATM   14  N1  UNL     1       2.676  -0.074  -0.179  1.00  0.00    -0.359 N 
ATOM     15  H1  UNL     1       2.521  -0.763   0.557  1.00  0.00     0.162 HD
BRANCH  14  16
HETATM   16  C2  UNL     1       4.020   0.161  -0.648  1.00  0.00     0.137 C 
BRANCH  16  17
HETATM   17  C3  UNL     1       4.960  -0.738   0.119  1.00  0.00     0.134 C 
HETATM   18 CL1  UNL     1       6.642  -0.525  -0.385  1.00  0.00    -0.129 Cl
ENDBRANCH  16  17
ENDBRANCH  14  16
ENDBRANCH   1  12
TORSDOF 3
