REMARK  14 active torsions:
REMARK  status: ('A' for Active; 'I' for Inactive)
REMARK    1  A    between atoms: C3_3  and  N1_4 
REMARK    2  A    between atoms: C3_3  and  N2_7 
REMARK    3  A    between atoms: N2_7  and  C4_9 
REMARK    4  A    between atoms: C4_9  and  C5_10 
REMARK    5  A    between atoms: C5_10  and  O1_11 
REMARK    6  A    between atoms: O1_11  and  C6_12 
REMARK    7  A    between atoms: C6_12  and  C7_13 
REMARK    8  A    between atoms: C7_13  and  N3_14 
REMARK    9  A    between atoms: N3_14  and  C8_17 
REMARK   10  A    between atoms: C8_17  and  C9_18 
REMARK   11  A    between atoms: C9_18  and  C10_19 
REMARK   12  A    between atoms: C10_19  and  N4_20 
REMARK   13  A    between atoms: N4_20  and  C11_22 
REMARK   14  A    between atoms: C12_27  and  N7_28 
ROOT
HETATM    1  C1  UNL     1      -7.444  -0.183  -2.173  1.00  0.00     0.021 C 
HETATM    2  C2  UNL     1      -6.746   0.618  -1.605  1.00  0.00    -0.042 C 
HETATM    3  C3  UNL     1      -5.889   1.572  -0.907  1.00  0.00     0.150 C 
ENDROOT
BRANCH   3   4
HETATM    4  N1  UNL     1      -5.367   2.512  -1.616  1.00  0.00    -0.379 N 
ATOM      5  H12 UNL     1      -5.529   2.604  -2.619  1.00  0.00     0.158 HD
ATOM      6  H11 UNL     1      -4.768   3.178  -1.128  1.00  0.00     0.158 HD
ENDBRANCH   3   4
BRANCH   3   7
HETATM    7  N2  UNL     1      -5.664   1.444   0.486  1.00  0.00    -0.367 N 
ATOM      8  H2  UNL     1      -6.093   2.101   1.137  1.00  0.00     0.161 HD
BRANCH   7   9
HETATM    9  C4  UNL     1      -4.826   0.381   0.977  1.00  0.00     0.148 C 
BRANCH   9  10
HETATM   10  C5  UNL     1      -3.406   0.653   0.563  1.00  0.00     0.187 C 
BRANCH  10  11
HETATM   11  O1  UNL     1      -2.501  -0.316   0.986  1.00  0.00    -0.388 OA
BRANCH  11  12
HETATM   12  C6  UNL     1      -2.737  -1.556   0.489  1.00  0.00     0.195 C 
BRANCH  12  13
HETATM   13  C7  UNL     1      -1.745  -2.560   0.988  1.00  0.00     0.258 C 
BRANCH  13  14
HETATM   14  N3  UNL     1      -0.374  -2.348   0.691  1.00  0.00    -0.073 N 
ATOM     15  H32 UNL     1       0.158  -3.205   0.842  1.00  0.00     0.277 HD
ATOM     16  H31 UNL     1      -0.242  -2.235  -0.314  1.00  0.00     0.277 HD
BRANCH  14  17
HETATM   17  C8  UNL     1       0.217  -1.274   1.387  1.00  0.00     0.234 C 
BRANCH  17  18
HETATM   18  C9  UNL     1       1.714  -1.146   1.113  1.00  0.00     0.048 C 
BRANCH  18  19
HETATM   19  C10 UNL     1       2.002  -0.900  -0.325  1.00  0.00     0.140 C 
BRANCH  19  20
HETATM   20  N4  UNL     1       3.396  -0.768  -0.631  1.00  0.00    -0.224 N 
ATOM     21  H4  UNL     1       3.826  -1.545  -1.134  1.00  0.00     0.177 HD
BRANCH  20  22
HETATM   22  C11 UNL     1       4.157   0.211  -0.345  1.00  0.00     0.707 A 
HETATM   23  N5  UNL     1       3.829   1.334   0.305  1.00  0.00    -0.117 N 
HETATM   24  N6  UNL     1       4.925   2.078   0.380  1.00  0.00    -0.117 N 
ATOM     25  H5  UNL     1       2.909   1.573   0.674  1.00  0.00     0.206 HD
HETATM   26  C12 UNL     1       5.957   1.457  -0.210  1.00  0.00     0.707 A 
ATOM     27  H6  UNL     1       4.976   2.995   0.824  1.00  0.00     0.206 HD
HETATM   28  N8  UNL     1       5.459   0.298  -0.655  1.00  0.00    -0.020 N 
ATOM     29  H8  UNL     1       5.991  -0.414  -1.156  1.00  0.00     0.203 HD
BRANCH  26  30
HETATM   30  N7  UNL     1       7.171   1.936  -0.299  1.00  0.00    -0.229 N 
HETATM   31  C13 UNL     1       8.211   1.206  -0.946  1.00  0.00     0.165 C 
ATOM     32  H7  UNL     1       7.378   2.850   0.103  1.00  0.00     0.177 HD
ENDBRANCH  26  30
ENDBRANCH  20  22
ENDBRANCH  19  20
ENDBRANCH  18  19
ENDBRANCH  17  18
ENDBRANCH  14  17
ENDBRANCH  13  14
ENDBRANCH  12  13
ENDBRANCH  11  12
ENDBRANCH  10  11
ENDBRANCH   9  10
ENDBRANCH   7   9
ENDBRANCH   3   7
TORSDOF 14
