REMARK  7 active torsions:
REMARK  status: ('A' for Active; 'I' for Inactive)
REMARK    1  A    between atoms: C5_5  and  C7_7 
REMARK    2  A    between atoms: C7_7  and  C8_8 
REMARK    3  A    between atoms: C9_9  and  C11_11 
REMARK    4  A    between atoms: C14_15  and  O1_16 
REMARK    5  A    between atoms: C20_24  and  C21_25 
REMARK    6  A    between atoms: C21_25  and  S1_26 
REMARK    7  A    between atoms: S1_26  and  N2_29 
ROOT
HETATM    1  C11 UNL     1       6.266   1.346  -0.206  1.00  0.00     0.157 C 
HETATM    2  C12 UNL     1       7.520   1.710   0.509  1.00  0.00     0.063 C 
HETATM    3  N1  UNL     1       8.492   1.991   1.060  1.00  0.00    -0.197 NA
ENDROOT
BRANCH   1   4
HETATM    4  C9  UNL     1       5.087   1.863   0.491  1.00  0.00    -0.074 C 
HETATM    5  C8  UNL     1       4.113   1.137   0.971  1.00  0.00    -0.023 C 
HETATM    6  C10 UNL     1       5.009   3.358   0.648  1.00  0.00     0.044 C 
BRANCH   5   7
HETATM    7  C7  UNL     1       4.061  -0.310   0.890  1.00  0.00     0.036 C 
BRANCH   7   8
HETATM    8  C5  UNL     1       2.850  -0.900   0.158  1.00  0.00    -0.038 C 
HETATM    9  C4  UNL     1       2.854  -0.390  -1.229  1.00  0.00     0.014 C 
HETATM   10  C3  UNL     1       2.074   0.814  -1.521  1.00  0.00     0.035 C 
HETATM   11  C2  UNL     1       0.644   0.637  -1.488  1.00  0.00    -0.076 C 
HETATM   12  C1  UNL     1       0.005   1.214  -2.511  1.00  0.00     0.015 C 
HETATM   13  C20 UNL     1      -0.323   0.005  -0.521  1.00  0.00     0.039 C 
HETATM   14  C14 UNL     1       0.310  -0.877   0.474  1.00  0.00     0.082 C 
HETATM   15  C18 UNL     1      -1.212  -0.907  -1.307  1.00  0.00     0.068 C 
HETATM   16  C13 UNL     1       1.671  -0.604   0.964  1.00  0.00     0.049 C 
HETATM   17  C15 UNL     1       0.050  -2.322   0.104  1.00  0.00     0.087 C 
HETATM   18  C16 UNL     1      -0.195  -3.194   1.344  1.00  0.00     0.021 C 
HETATM   19  C17 UNL     1      -1.301  -2.199  -0.513  1.00  0.00     0.138 C 
HETATM   20  O2  UNL     1      -2.265  -2.896  -0.451  1.00  0.00    -0.297 OA
HETATM   21  C19 UNL     1      -0.722  -1.375  -2.650  1.00  0.00     0.019 C 
HETATM   22  C6  UNL     1       3.237  -2.386   0.073  1.00  0.00     0.015 C 
BRANCH  13  23
HETATM   23  C21 UNL     1      -0.994   1.207   0.044  1.00  0.00     0.181 C 
BRANCH  23  24
HETATM   24  S1  UNL     1      -2.230   1.317   1.180  1.00  0.00     0.230 S 
HETATM   25  O3  UNL     1      -1.928   1.175   2.647  1.00  0.00    -0.206 OA
HETATM   26  O4  UNL     1      -2.685   2.831   1.168  1.00  0.00    -0.206 OA
BRANCH  24  27
HETATM   27  N2  UNL     1      -3.677   0.514   0.739  1.00  0.00    -0.306 N 
HETATM   28  C22 UNL     1      -4.092  -0.544   1.582  1.00  0.00     0.135 C 
HETATM   29  C23 UNL     1      -5.364  -1.216   1.121  1.00  0.00     0.021 C 
HETATM   30  C24 UNL     1      -5.725  -0.845  -0.295  1.00  0.00     0.004 C 
HETATM   31  C25 UNL     1      -5.649   0.609  -0.602  1.00  0.00     0.026 C 
HETATM   32  C26 UNL     1      -4.712   1.387   0.278  1.00  0.00     0.091 C 
HETATM   33  C27 UNL     1      -5.465   2.077   1.390  1.00  0.00     0.033 C 
ENDBRANCH  24  27
ENDBRANCH  23  24
ENDBRANCH  13  23
BRANCH  14  34
HETATM   34  O1  UNL     1      -0.460  -0.766   1.644  1.00  0.00    -0.388 OA
ATOM     35  H1  UNL     1      -1.338  -0.942   1.328  1.00  0.00     0.210 HD
ENDBRANCH  14  34
ENDBRANCH   7   8
ENDBRANCH   5   7
ENDBRANCH   1   4
TORSDOF 7
