REMARK  7 active torsions:
REMARK  status: ('A' for Active; 'I' for Inactive)
REMARK    1  A    between atoms: C2_2  and  C3_3 
REMARK    2  A    between atoms: C6_7  and  C7_8 
REMARK    3  A    between atoms: N2_10  and  O1_12 
REMARK    4  A    between atoms: N3_14  and  C8_15 
REMARK    5  A    between atoms: C8_15  and  C9_16 
REMARK    6  A    between atoms: C9_16  and  C10_17 
REMARK    7  A    between atoms: C10_17  and  N4_18 
ROOT
HETATM    1  C3  UNL     1      -1.141  -0.708  -0.098  1.00  0.00     0.062 C 
HETATM    2  C4  UNL     1      -0.764  -2.108  -0.608  1.00  0.00     0.044 C 
HETATM    3  S1  UNL     1      -1.335  -0.713   1.695  1.00  0.00    -0.138 SA
HETATM    4  C5  UNL     1      -0.347   0.799   2.023  1.00  0.00     0.130 C 
HETATM    5  C6  UNL     1      -0.120   1.292   0.606  1.00  0.00     0.042 C 
HETATM    6  N3  UNL     1      -0.051   0.207  -0.301  1.00  0.00    -0.265 NA
ENDROOT
BRANCH   6   7
HETATM    7  C8  UNL     1       1.206  -0.485   0.003  1.00  0.00     0.099 C 
BRANCH   7   8
HETATM    8  C9  UNL     1       2.436   0.216  -0.496  1.00  0.00     0.042 C 
BRANCH   8   9
HETATM    9  C10 UNL     1       3.639  -0.640  -0.084  1.00  0.00     0.230 C 
BRANCH   9  10
HETATM   10  N4  UNL     1       3.449  -1.944  -0.686  1.00  0.00    -0.079 N 
ATOM     11  H43 UNL     1       2.553  -2.370  -0.450  1.00  0.00     0.274 HD
ATOM     12  H42 UNL     1       3.310  -1.905  -1.696  1.00  0.00     0.274 HD
ATOM     13  H41 UNL     1       4.249  -2.514  -0.412  1.00  0.00     0.274 HD
ENDBRANCH   9  10
ENDBRANCH   8   9
ENDBRANCH   7   8
ENDBRANCH   6   7
BRANCH   1  14
HETATM   14  C2  UNL     1      -2.430  -0.400  -0.754  1.00  0.00     0.032 C 
HETATM   15  C1  UNL     1      -3.434  -1.484  -0.315  1.00  0.00     0.008 C 
ENDBRANCH   1  14
BRANCH   5  16
HETATM   16  C7  UNL     1      -0.888   2.479   0.291  1.00  0.00     0.154 C 
HETATM   17  N1  UNL     1      -2.107   2.785   0.990  1.00  0.00    -0.079 NA
HETATM   18  N2  UNL     1      -0.527   3.323  -0.591  1.00  0.00    -0.254 N 
ATOM     19  H2  UNL     1      -1.109   4.142  -0.769  1.00  0.00     0.195 HD
BRANCH  18  20
HETATM   20  O1  UNL     1       0.616   3.154  -1.298  1.00  0.00    -0.288 OA
ATOM     21  H1  UNL     1       0.885   3.784  -1.956  1.00  0.00     0.244 HD
ENDBRANCH  18  20
ENDBRANCH   5  16
TORSDOF 7
