REMARK  14 active torsions:
REMARK  status: ('A' for Active; 'I' for Inactive)
REMARK    1  A    between atoms: N1_1  and  C1_4 
REMARK    2  A    between atoms: C2_7  and  S1_8 
REMARK    3  A    between atoms: S1_8  and  C3_9 
REMARK    4  A    between atoms: C3_9  and  C4_10 
REMARK    5  A    between atoms: C4_10  and  N3_11 
REMARK    6  A    between atoms: N5_16  and  C6_17 
REMARK    7  A    between atoms: C6_17  and  O1_18 
REMARK    8  A    between atoms: C6_17  and  C7_20 
REMARK    9  A    between atoms: C14_27  and  O2_28 
REMARK   10  A    between atoms: O2_28  and  C15_29 
REMARK   11  A    between atoms: C15_29  and  C16_31 
REMARK   12  A    between atoms: C16_31  and  N6_32 
REMARK   13  A    between atoms: C16_31  and  C17_36 
REMARK   14  A    between atoms: C18_39  and  O6_40 
ROOT
HETATM    1  C6  UNL     1      -1.116   1.175   1.969  1.00  0.00     0.155 C 
ENDROOT
BRANCH   1   2
HETATM    2  N5  UNL     1      -2.343   0.622   1.593  1.00  0.00    -0.216 N 
HETATM    3  C5  UNL     1      -2.758  -0.470   0.969  1.00  0.00     0.206 A 
HETATM    4  N4  UNL     1      -4.083  -0.412   0.645  1.00  0.00    -0.269 N 
HETATM    5 CL1  UNL     1      -1.797  -1.950   0.750  1.00  0.00    -0.043 Cl
HETATM    6  N3  UNL     1      -4.511   0.722   1.073  1.00  0.00    -0.239 N 
ATOM      7  H4  UNL     1      -4.626  -1.127   0.160  1.00  0.00     0.190 HD
HETATM    8  C21 UNL     1      -3.527   1.382   1.647  1.00  0.00     0.352 A 
HETATM    9  O8  UNL     1      -3.542   2.516   2.186  1.00  0.00    -0.244 OA
BRANCH   6  10
HETATM   10  C4  UNL     1      -5.883   1.222   0.951  1.00  0.00     0.165 C 
BRANCH  10  11
HETATM   11  C3  UNL     1      -6.617   0.763   2.185  1.00  0.00     0.104 C 
BRANCH  11  12
HETATM   12  S1  UNL     1      -8.325   1.348   2.100  1.00  0.00    -0.091 SA
BRANCH  12  13
HETATM   13  C2  UNL     1      -9.141   0.540   0.758  1.00  0.00     0.163 A 
HETATM   14  N2  UNL     1      -9.780  -0.618   0.938  1.00  0.00    -0.170 N 
HETATM   15  C1  UNL     1     -10.377  -1.170  -0.136  1.00  0.00     0.681 A 
ATOM     16  H2  UNL     1      -9.815  -1.067   1.853  1.00  0.00     0.186 HD
HETATM   17  N8  UNL     1     -10.348  -0.604  -1.355  1.00  0.00    -0.141 N 
HETATM   18  C22 UNL     1      -9.703   0.558  -1.522  1.00  0.00     0.340 A 
ATOM     19  H8  UNL     1     -10.812  -1.054  -2.144  1.00  0.00     0.189 HD
HETATM   20  N7  UNL     1      -9.107   1.111  -0.454  1.00  0.00    -0.288 N 
HETATM   21  O9  UNL     1      -9.680   1.080  -2.662  1.00  0.00    -0.246 OA
ATOM     22  H7  UNL     1      -8.612   1.995  -0.569  1.00  0.00     0.172 HD
BRANCH  15  23
HETATM   23  N1  UNL     1     -10.994  -2.291   0.044  1.00  0.00    -0.234 N 
ATOM     24  H12 UNL     1     -11.016  -2.720   0.969  1.00  0.00     0.174 HD
ATOM     25  H11 UNL     1     -11.446  -2.709  -0.769  1.00  0.00     0.174 HD
ENDBRANCH  15  23
ENDBRANCH  12  13
ENDBRANCH  11  12
ENDBRANCH  10  11
ENDBRANCH   6  10
ENDBRANCH   1   2
BRANCH   1  26
HETATM   26  O1  UNL     1      -1.320   1.956   3.086  1.00  0.00    -0.345 OA
ATOM     27  H1  UNL     1      -0.486   2.332   3.342  1.00  0.00     0.219 HD
ENDBRANCH   1  26
BRANCH   1  28
HETATM   28  C7  UNL     1       0.208   1.203   1.597  1.00  0.00     0.089 C 
HETATM   29  C8  UNL     1       0.990   0.843   0.649  1.00  0.00     0.058 C 
HETATM   30  C9  UNL     1       0.607   0.155  -0.596  1.00  0.00     0.065 C 
HETATM   31  O7  UNL     1       2.388   1.161   0.863  1.00  0.00    -0.313 OA
HETATM   32  C10 UNL     1       1.384   0.793  -1.740  1.00  0.00     0.011 C 
HETATM   33  C11 UNL     1       2.627  -0.012  -2.064  1.00  0.00     0.042 C 
HETATM   34  C12 UNL     1       3.591   0.014  -0.940  1.00  0.00    -0.020 A 
HETATM   35  C13 UNL     1       4.769  -0.593  -1.311  1.00  0.00     0.050 A 
HETATM   36  C20 UNL     1       3.506   0.521   0.337  1.00  0.00     0.106 A 
HETATM   37  C14 UNL     1       5.846  -0.709  -0.468  1.00  0.00     0.114 A 
HETATM   38  C18 UNL     1       5.723  -0.186   0.811  1.00  0.00     0.124 A 
HETATM   39  C19 UNL     1       4.575   0.428   1.236  1.00  0.00     0.104 A 
HETATM   40 CL2  UNL     1       4.383   1.095   2.830  1.00  0.00    -0.078 Cl
BRANCH  37  41
HETATM   41  O2  UNL     1       7.049  -1.310  -0.796  1.00  0.00    -0.274 OA
BRANCH  41  42
HETATM   42  C15 UNL     1       8.076  -0.568  -1.356  1.00  0.00     0.305 C 
HETATM   43  O3  UNL     1       7.877   0.653  -1.552  1.00  0.00    -0.262 OA
BRANCH  42  44
HETATM   44  C16 UNL     1       9.389  -1.123  -1.738  1.00  0.00     0.382 C 
BRANCH  44  45
HETATM   45  N6  UNL     1       9.524  -2.521  -1.477  1.00  0.00    -0.056 N 
ATOM     46  H63 UNL     1       9.319  -2.725  -0.499  1.00  0.00     0.276 HD
ATOM     47  H62 UNL     1       8.770  -3.044  -1.923  1.00  0.00     0.276 HD
ATOM     48  H61 UNL     1      10.431  -2.905  -1.741  1.00  0.00     0.276 HD
ENDBRANCH  44  45
BRANCH  44  49
HETATM   49  C17 UNL     1      10.451  -0.305  -1.101  1.00  0.00     0.214 C 
HETATM   50  O4  UNL     1      11.368  -0.782  -0.410  1.00  0.00    -0.646 OA
HETATM   51  O5  UNL     1      10.400   1.068  -1.300  1.00  0.00    -0.646 OA
ENDBRANCH  44  49
ENDBRANCH  42  44
ENDBRANCH  41  42
ENDBRANCH  37  41
BRANCH  38  52
HETATM   52  O6  UNL     1       6.787  -0.285   1.689  1.00  0.00    -0.356 OA
ATOM     53  H6  UNL     1       6.703   0.073   2.565  1.00  0.00     0.218 HD
ENDBRANCH  38  52
ENDBRANCH   1  28
TORSDOF 14
