REMARK  5 active torsions:
REMARK  status: ('A' for Active; 'I' for Inactive)
REMARK    1  A    between atoms: C10_10  and  C12_12 
REMARK    2  A    between atoms: C12_12  and  C13_13 
REMARK    3  A    between atoms: C13_13  and  C14_14 
REMARK    4  A    between atoms: C14_14  and  N1_15 
REMARK    5  A    between atoms: N2_17  and  N3_19 
ROOT
HETATM    1  C1  UNL     1      -1.721   1.950   1.612  1.00  0.00     0.028 C 
HETATM    2  C2  UNL     1      -2.002   1.339   0.268  1.00  0.00     0.012 C 
HETATM    3  C3  UNL     1      -3.365   1.048   0.007  1.00  0.00    -0.173 C 
HETATM    4  C4  UNL     1      -4.751   1.140  -0.120  1.00  0.00     0.081 C 
HETATM    5  C5  UNL     1      -5.234  -0.337  -0.320  1.00  0.00     0.011 C 
HETATM    6  C6  UNL     1      -4.513  -1.356   0.464  1.00  0.00     0.001 C 
HETATM    7  C7  UNL     1      -3.158  -1.865   0.056  1.00  0.00     0.000 C 
HETATM    8  C8  UNL     1      -2.012  -1.155   0.801  1.00  0.00     0.007 C 
HETATM    9  C9  UNL     1      -1.308  -0.051   0.116  1.00  0.00     0.013 C 
HETATM   10  C10 UNL     1       0.157  -0.027   0.172  1.00  0.00    -0.039 C 
HETATM   11  C11 UNL     1       0.649  -0.253   1.585  1.00  0.00     0.015 C 
HETATM   12  C16 UNL     1       0.839   1.106  -0.488  1.00  0.00     0.010 C 
HETATM   13  C17 UNL     1       0.075   2.377  -0.657  1.00  0.00     0.002 C 
HETATM   14  C18 UNL     1      -1.409   2.193  -0.798  1.00  0.00     0.022 C 
ENDROOT
BRANCH  10  15
HETATM   15  C12 UNL     1       0.644  -1.272  -0.599  1.00  0.00     0.014 C 
BRANCH  15  16
HETATM   16  C13 UNL     1       2.179  -1.249  -0.522  1.00  0.00     0.047 C 
BRANCH  16  17
HETATM   17  C14 UNL     1       2.754  -2.436  -1.256  1.00  0.00     0.081 C 
BRANCH  17  18
HETATM   18  N1  UNL     1       4.156  -2.472  -1.227  1.00  0.00    -0.301 N 
HETATM   19  N2  UNL     1       5.032  -1.815  -0.675  1.00  0.00    -0.241 N 
ATOM     20  H2  UNL     1       5.986  -2.116  -0.873  1.00  0.00     0.208 HD
ATOM     21  H1  UNL     1       4.538  -3.223  -1.802  1.00  0.00     0.187 HD
BRANCH  19  22
HETATM   22  N3  UNL     1       4.925  -0.725   0.178  1.00  0.00    -0.261 N 
HETATM   23  C15 UNL     1       5.737   0.277   0.036  1.00  0.00     0.216 C 
HETATM   24  N4  UNL     1       5.677   1.421   0.877  1.00  0.00    -0.065 NA
HETATM   25  N5  UNL     1       6.731   0.260  -0.987  1.00  0.00    -0.065 NA
ATOM     26  H3  UNL     1       4.215  -0.712   0.910  1.00  0.00     0.190 HD
ENDBRANCH  19  22
ENDBRANCH  17  18
ENDBRANCH  16  17
ENDBRANCH  15  16
ENDBRANCH  10  15
TORSDOF 5
