REMARK  5 active torsions:
REMARK  status: ('A' for Active; 'I' for Inactive)
REMARK    1  A    between atoms: C2_2  and  C3_3 
REMARK    2  A    between atoms: C3_3  and  N1_4 
REMARK       I    between atoms: N1_4  and  C4_6 
REMARK       I    between atoms: C4_6  and  N3_10 
REMARK    3  A    between atoms: C5_11  and  C6_12 
REMARK    4  A    between atoms: C9_15  and  C10_16 
REMARK       I    between atoms: C10_16  and  N4_18 
REMARK    5  A    between atoms: N4_18  and  C11_20 
ROOT
HETATM    1  N1  UNL     1       2.376  -0.180   0.177  1.00  0.00    -0.227 N 
ATOM      2  H1  UNL     1       2.670   0.035  -0.776  1.00  0.00     0.177 HD
HETATM    3  C4  UNL     1       1.028   0.027   0.555  1.00  0.00     0.670 C 
HETATM    4  N2  UNL     1       0.794   0.163   1.812  1.00  0.00    -0.235 N 
ATOM      5  H21 UNL     1      -0.178   0.312   2.084  1.00  0.00     0.174 HD
ATOM      6  H22 UNL     1       1.587   0.118   2.452  1.00  0.00     0.174 HD
HETATM    7  N3  UNL     1      -0.070   0.089  -0.331  1.00  0.00    -0.203 N 
HETATM    8  C5  UNL     1      -0.551  -1.126  -0.991  1.00  0.00     0.103 C 
HETATM    9  C8  UNL     1      -1.788  -0.765  -1.732  1.00  0.00     0.042 C 
HETATM   10  C9  UNL     1      -2.087   0.685  -1.410  1.00  0.00     0.109 C 
HETATM   11  C14 UNL     1      -0.851   1.209  -0.702  1.00  0.00     0.065 C 
HETATM   12  C15 UNL     1      -1.200   2.195   0.394  1.00  0.00     0.033 C 
HETATM   13  C16 UNL     1      -0.020   3.028  -0.117  1.00  0.00     0.009 C 
HETATM   14  C17 UNL     1      -0.272   2.343  -1.458  1.00  0.00     0.011 C 
HETATM   15  C18 UNL     1       0.917   2.147  -2.319  1.00  0.00     0.012 C 
ENDROOT
BRANCH   8  16
HETATM   16  C6  UNL     1       0.495  -1.809  -1.813  1.00  0.00     0.021 C 
HETATM   17  C7  UNL     1      -0.021  -3.062  -2.486  1.00  0.00     0.007 C 
ENDBRANCH   8  16
BRANCH   1  18
HETATM   18  C3  UNL     1       3.357  -0.700   1.136  1.00  0.00     0.137 C 
BRANCH  18  19
HETATM   19  C2  UNL     1       4.708  -0.836   0.515  1.00  0.00     0.016 C 
HETATM   20  C1  UNL     1       5.743  -1.363   1.454  1.00  0.00     0.006 C 
ENDBRANCH  18  19
ENDBRANCH   1  18
BRANCH  10  21
HETATM   21  C10 UNL     1      -3.212   0.719  -0.440  1.00  0.00     0.224 C 
HETATM   22  O1  UNL     1      -4.259   1.312  -0.810  1.00  0.00    -0.273 OA
HETATM   23  N4  UNL     1      -3.077   0.105   0.824  1.00  0.00    -0.356 N 
ATOM     24  H4  UNL     1      -2.193  -0.354   1.043  1.00  0.00     0.162 HD
BRANCH  23  25
HETATM   25  C11 UNL     1      -4.118   0.089   1.826  1.00  0.00     0.084 A 
HETATM   26  C12 UNL     1      -3.702   0.404   3.249  1.00  0.00     0.027 A 
HETATM   27  C13 UNL     1      -4.234  -0.977   2.821  1.00  0.00     0.027 A 
ENDBRANCH  23  25
ENDBRANCH  10  21
TORSDOF 5
