REMARK  1 active torsions:
REMARK  status: ('A' for Active; 'I' for Inactive)
REMARK    1  A    between atoms: S1_2  and  C2_3 
ROOT
HETATM    1  C2  UNL     1      -0.526   0.261  -0.201  1.00  0.00     0.142 C 
HETATM    2  C3  UNL     1       0.198   0.875   0.923  1.00  0.00     0.036 C 
HETATM    3  C4  UNL     1       1.575   0.428   1.225  1.00  0.00     0.008 C 
HETATM    4  C5  UNL     1       2.171  -0.562   0.279  1.00  0.00     0.044 C 
HETATM    5  C6  UNL     1       1.592  -0.530  -1.100  1.00  0.00     0.056 C 
HETATM    6  N1  UNL     1       0.189  -0.456  -1.176  1.00  0.00    -0.389 N 
ATOM      7  H1  UNL     1      -0.308  -0.921  -1.936  1.00  0.00     0.159 HD
ENDROOT
BRANCH   1   8
HETATM    8  S1  UNL     1      -1.862  -0.832   0.409  1.00  0.00    -0.148 SA
HETATM    9  C1  UNL     1      -3.476  -0.051   0.313  1.00  0.00     0.092 C 
ENDBRANCH   1   8
TORSDOF 1
