REMARK  4 active torsions:
REMARK  status: ('A' for Active; 'I' for Inactive)
REMARK    1  A    between atoms: C2_3  and  N2_4 
REMARK    2  A    between atoms: C2_3  and  S1_8 
REMARK    3  A    between atoms: S1_8  and  C3_9 
REMARK    4  A    between atoms: C4_12  and  C5_13 
REMARK       I    between atoms: C5_13  and  N4_15 
ROOT
HETATM    1  N1  UNL     1       5.042  -0.186  -0.854  1.00  0.00    -0.194 NA
HETATM    2  C1  UNL     1       4.419   0.464  -0.128  1.00  0.00     0.103 C 
HETATM    3  C2  UNL     1       3.613   1.294   0.782  1.00  0.00     0.358 C 
ENDROOT
BRANCH   3   4
HETATM    4  N2  UNL     1       4.200   2.628   0.916  1.00  0.00    -0.053 N 
ATOM      5  H23 UNL     1       5.177   2.585   1.207  1.00  0.00     0.276 HD
ATOM      6  H22 UNL     1       4.331   3.077   0.010  1.00  0.00     0.276 HD
ATOM      7  H21 UNL     1       3.641   3.203   1.547  1.00  0.00     0.276 HD
ENDBRANCH   3   4
BRANCH   3   8
HETATM    8  S1  UNL     1       1.950   1.491   0.154  1.00  0.00    -0.046 SA
BRANCH   8   9
HETATM    9  C3  UNL     1       1.037  -0.037   0.129  1.00  0.00     0.164 A 
HETATM   10  N3  UNL     1      -0.217  -0.050  -0.312  1.00  0.00    -0.317 N 
HETATM   11  C4  UNL     1      -0.990  -1.161  -0.369  1.00  0.00     0.191 A 
ATOM     12  H3  UNL     1      -0.622   0.831  -0.627  1.00  0.00     0.169 HD
HETATM   13  N7  UNL     1      -0.403  -2.298   0.059  1.00  0.00    -0.171 N 
HETATM   14  C7  UNL     1       0.865  -2.343   0.517  1.00  0.00     0.679 A 
ATOM     15  H7  UNL     1      -0.943  -3.163   0.035  1.00  0.00     0.186 HD
HETATM   16  N8  UNL     1       1.399  -3.431   0.917  1.00  0.00    -0.234 N 
HETATM   17  N9  UNL     1       1.580  -1.197   0.547  1.00  0.00    -0.170 N 
ATOM     18  H82 UNL     1       0.859  -4.296   0.894  1.00  0.00     0.174 HD
ATOM     19  H81 UNL     1       2.358  -3.465   1.263  1.00  0.00     0.174 HD
ATOM     20  H9  UNL     1       2.541  -1.210   0.890  1.00  0.00     0.186 HD
BRANCH  11  21
HETATM   21  C5  UNL     1      -2.350  -1.128  -0.855  1.00  0.00     0.292 C 
HETATM   22  O1  UNL     1      -3.019  -2.175  -0.888  1.00  0.00    -0.264 OA
HETATM   23  N4  UNL     1      -2.917   0.086  -1.289  1.00  0.00    -0.297 N 
HETATM   24  C6  UNL     1      -3.850   0.674  -0.594  1.00  0.00     0.203 C 
ATOM     25  H4  UNL     1      -2.593   0.511  -2.158  1.00  0.00     0.171 HD
HETATM   26  N5  UNL     1      -4.422   1.887  -1.020  1.00  0.00    -0.066 NA
HETATM   27  N6  UNL     1      -4.287   0.072   0.612  1.00  0.00    -0.066 NA
ENDBRANCH  11  21
ENDBRANCH   8   9
ENDBRANCH   3   8
TORSDOF 4
