REMARK  4 active torsions:
REMARK  status: ('A' for Active; 'I' for Inactive)
REMARK    1  A    between atoms: C17_20  and  O3_21 
REMARK    2  A    between atoms: C18_23  and  O4_24 
REMARK    3  A    between atoms: C19_26  and  O5_27 
REMARK    4  A    between atoms: O5_27  and  C20_28 
ROOT
HETATM    1  C1  UNL     1      -0.777  -3.730  -0.188  1.00  0.00     0.015 C 
HETATM    2  C2  UNL     1      -1.020  -2.651   0.520  1.00  0.00    -0.077 C 
HETATM    3  C3  UNL     1      -2.220  -1.919   0.964  1.00  0.00     0.047 C 
HETATM    4  C4  UNL     1      -1.377  -1.546   2.178  1.00  0.00     0.021 C 
HETATM    5  C5  UNL     1      -0.257  -1.609   1.256  1.00  0.00     0.026 C 
HETATM    6  C6  UNL     1       0.012  -0.373   0.386  1.00  0.00     0.005 C 
HETATM    7  C7  UNL     1       0.335   0.663   1.489  1.00  0.00     0.020 C 
HETATM    8  C8  UNL     1       1.177  -0.663  -0.456  1.00  0.00     0.036 C 
HETATM    9  C9  UNL     1       1.033  -0.695  -1.939  1.00  0.00     0.026 C 
HETATM   10  C10 UNL     1      -0.341  -0.671  -2.475  1.00  0.00     0.031 C 
HETATM   11  C11 UNL     1      -1.320   0.136  -1.720  1.00  0.00     0.121 C 
HETATM   12 CL1  UNL     1      -1.228   1.817  -2.379  1.00  0.00    -0.122 Cl
HETATM   13  C12 UNL     1      -1.263   0.107  -0.227  1.00  0.00     0.116 C 
HETATM   14  O1  UNL     1      -1.610   1.429   0.150  1.00  0.00    -0.340 OA
HETATM   15  C13 UNL     1      -2.907   1.478   0.526  1.00  0.00     0.158 C 
HETATM   16  C14 UNL     1      -3.944   1.788  -0.513  1.00  0.00     0.078 C 
HETATM   17  C15 UNL     1      -3.155   2.582   1.580  1.00  0.00     0.078 C 
HETATM   18  O2  UNL     1      -3.184   0.267   1.108  1.00  0.00    -0.347 OA
HETATM   19  C16 UNL     1      -2.492  -0.624   0.268  1.00  0.00     0.170 C 
HETATM   20  C17 UNL     1       1.802   0.484  -2.527  1.00  0.00     0.154 C 
HETATM   21  C18 UNL     1       2.271   1.305  -1.332  1.00  0.00     0.177 C 
HETATM   22  C19 UNL     1       2.418   0.189  -0.325  1.00  0.00     0.168 C 
ENDROOT
BRANCH  22  23
HETATM   23  O5  UNL     1       2.876   0.498   0.900  1.00  0.00    -0.313 OA
BRANCH  23  24
HETATM   24  C20 UNL     1       4.099   0.131   1.394  1.00  0.00     0.255 C 
HETATM   25  C21 UNL     1       4.620   0.460   2.735  1.00  0.00     0.126 C 
HETATM   26  O6  UNL     1       4.806  -0.538   0.613  1.00  0.00    -0.266 OA
ENDBRANCH  23  24
ENDBRANCH  22  23
BRANCH  21  27
HETATM   27  O4  UNL     1       3.527   1.804  -1.728  1.00  0.00    -0.390 OA
ATOM     28  H4  UNL     1       3.819   2.316  -0.983  1.00  0.00     0.210 HD
ENDBRANCH  21  27
BRANCH  20  29
HETATM   29  O3  UNL     1       2.911   0.044  -3.291  1.00  0.00    -0.393 OA
ATOM     30  H3  UNL     1       3.390   0.778  -3.657  1.00  0.00     0.210 HD
ENDBRANCH  20  29
TORSDOF 4
