REMARK  4 active torsions:
REMARK  status: ('A' for Active; 'I' for Inactive)
REMARK    1  A    between atoms: N1_2  and  N2_4 
REMARK    2  A    between atoms: N2_4  and  C3_6 
REMARK    3  A    between atoms: C3_6  and  C4_7 
REMARK    4  A    between atoms: C7_10  and  N3_11 
ROOT
HETATM    1  C4  UNL     1       0.919   0.813   0.047  1.00  0.00     0.031 C 
HETATM    2  C5  UNL     1       1.998   1.046  -0.985  1.00  0.00     0.010 C 
HETATM    3  C6  UNL     1       3.082   0.619  -0.018  1.00  0.00     0.034 C 
HETATM    4  C7  UNL     1       1.998   0.234   0.948  1.00  0.00     0.188 C 
ENDROOT
BRANCH   1   5
HETATM    5  C3  UNL     1      -0.074  -0.215  -0.438  1.00  0.00     0.119 C 
BRANCH   5   6
HETATM    6  N2  UNL     1      -1.124  -0.398   0.586  1.00  0.00    -0.240 NA
HETATM    7  C2  UNL     1      -1.874  -1.564   0.101  1.00  0.00     0.135 C 
BRANCH   6   8
HETATM    8  N1  UNL     1      -1.922   0.759   0.480  1.00  0.00    -0.359 N 
HETATM    9  C1  UNL     1      -3.322   0.517   0.386  1.00  0.00     0.161 C 
ATOM     10  H1  UNL     1      -1.526   1.699   0.471  1.00  0.00     0.173 HD
ENDBRANCH   6   8
ENDBRANCH   5   6
ENDBRANCH   1   5
BRANCH   4  11
HETATM   11  N3  UNL     1       1.934  -1.195   1.165  1.00  0.00    -0.075 N 
ATOM     12  H33 UNL     1       1.012  -1.453   1.517  1.00  0.00     0.274 HD
ATOM     13  H32 UNL     1       1.930  -1.683   0.269  1.00  0.00     0.274 HD
ATOM     14  H31 UNL     1       2.658  -1.583   1.770  1.00  0.00     0.274 HD
ENDBRANCH   4  11
TORSDOF 4
