REMARK  4 active torsions:
REMARK  status: ('A' for Active; 'I' for Inactive)
REMARK    1  A    between atoms: N1_1  and  C1_5 
REMARK    2  A    between atoms: C1_5  and  C2_6 
REMARK    3  A    between atoms: C2_6  and  C3_7 
REMARK    4  A    between atoms: C3_7  and  C4_8 
ROOT
HETATM    1  C4  UNL     1       0.475   0.028  -0.420  1.00  0.00     0.147 C 
HETATM    2  C5  UNL     1       0.900   1.059   0.571  1.00  0.00     0.264 C 
HETATM    3  N2  UNL     1       1.686   0.444   1.631  1.00  0.00    -0.071 N 
ATOM      4  H21 UNL     1       1.165  -0.248   2.170  1.00  0.00     0.277 HD
ATOM      5  H22 UNL     1       1.890   1.079   2.403  1.00  0.00     0.277 HD
HETATM    6  C6  UNL     1       2.877  -0.096   1.001  1.00  0.00     0.258 C 
HETATM    7  C7  UNL     1       2.785  -0.121  -0.491  1.00  0.00     0.195 C 
HETATM    8  O1  UNL     1       1.582  -0.544  -0.989  1.00  0.00    -0.383 OA
ENDROOT
BRANCH   1   9
HETATM    9  C3  UNL     1      -0.422  -1.029   0.110  1.00  0.00     0.035 C 
BRANCH   9  10
HETATM   10  C2  UNL     1      -1.724  -0.529   0.671  1.00  0.00     0.030 C 
BRANCH  10  11
HETATM   11  C1  UNL     1      -2.558   0.207  -0.346  1.00  0.00     0.230 C 
BRANCH  11  12
HETATM   12  N1  UNL     1      -3.782   0.626   0.352  1.00  0.00    -0.079 N 
ATOM     13  H13 UNL     1      -4.277  -0.145   0.801  1.00  0.00     0.274 HD
ATOM     14  H12 UNL     1      -3.602   1.168   1.197  1.00  0.00     0.274 HD
ATOM     15  H11 UNL     1      -4.346   1.124  -0.336  1.00  0.00     0.274 HD
ENDBRANCH  11  12
ENDBRANCH  10  11
ENDBRANCH   9  10
ENDBRANCH   1   9
TORSDOF 4
