REMARK  13 active torsions:
REMARK  status: ('A' for Active; 'I' for Inactive)
REMARK    1  A    between atoms: C2_2  and  C3_3 
REMARK    2  A    between atoms: N2_8  and  C6_9 
REMARK    3  A    between atoms: C6_9  and  C7_10 
REMARK    4  A    between atoms: C8_14  and  N4_15 
REMARK    5  A    between atoms: C8_14  and  C15_36 
REMARK    6  A    between atoms: N4_15  and  N5_17 
REMARK    7  A    between atoms: N5_17  and  C9_19 
REMARK    8  A    between atoms: C12_22  and  C13_23 
REMARK    9  A    between atoms: C13_23  and  N6_24 
REMARK   10  A    between atoms: C13_23  and  N7_28 
REMARK   11  A    between atoms: N7_28  and  N8_29 
REMARK   12  A    between atoms: C16_45  and  O1_46 
REMARK   13  A    between atoms: C17_48  and  N15_49 
ROOT
HETATM    1  C7  UNL     1      -1.783  -0.719  -0.217  1.00  0.00     0.242 C 
HETATM    2  N3  UNL     1      -1.409   0.494  -0.863  1.00  0.00    -0.029 N 
ATOM      3  H31 UNL     1      -2.178   1.158  -0.955  1.00  0.00     0.281 HD
ATOM      4  H32 UNL     1      -1.220   0.381  -1.859  1.00  0.00     0.281 HD
HETATM    5  C8  UNL     1      -0.299   1.011  -0.131  1.00  0.00     0.299 C 
HETATM    6  C16 UNL     1      -0.243   0.289   1.193  1.00  0.00     0.216 C 
HETATM    7  C17 UNL     1      -1.606  -0.425   1.230  1.00  0.00     0.249 C 
ENDROOT
BRANCH   5   8
HETATM    8  N4  UNL     1       0.962   1.023  -0.803  1.00  0.00    -0.291 N 
ATOM      9  H4  UNL     1       1.408   1.906  -1.052  1.00  0.00     0.183 HD
BRANCH   8  10
HETATM   10  N5  UNL     1       1.556  -0.155  -1.104  1.00  0.00    -0.299 N 
ATOM     11  H5  UNL     1       1.005  -0.928  -1.478  1.00  0.00     0.186 HD
BRANCH  10  12
HETATM   12  C9  UNL     1       2.965  -0.307  -0.893  1.00  0.00     0.088 A 
HETATM   13  C10 UNL     1       3.751   0.765  -0.494  1.00  0.00     0.036 A 
HETATM   14  C11 UNL     1       5.092   0.632  -0.282  1.00  0.00     0.031 A 
HETATM   15  C12 UNL     1       5.663  -0.617  -0.473  1.00  0.00     0.058 A 
HETATM   16  N9  UNL     1       4.901  -1.654  -0.857  1.00  0.00    -0.343 N 
HETATM   17  C14 UNL     1       3.583  -1.523  -1.068  1.00  0.00     0.144 A 
ATOM     18  H9  UNL     1       5.337  -2.566  -0.992  1.00  0.00     0.167 HD
HETATM   19  N10 UNL     1       2.827  -2.648  -1.468  1.00  0.00    -0.080 NA
BRANCH  15  20
HETATM   20  C13 UNL     1       7.107  -0.852  -0.266  1.00  0.00     0.344 C 
BRANCH  20  21
HETATM   21  N6  UNL     1       7.322  -2.044   0.525  1.00  0.00    -0.054 N 
ATOM     22  H63 UNL     1       6.814  -2.008   1.409  1.00  0.00     0.276 HD
ATOM     23  H62 UNL     1       6.861  -2.857   0.117  1.00  0.00     0.276 HD
ATOM     24  H61 UNL     1       8.319  -2.206   0.668  1.00  0.00     0.276 HD
ENDBRANCH  20  21
BRANCH  20  25
HETATM   25  N7  UNL     1       7.776   0.245   0.389  1.00  0.00    -0.108 NA
BRANCH  25  26
HETATM   26  N8  UNL     1       9.106  -0.003   0.613  1.00  0.00    -0.346 N 
ATOM     27  H82 UNL     1       9.559  -0.875   0.340  1.00  0.00     0.172 HD
ATOM     28  H81 UNL     1       9.579   0.773   1.076  1.00  0.00     0.172 HD
ENDBRANCH  25  26
ENDBRANCH  20  25
ENDBRANCH  15  20
ENDBRANCH  10  12
ENDBRANCH   8  10
ENDBRANCH   5   8
BRANCH   5  29
HETATM   29  C15 UNL     1      -0.585   2.452   0.192  1.00  0.00     0.175 A 
HETATM   30  N11 UNL     1      -1.660   3.201   0.022  1.00  0.00    -0.268 N 
HETATM   31  N12 UNL     1      -1.378   4.406   0.478  1.00  0.00    -0.227 N 
ATOM     32  H11 UNL     1      -2.545   2.902  -0.387  1.00  0.00     0.190 HD
HETATM   33  N13 UNL     1      -0.150   4.454   0.938  1.00  0.00    -0.227 N 
ATOM     34  H12 UNL     1      -2.026   5.193   0.474  1.00  0.00     0.210 HD
HETATM   35  N14 UNL     1       0.357   3.243   0.767  1.00  0.00    -0.268 N 
ATOM     36  H13 UNL     1       0.320   5.262   1.346  1.00  0.00     0.210 HD
ATOM     37  H14 UNL     1       1.300   2.952   1.025  1.00  0.00     0.190 HD
ENDBRANCH   5  29
BRANCH   6  38
HETATM   38  O1  UNL     1       0.736  -0.651   1.293  1.00  0.00    -0.389 OA
ATOM     39  H1  UNL     1       0.771  -1.106   2.126  1.00  0.00     0.210 HD
ENDBRANCH   6  38
BRANCH   1  40
HETATM   40  C6  UNL     1      -3.047  -1.356  -0.640  1.00  0.00     0.186 C 
BRANCH  40  41
HETATM   41  N2  UNL     1      -4.264  -0.652  -0.507  1.00  0.00    -0.277 N 
HETATM   42  C4  UNL     1      -4.849   0.149  -1.408  1.00  0.00     0.095 A 
HETATM   43  N1  UNL     1      -6.018   0.595  -0.856  1.00  0.00    -0.334 N 
HETATM   44  C5  UNL     1      -4.410   0.545  -2.774  1.00  0.00     0.091 C 
HETATM   45  C3  UNL     1      -6.133   0.065   0.366  1.00  0.00     0.097 A 
ATOM     46  H1  UNL     1      -6.687   1.224  -1.300  1.00  0.00     0.168 HD
HETATM   47  N16 UNL     1      -5.059  -0.681   0.545  1.00  0.00    -0.285 N 
ATOM     48  H16 UNL     1      -4.867  -1.215   1.393  1.00  0.00     0.188 HD
BRANCH  45  49
HETATM   49  C2  UNL     1      -7.230   0.229   1.375  1.00  0.00     0.073 C 
HETATM   50  C1  UNL     1      -8.219  -0.885   1.131  1.00  0.00     0.013 C 
ENDBRANCH  45  49
ENDBRANCH  40  41
ENDBRANCH   1  40
BRANCH   7  51
HETATM   51  N15 UNL     1      -2.506   0.503   1.825  1.00  0.00    -0.070 N 
ATOM     52 3H15 UNL     1      -2.488   1.376   1.298  1.00  0.00     0.274 HD
ATOM     53 2H15 UNL     1      -3.465   0.199   1.657  1.00  0.00     0.274 HD
ATOM     54 1H15 UNL     1      -2.385   0.705   2.817  1.00  0.00     0.274 HD
ENDBRANCH   7  51
TORSDOF 13
