REMARK  14 active torsions:
REMARK  status: ('A' for Active; 'I' for Inactive)
REMARK    1  A    between atoms: N1_1  and  C1_4 
REMARK    2  A    between atoms: C2_7  and  N3_8 
REMARK    3  A    between atoms: N3_8  and  N4_10 
REMARK    4  A    between atoms: N8_22  and  C5_23 
REMARK    5  A    between atoms: C9_32  and  N12_33 
REMARK    6  A    between atoms: N12_33  and  C10_34 
REMARK    7  A    between atoms: N12_33  and  C12_38 
REMARK    8  A    between atoms: C10_34  and  C11_35 
REMARK    9  A    between atoms: C11_35  and  O2_36 
REMARK   10  A    between atoms: C12_38  and  C13_39 
REMARK   11  A    between atoms: C12_38  and  C14_42 
REMARK   12  A    between atoms: C13_39  and  O3_40 
REMARK   13  A    between atoms: C14_42  and  N13_43 
REMARK   14  A    between atoms: C14_42  and  O4_47 
ROOT
HETATM    1  C5  UNL     1       1.706  -0.722   2.602  1.00  0.00     0.103 A 
HETATM    2  C6  UNL     1       1.658  -0.449   3.971  1.00  0.00     0.122 A 
HETATM    3  N9  UNL     1       0.451  -0.060   4.351  1.00  0.00    -0.359 N 
ATOM      4  H9  UNL     1       0.196   0.189   5.307  1.00  0.00     0.165 HD
HETATM    5  C7  UNL     1      -0.390  -0.039   3.307  1.00  0.00     0.104 A 
HETATM    6  C8  UNL     1      -1.715   0.274   3.107  1.00  0.00     0.161 A 
HETATM    7  N10 UNL     1      -2.480   0.675   4.235  1.00  0.00    -0.080 NA
HETATM    8  N11 UNL     1      -2.195   0.168   1.862  1.00  0.00    -0.176 N 
ATOM      9  H11 UNL     1      -3.177   0.400   1.715  1.00  0.00     0.185 HD
HETATM   10  C9  UNL     1      -1.491  -0.216   0.805  1.00  0.00     0.682 A 
HETATM   11  N14 UNL     1      -0.196  -0.529   0.967  1.00  0.00    -0.187 N 
ATOM     12  H14 UNL     1       0.340  -0.824   0.150  1.00  0.00     0.184 HD
HETATM   13  C15 UNL     1       0.426  -0.472   2.154  1.00  0.00     0.109 A 
ENDROOT
BRANCH   1  14
HETATM   14  N8  UNL     1       2.806  -1.176   1.843  1.00  0.00    -0.232 N 
HETATM   15  N7  UNL     1       3.345  -2.414   1.856  1.00  0.00    -0.234 N 
HETATM   16  N6  UNL     1       4.355  -2.461   1.015  1.00  0.00    -0.279 N 
ATOM     17  H7  UNL     1       3.019  -3.192   2.429  1.00  0.00     0.209 HD
HETATM   18  C4  UNL     1       4.513  -1.283   0.433  1.00  0.00     0.150 A 
ATOM     19  H6  UNL     1       4.931  -3.284   0.838  1.00  0.00     0.189 HD
HETATM   20  C3  UNL     1       5.456  -0.926  -0.507  1.00  0.00     0.290 C 
HETATM   21  C16 UNL     1       3.515  -0.460   0.969  1.00  0.00     0.136 A 
HETATM   22  N5  UNL     1       5.416   0.148  -1.319  1.00  0.00    -0.153 N 
HETATM   23  O1  UNL     1       6.434  -1.719  -0.568  1.00  0.00    -0.265 OA
HETATM   24  C2  UNL     1       4.445   1.094  -1.454  1.00  0.00     0.701 C 
ATOM     25  H5  UNL     1       6.231   0.271  -1.920  1.00  0.00     0.187 HD
HETATM   26  N2  UNL     1       3.550   1.504  -0.515  1.00  0.00    -0.173 N 
HETATM   27  C1  UNL     1       3.290   0.876   0.654  1.00  0.00     0.146 C 
ATOM     28  H2  UNL     1       3.030   2.360  -0.710  1.00  0.00     0.186 HD
BRANCH  24  29
HETATM   29  N3  UNL     1       4.380   1.654  -2.613  1.00  0.00    -0.138 N 
ATOM     30  H3  UNL     1       3.679   2.372  -2.798  1.00  0.00     0.205 HD
BRANCH  29  31
HETATM   31  N4  UNL     1       5.270   1.274  -3.609  1.00  0.00    -0.331 N 
ATOM     32  H42 UNL     1       5.965   0.555  -3.408  1.00  0.00     0.177 HD
ATOM     33  H41 UNL     1       5.219   1.717  -4.526  1.00  0.00     0.177 HD
ENDBRANCH  29  31
ENDBRANCH  24  29
BRANCH  27  34
HETATM   34  N1  UNL     1       2.778   1.552   1.606  1.00  0.00    -0.383 N 
ATOM     35  H12 UNL     1       2.613   2.532   1.375  1.00  0.00     0.157 HD
ATOM     36  H11 UNL     1       2.582   1.078   2.488  1.00  0.00     0.157 HD
ENDBRANCH  27  34
ENDBRANCH   1  14
BRANCH  10  37
HETATM   37  N12 UNL     1      -2.078  -0.281  -0.545  1.00  0.00    -0.204 N 
BRANCH  37  38
HETATM   38  C10 UNL     1      -1.659  -1.400  -1.303  1.00  0.00     0.168 C 
BRANCH  38  39
HETATM   39  C11 UNL     1      -2.641  -2.459  -1.651  1.00  0.00     0.184 C 
BRANCH  39  40
HETATM   40  O2  UNL     1      -3.233  -3.046  -0.536  1.00  0.00    -0.399 OA
ATOM     41  H2  UNL     1      -3.861  -3.723  -0.759  1.00  0.00     0.209 HD
ENDBRANCH  39  40
ENDBRANCH  38  39
ENDBRANCH  37  38
BRANCH  37  42
HETATM   42  C12 UNL     1      -2.926   0.804  -0.862  1.00  0.00     0.181 C 
BRANCH  42  43
HETATM   43  C13 UNL     1      -2.504   1.467  -2.197  1.00  0.00     0.194 C 
BRANCH  43  44
HETATM   44  O3  UNL     1      -3.391   2.516  -2.405  1.00  0.00    -0.399 OA
ATOM     45  H3  UNL     1      -3.132   2.923  -3.224  1.00  0.00     0.209 HD
ENDBRANCH  43  44
ENDBRANCH  42  43
BRANCH  42  46
HETATM   46  C14 UNL     1      -4.385   0.676  -0.862  1.00  0.00     0.341 C 
BRANCH  46  47
HETATM   47  N13 UNL     1      -4.977   0.510   0.468  1.00  0.00    -0.051 N 
ATOM     48 3H13 UNL     1      -4.550  -0.280   0.951  1.00  0.00     0.277 HD
ATOM     49 2H13 UNL     1      -4.686   1.269   1.084  1.00  0.00     0.277 HD
ATOM     50 1H13 UNL     1      -5.993   0.421   0.468  1.00  0.00     0.277 HD
ENDBRANCH  46  47
BRANCH  46  51
HETATM   51  O4  UNL     1      -4.908  -0.226  -1.756  1.00  0.00    -0.368 OA
ATOM     52  H4  UNL     1      -5.854  -0.309  -1.756  1.00  0.00     0.212 HD
ENDBRANCH  46  51
ENDBRANCH  42  46
ENDBRANCH  37  42
ENDBRANCH  10  37
TORSDOF 14
