REMARK  7 active torsions:
REMARK  status: ('A' for Active; 'I' for Inactive)
REMARK    1  A    between atoms: C2_2  and  O1_3 
REMARK    2  A    between atoms: O1_3  and  C3_4 
REMARK    3  A    between atoms: C3_4  and  C4_5 
REMARK    4  A    between atoms: C4_5  and  S1_6 
REMARK    5  A    between atoms: S1_6  and  C5_7 
REMARK    6  A    between atoms: C6_10  and  N2_11 
REMARK    7  A    between atoms: C17_27  and  C18_28 
ROOT
HETATM    1  C5  UNL     1       0.615  -0.302  -0.755  1.00  0.00     0.079 A 
HETATM    2  N1  UNL     1       1.014   0.722  -1.549  1.00  0.00    -0.336 N 
ATOM      3  H1  UNL     1       1.955   0.702  -1.941  1.00  0.00     0.168 HD
HETATM    4  C6  UNL     1       0.219   1.754  -1.835  1.00  0.00     0.121 A 
HETATM    5  C7  UNL     1      -1.043   1.820  -1.334  1.00  0.00     0.099 A 
HETATM    6  C8  UNL     1      -1.951   2.895  -1.596  1.00  0.00     0.104 C 
HETATM    7  N3  UNL     1      -2.683   3.793  -1.828  1.00  0.00    -0.191 NA
HETATM    8  C9  UNL     1      -1.466   0.759  -0.510  1.00  0.00     0.009 A 
HETATM    9  C10 UNL     1      -2.802   0.921   0.003  1.00  0.00    -0.021 A 
HETATM   10  C11 UNL     1      -3.008   1.612   1.173  1.00  0.00     0.015 A 
HETATM   11  C12 UNL     1      -4.263   1.889   1.670  1.00  0.00     0.040 A 
HETATM   12  C13 UNL     1      -5.353   1.446   0.951  1.00  0.00     0.105 A 
HETATM   13  C14 UNL     1      -5.155   0.743  -0.239  1.00  0.00     0.105 A 
HETATM   14  C15 UNL     1      -3.888   0.487  -0.701  1.00  0.00     0.052 A 
HETATM   15  O2  UNL     1      -6.399   0.401  -0.785  1.00  0.00    -0.323 OA
HETATM   16  C16 UNL     1      -7.395   0.742   0.161  1.00  0.00     0.352 C 
HETATM   17  O3  UNL     1      -6.734   1.530   1.127  1.00  0.00    -0.323 OA
HETATM   18  C17 UNL     1      -0.695  -0.332  -0.180  1.00  0.00    -0.004 A 
ENDROOT
BRANCH   4  19
HETATM   19  N2  UNL     1       0.620   2.729  -2.599  1.00  0.00    -0.384 N 
ATOM     20  H22 UNL     1       1.567   2.679  -2.975  1.00  0.00     0.157 HD
ATOM     21  H21 UNL     1       0.012   3.518  -2.818  1.00  0.00     0.157 HD
ENDBRANCH   4  19
BRANCH  18  22
HETATM   22  C18 UNL     1      -1.049  -1.492   0.618  1.00  0.00    -0.021 C 
HETATM   23  C19 UNL     1      -2.404  -1.678   1.207  1.00  0.00     0.019 C 
HETATM   24  C20 UNL     1      -0.859  -2.742  -0.267  1.00  0.00     0.019 C 
HETATM   25  C21 UNL     1      -0.099  -1.731   1.801  1.00  0.00     0.019 C 
ENDBRANCH  18  22
BRANCH   1  26
HETATM   26  S1  UNL     1       1.701  -1.661  -0.503  1.00  0.00    -0.105 SA
BRANCH  26  27
HETATM   27  C4  UNL     1       3.096  -1.515   0.534  1.00  0.00     0.148 C 
BRANCH  27  28
HETATM   28  C3  UNL     1       4.132  -0.584   0.025  1.00  0.00     0.089 C 
HETATM   29  C22 UNL     1       5.327  -1.119  -0.280  1.00  0.00     0.119 C 
HETATM   30  C23 UNL     1       5.587  -2.566  -0.121  1.00  0.00     0.085 C 
HETATM   31  F1  UNL     1       6.308  -0.338  -0.737  1.00  0.00    -0.209 F 
BRANCH  28  32
HETATM   32  O1  UNL     1       3.871   0.730  -0.111  1.00  0.00    -0.352 OA
BRANCH  32  33
HETATM   33  C2  UNL     1       4.697   1.842  -0.107  1.00  0.00     0.171 C 
HETATM   34  C1  UNL     1       5.460   1.967   1.189  1.00  0.00     0.034 C 
ENDBRANCH  32  33
ENDBRANCH  28  32
ENDBRANCH  27  28
ENDBRANCH  26  27
ENDBRANCH   1  26
TORSDOF 7
