REMARK  6 active torsions:
REMARK  status: ('A' for Active; 'I' for Inactive)
REMARK    1  A    between atoms: C2_2  and  C3_3 
REMARK       I    between atoms: C3_3  and  N1_5 
REMARK    2  A    between atoms: N1_5  and  C4_7 
REMARK    3  A    between atoms: C6_12  and  S1_13 
REMARK    4  A    between atoms: S1_13  and  S2_14 
REMARK    5  A    between atoms: S2_14  and  C7_15 
REMARK    6  A    between atoms: C10_22  and  C11_23 
ROOT
HETATM    1  C4  UNL     1      -3.154   1.126  -0.575  1.00  0.00     0.146 A 
HETATM    2  N2  UNL     1      -2.975   2.349  -1.092  1.00  0.00    -0.281 N 
ATOM      3  H2  UNL     1      -3.696   2.889  -1.570  1.00  0.00     0.189 HD
HETATM    4  N3  UNL     1      -1.745   2.755  -0.898  1.00  0.00    -0.286 N 
HETATM    5  C5  UNL     1      -1.219   4.041  -1.337  1.00  0.00     0.178 C 
HETATM    6  C6  UNL     1      -1.070   1.780  -0.230  1.00  0.00     0.122 A 
HETATM    7  C15 UNL     1      -1.961   0.746  -0.024  1.00  0.00     0.125 A 
HETATM    8  C16 UNL     1      -1.623  -0.471   0.654  1.00  0.00     0.106 C 
HETATM    9  N6  UNL     1      -1.335  -1.428   1.191  1.00  0.00    -0.191 NA
ENDROOT
BRANCH   1  10
HETATM   10  N1  UNL     1      -4.260   0.487  -0.622  1.00  0.00    -0.311 N 
HETATM   11  C3  UNL     1      -4.506  -0.796  -0.097  1.00  0.00     0.222 C 
HETATM   12  O1  UNL     1      -4.269  -1.864  -0.720  1.00  0.00    -0.273 OA
ATOM     13  H1  UNL     1      -5.041   0.952  -1.085  1.00  0.00     0.170 HD
BRANCH  11  14
HETATM   14  C2  UNL     1      -5.079  -0.907   1.268  1.00  0.00     0.099 C 
HETATM   15  C1  UNL     1      -6.562  -1.165   1.123  1.00  0.00     0.014 C 
ENDBRANCH  11  14
ENDBRANCH   1  10
BRANCH   6  16
HETATM   16  S1  UNL     1       0.629   1.953   0.224  1.00  0.00    -0.030 SA
BRANCH  16  17
HETATM   17  S2  UNL     1       1.768   1.206  -1.404  1.00  0.00    -0.031 SA
BRANCH  17  18
HETATM   18  C7  UNL     1       2.038  -0.509  -1.110  1.00  0.00     0.109 A 
HETATM   19  N4  UNL     1       1.327  -1.584  -1.451  1.00  0.00    -0.292 N 
HETATM   20  N5  UNL     1       1.912  -2.683  -1.017  1.00  0.00    -0.303 N 
ATOM     21  H4  UNL     1       0.452  -1.560  -1.975  1.00  0.00     0.187 HD
HETATM   22  C8  UNL     1       3.057  -2.358  -0.359  1.00  0.00     0.036 A 
ATOM     23  H5  UNL     1       1.560  -3.631  -1.154  1.00  0.00     0.186 HD
HETATM   24  C9  UNL     1       3.966  -3.341   0.259  1.00  0.00     0.070 C 
HETATM   25  C10 UNL     1       3.148  -1.002  -0.410  1.00  0.00     0.040 A 
BRANCH  25  26
HETATM   26  C11 UNL     1       4.217  -0.152   0.162  1.00  0.00     0.021 A 
HETATM   27  C12 UNL     1       5.343  -0.446   0.856  1.00  0.00     0.022 A 
HETATM   28  C13 UNL     1       6.132   0.570   1.248  1.00  0.00     0.033 A 
HETATM   29  C14 UNL     1       5.742   1.835   0.918  1.00  0.00     0.075 A 
HETATM   30 CL1  UNL     1       6.561   3.363   1.289  1.00  0.00    -0.076 Cl
HETATM   31  S3  UNL     1       4.291   1.581   0.072  1.00  0.00    -0.077 SA
ENDBRANCH  25  26
ENDBRANCH  17  18
ENDBRANCH  16  17
ENDBRANCH   6  16
TORSDOF 6
