REMARK  0 active torsions:
REMARK  status: ('A' for Active; 'I' for Inactive)
ROOT
HETATM    1  C1  UNL     1       1.104   0.326   0.900  1.00  0.00     0.005 C 
HETATM    2  C2  UNL     1       0.783  -1.150   0.647  1.00  0.00     0.005 C 
HETATM    3  C3  UNL     1      -0.215  -1.057  -0.507  1.00  0.00    -0.014 C 
HETATM    4  C4  UNL     1      -1.427  -0.356   0.024  1.00  0.00     0.005 C 
HETATM    5  C5  UNL     1      -1.050   1.131   0.111  1.00  0.00     0.005 C 
HETATM    6  C6  UNL     1       0.416   1.102  -0.197  1.00  0.00    -0.014 C 
HETATM    7  C7  UNL     1       0.443   0.051  -1.321  1.00  0.00     0.009 C 
ENDROOT
TORSDOF 0
