REMARK  0 active torsions:
REMARK  status: ('A' for Active; 'I' for Inactive)
ROOT
HETATM    1  C1  UNL     1       1.464   0.276   0.047  1.00  0.00     0.001 C 
HETATM    2  C2  UNL     1       0.519   0.239   1.224  1.00  0.00     0.010 C 
HETATM    3  C3  UNL     1      -0.860   0.322   0.595  1.00  0.00    -0.031 A 
HETATM    4  C4  UNL     1      -1.544  -1.016   0.237  1.00  0.00     0.020 A 
HETATM    5  C5  UNL     1      -0.682  -0.196  -0.775  1.00  0.00    -0.031 A 
HETATM    6  C6  UNL     1       0.756  -0.640  -0.933  1.00  0.00     0.010 C 
HETATM    7  C7  UNL     1      -0.991   1.272  -0.634  1.00  0.00     0.020 A 
ENDROOT
TORSDOF 0
