REMARK  5 active torsions:
REMARK  status: ('A' for Active; 'I' for Inactive)
REMARK    1  A    between atoms: C16_16  and  O1_17 
REMARK    2  A    between atoms: C16_16  and  C17_19 
REMARK    3  A    between atoms: C17_19  and  C18_20 
REMARK    4  A    between atoms: C18_20  and  C19_21 
REMARK    5  A    between atoms: C19_21  and  C20_22 
ROOT
HETATM    1  C1  UNL     1      -1.581   4.685  -0.283  1.00  0.00     0.014 C 
HETATM    2  C2  UNL     1      -1.286   3.190  -0.004  1.00  0.00     0.007 C 
HETATM    3  C3  UNL     1      -2.360   2.692   0.856  1.00  0.00    -0.023 C 
HETATM    4  C4  UNL     1      -2.625   1.387   1.140  1.00  0.00    -0.007 C 
HETATM    5  C5  UNL     1      -1.708   0.477   0.491  1.00  0.00    -0.021 C 
HETATM    6  C6  UNL     1      -1.773  -0.980   0.418  1.00  0.00     0.024 C 
HETATM    7  C7  UNL     1      -2.953  -1.527  -0.230  1.00  0.00    -0.040 C 
HETATM    8  C8  UNL     1      -4.020  -1.719   0.874  1.00  0.00     0.015 C 
HETATM    9  C9  UNL     1      -3.640  -0.603  -1.226  1.00  0.00     0.015 C 
HETATM   10  C10 UNL     1      -2.821  -2.855  -0.907  1.00  0.00     0.009 C 
HETATM   11  C11 UNL     1      -1.648  -3.588  -0.380  1.00  0.00     0.002 C 
HETATM   12  C12 UNL     1      -0.409  -2.900  -0.163  1.00  0.00     0.010 C 
HETATM   13  C13 UNL     1      -0.397  -1.358  -0.192  1.00  0.00    -0.033 C 
HETATM   14  C14 UNL     1      -0.261  -1.028  -1.631  1.00  0.00     0.016 C 
HETATM   15  C15 UNL     1       0.749  -0.905   0.622  1.00  0.00     0.051 C 
HETATM   16  C16 UNL     1       1.711   0.137   0.311  1.00  0.00     0.076 C 
HETATM   17  C21 UNL     1       1.585   1.158  -0.696  1.00  0.00     0.007 C 
HETATM   18  C22 UNL     1       0.950   2.321  -0.691  1.00  0.00    -0.027 C 
HETATM   19  C23 UNL     1       0.139   2.966   0.372  1.00  0.00     0.035 C 
ENDROOT
BRANCH  16  20
HETATM   20  O1  UNL     1       1.981   0.823   1.538  1.00  0.00    -0.386 OA
ATOM     21  H1  UNL     1       2.610   1.505   1.335  1.00  0.00     0.211 HD
ENDBRANCH  16  20
BRANCH  16  22
HETATM   22  C17 UNL     1       3.122  -0.468   0.087  1.00  0.00     0.042 C 
BRANCH  22  23
HETATM   23  C18 UNL     1       4.153   0.575  -0.214  1.00  0.00     0.004 C 
BRANCH  23  24
HETATM   24  C19 UNL     1       5.500  -0.098  -0.412  1.00  0.00     0.015 C 
BRANCH  24  25
HETATM   25  C20 UNL     1       5.945  -0.859   0.813  1.00  0.00     0.114 C 
HETATM   26 CL1  UNL     1       6.095   0.221   2.216  1.00  0.00    -0.130 Cl
ENDBRANCH  24  25
ENDBRANCH  23  24
ENDBRANCH  22  23
ENDBRANCH  16  22
TORSDOF 5
