REMARK  2 active torsions:
REMARK  status: ('A' for Active; 'I' for Inactive)
REMARK    1  A    between atoms: C5_6  and  N1_7 
REMARK    2  A    between atoms: N1_7  and  C6_9 
ROOT
HETATM    1  N1  UNL     1       0.799  -0.989  -0.431  1.00  0.00    -0.384 N 
ATOM      2  H1  UNL     1       0.718  -1.728  -1.129  1.00  0.00     0.160 HD
ENDROOT
BRANCH   1   3
HETATM    3  C5  UNL     1       2.088  -0.458  -0.146  1.00  0.00     0.029 A 
HETATM    4  C4  UNL     1       3.201  -0.841  -0.865  1.00  0.00     0.029 A 
HETATM    5  C3  UNL     1       4.465  -0.351  -0.608  1.00  0.00     0.004 A 
HETATM    6  C2  UNL     1       4.669   0.564   0.403  1.00  0.00     0.019 A 
HETATM    7  C1  UNL     1       3.574   0.964   1.138  1.00  0.00     0.013 A 
HETATM    8 BR1  UNL     1       3.858   2.231   2.538  1.00  0.00    -0.051 Br
HETATM    9  C13 UNL     1       2.301   0.458   0.865  1.00  0.00     0.048 A 
ENDBRANCH   1   3
BRANCH   1  10
HETATM   10  C6  UNL     1      -0.408  -0.520   0.233  1.00  0.00     0.096 C 
HETATM   11  C7  UNL     1      -0.757   0.879  -0.022  1.00  0.00     0.041 C 
HETATM   12  C8  UNL     1      -1.815   1.020  -1.085  1.00  0.00     0.049 C 
HETATM   13  C9  UNL     1      -3.136   1.157  -0.354  1.00  0.00     0.015 C 
HETATM   14  S1  UNL     1      -1.852  -0.668  -1.824  1.00  0.00    -0.157 SA
HETATM   15  C10 UNL     1      -3.714  -0.181  -0.024  1.00  0.00     0.002 C 
HETATM   16  C11 UNL     1      -2.746  -1.114   0.655  1.00  0.00     0.017 C 
HETATM   17  C12 UNL     1      -1.542  -1.435  -0.175  1.00  0.00     0.070 C 
ENDBRANCH   1  10
TORSDOF 2
