REMARK  3 active torsions:
REMARK  status: ('A' for Active; 'I' for Inactive)
REMARK    1  A    between atoms: C2_2  and  C4_4 
REMARK    2  A    between atoms: C7_8  and  N1_9 
REMARK    3  A    between atoms: C14_16  and  O1_17 
ROOT
HETATM    1  C4  UNL     1       2.543  -0.054  -0.052  1.00  0.00     0.004 A 
HETATM    2  C5  UNL     1       1.900   0.930   0.713  1.00  0.00     0.036 A 
HETATM    3  C6  UNL     1       0.537   1.088   0.766  1.00  0.00     0.038 A 
HETATM    4 BR1  UNL     1      -0.261   2.472   1.841  1.00  0.00    -0.049 Br
HETATM    5  C7  UNL     1      -0.262   0.243   0.034  1.00  0.00     0.050 A 
HETATM    6  C13 UNL     1       0.325  -0.724  -0.720  1.00  0.00     0.068 A 
HETATM    7  C14 UNL     1       1.727  -0.885  -0.772  1.00  0.00     0.078 A 
ENDROOT
BRANCH   5   8
HETATM    8  N1  UNL     1      -1.682   0.417   0.103  1.00  0.00    -0.380 N 
HETATM    9  C8  UNL     1      -2.339   0.254   1.356  1.00  0.00     0.123 C 
HETATM   10  C9  UNL     1      -3.519  -0.700   1.269  1.00  0.00     0.020 C 
HETATM   11  C10 UNL     1      -4.265  -0.527  -0.035  1.00  0.00     0.003 C 
HETATM   12  C11 UNL     1      -3.906   0.836  -0.639  1.00  0.00     0.020 C 
HETATM   13  C12 UNL     1      -2.471   0.748  -1.061  1.00  0.00     0.123 C 
ENDBRANCH   5   8
BRANCH   7  14
HETATM   14  O1  UNL     1       2.165  -1.902  -1.569  1.00  0.00    -0.360 OA
ATOM     15  H1  UNL     1       1.599  -2.479  -2.069  1.00  0.00     0.217 HD
ENDBRANCH   7  14
BRANCH   1  16
HETATM   16  C2  UNL     1       4.005  -0.132  -0.012  1.00  0.00    -0.058 C 
HETATM   17  C1  UNL     1       4.578   0.235   1.134  1.00  0.00     0.019 C 
HETATM   18  C3  UNL     1       4.846  -0.530  -1.139  1.00  0.00     0.048 C 
ENDBRANCH   1  16
TORSDOF 3
