REMARK  6 active torsions:
REMARK  status: ('A' for Active; 'I' for Inactive)
REMARK    1  A    between atoms: O1_2  and  C2_3 
REMARK    2  A    between atoms: C2_3  and  C3_5 
REMARK    3  A    between atoms: C3_5  and  N1_6 
REMARK    4  A    between atoms: C7_10  and  N2_11 
REMARK       I    between atoms: N2_11  and  C8_13 
REMARK    5  A    between atoms: C8_13  and  C9_15 
REMARK    6  A    between atoms: C15_21  and  C16_22 
ROOT
HETATM    1  N2  UNL     1       0.868  -0.058   1.006  1.00  0.00    -0.332 N 
ATOM      2  H2  UNL     1       0.580   0.920   0.970  1.00  0.00     0.164 HD
HETATM    3  C8  UNL     1      -0.143  -1.048   0.900  1.00  0.00     0.228 C 
HETATM    4  O3  UNL     1       0.272  -2.259   0.952  1.00  0.00    -0.273 OA
ENDROOT
BRANCH   3   5
HETATM    5  C9  UNL     1      -1.524  -0.803   0.748  1.00  0.00     0.046 C 
HETATM    6  C10 UNL     1      -2.399  -2.076   0.656  1.00  0.00     0.025 C 
HETATM    7  C11 UNL     1      -3.718  -1.270   0.724  1.00  0.00    -0.004 C 
HETATM    8  C12 UNL     1      -3.439  -0.748   2.155  1.00  0.00     0.011 C 
HETATM    9  C15 UNL     1      -3.443  -0.138  -0.190  1.00  0.00    -0.032 C 
HETATM   10  C13 UNL     1      -2.235   0.102   1.683  1.00  0.00     0.004 C 
HETATM   11  C14 UNL     1      -3.125   1.008   0.795  1.00  0.00     0.016 C 
HETATM   12  C19 UNL     1      -1.969  -0.281  -0.639  1.00  0.00     0.030 C 
BRANCH   9  13
HETATM   13  C16 UNL     1      -4.373   0.178  -1.233  1.00  0.00    -0.014 C 
HETATM   14  C17 UNL     1      -4.030   1.337  -2.121  1.00  0.00     0.010 C 
HETATM   15  C18 UNL     1      -5.746   0.474  -0.634  1.00  0.00     0.010 C 
ENDBRANCH   9  13
ENDBRANCH   3   5
BRANCH   1  16
HETATM   16  C7  UNL     1       2.254  -0.333   1.159  1.00  0.00     0.292 C 
HETATM   17  N1  UNL     1       3.186   0.230   0.226  1.00  0.00    -0.041 N 
HETATM   18  C4  UNL     1       2.861   1.442  -0.439  1.00  0.00     0.275 C 
HETATM   19  C5  UNL     1       4.083   0.454   1.347  1.00  0.00     0.244 C 
HETATM   20  C6  UNL     1       2.873   0.464   2.261  1.00  0.00     0.083 C 
BRANCH  17  21
HETATM   21  C3  UNL     1       3.802  -0.752  -0.662  1.00  0.00     0.350 C 
BRANCH  21  22
HETATM   22  C2  UNL     1       5.056  -0.173  -1.212  1.00  0.00     0.284 C 
HETATM   23  O2  UNL     1       5.424   0.972  -0.896  1.00  0.00    -0.263 OA
BRANCH  22  24
HETATM   24  O1  UNL     1       5.867  -0.879  -2.097  1.00  0.00    -0.325 OA
HETATM   25  C1  UNL     1       7.049  -0.350  -2.623  1.00  0.00     0.213 C 
ENDBRANCH  22  24
ENDBRANCH  21  22
ENDBRANCH  17  21
ENDBRANCH   1  16
TORSDOF 6
