REMARK  1 active torsions:
REMARK  status: ('A' for Active; 'I' for Inactive)
REMARK    1  A    between atoms: C2_2  and  C3_6 
ROOT
HETATM    1  C1  UNL     1      -1.655   0.201   0.048  1.00  0.00     0.070 C 
HETATM    2  C2  UNL     1      -0.299  -0.227   0.451  1.00  0.00     0.034 C 
HETATM    3  N1  UNL     1      -0.191  -1.395   0.961  1.00  0.00    -0.400 N 
ATOM      4  H11 UNL     1       0.745  -1.690   1.239  1.00  0.00     0.156 HD
ATOM      5  H12 UNL     1      -1.034  -1.960   1.060  1.00  0.00     0.156 HD
ENDROOT
BRANCH   2   6
HETATM    6  C3  UNL     1       0.900   0.577   0.310  1.00  0.00     0.134 C 
HETATM    7  N2  UNL     1       2.169   0.097   0.721  1.00  0.00    -0.088 NA
HETATM    8  S1  UNL     1       0.855   2.086  -0.334  1.00  0.00    -0.062 SA
ENDBRANCH   2   6
TORSDOF 1
