REMARK  9 active torsions:
REMARK  status: ('A' for Active; 'I' for Inactive)
REMARK    1  A    between atoms: N1_6  and  C6_7 
REMARK    2  A    between atoms: C6_7  and  C7_8 
REMARK    3  A    between atoms: C7_8  and  C8_9 
REMARK    4  A    between atoms: C8_9  and  C9_10 
REMARK    5  A    between atoms: C16_17  and  C17_18 
REMARK    6  A    between atoms: C17_18  and  N2_19 
REMARK    7  A    between atoms: N2_19  and  C18_21 
REMARK    8  A    between atoms: C21_24  and  N3_25 
REMARK    9  A    between atoms: N3_25  and  C22_27 
ROOT
HETATM    1  N2  UNL     1       0.100   0.516   0.770  1.00  0.00    -0.393 N 
ATOM      2  H2  UNL     1       1.018   0.589   1.208  1.00  0.00     0.159 HD
ENDROOT
BRANCH   1   3
HETATM    3  C17 UNL     1      -0.230  -0.533  -0.089  1.00  0.00     0.097 C 
BRANCH   3   4
HETATM    4  C16 UNL     1       0.549  -1.794   0.004  1.00  0.00     0.013 A 
HETATM    5  C15 UNL     1       0.043  -2.819   0.828  1.00  0.00     0.015 A 
HETATM    6  C14 UNL     1       0.553  -4.079   0.664  1.00  0.00     0.002 A 
HETATM    7  C13 UNL     1       1.544  -4.402  -0.269  1.00  0.00     0.010 A 
HETATM    8  C12 UNL     1       2.023  -3.380  -1.050  1.00  0.00    -0.024 A 
HETATM    9  C11 UNL     1       3.061  -3.660  -2.052  1.00  0.00     0.044 C 
HETATM   10  C35 UNL     1       1.523  -2.124  -0.896  1.00  0.00     0.087 A 
HETATM   11  C10 UNL     1       3.833  -2.504  -2.560  1.00  0.00     0.037 C 
HETATM   12  C9  UNL     1       3.441  -1.146  -1.970  1.00  0.00     0.129 C 
HETATM   13  O1  UNL     1       2.063  -1.117  -1.704  1.00  0.00    -0.344 OA
BRANCH  12  14
HETATM   14  C8  UNL     1       4.414  -0.848  -0.928  1.00  0.00     0.034 C 
BRANCH  14  15
HETATM   15  C7  UNL     1       4.417   0.389  -0.111  1.00  0.00     0.033 C 
BRANCH  15  16
HETATM   16  C6  UNL     1       5.649   0.302   0.838  1.00  0.00     0.272 C 
BRANCH  16  17
HETATM   17  N1  UNL     1       6.881   0.236   0.079  1.00  0.00     0.088 N 
HETATM   18  C5  UNL     1       7.931  -0.297   0.957  1.00  0.00     0.272 C 
HETATM   19  C4  UNL     1       9.150  -0.615   0.110  1.00  0.00     0.031 C 
HETATM   20  C3  UNL     1       9.613   0.636  -0.559  1.00  0.00     0.007 C 
HETATM   21  C2  UNL     1       8.816   1.779   0.041  1.00  0.00     0.010 C 
HETATM   22  C1  UNL     1       9.311   3.068  -0.576  1.00  0.00     0.011 C 
HETATM   23  C36 UNL     1       7.366   1.577  -0.294  1.00  0.00     0.276 C 
ENDBRANCH  16  17
ENDBRANCH  15  16
ENDBRANCH  14  15
ENDBRANCH  12  14
ENDBRANCH   3   4
ENDBRANCH   1   3
BRANCH   1  24
HETATM   24  C18 UNL     1      -0.923   1.477   0.997  1.00  0.00     0.083 C 
HETATM   25  C19 UNL     1      -1.748   0.997   2.200  1.00  0.00     0.027 C 
HETATM   26  C20 UNL     1      -3.179   1.122   1.887  1.00  0.00     0.027 C 
HETATM   27  C21 UNL     1      -3.181   1.964   0.627  1.00  0.00     0.079 C 
HETATM   28  C34 UNL     1      -2.004   1.528  -0.116  1.00  0.00     0.049 C 
BRANCH  27  29
HETATM   29  N3  UNL     1      -4.463   2.123   0.098  1.00  0.00    -0.413 N 
ATOM     30  H3  UNL     1      -4.855   3.045  -0.091  1.00  0.00     0.154 HD
BRANCH  29  31
HETATM   31  C22 UNL     1      -5.214   0.897  -0.171  1.00  0.00     0.080 C 
HETATM   32  C23 UNL     1      -5.999   1.161  -1.437  1.00  0.00     0.036 C 
HETATM   33  C24 UNL     1      -7.150   0.262  -1.690  1.00  0.00     0.038 C 
HETATM   34  C25 UNL     1      -6.883  -1.199  -1.369  1.00  0.00     0.123 C 
HETATM   35  C33 UNL     1      -8.395   0.621  -0.920  1.00  0.00    -0.044 A 
HETATM   36  N4  UNL     1      -6.697  -1.416   0.029  1.00  0.00    -0.412 N 
HETATM   37  C26 UNL     1      -7.131  -0.388   0.893  1.00  0.00     0.112 C 
ATOM     38  H4  UNL     1      -6.272  -2.272   0.386  1.00  0.00     0.153 HD
HETATM   39  C27 UNL     1      -6.151   0.768   1.008  1.00  0.00     0.054 C 
HETATM   40  C28 UNL     1      -8.377   0.242   0.404  1.00  0.00    -0.028 A 
HETATM   41  C29 UNL     1      -9.450   0.510   1.201  1.00  0.00     0.033 A 
HETATM   42  C30 UNL     1     -10.581   1.168   0.707  1.00  0.00     0.034 A 
HETATM   43 CL1  UNL     1     -11.967   1.524   1.709  1.00  0.00    -0.084 Cl
HETATM   44  C31 UNL     1     -10.539   1.524  -0.623  1.00  0.00     0.024 A 
HETATM   45  C32 UNL     1      -9.473   1.273  -1.470  1.00  0.00     0.010 A 
ENDBRANCH  29  31
ENDBRANCH  27  29
ENDBRANCH   1  24
TORSDOF 9
