REMARK  13 active torsions:
REMARK  status: ('A' for Active; 'I' for Inactive)
REMARK    1  A    between atoms: N1_2  and  C2_5 
REMARK    2  A    between atoms: C2_5  and  N2_6 
REMARK    3  A    between atoms: C7_14  and  C8_15 
REMARK    4  A    between atoms: C9_18  and  C10_19 
REMARK    5  A    between atoms: C10_19  and  N4_20 
REMARK    6  A    between atoms: C12_22  and  C13_23 
REMARK    7  A    between atoms: C14_26  and  S1_27 
REMARK    8  A    between atoms: C16_31  and  O5_32 
REMARK    9  A    between atoms: C17_37  and  S3_38 
REMARK   10  A    between atoms: S3_38  and  N8_39 
REMARK   11  A    between atoms: N9_44  and  C18_45 
REMARK   12  A    between atoms: C18_45  and  C19_46 
REMARK   13  A    between atoms: C19_46  and  S4_47 
ROOT
HETATM    1  N2  UNL     1      -2.219   1.625  -0.706  1.00  0.00    -0.258 N 
HETATM    2  C3  UNL     1      -2.350   3.001  -0.800  1.00  0.00     0.334 A 
HETATM    3  O1  UNL     1      -3.410   3.382  -1.418  1.00  0.00    -0.246 OA
HETATM    4  N3  UNL     1      -1.504   3.878  -0.321  1.00  0.00    -0.270 N 
HETATM    5  C4  UNL     1      -1.705   5.305  -0.455  1.00  0.00     0.164 C 
HETATM    6  C5  UNL     1      -0.425   3.454   0.309  1.00  0.00     0.266 A 
HETATM    7  O2  UNL     1       0.399   4.279   0.781  1.00  0.00    -0.267 OA
HETATM    8  C6  UNL     1      -0.186   2.103   0.462  1.00  0.00     0.096 A 
HETATM    9  C7  UNL     1       0.819   1.390   1.018  1.00  0.00     0.088 A 
HETATM   10  C9  UNL     1       0.512   0.002   0.836  1.00  0.00     0.074 A 
HETATM   11  N9  UNL     1      -0.655  -0.081   0.185  1.00  0.00    -0.308 N 
HETATM   12  C20 UNL     1      -1.128   1.180  -0.070  1.00  0.00     0.136 A 
ENDROOT
BRANCH  10  13
HETATM   13  C10 UNL     1       1.479  -0.929   1.312  1.00  0.00     0.131 C 
BRANCH  13  14
HETATM   14  N4  UNL     1       1.488  -2.345   1.270  1.00  0.00    -0.287 N 
HETATM   15  C11 UNL     1       1.988  -3.102   0.184  1.00  0.00     0.101 A 
HETATM   16  C12 UNL     1       2.535  -2.899  -0.968  1.00  0.00     0.073 C 
HETATM   17  S2  UNL     1       1.722  -4.850   0.777  1.00  0.00     0.006 SA
HETATM   18  N7  UNL     1       1.052  -4.382   2.286  1.00  0.00    -0.299 N 
HETATM   19  C17 UNL     1       1.001  -3.135   2.378  1.00  0.00     0.237 A 
ATOM     20  H7  UNL     1       0.739  -5.031   3.008  1.00  0.00     0.176 HD
BRANCH  16  21
HETATM   21  C13 UNL     1       2.895  -1.730  -1.693  1.00  0.00     0.088 A 
HETATM   22  N5  UNL     1       2.261  -0.656  -2.090  1.00  0.00    -0.333 N 
HETATM   23  C14 UNL     1       3.027   0.200  -2.770  1.00  0.00     0.146 A 
ATOM     24  H5  UNL     1       1.273  -0.489  -1.898  1.00  0.00     0.168 HD
HETATM   25  N6  UNL     1       4.247  -0.358  -2.819  1.00  0.00    -0.316 N 
HETATM   26  C16 UNL     1       4.225  -1.531  -2.180  1.00  0.00     0.169 A 
ATOM     27  H6  UNL     1       5.064   0.050  -3.273  1.00  0.00     0.170 HD
BRANCH  23  28
HETATM   28  S1  UNL     1       2.531   1.753  -3.473  1.00  0.00    -0.098 SA
HETATM   29  C15 UNL     1       2.787   3.123  -2.302  1.00  0.00     0.099 C 
ENDBRANCH  23  28
BRANCH  26  30
HETATM   30  O5  UNL     1       5.292  -2.402  -2.016  1.00  0.00    -0.344 OA
ATOM     31  H5  UNL     1       6.175  -2.270  -2.339  1.00  0.00     0.219 HD
ENDBRANCH  26  30
ENDBRANCH  16  21
BRANCH  19  32
HETATM   32  S3  UNL     1       0.383  -2.419   3.905  1.00  0.00     0.290 S 
HETATM   33  O6  UNL     1      -0.611  -3.355   4.533  1.00  0.00    -0.198 OA
HETATM   34  O7  UNL     1      -0.180  -1.060   3.692  1.00  0.00    -0.198 OA
BRANCH  32  35
HETATM   35  N8  UNL     1       1.686  -2.252   5.029  1.00  0.00    -0.322 N 
ATOM     36  H82 UNL     1       2.651  -2.523   4.839  1.00  0.00     0.169 HD
ATOM     37  H81 UNL     1       1.335  -1.845   5.896  1.00  0.00     0.169 HD
ENDBRANCH  32  35
ENDBRANCH  19  32
ENDBRANCH  13  14
ENDBRANCH  10  13
BRANCH   9  38
HETATM   38  C8  UNL     1       2.068   1.891   1.625  1.00  0.00     0.212 C 
HETATM   39  O3  UNL     1       2.244   1.352   2.912  1.00  0.00    -0.644 OA
HETATM   40  O4  UNL     1       2.409   3.176   1.553  1.00  0.00    -0.644 OA
ENDBRANCH   9  38
BRANCH  11  41
HETATM   41  C18 UNL     1      -1.309  -1.259  -0.218  1.00  0.00     0.089 C 
BRANCH  41  42
HETATM   42  C19 UNL     1      -2.284  -1.905   0.739  1.00  0.00     0.210 C 
BRANCH  42  43
HETATM   43  S4  UNL     1      -2.932  -3.415   0.052  1.00  0.00     0.106 S 
HETATM   44  O8  UNL     1      -1.864  -4.447  -0.033  1.00  0.00    -0.595 OA
HETATM   45  O9  UNL     1      -3.961  -3.923   1.045  1.00  0.00    -0.595 OA
HETATM   46  O10 UNL     1      -3.689  -3.108  -1.375  1.00  0.00    -0.595 OA
ENDBRANCH  42  43
ENDBRANCH  41  42
ENDBRANCH  11  41
BRANCH   1  47
HETATM   47  C2  UNL     1      -3.224   0.841  -1.324  1.00  0.00     0.367 C 
BRANCH  47  48
HETATM   48  N1  UNL     1      -4.450   0.747  -0.532  1.00  0.00    -0.063 N 
HETATM   49  C1  UNL     1      -5.410  -0.003  -1.304  1.00  0.00     0.269 C 
ATOM     50  H12 UNL     1      -4.802   1.657  -0.236  1.00  0.00     0.278 HD
ATOM     51  H11 UNL     1      -4.294   0.355   0.397  1.00  0.00     0.278 HD
ENDBRANCH  47  48
ENDBRANCH   1  47
TORSDOF 13
