REMARK  4 active torsions:
REMARK  status: ('A' for Active; 'I' for Inactive)
REMARK    1  A    between atoms: C2_2  and  C3_3 
REMARK    2  A    between atoms: C11_15  and  C12_16 
REMARK    3  A    between atoms: C14_18  and  O5_19 
REMARK    4  A    between atoms: C17_28  and  C18_29 
ROOT
HETATM    1  C3  UNL     1      -4.242   0.505   1.286  1.00  0.00     0.163 C 
HETATM    2  O1  UNL     1      -3.297   1.505   1.584  1.00  0.00    -0.307 OA
HETATM    3  C4  UNL     1      -1.941   1.383   1.321  1.00  0.00     0.331 C 
HETATM    4  O2  UNL     1      -1.149   1.999   2.073  1.00  0.00    -0.259 OA
HETATM    5  C5  UNL     1      -1.526   0.543   0.183  1.00  0.00     0.347 C 
HETATM    6  O3  UNL     1      -0.943  -0.607   0.678  1.00  0.00    -0.181 OA
HETATM    7  O4  UNL     1       0.223  -0.878   0.185  1.00  0.00    -0.194 OA
HETATM    8  C6  UNL     1       1.162   0.133   0.364  1.00  0.00     0.232 C 
HETATM    9  C7  UNL     1       1.818  -0.094   1.700  1.00  0.00     0.075 C 
HETATM   10  C8  UNL     1       2.867  -1.174   1.512  1.00  0.00     0.010 C 
HETATM   11  C9  UNL     1       4.246  -0.608   1.366  1.00  0.00    -0.012 C 
HETATM   12  C10 UNL     1       5.234  -1.738   1.575  1.00  0.00     0.010 C 
HETATM   13  C11 UNL     1       4.534   0.049   0.077  1.00  0.00     0.018 C 
HETATM   14  C14 UNL     1       3.407   0.844  -0.513  1.00  0.00     0.128 C 
HETATM   15  C15 UNL     1       2.170   0.056  -0.774  1.00  0.00     0.106 C 
HETATM   16  O6  UNL     1       0.502   1.339   0.268  1.00  0.00    -0.194 OA
HETATM   17  O7  UNL     1      -0.559   1.231  -0.537  1.00  0.00    -0.181 OA
HETATM   18  C16 UNL     1      -2.707   0.244  -0.726  1.00  0.00     0.297 C 
HETATM   19  N1  UNL     1      -2.384  -0.829  -1.631  1.00  0.00    -0.047 N 
ATOM     20  H11 UNL     1      -1.596  -1.399  -1.325  1.00  0.00     0.279 HD
ATOM     21  H12 UNL     1      -1.972  -0.514  -2.509  1.00  0.00     0.279 HD
HETATM   22  C17 UNL     1      -3.617  -1.581  -1.802  1.00  0.00     0.276 C 
HETATM   23  C19 UNL     1      -4.397  -1.264  -0.569  1.00  0.00    -0.040 C 
HETATM   24  C20 UNL     1      -5.591  -2.014  -0.097  1.00  0.00     0.046 C 
HETATM   25  C21 UNL     1      -3.885  -0.217   0.060  1.00  0.00    -0.010 C 
ENDROOT
BRANCH   1  26
HETATM   26  C2  UNL     1      -5.600   1.199   1.181  1.00  0.00     0.033 C 
HETATM   27  C1  UNL     1      -5.595   2.235   0.104  1.00  0.00     0.008 C 
ENDBRANCH   1  26
BRANCH  22  28
HETATM   28  C18 UNL     1      -3.307  -3.015  -1.932  1.00  0.00     0.268 C 
HETATM   29  O8  UNL     1      -2.134  -3.407  -1.888  1.00  0.00    -0.304 OA
ENDBRANCH  22  28
BRANCH  14  30
HETATM   30  O5  UNL     1       3.135   2.013   0.210  1.00  0.00    -0.395 OA
ATOM     31  H5  UNL     1       2.421   2.516  -0.164  1.00  0.00     0.210 HD
ENDBRANCH  14  30
BRANCH  13  32
HETATM   32  C12 UNL     1       5.682   1.039   0.325  1.00  0.00     0.003 C 
HETATM   33  C13 UNL     1       6.068   1.772  -0.914  1.00  0.00     0.005 C 
ENDBRANCH  13  32
TORSDOF 4
