REMARK  5 active torsions:
REMARK  status: ('A' for Active; 'I' for Inactive)
REMARK    1  A    between atoms: C3_9  and  C4_10 
REMARK    2  A    between atoms: C7_15  and  N5_16 
REMARK    3  A    between atoms: C13_24  and  C14_25 
REMARK    4  A    between atoms: C14_25  and  N7_26 
REMARK    5  A    between atoms: N7_26  and  C15_29 
ROOT
HETATM    1  C4  UNL     1      -3.114   1.000  -0.243  1.00  0.00     0.137 A 
HETATM    2  N4  UNL     1      -2.173   1.790   0.267  1.00  0.00    -0.343 N 
ATOM      3  H4  UNL     1      -2.418   2.767   0.431  1.00  0.00     0.167 HD
HETATM    4  C5  UNL     1      -0.940   1.408   0.580  1.00  0.00     0.021 A 
HETATM    5  C6  UNL     1      -0.569   0.087   0.373  1.00  0.00     0.009 A 
HETATM    6  C7  UNL     1      -1.531  -0.757  -0.157  1.00  0.00     0.113 A 
HETATM    7  N6  UNL     1      -2.779  -0.282  -0.452  1.00  0.00    -0.326 N 
ATOM      8  H6  UNL     1      -3.474  -0.919  -0.841  1.00  0.00     0.169 HD
HETATM    9  C12 UNL     1       0.788  -0.439   0.678  1.00  0.00     0.050 C 
HETATM   10  C13 UNL     1       1.683   0.611   1.219  1.00  0.00     0.016 C 
HETATM   11  C18 UNL     1       1.415   1.980   0.617  1.00  0.00     0.013 C 
HETATM   12  C19 UNL     1       0.052   2.400   1.142  1.00  0.00     0.058 C 
ENDROOT
BRANCH   1  13
HETATM   13  C3  UNL     1      -4.453   1.432  -0.579  1.00  0.00     0.113 A 
HETATM   14  N3  UNL     1      -5.488   0.767  -1.090  1.00  0.00    -0.294 N 
HETATM   15  N2  UNL     1      -6.535   1.556  -1.238  1.00  0.00    -0.284 N 
ATOM     16  H3  UNL     1      -5.473  -0.223  -1.335  1.00  0.00     0.187 HD
HETATM   17  C2  UNL     1      -6.228   2.829  -0.815  1.00  0.00     0.140 A 
ATOM     18  H2  UNL     1      -7.439   1.265  -1.611  1.00  0.00     0.188 HD
HETATM   19  N1  UNL     1      -6.814   3.980  -0.720  1.00  0.00    -0.344 N 
HETATM   20  C20 UNL     1      -4.923   2.736  -0.406  1.00  0.00     0.083 A 
HETATM   21  C1  UNL     1      -6.159   5.024  -0.239  1.00  0.00     0.140 A 
ATOM     22  H1  UNL     1      -7.784   4.082  -1.017  1.00  0.00     0.167 HD
HETATM   23  S1  UNL     1      -4.623   4.349   0.100  1.00  0.00    -0.079 SA
ENDBRANCH   1  13
BRANCH   6  24
HETATM   24  N5  UNL     1      -1.324  -2.125  -0.415  1.00  0.00    -0.367 N 
HETATM   25  C8  UNL     1      -1.168  -3.165   0.569  1.00  0.00     0.124 C 
HETATM   26  C9  UNL     1       0.011  -3.944   0.024  1.00  0.00     0.021 C 
HETATM   27  C10 UNL     1      -0.010  -3.723  -1.462  1.00  0.00     0.021 C 
HETATM   28  C11 UNL     1      -1.210  -2.810  -1.702  1.00  0.00     0.124 C 
ENDBRANCH   6  24
BRANCH  10  29
HETATM   29  C14 UNL     1       3.160   0.348   1.064  1.00  0.00     0.237 C 
BRANCH  29  30
HETATM   30  N7  UNL     1       3.556   0.227  -0.293  1.00  0.00    -0.067 N 
ATOM     31  H72 UNL     1       3.005  -0.492  -0.762  1.00  0.00     0.277 HD
ATOM     32  H71 UNL     1       3.261   1.046  -0.824  1.00  0.00     0.277 HD
BRANCH  30  33
HETATM   33  C15 UNL     1       4.961  -0.014  -0.482  1.00  0.00     0.233 C 
HETATM   34  C16 UNL     1       5.467  -1.312   0.112  1.00  0.00     0.202 C 
HETATM   35  O1  UNL     1       5.936  -0.628   1.258  1.00  0.00    -0.387 OA
HETATM   36  C17 UNL     1       5.902   0.560   0.521  1.00  0.00     0.202 C 
ENDBRANCH  30  33
ENDBRANCH  29  30
ENDBRANCH  10  29
TORSDOF 5
