REMARK  7 active torsions:
REMARK  status: ('A' for Active; 'I' for Inactive)
REMARK    1  A    between atoms: C2_2  and  C4_4 
REMARK    2  A    between atoms: N2_10  and  C7_11 
REMARK    3  A    between atoms: C7_11  and  C8_12 
REMARK    4  A    between atoms: C8_12  and  C9_13 
REMARK    5  A    between atoms: C9_13  and  C10_14 
REMARK    6  A    between atoms: C10_14  and  N3_15 
REMARK    7  A    between atoms: N3_15  and  C12_17 
ROOT
HETATM    1  C4  UNL     1      -2.636   2.256   0.054  1.00  0.00     0.180 C 
HETATM    2  N1  UNL     1      -1.526   3.167  -0.036  1.00  0.00    -0.343 N 
ATOM      3  H1  UNL     1      -1.746   4.162  -0.000  1.00  0.00     0.163 HD
HETATM    4  C5  UNL     1      -0.163   2.824  -0.169  1.00  0.00     0.257 C 
HETATM    5  O1  UNL     1       0.509   3.353  -1.127  1.00  0.00    -0.267 OA
HETATM    6  C6  UNL     1       0.602   1.893   0.698  1.00  0.00     0.160 C 
HETATM    7  N2  UNL     1       0.772   0.587   0.210  1.00  0.00    -0.383 N 
HETATM    8  C13 UNL     1      -0.180   0.066  -0.705  1.00  0.00     0.153 C 
HETATM    9  C14 UNL     1      -1.287  -0.685   0.010  1.00  0.00     0.053 C 
HETATM   10  C15 UNL     1      -2.469  -0.932  -0.893  1.00  0.00     0.038 C 
HETATM   11  C16 UNL     1      -2.667  -2.374  -1.257  1.00  0.00    -0.011 C 
HETATM   12  C17 UNL     1      -3.325  -3.186  -0.198  1.00  0.00     0.009 C 
HETATM   13  C18 UNL     1      -2.417  -3.620   0.914  1.00  0.00    -0.013 C 
HETATM   14  C19 UNL     1      -1.144  -4.286   0.374  1.00  0.00     0.010 C 
HETATM   15  C20 UNL     1      -0.538  -3.080  -0.361  1.00  0.00    -0.007 C 
HETATM   16  C21 UNL     1      -1.339  -2.962  -1.641  1.00  0.00     0.010 C 
HETATM   17  C22 UNL     1      -0.766  -1.971   0.587  1.00  0.00     0.020 C 
HETATM   18  C23 UNL     1      -1.800  -2.417   1.607  1.00  0.00     0.012 C 
HETATM   19  N4  UNL     1      -1.651   0.155   1.155  1.00  0.00    -0.348 N 
ATOM     20  H4  UNL     1      -1.230  -0.072   2.056  1.00  0.00     0.163 HD
HETATM   21  C24 UNL     1      -2.532   1.247   1.111  1.00  0.00     0.241 C 
HETATM   22  O3  UNL     1      -3.320   1.348   2.118  1.00  0.00    -0.271 OA
ENDROOT
BRANCH   7  23
HETATM   23  C7  UNL     1       2.110   0.091   0.068  1.00  0.00     0.122 C 
BRANCH  23  24
HETATM   24  C8  UNL     1       2.898   0.768  -1.002  1.00  0.00     0.021 C 
BRANCH  24  25
HETATM   25  C9  UNL     1       4.274   0.236  -1.145  1.00  0.00     0.021 C 
BRANCH  25  26
HETATM   26  C10 UNL     1       5.104   0.384   0.108  1.00  0.00     0.124 C 
BRANCH  26  27
HETATM   27  N3  UNL     1       6.435  -0.153  -0.102  1.00  0.00    -0.364 N 
HETATM   28  C11 UNL     1       6.657  -1.549   0.205  1.00  0.00     0.152 C 
BRANCH  27  29
HETATM   29  C12 UNL     1       7.476   0.688  -0.595  1.00  0.00     0.350 C 
HETATM   30  O2  UNL     1       8.615   0.207  -0.771  1.00  0.00    -0.284 OA
ENDBRANCH  27  29
ENDBRANCH  26  27
ENDBRANCH  25  26
ENDBRANCH  24  25
ENDBRANCH  23  24
ENDBRANCH   7  23
BRANCH   1  31
HETATM   31  C2  UNL     1      -3.934   3.045   0.229  1.00  0.00     0.009 C 
HETATM   32  C1  UNL     1      -3.938   3.891   1.471  1.00  0.00     0.012 C 
HETATM   33  C3  UNL     1      -3.977   4.007  -0.965  1.00  0.00     0.012 C 
ENDBRANCH   1  31
TORSDOF 7
