REMARK  8 active torsions:
REMARK  status: ('A' for Active; 'I' for Inactive)
REMARK    1  A    between atoms: N1_2  and  C2_3 
REMARK    2  A    between atoms: N1_2  and  S1_23 
REMARK    3  A    between atoms: C2_3  and  C3_4 
REMARK    4  A    between atoms: C5_6  and  C6_7 
REMARK    5  A    between atoms: C6_7  and  O1_8 
REMARK    6  A    between atoms: N2_10  and  O2_12 
REMARK    7  A    between atoms: C7_14  and  N3_15 
REMARK    8  A    between atoms: S1_23  and  C13_26 
ROOT
HETATM    1  C3  UNL     1       0.218   0.078   1.084  1.00  0.00     0.136 C 
HETATM    2  C4  UNL     1      -0.238  -0.637  -0.179  1.00  0.00     0.048 C 
HETATM    3  C5  UNL     1      -1.137   0.244  -0.971  1.00  0.00     0.100 C 
HETATM    4  C7  UNL     1      -2.281   0.703  -0.118  1.00  0.00     0.258 C 
HETATM    5  C12 UNL     1      -1.577   1.531   0.983  1.00  0.00     0.204 C 
HETATM    6  O4  UNL     1      -0.822   0.666   1.738  1.00  0.00    -0.382 OA
ENDROOT
BRANCH   1   7
HETATM    7  C2  UNL     1       1.357   1.033   0.816  1.00  0.00     0.139 C 
BRANCH   7   8
HETATM    8  N1  UNL     1       2.455   0.396   0.124  1.00  0.00    -0.208 NA
HETATM    9  C1  UNL     1       3.193   1.477  -0.552  1.00  0.00     0.129 C 
BRANCH   8  10
HETATM   10  S1  UNL     1       3.589  -0.292   1.234  1.00  0.00     0.250 S 
HETATM   11  O5  UNL     1       4.163   0.706   2.169  1.00  0.00    -0.205 OA
HETATM   12  O6  UNL     1       3.025  -1.451   1.976  1.00  0.00    -0.205 OA
BRANCH  10  13
HETATM   13  C13 UNL     1       4.919  -0.918   0.242  1.00  0.00     0.116 A 
HETATM   14  C14 UNL     1       6.239  -0.570   0.278  1.00  0.00     0.034 A 
HETATM   15  C15 UNL     1       7.065  -1.184  -0.579  1.00  0.00     0.033 A 
HETATM   16  C16 UNL     1       6.519  -2.110  -1.422  1.00  0.00     0.075 A 
HETATM   17 CL1  UNL     1       7.343  -3.076  -2.653  1.00  0.00    -0.076 Cl
HETATM   18  S2  UNL     1       4.872  -2.098  -0.995  1.00  0.00    -0.065 SA
ENDBRANCH  10  13
ENDBRANCH   8  10
ENDBRANCH   7   8
ENDBRANCH   1   7
BRANCH   3  19
HETATM   19  C6  UNL     1      -1.480  -0.175  -2.311  1.00  0.00     0.141 C 
HETATM   20  N2  UNL     1      -1.118  -1.261  -2.833  1.00  0.00    -0.251 N 
ATOM     21  H2  UNL     1      -1.456  -1.382  -3.788  1.00  0.00     0.196 HD
BRANCH  19  22
HETATM   22  O1  UNL     1      -2.265   0.666  -3.099  1.00  0.00    -0.348 OA
ATOM     23  H1  UNL     1      -2.490   0.391  -3.980  1.00  0.00     0.219 HD
ENDBRANCH  19  22
BRANCH  20  24
HETATM   24  O2  UNL     1      -0.386  -2.286  -2.400  1.00  0.00    -0.288 OA
ATOM     25  H2  UNL     1      -0.113  -3.106  -2.794  1.00  0.00     0.244 HD
ENDBRANCH  20  24
ENDBRANCH   3  19
BRANCH   4  26
HETATM   26  N3  UNL     1      -3.060  -0.237   0.550  1.00  0.00     0.100 N 
HETATM   27  C8  UNL     1      -3.846  -1.188  -0.114  1.00  0.00     0.299 C 
HETATM   28  C9  UNL     1      -5.301  -0.756  -0.263  1.00  0.00     0.198 C 
HETATM   29  O3  UNL     1      -5.859  -0.788   0.984  1.00  0.00    -0.388 OA
HETATM   30  C10 UNL     1      -5.025  -0.451   2.016  1.00  0.00     0.198 C 
HETATM   31  C11 UNL     1      -3.836   0.404   1.590  1.00  0.00     0.299 C 
ENDBRANCH   4  26
TORSDOF 8
