REMARK  15 active torsions:
REMARK  status: ('A' for Active; 'I' for Inactive)
REMARK    1  A    between atoms: C2_2  and  O1_3 
REMARK    2  A    between atoms: C2_2  and  C3_5 
REMARK    3  A    between atoms: C4_6  and  O2_7 
REMARK    4  A    between atoms: O2_7  and  C5_8 
REMARK    5  A    between atoms: C8_11  and  O3_12 
REMARK    6  A    between atoms: C9_14  and  C10_15 
REMARK    7  A    between atoms: C10_15  and  O4_16 
REMARK    8  A    between atoms: O4_16  and  C11_17 
REMARK    9  A    between atoms: C12_19  and  C13_20 
REMARK   10  A    between atoms: C13_20  and  O6_21 
REMARK   11  A    between atoms: C17_26  and  O7_27 
REMARK   12  A    between atoms: C18_29  and  O8_30 
REMARK   13  A    between atoms: C20_33  and  C21_34 
REMARK   14  A    between atoms: C21_34  and  O9_35 
REMARK   15  A    between atoms: C25_40  and  O10_42 
ROOT
HETATM    1  C5  UNL     1      -0.885  -1.103  -0.133  1.00  0.00     0.062 C 
HETATM    2  C6  UNL     1      -0.778  -0.839  -1.646  1.00  0.00     0.046 C 
HETATM    3  C7  UNL     1      -0.470  -2.554   0.046  1.00  0.00     0.070 C 
HETATM    4  C8  UNL     1       0.977  -2.823  -0.075  1.00  0.00     0.129 C 
HETATM    5  C9  UNL     1       1.889  -1.678   0.335  1.00  0.00     0.067 C 
HETATM    6  C18 UNL     1       1.109  -0.862   1.353  1.00  0.00     0.129 C 
HETATM    7  C19 UNL     1       0.039  -0.142   0.527  1.00  0.00     0.070 C 
ENDROOT
BRANCH   1   8
HETATM    8  O2  UNL     1      -2.206  -1.061   0.276  1.00  0.00    -0.374 OA
BRANCH   8   9
HETATM    9  C4  UNL     1      -2.871   0.127   0.076  1.00  0.00     0.138 C 
HETATM   10  C3  UNL     1      -3.886   0.085  -1.009  1.00  0.00     0.078 C 
HETATM   11  C25 UNL     1      -4.574   1.434  -1.049  1.00  0.00     0.066 C 
HETATM   12  C23 UNL     1      -5.243   1.808   0.215  1.00  0.00     0.017 C 
HETATM   13  C26 UNL     1      -3.516   2.467  -1.378  1.00  0.00     0.047 C 
HETATM   14  C22 UNL     1      -4.617   1.349   1.470  1.00  0.00     0.016 C 
HETATM   15  C24 UNL     1      -5.459   3.330   0.180  1.00  0.00     0.013 C 
HETATM   16  C20 UNL     1      -3.260   0.735   1.365  1.00  0.00     0.039 C 
BRANCH  10  17
HETATM   17  C2  UNL     1      -4.862  -0.996  -1.090  1.00  0.00     0.123 C 
HETATM   18  C1  UNL     1      -4.324  -2.390  -1.225  1.00  0.00     0.040 C 
BRANCH  17  19
HETATM   19  O1  UNL     1      -5.894  -1.013  -0.162  1.00  0.00    -0.395 OA
ATOM     20  H1  UNL     1      -6.235  -0.130  -0.077  1.00  0.00     0.210 HD
ENDBRANCH  17  19
ENDBRANCH  10  17
BRANCH  11  21
HETATM   21  O10 UNL     1      -5.530   1.465  -2.080  1.00  0.00    -0.389 OA
ATOM     22  H10 UNL     1      -5.961   2.311  -2.105  1.00  0.00     0.210 HD
ENDBRANCH  11  21
BRANCH  16  23
HETATM   23  C21 UNL     1      -3.104  -0.208   2.559  1.00  0.00     0.171 C 
BRANCH  23  24
HETATM   24  O9  UNL     1      -3.847  -1.354   2.475  1.00  0.00    -0.400 OA
ATOM     25  H9  UNL     1      -3.750  -1.940   3.217  1.00  0.00     0.209 HD
ENDBRANCH  23  24
ENDBRANCH  16  23
ENDBRANCH   8   9
ENDBRANCH   1   8
BRANCH   4  26
HETATM   26  O3  UNL     1       1.306  -3.898   0.770  1.00  0.00    -0.395 OA
ATOM     27  H3  UNL     1       2.237  -4.071   0.692  1.00  0.00     0.210 HD
ENDBRANCH   4  26
BRANCH   6  28
HETATM   28  O8  UNL     1       0.547  -1.655   2.348  1.00  0.00    -0.395 OA
ATOM     29  H8  UNL     1       0.060  -1.145   2.984  1.00  0.00     0.210 HD
ENDBRANCH   6  28
BRANCH   5  30
HETATM   30  C10 UNL     1       3.137  -2.155   0.988  1.00  0.00     0.180 C 
BRANCH  30  31
HETATM   31  O4  UNL     1       3.971  -1.116   1.319  1.00  0.00    -0.358 OA
BRANCH  31  32
HETATM   32  C11 UNL     1       4.475  -0.390   0.261  1.00  0.00     0.289 C 
HETATM   33  O5  UNL     1       5.900  -0.552   0.209  1.00  0.00    -0.351 OA
HETATM   34  C12 UNL     1       6.321  -0.043  -1.005  1.00  0.00     0.148 C 
HETATM   35  C14 UNL     1       6.092   1.450  -1.107  1.00  0.00     0.041 C 
HETATM   36  C15 UNL     1       4.698   1.843  -0.738  1.00  0.00     0.018 C 
HETATM   37  C16 UNL     1       4.654   3.310  -0.411  1.00  0.00     0.012 C 
HETATM   38  C17 UNL     1       4.275   1.079   0.504  1.00  0.00     0.177 C 
BRANCH  34  39
HETATM   39  C13 UNL     1       7.819  -0.277  -1.128  1.00  0.00     0.196 C 
BRANCH  39  40
HETATM   40  O6  UNL     1       8.074  -1.649  -1.065  1.00  0.00    -0.398 OA
ATOM     41  H6  UNL     1       9.010  -1.795  -1.142  1.00  0.00     0.209 HD
ENDBRANCH  39  40
ENDBRANCH  34  39
BRANCH  38  42
HETATM   42  O7  UNL     1       5.177   1.436   1.526  1.00  0.00    -0.390 OA
ATOM     43  H7  UNL     1       5.051   2.365   1.680  1.00  0.00     0.210 HD
ENDBRANCH  38  42
ENDBRANCH  31  32
ENDBRANCH  30  31
ENDBRANCH   5  30
TORSDOF 15
