REMARK  17 active torsions:
REMARK  status: ('A' for Active; 'I' for Inactive)
REMARK    1  A    between atoms: C10_10  and  O1_11 
REMARK    2  A    between atoms: C11_13  and  O2_14 
REMARK    3  A    between atoms: C13_17  and  O3_18 
REMARK    4  A    between atoms: C13_17  and  C14_20 
REMARK    5  A    between atoms: C14_20  and  C15_22 
REMARK    6  A    between atoms: C15_22  and  C16_23 
REMARK    7  A    between atoms: C16_23  and  C17_24 
REMARK    8  A    between atoms: C17_24  and  C18_25 
REMARK    9  A    between atoms: C18_25  and  O5_27 
REMARK   10  A    between atoms: C18_25  and  O6_29 
REMARK   11  A    between atoms: C21_32  and  O7_33 
REMARK   12  A    between atoms: O7_33  and  C22_34 
REMARK   13  A    between atoms: C22_34  and  C23_36 
REMARK   14  A    between atoms: C23_36  and  O9_37 
REMARK   15  A    between atoms: C23_36  and  O10_39 
REMARK   16  A    between atoms: C23_36  and  C24_41 
REMARK   17  A    between atoms: C24_41  and  O11_42 
ROOT
HETATM    1  C1  UNL     1      -1.319  -0.687  -4.021  1.00  0.00     0.043 C 
HETATM    2  C2  UNL     1      -1.129  -0.121  -2.672  1.00  0.00    -0.081 C 
HETATM    3  C3  UNL     1      -1.370  -0.735  -1.524  1.00  0.00    -0.068 C 
HETATM    4  C4  UNL     1      -1.857  -2.068  -1.940  1.00  0.00     0.035 C 
HETATM    5  C5  UNL     1      -1.850  -3.080  -0.799  1.00  0.00     0.009 C 
HETATM    6  C6  UNL     1      -0.458  -3.544  -0.635  1.00  0.00    -0.014 C 
HETATM    7  C7  UNL     1      -0.507  -5.085  -0.562  1.00  0.00     0.010 C 
HETATM    8  C8  UNL     1       0.337  -3.039   0.462  1.00  0.00     0.002 C 
HETATM    9  C9  UNL     1       0.315  -4.104   1.583  1.00  0.00     0.039 C 
HETATM   10  C10 UNL     1       1.147  -3.408   2.597  1.00  0.00     0.147 C 
HETATM   11  C11 UNL     1       0.716  -1.964   2.464  1.00  0.00     0.154 C 
HETATM   12  C12 UNL     1      -0.025  -1.785   1.185  1.00  0.00     0.064 C 
HETATM   13  C13 UNL     1       0.180  -0.512   0.435  1.00  0.00     0.134 C 
HETATM   14  C20 UNL     1      -1.141  -0.073  -0.193  1.00  0.00     0.087 C 
HETATM   15  C21 UNL     1      -1.414   1.379  -0.228  1.00  0.00     0.144 C 
HETATM   16  C25 UNL     1      -1.633   1.941  -1.653  1.00  0.00     0.037 C 
HETATM   17  C26 UNL     1      -0.641   1.287  -2.550  1.00  0.00     0.036 C 
ENDROOT
BRANCH  13  18
HETATM   18  O3  UNL     1       1.158  -0.747  -0.525  1.00  0.00    -0.381 OA
ATOM     19  H3  UNL     1       1.289   0.064  -1.003  1.00  0.00     0.211 HD
ENDBRANCH  13  18
BRANCH  13  20
HETATM   20  C14 UNL     1       0.674   0.611   1.265  1.00  0.00     0.162 C 
HETATM   21  O4  UNL     1      -0.026   0.855   2.265  1.00  0.00    -0.295 OA
BRANCH  20  22
HETATM   22  C15 UNL     1       1.831   1.468   1.105  1.00  0.00     0.082 C 
BRANCH  22  23
HETATM   23  C16 UNL     1       2.777   1.200   0.004  1.00  0.00     0.013 C 
BRANCH  23  24
HETATM   24  C17 UNL     1       3.884   2.265   0.120  1.00  0.00     0.068 C 
BRANCH  24  25
HETATM   25  C18 UNL     1       4.912   2.099  -0.963  1.00  0.00     0.155 C 
HETATM   26  C19 UNL     1       5.948   3.182  -0.760  1.00  0.00     0.078 C 
BRANCH  25  27
HETATM   27  O5  UNL     1       4.365   2.298  -2.235  1.00  0.00    -0.366 OA
ATOM     28  H5  UNL     1       5.015   2.193  -2.920  1.00  0.00     0.213 HD
ENDBRANCH  25  27
BRANCH  25  29
HETATM   29  O6  UNL     1       5.546   0.865  -0.949  1.00  0.00    -0.366 OA
ATOM     30  H6  UNL     1       6.196   0.760  -1.634  1.00  0.00     0.213 HD
ENDBRANCH  25  29
ENDBRANCH  24  25
ENDBRANCH  23  24
ENDBRANCH  22  23
ENDBRANCH  20  22
ENDBRANCH  13  20
BRANCH  11  31
HETATM   31  O2  UNL     1       1.873  -1.242   2.614  1.00  0.00    -0.392 OA
ATOM     32  H2  UNL     1       1.602  -0.335   2.530  1.00  0.00     0.210 HD
ENDBRANCH  11  31
BRANCH  15  33
HETATM   33  O7  UNL     1      -2.689   1.708   0.371  1.00  0.00    -0.311 OA
BRANCH  33  34
HETATM   34  C22 UNL     1      -2.873   2.749   1.216  1.00  0.00     0.324 C 
HETATM   35  O8  UNL     1      -1.920   3.513   1.535  1.00  0.00    -0.259 OA
BRANCH  34  36
HETATM   36  C23 UNL     1      -4.188   3.096   1.846  1.00  0.00     0.272 C 
BRANCH  36  37
HETATM   37  O9  UNL     1      -5.104   2.149   1.344  1.00  0.00    -0.356 OA
ATOM     38  H9  UNL     1      -5.937   2.369   1.743  1.00  0.00     0.213 HD
ENDBRANCH  36  37
BRANCH  36  39
HETATM   39  O10 UNL     1      -4.135   3.049   3.226  1.00  0.00    -0.356 OA
ATOM     40  H10 UNL     1      -4.968   3.269   3.625  1.00  0.00     0.213 HD
ENDBRANCH  36  39
BRANCH  36  41
HETATM   41  C24 UNL     1      -4.668   4.454   1.426  1.00  0.00     0.243 C 
BRANCH  41  42
HETATM   42  O11 UNL     1      -4.755   4.622   0.053  1.00  0.00    -0.395 OA
ATOM     43  H11 UNL     1      -5.059   5.482  -0.213  1.00  0.00     0.209 HD
ENDBRANCH  41  42
ENDBRANCH  36  41
ENDBRANCH  34  36
ENDBRANCH  33  34
ENDBRANCH  15  33
BRANCH  10  44
HETATM   44  O1  UNL     1       0.961  -3.891   3.890  1.00  0.00    -0.393 OA
ATOM     45  H1  UNL     1       1.493  -3.446   4.539  1.00  0.00     0.210 HD
ENDBRANCH  10  44
TORSDOF 17
