REMARK  5 active torsions:
REMARK  status: ('A' for Active; 'I' for Inactive)
REMARK    1  A    between atoms: C2_2  and  N1_3 
REMARK    2  A    between atoms: C6_7  and  C7_8 
REMARK    3  A    between atoms: C7_8  and  O1_10 
REMARK    4  A    between atoms: C7_8  and  N2_12 
REMARK    5  A    between atoms: N2_12  and  C9_14 
ROOT
HETATM    1  C7  UNL     1       0.619   0.527  -0.096  1.00  0.00     0.152 C 
HETATM    2  C8  UNL     1       0.918   0.901  -1.486  1.00  0.00     0.076 C 
ENDROOT
BRANCH   1   3
HETATM    3  C6  UNL     1      -0.617  -0.346  -0.066  1.00  0.00     0.013 C 
HETATM    4  C5  UNL     1      -0.504  -1.594   0.392  1.00  0.00    -0.014 C 
HETATM    5  C4  UNL     1      -1.733  -2.443   0.419  1.00  0.00     0.047 C 
HETATM    6  C3  UNL     1      -2.764  -1.519   1.137  1.00  0.00     0.128 C 
HETATM    7  N1  UNL     1      -3.018  -0.484   0.209  1.00  0.00    -0.368 N 
HETATM    8  C14 UNL     1      -1.938   0.081  -0.511  1.00  0.00     0.134 C 
HETATM    9  C15 UNL     1      -2.183   1.575  -0.482  1.00  0.00     0.062 C 
HETATM   10 CL1  UNL     1      -2.102  -0.385  -2.255  1.00  0.00    -0.090 Cl
BRANCH   7  11
HETATM   11  C2  UNL     1      -4.323  -0.361  -0.269  1.00  0.00     0.056 C 
HETATM   12  C1  UNL     1      -5.339   0.137   0.747  1.00  0.00     0.054 C 
ENDBRANCH   7  11
ENDBRANCH   1   3
BRANCH   1  13
HETATM   13  O1  UNL     1       0.113   1.715   0.594  1.00  0.00    -0.367 OA
ATOM     14  H1  UNL     1       0.889   2.263   0.575  1.00  0.00     0.213 HD
ENDBRANCH   1  13
BRANCH   1  15
HETATM   15  N2  UNL     1       1.553   0.010   0.771  1.00  0.00    -0.384 N 
ATOM     16  H2  UNL     1       1.135  -0.444   1.583  1.00  0.00     0.157 HD
BRANCH  15  17
HETATM   17  C9  UNL     1       2.902  -0.028   0.782  1.00  0.00     0.079 C 
HETATM   18  C10 UNL     1       3.515  -0.904  -0.275  1.00  0.00     0.025 C 
HETATM   19  C11 UNL     1       4.945  -0.424  -0.388  1.00  0.00     0.002 C 
HETATM   20  C12 UNL     1       4.968   0.992   0.069  1.00  0.00     0.002 C 
HETATM   21  C13 UNL     1       3.642   1.281   0.733  1.00  0.00     0.025 C 
ENDBRANCH  15  17
ENDBRANCH   1  15
TORSDOF 5
