REMARK  5 active torsions:
REMARK  status: ('A' for Active; 'I' for Inactive)
REMARK    1  A    between atoms: C2_2  and  C3_3 
REMARK    2  A    between atoms: N1_6  and  C6_7 
REMARK    3  A    between atoms: C11_12  and  N2_13 
REMARK    4  A    between atoms: C12_18  and  O1_19 
REMARK    5  A    between atoms: O1_19  and  C13_20 
ROOT
HETATM    1  C3  UNL     1       2.333   0.565   0.376  1.00  0.00    -0.031 A 
HETATM    2  C4  UNL     1       1.554   1.737  -0.134  1.00  0.00     0.030 C 
HETATM    3  C5  UNL     1       0.592   1.429  -1.224  1.00  0.00     0.128 C 
HETATM    4  N1  UNL     1      -0.193   0.269  -0.702  1.00  0.00    -0.340 N 
HETATM    5  C12 UNL     1       0.577  -0.913  -0.699  1.00  0.00     0.230 C 
HETATM    6  C14 UNL     1       1.842  -0.772   0.139  1.00  0.00     0.044 A 
HETATM    7  C15 UNL     1       1.716  -0.180   1.487  1.00  0.00     0.020 A 
ENDROOT
BRANCH   4   8
HETATM    8  C6  UNL     1      -1.513   0.475  -0.248  1.00  0.00     0.107 A 
HETATM    9  C7  UNL     1      -2.431  -0.508   0.026  1.00  0.00     0.055 A 
HETATM   10  C8  UNL     1      -3.720  -0.266   0.506  1.00  0.00    -0.055 A 
HETATM   11  C9  UNL     1      -4.629  -1.409   0.767  1.00  0.00     0.048 C 
HETATM   12  C10 UNL     1      -4.083   1.038   0.714  1.00  0.00     0.054 A 
HETATM   13  C11 UNL     1      -3.190   2.034   0.450  1.00  0.00     0.100 A 
HETATM   14  N3  UNL     1      -1.964   1.750  -0.009  1.00  0.00    -0.329 N 
ATOM     15  H3  UNL     1      -1.328   2.526  -0.192  1.00  0.00     0.169 HD
BRANCH  13  16
HETATM   16  N2  UNL     1      -3.583   3.248   0.664  1.00  0.00    -0.385 N 
ATOM     17  H22 UNL     1      -4.517   3.464   1.014  1.00  0.00     0.157 HD
ATOM     18  H21 UNL     1      -2.915   3.993   0.467  1.00  0.00     0.157 HD
ENDBRANCH  13  16
ENDBRANCH   4   8
BRANCH   5  19
HETATM   19  O1  UNL     1       0.023  -2.106  -0.371  1.00  0.00    -0.352 OA
BRANCH  19  20
HETATM   20  C13 UNL     1       0.177  -3.039  -1.404  1.00  0.00     0.284 C 
HETATM   21 CL1  UNL     1      -0.553  -4.582  -0.957  1.00  0.00    -0.102 Cl
ENDBRANCH  19  20
ENDBRANCH   5  19
BRANCH   1  22
HETATM   22  C2  UNL     1       3.826   0.760   0.274  1.00  0.00     0.005 C 
HETATM   23  C1  UNL     1       4.654  -0.354   0.756  1.00  0.00     0.006 C 
ENDBRANCH   1  22
TORSDOF 5
