REMARK  4 active torsions:
REMARK  status: ('A' for Active; 'I' for Inactive)
REMARK    1  A    between atoms: C2_2  and  C3_3 
REMARK    2  A    between atoms: C5_5  and  C6_6 
REMARK    3  A    between atoms: C10_18  and  N5_19 
REMARK    4  A    between atoms: N5_19  and  C11_21 
ROOT
HETATM    1  C6  UNL     1       0.014   1.824  -0.165  1.00  0.00     0.076 A 
HETATM    2  N1  UNL     1       0.036   3.203  -0.324  1.00  0.00    -0.297 N 
ATOM      3  H1  UNL     1      -0.771   3.826  -0.353  1.00  0.00     0.187 HD
HETATM    4  N2  UNL     1       1.280   3.545  -0.428  1.00  0.00    -0.284 N 
ATOM      5  H2  UNL     1       1.591   4.508  -0.557  1.00  0.00     0.188 HD
HETATM    6  C7  UNL     1       2.104   2.515  -0.350  1.00  0.00     0.137 A 
HETATM    7  N3  UNL     1       3.454   2.441  -0.386  1.00  0.00    -0.330 N 
ATOM      8  H3  UNL     1       4.031   3.272  -0.517  1.00  0.00     0.168 HD
HETATM    9  C8  UNL     1       3.999   1.222  -0.241  1.00  0.00     0.080 A 
HETATM   10  C9  UNL     1       5.492   1.158  -0.283  1.00  0.00     0.089 C 
HETATM   11  N4  UNL     1       3.264   0.125  -0.068  1.00  0.00    -0.332 N 
ATOM     12  H4  UNL     1       3.737  -0.772   0.038  1.00  0.00     0.168 HD
HETATM   13  C10 UNL     1       1.895   0.158  -0.027  1.00  0.00     0.119 A 
HETATM   14  C14 UNL     1       1.304   1.377  -0.176  1.00  0.00     0.082 A 
ENDROOT
BRANCH   1  15
HETATM   15  C5  UNL     1      -1.272   1.171   0.031  1.00  0.00    -0.006 A 
HETATM   16  C4  UNL     1      -1.661  -0.038  -0.412  1.00  0.00     0.022 A 
HETATM   17  C3  UNL     1      -2.883  -0.633  -0.109  1.00  0.00    -0.035 A 
HETATM   18  C18 UNL     1      -3.769   0.035   0.688  1.00  0.00     0.046 A 
HETATM   19  C16 UNL     1      -3.434   1.294   1.180  1.00  0.00    -0.039 A 
HETATM   20 CL1  UNL     1      -5.318  -0.623   1.122  1.00  0.00    -0.083 Cl
HETATM   21  C15 UNL     1      -2.226   1.828   0.854  1.00  0.00     0.022 A 
HETATM   22  C17 UNL     1      -4.399   2.020   2.045  1.00  0.00     0.050 C 
BRANCH  17  23
HETATM   23  C2  UNL     1      -3.201  -1.968  -0.651  1.00  0.00     0.036 C 
HETATM   24  C1  UNL     1      -4.181  -1.893  -1.811  1.00  0.00     0.010 C 
ENDBRANCH  17  23
ENDBRANCH   1  15
BRANCH  13  25
HETATM   25  N5  UNL     1       1.231  -0.890   0.202  1.00  0.00    -0.371 N 
ATOM     26  H5  UNL     1       0.218  -0.767   0.212  1.00  0.00     0.161 HD
BRANCH  25  27
HETATM   27  C11 UNL     1       1.679  -2.213   0.448  1.00  0.00     0.075 C 
HETATM   28  C12 UNL     1       2.009  -2.996  -0.787  1.00  0.00     0.031 C 
HETATM   29  C13 UNL     1       2.915  -2.244   1.348  1.00  0.00     0.031 C 
ENDBRANCH  25  27
ENDBRANCH  13  25
TORSDOF 4
