REMARK  5 active torsions:
REMARK  status: ('A' for Active; 'I' for Inactive)
REMARK    1  A    between atoms: C2_2  and  O1_4 
REMARK    2  A    between atoms: O1_4  and  N1_5 
REMARK    3  A    between atoms: N1_5  and  C4_7 
REMARK    4  A    between atoms: N2_10  and  N3_11 
REMARK    5  A    between atoms: N3_11  and  N4_13 
ROOT
HETATM    1  C4  UNL     1       0.929  -0.435  -0.572  1.00  0.00     0.031 C 
HETATM    2  C5  UNL     1       2.394  -0.383  -0.651  1.00  0.00     0.077 C 
HETATM    3  C6  UNL     1       2.773  -1.381   0.451  1.00  0.00     0.150 C 
HETATM    4  N2  UNL     1       1.897  -0.914   1.510  1.00  0.00    -0.307 N 
HETATM    5  C7  UNL     1       0.619  -0.659   0.874  1.00  0.00     0.198 C 
ENDROOT
BRANCH   4   6
HETATM    6  N3  UNL     1       2.285  -0.769   2.841  1.00  0.00    -0.231 N 
ATOM      7  H3  UNL     1       1.871  -1.326   3.588  1.00  0.00     0.209 HD
BRANCH   6   8
HETATM    8  N4  UNL     1       3.170   0.084   3.065  1.00  0.00    -0.235 N 
HETATM    9  N5  UNL     1       3.656   1.037   3.673  1.00  0.00    -0.330 N 
ATOM     10  H52 UNL     1       2.927   1.211   4.365  1.00  0.00     0.178 HD
ATOM     11  H51 UNL     1       4.379   1.733   3.856  1.00  0.00     0.178 HD
ATOM     12  H4  UNL     1       3.875  -0.122   2.357  1.00  0.00     0.209 HD
ENDBRANCH   6   8
ENDBRANCH   4   6
BRANCH   1  13
HETATM   13  N1  UNL     1       0.050  -0.319  -1.506  1.00  0.00    -0.273 N 
ATOM     14  H1  UNL     1       0.371  -0.167  -2.462  1.00  0.00     0.193 HD
BRANCH  13  15
HETATM   15  O1  UNL     1      -1.301  -0.391  -1.270  1.00  0.00    -0.276 OA
BRANCH  15  16
HETATM   16  C2  UNL     1      -2.098   0.740  -1.106  1.00  0.00     0.144 C 
HETATM   17  C1  UNL     1      -3.176   0.862  -2.156  1.00  0.00     0.042 C 
HETATM   18  C3  UNL     1      -2.721   0.770   0.264  1.00  0.00     0.042 C 
ENDBRANCH  15  16
ENDBRANCH  13  15
ENDBRANCH   1  13
TORSDOF 5
