REMARK  8 active torsions:
REMARK  status: ('A' for Active; 'I' for Inactive)
REMARK    1  A    between atoms: C2_2  and  C3_3 
REMARK    2  A    between atoms: C3_3  and  C4_4 
REMARK    3  A    between atoms: C4_4  and  C5_5 
REMARK    4  A    between atoms: C8_11  and  C9_12 
REMARK       I    between atoms: C9_12  and  N2_14 
REMARK    5  A    between atoms: C11_19  and  O3_20 
REMARK    6  A    between atoms: C12_22  and  C13_23 
REMARK    7  A    between atoms: C13_23  and  C14_24 
REMARK    8  A    between atoms: C23_36  and  C24_37 
ROOT
HETATM    1  C5  UNL     1       2.683   0.763   0.846  1.00  0.00     0.176 C 
HETATM    2  N1  UNL     1       2.093   0.488  -0.450  1.00  0.00    -0.348 N 
ATOM      3  H1  UNL     1       2.365  -0.376  -0.919  1.00  0.00     0.163 HD
HETATM    4  C6  UNL     1       1.169   1.328  -1.111  1.00  0.00     0.220 C 
HETATM    5  O1  UNL     1       1.033   1.132  -2.356  1.00  0.00    -0.274 OA
HETATM    6  C7  UNL     1       0.341   2.394  -0.580  1.00  0.00     0.137 C 
HETATM    7  C8  UNL     1      -0.992   2.015  -0.000  1.00  0.00     0.184 C 
HETATM    8  N3  UNL     1      -1.970   1.766  -1.037  1.00  0.00    -0.360 N 
ATOM      9  H3  UNL     1      -2.440   2.608  -1.370  1.00  0.00     0.162 HD
HETATM   10  C11 UNL     1      -2.390   0.610  -1.662  1.00  0.00     0.130 C 
HETATM   11  C12 UNL     1      -3.011  -0.632  -1.164  1.00  0.00     0.108 C 
HETATM   12  C16 UNL     1      -2.616  -1.835  -1.977  1.00  0.00     0.054 C 
HETATM   13  C17 UNL     1      -1.229  -2.297  -1.789  1.00  0.00    -0.028 C 
HETATM   14  C18 UNL     1      -0.285  -2.432  -0.891  1.00  0.00    -0.022 C 
HETATM   15  C19 UNL     1      -0.083  -2.162   0.588  1.00  0.00     0.060 C 
HETATM   16  C20 UNL     1      -1.223  -2.757   1.281  1.00  0.00     0.090 C 
HETATM   17  C21 UNL     1      -1.081  -3.307   2.646  1.00  0.00     0.033 C 
HETATM   18  N4  UNL     1      -2.327  -1.776   1.222  1.00  0.00    -0.355 N 
ATOM     19  H4  UNL     1      -2.827  -1.745   2.111  1.00  0.00     0.162 HD
HETATM   20  C22 UNL     1      -2.899  -0.864   0.297  1.00  0.00     0.235 C 
HETATM   21  O4  UNL     1      -3.538   0.086   0.868  1.00  0.00    -0.272 OA
HETATM   22  C23 UNL     1       1.306  -2.419   1.014  1.00  0.00     0.155 C 
HETATM   23  N5  UNL     1       1.869  -1.452   1.926  1.00  0.00    -0.348 N 
ATOM     24  H5  UNL     1       1.542  -1.540   2.888  1.00  0.00     0.163 HD
HETATM   25  C25 UNL     1       2.785  -0.415   1.719  1.00  0.00     0.241 C 
HETATM   26  O6  UNL     1       3.889  -0.498   2.397  1.00  0.00    -0.271 OA
ENDROOT
BRANCH   7  27
HETATM   27  C9  UNL     1      -1.405   3.238   0.805  1.00  0.00     0.240 C 
HETATM   28  O2  UNL     1      -2.457   3.865   0.486  1.00  0.00    -0.271 OA
HETATM   29  N2  UNL     1      -0.622   3.664   1.895  1.00  0.00    -0.364 N 
HETATM   30  C10 UNL     1      -0.971   4.816   2.689  1.00  0.00     0.149 C 
ATOM     31  H2  UNL     1       0.221   3.140   2.131  1.00  0.00     0.161 HD
ENDBRANCH   7  27
BRANCH  10  32
HETATM   32  O3  UNL     1      -2.224   0.563  -2.952  1.00  0.00    -0.349 OA
ATOM     33  H3  UNL     1      -2.513  -0.233  -3.382  1.00  0.00     0.219 HD
ENDBRANCH  10  32
BRANCH  11  34
HETATM   34  C13 UNL     1      -4.543  -0.540  -1.363  1.00  0.00     0.028 C 
BRANCH  34  35
HETATM   35  C14 UNL     1      -4.954  -0.367  -2.772  1.00  0.00    -0.003 C 
HETATM   36  C15 UNL     1      -6.490  -0.301  -2.777  1.00  0.00     0.005 C 
ENDBRANCH  34  35
ENDBRANCH  11  34
BRANCH   1  37
HETATM   37  C4  UNL     1       4.053   1.424   0.661  1.00  0.00     0.035 C 
BRANCH  37  38
HETATM   38  C3  UNL     1       5.023   0.603  -0.106  1.00  0.00     0.002 C 
BRANCH  38  39
HETATM   39  C2  UNL     1       6.338   1.387  -0.213  1.00  0.00    -0.004 C 
HETATM   40  C1  UNL     1       7.371   0.621  -0.978  1.00  0.00     0.005 C 
ENDBRANCH  38  39
ENDBRANCH  37  38
ENDBRANCH   1  37
BRANCH  22  41
HETATM   41  C24 UNL     1       1.476  -3.804   1.612  1.00  0.00     0.257 C 
HETATM   42  O5  UNL     1       2.007  -3.972   2.682  1.00  0.00    -0.305 OA
ENDBRANCH  22  41
TORSDOF 8
