REMARK  5 active torsions:
REMARK  status: ('A' for Active; 'I' for Inactive)
REMARK    1  A    between atoms: O1_2  and  C2_3 
REMARK    2  A    between atoms: C4_5  and  N1_6 
REMARK       I    between atoms: N1_6  and  C5_8 
REMARK    3  A    between atoms: C5_8  and  O3_10 
REMARK    4  A    between atoms: O3_10  and  C6_11 
REMARK    5  A    between atoms: C12_19  and  C13_20 
ROOT
HETATM    1  N1  UNL     1      -0.711  -0.667   0.378  1.00  0.00    -0.328 N 
ATOM      2  H1  UNL     1      -0.335  -0.817   1.314  1.00  0.00     0.165 HD
HETATM    3  C5  UNL     1       0.169  -0.611  -0.727  1.00  0.00     0.361 C 
HETATM    4  O2  UNL     1      -0.317  -0.426  -1.870  1.00  0.00    -0.238 OA
ENDROOT
BRANCH   3   5
HETATM    5  O3  UNL     1       1.540  -0.750  -0.603  1.00  0.00    -0.296 OA
BRANCH   5   6
HETATM    6  C6  UNL     1       2.335  -0.679  -1.771  1.00  0.00     0.164 C 
HETATM    7  C7  UNL     1       3.147  -1.903  -2.005  1.00  0.00     0.201 C 
HETATM    8  O4  UNL     1       4.472  -1.575  -2.070  1.00  0.00    -0.382 OA
HETATM    9  C8  UNL     1       4.668  -0.296  -1.631  1.00  0.00     0.133 C 
HETATM   10  C9  UNL     1       3.335   0.412  -1.591  1.00  0.00     0.053 C 
HETATM   11  C16 UNL     1       4.686  -0.266  -0.096  1.00  0.00     0.028 C 
HETATM   12  C10 UNL     1       3.647   0.784  -0.159  1.00  0.00     0.026 C 
HETATM   13  C11 UNL     1       4.106   2.183  -0.002  1.00  0.00     0.174 C 
HETATM   14  O5  UNL     1       5.306   2.345   0.644  1.00  0.00    -0.374 OA
HETATM   15  C12 UNL     1       6.337   1.604   0.101  1.00  0.00     0.226 C 
HETATM   16  C14 UNL     1       6.020   0.144   0.396  1.00  0.00     0.028 C 
HETATM   17  C15 UNL     1       7.146  -0.727  -0.118  1.00  0.00     0.014 C 
BRANCH  15  18
HETATM   18  C13 UNL     1       7.602   1.930   0.800  1.00  0.00     0.203 C 
HETATM   19  O6  UNL     1       7.598   2.771   1.730  1.00  0.00    -0.646 OA
HETATM   20  O7  UNL     1       8.817   1.348   0.479  1.00  0.00    -0.646 OA
ENDBRANCH  15  18
ENDBRANCH   5   6
ENDBRANCH   3   5
BRANCH   1  21
HETATM   21  C4  UNL     1      -2.163  -0.512   0.193  1.00  0.00     0.038 C 
HETATM   22  C3  UNL     1      -2.674  -1.562  -0.709  1.00  0.00     0.063 C 
HETATM   23  C2  UNL     1      -3.818  -2.237   0.043  1.00  0.00     0.127 C 
HETATM   24  C25 UNL     1      -4.043  -1.444   1.296  1.00  0.00     0.017 C 
HETATM   25  C24 UNL     1      -5.266  -0.637   1.377  1.00  0.00     0.012 C 
HETATM   26  C26 UNL     1      -2.742  -0.811   1.587  1.00  0.00     0.038 C 
HETATM   27  C22 UNL     1      -5.501   0.571   0.602  1.00  0.00    -0.014 C 
HETATM   28  C21 UNL     1      -5.219   1.881   1.355  1.00  0.00     0.005 C 
HETATM   29  C23 UNL     1      -4.913   0.719  -0.741  1.00  0.00     0.009 C 
HETATM   30  C20 UNL     1      -5.007   3.024   0.367  1.00  0.00     0.001 C 
HETATM   31  C19 UNL     1      -3.791   2.840  -0.493  1.00  0.00     0.005 C 
HETATM   32  C18 UNL     1      -3.584   1.350  -0.844  1.00  0.00    -0.012 C 
HETATM   33  C17 UNL     1      -2.434   0.894  -0.105  1.00  0.00     0.035 C 
BRANCH  23  34
HETATM   34  O1  UNL     1      -3.368  -3.537   0.349  1.00  0.00    -0.390 OA
HETATM   35  C1  UNL     1      -4.162  -4.521  -0.195  1.00  0.00     0.202 C 
ENDBRANCH  23  34
ENDBRANCH   1  21
TORSDOF 5
