REMARK  9 active torsions:
REMARK  status: ('A' for Active; 'I' for Inactive)
REMARK    1  A    between atoms: C2_2  and  C3_4 
REMARK    2  A    between atoms: C3_4  and  O2_5 
REMARK    3  A    between atoms: C6_9  and  O3_10 
REMARK    4  A    between atoms: C10_15  and  C12_17 
REMARK    5  A    between atoms: C12_17  and  C13_18 
REMARK    6  A    between atoms: C13_18  and  C14_19 
REMARK    7  A    between atoms: C14_19  and  C15_20 
REMARK    8  A    between atoms: C15_20  and  C16_21 
REMARK    9  A    between atoms: C20_27  and  C21_28 
ROOT
HETATM    1  C3  UNL     1      -2.628  -0.699  -0.371  1.00  0.00     0.130 C 
HETATM    2  C4  UNL     1      -2.740  -2.165  -0.036  1.00  0.00     0.049 C 
HETATM    3  C5  UNL     1      -1.342  -2.742  -0.091  1.00  0.00     0.036 C 
HETATM    4  C6  UNL     1      -0.662  -2.168   1.135  1.00  0.00     0.127 C 
HETATM    5  C7  UNL     1      -0.515  -0.674   1.049  1.00  0.00    -0.002 C 
HETATM    6  C8  UNL     1      -0.583  -0.171   2.498  1.00  0.00     0.019 C 
HETATM    7  C9  UNL     1       0.913  -0.415   0.590  1.00  0.00     0.022 C 
HETATM    8  C10 UNL     1       0.846   0.548  -0.559  1.00  0.00    -0.038 C 
HETATM    9  C11 UNL     1       1.411   1.860  -0.111  1.00  0.00     0.015 C 
HETATM   10  C17 UNL     1      -0.556   0.538  -1.002  1.00  0.00     0.015 C 
HETATM   11  C18 UNL     1      -1.328   1.810  -0.953  1.00  0.00     0.042 C 
HETATM   12  C19 UNL     1      -1.748   1.434   0.434  1.00  0.00    -0.060 C 
HETATM   13  C20 UNL     1      -2.195   2.212   1.401  1.00  0.00     0.088 C 
HETATM   14  C22 UNL     1      -1.441   0.014   0.144  1.00  0.00     0.036 C 
ENDROOT
BRANCH   8  15
HETATM   15  C12 UNL     1       1.810   0.065  -1.659  1.00  0.00     0.010 C 
BRANCH  15  16
HETATM   16  C13 UNL     1       3.194   0.045  -1.054  1.00  0.00     0.001 C 
BRANCH  16  17
HETATM   17  C14 UNL     1       4.234  -0.421  -2.054  1.00  0.00     0.010 C 
BRANCH  17  18
HETATM   18  C15 UNL     1       5.568  -0.396  -1.325  1.00  0.00     0.113 C 
BRANCH  18  19
HETATM   19  C16 UNL     1       5.543  -1.298  -0.146  1.00  0.00     0.172 C 
HETATM   20  O4  UNL     1       5.591  -2.547  -0.249  1.00  0.00    -0.648 OA
HETATM   21  O5  UNL     1       5.465  -0.758   1.126  1.00  0.00    -0.648 OA
ENDBRANCH  18  19
ENDBRANCH  17  18
ENDBRANCH  16  17
ENDBRANCH  15  16
ENDBRANCH   8  15
BRANCH   4  22
HETATM   22  O3  UNL     1      -1.428  -2.519   2.245  1.00  0.00    -0.395 OA
ATOM     23  H3  UNL     1      -1.002  -2.159   3.014  1.00  0.00     0.210 HD
ENDBRANCH   4  22
BRANCH   1  24
HETATM   24  C2  UNL     1      -3.945  -0.117   0.018  1.00  0.00     0.158 C 
HETATM   25  C1  UNL     1      -4.923   0.445  -0.956  1.00  0.00     0.094 C 
HETATM   26  O1  UNL     1      -4.272  -0.084   1.192  1.00  0.00    -0.295 OA
ENDBRANCH   1  24
BRANCH   1  27
HETATM   27  O2  UNL     1      -2.610  -0.648  -1.792  1.00  0.00    -0.381 OA
ATOM     28  H2  UNL     1      -1.771  -1.019  -2.040  1.00  0.00     0.211 HD
ENDBRANCH   1  27
BRANCH  13  29
HETATM   29  C21 UNL     1      -2.371   3.648   1.290  1.00  0.00     0.198 C 
HETATM   30  O6  UNL     1      -2.110   4.299   0.244  1.00  0.00    -0.644 OA
HETATM   31  O7  UNL     1      -2.850   4.374   2.378  1.00  0.00    -0.644 OA
ENDBRANCH  13  29
TORSDOF 9
