REMARK  15 active torsions:
REMARK  status: ('A' for Active; 'I' for Inactive)
REMARK    1  A    between atoms: C2_2  and  C3_3 
REMARK    2  A    between atoms: C3_3  and  C4_4 
REMARK    3  A    between atoms: C4_4  and  C5_5 
REMARK    4  A    between atoms: C5_5  and  C6_6 
REMARK    5  A    between atoms: C6_6  and  C7_7 
REMARK    6  A    between atoms: C7_7  and  C8_8 
REMARK    7  A    between atoms: C8_8  and  C9_9 
REMARK    8  A    between atoms: C9_9  and  C10_10 
REMARK    9  A    between atoms: C10_10  and  C11_11 
REMARK   10  A    between atoms: C11_11  and  C12_12 
REMARK   11  A    between atoms: N1_13  and  C13_15 
REMARK   12  A    between atoms: C14_16  and  O1_17 
REMARK   13  A    between atoms: C17_21  and  O2_22 
REMARK   14  A    between atoms: C18_24  and  O3_25 
REMARK   15  A    between atoms: C22_31  and  O5_32 
ROOT
HETATM    1  C13 UNL     1      -2.683  -0.114  -0.199  1.00  0.00     0.116 C 
HETATM    2  C14 UNL     1      -3.406   0.669  -1.217  1.00  0.00     0.147 C 
HETATM    3  C15 UNL     1      -3.939   1.997  -0.741  1.00  0.00     0.048 C 
HETATM    4  C16 UNL     1      -3.101   2.684   0.269  1.00  0.00     0.015 C 
HETATM    5  C17 UNL     1      -5.386   1.891  -0.460  1.00  0.00     0.181 C 
HETATM    6  C18 UNL     1      -5.853   1.407   0.839  1.00  0.00     0.076 C 
HETATM    7  C19 UNL     1      -5.827  -0.068   1.110  1.00  0.00    -0.023 C 
HETATM    8  C20 UNL     1      -6.814  -0.743   0.194  1.00  0.00     0.049 C 
HETATM    9  C21 UNL     1      -4.586  -0.731   1.421  1.00  0.00     0.162 C 
HETATM   10  O4  UNL     1      -4.952  -2.007   1.951  1.00  0.00    -0.351 OA
HETATM   11  C22 UNL     1      -4.715  -2.955   1.005  1.00  0.00     0.258 C 
HETATM   12  C23 UNL     1      -3.975  -2.313  -0.157  1.00  0.00     0.070 C 
HETATM   13  C24 UNL     1      -3.505  -1.089   0.575  1.00  0.00     0.049 C 
ENDROOT
BRANCH   1  14
HETATM   14  N1  UNL     1      -1.556  -0.805  -0.670  1.00  0.00    -0.395 N 
HETATM   15  C12 UNL     1      -0.407  -0.294  -1.177  1.00  0.00     0.056 C 
ATOM     16  H1  UNL     1      -1.608  -1.823  -0.625  1.00  0.00     0.159 HD
BRANCH  15  17
HETATM   17  C11 UNL     1       0.538   0.463  -0.292  1.00  0.00     0.044 C 
BRANCH  17  18
HETATM   18  C10 UNL     1       1.749   0.946  -1.056  1.00  0.00     0.005 C 
BRANCH  18  19
HETATM   19  C9  UNL     1       2.546  -0.156  -1.679  1.00  0.00     0.000 C 
BRANCH  19  20
HETATM   20  C8  UNL     1       3.080  -1.136  -0.662  1.00  0.00     0.000 C 
BRANCH  20  21
HETATM   21  C7  UNL     1       3.998  -0.497   0.351  1.00  0.00     0.000 C 
BRANCH  21  22
HETATM   22  C6  UNL     1       5.212   0.132  -0.300  1.00  0.00     0.000 C 
BRANCH  22  23
HETATM   23  C5  UNL     1       6.071   0.737   0.807  1.00  0.00     0.000 C 
BRANCH  23  24
HETATM   24  C4  UNL     1       7.300   1.380   0.304  1.00  0.00     0.000 C 
BRANCH  24  25
HETATM   25  C3  UNL     1       8.317   0.584  -0.406  1.00  0.00    -0.000 C 
BRANCH  25  26
HETATM   26  C2  UNL     1       9.053  -0.485   0.303  1.00  0.00    -0.005 C 
HETATM   27  C1  UNL     1       8.266  -1.623   0.840  1.00  0.00     0.005 C 
ENDBRANCH  25  26
ENDBRANCH  24  25
ENDBRANCH  23  24
ENDBRANCH  22  23
ENDBRANCH  21  22
ENDBRANCH  20  21
ENDBRANCH  19  20
ENDBRANCH  18  19
ENDBRANCH  17  18
ENDBRANCH  15  17
ENDBRANCH   1  14
BRANCH   2  28
HETATM   28  O1  UNL     1      -2.771   0.775  -2.453  1.00  0.00    -0.393 OA
ATOM     29  H1  UNL     1      -3.237   1.280  -3.109  1.00  0.00     0.210 HD
ENDBRANCH   2  28
BRANCH   5  30
HETATM   30  O2  UNL     1      -5.950   3.180  -0.651  1.00  0.00    -0.388 OA
ATOM     31  H2  UNL     1      -6.880   3.112  -0.470  1.00  0.00     0.210 HD
ENDBRANCH   5  30
BRANCH  11  32
HETATM   32  O5  UNL     1      -3.855  -3.912   1.600  1.00  0.00    -0.371 OA
ATOM     33  H5  UNL     1      -3.689  -4.574   0.939  1.00  0.00     0.212 HD
ENDBRANCH  11  32
BRANCH   6  34
HETATM   34  O3  UNL     1      -5.418   2.165   1.945  1.00  0.00    -0.362 OA
ATOM     35  H3  UNL     1      -5.721   1.851   2.789  1.00  0.00     0.217 HD
ENDBRANCH   6  34
TORSDOF 15
