REMARK  7 active torsions:
REMARK  status: ('A' for Active; 'I' for Inactive)
REMARK    1  A    between atoms: N1_2  and  C2_4 
REMARK    2  A    between atoms: C2_4  and  N2_6 
REMARK    3  A    between atoms: N2_6  and  N3_8 
REMARK    4  A    between atoms: N3_8  and  C3_10 
REMARK    5  A    between atoms: C5_16  and  N6_17 
REMARK    6  A    between atoms: N6_17  and  C6_19 
REMARK    7  A    between atoms: C6_19  and  C7_20 
ROOT
HETATM    1  C3  UNL     1       1.926  -0.690  -0.657  1.00  0.00     0.712 A 
HETATM    2  N4  UNL     1       2.051  -1.574   0.345  1.00  0.00    -0.185 N 
ATOM      3  H4  UNL     1       2.949  -2.029   0.511  1.00  0.00     0.185 HD
HETATM    4  C4  UNL     1       1.008  -1.861   1.125  1.00  0.00     0.215 A 
HETATM    5  N5  UNL     1      -0.167  -1.249   0.886  1.00  0.00    -0.187 N 
ATOM      6  H5  UNL     1      -0.964  -1.470   1.483  1.00  0.00     0.185 HD
HETATM    7  C5  UNL     1      -0.333  -0.357  -0.108  1.00  0.00     0.693 A 
HETATM    8  N7  UNL     1       0.746  -0.097  -0.870  1.00  0.00    -0.021 N 
ATOM      9  H7  UNL     1       0.661   0.573  -1.634  1.00  0.00     0.203 HD
ENDROOT
BRANCH   1  10
HETATM   10  N3  UNL     1       2.923  -0.420  -1.397  1.00  0.00    -0.129 N 
ATOM     11  H3  UNL     1       2.821   0.252  -2.157  1.00  0.00     0.205 HD
BRANCH  10  12
HETATM   12  N2  UNL     1       4.172  -1.044  -1.175  1.00  0.00    -0.262 N 
ATOM     13  H2  UNL     1       4.343  -1.992  -1.512  1.00  0.00     0.190 HD
BRANCH  12  14
HETATM   14  C2  UNL     1       5.185  -0.336  -0.478  1.00  0.00     0.186 C 
HETATM   15  S1  UNL     1       6.623  -1.059  -0.225  1.00  0.00    -0.040 SA
BRANCH  14  16
HETATM   16  N1  UNL     1       4.968   0.977  -0.001  1.00  0.00    -0.370 N 
HETATM   17  C1  UNL     1       6.030   1.655   0.702  1.00  0.00     0.148 C 
ATOM     18  H1  UNL     1       4.071   1.439  -0.152  1.00  0.00     0.161 HD
ENDBRANCH  14  16
ENDBRANCH  12  14
ENDBRANCH  10  12
ENDBRANCH   1  10
BRANCH   7  19
HETATM   19  N6  UNL     1      -1.479   0.235  -0.334  1.00  0.00    -0.225 N 
ATOM     20  H6  UNL     1      -1.590   0.909  -1.091  1.00  0.00     0.177 HD
BRANCH  19  21
HETATM   21  C6  UNL     1      -2.568  -0.105   0.527  1.00  0.00     0.146 C 
BRANCH  21  22
HETATM   22  C7  UNL     1      -3.909   0.302   0.002  1.00  0.00    -0.035 C 
HETATM   23  C8  UNL     1      -4.269  -0.311  -1.308  1.00  0.00     0.016 C 
HETATM   24  C9  UNL     1      -4.016   1.816  -0.101  1.00  0.00     0.016 C 
HETATM   25  C10 UNL     1      -4.948  -0.140   1.031  1.00  0.00     0.016 C 
ENDBRANCH  21  22
ENDBRANCH  19  21
ENDBRANCH   7  19
TORSDOF 7
