REMARK  3 active torsions:
REMARK  status: ('A' for Active; 'I' for Inactive)
REMARK    1  A    between atoms: C3_3  and  C4_4 
REMARK    2  A    between atoms: C4_4  and  C5_5 
REMARK    3  A    between atoms: C15_17  and  O2_18 
ROOT
HETATM    1  C5  UNL     1       1.831   0.130   0.214  1.00  0.00     0.138 C 
HETATM    2  O1  UNL     1       2.151  -1.235   0.092  1.00  0.00    -0.338 OA
HETATM    3  C6  UNL     1       1.290  -2.241  -0.178  1.00  0.00     0.114 C 
HETATM    4  S1  UNL     1       1.811  -3.775  -0.196  1.00  0.00    -0.058 SA
HETATM    5  C7  UNL     1      -0.124  -1.916  -0.454  1.00  0.00     0.087 C 
HETATM    6  C8  UNL     1      -0.509  -0.757   0.480  1.00  0.00    -0.027 C 
HETATM    7  C9  UNL     1      -0.186  -1.224   1.895  1.00  0.00     0.016 C 
HETATM    8  C10 UNL     1       0.367   0.427   0.193  1.00  0.00     0.024 C 
HETATM    9  C11 UNL     1      -0.033   1.007  -1.121  1.00  0.00     0.009 C 
HETATM   10  C12 UNL     1      -1.491   1.165  -1.343  1.00  0.00     0.012 C 
HETATM   11  C13 UNL     1      -2.345   0.851  -0.142  1.00  0.00    -0.014 C 
HETATM   12  C14 UNL     1      -2.338   1.993   0.858  1.00  0.00     0.018 C 
HETATM   13  C15 UNL     1      -3.792   0.645  -0.536  1.00  0.00     0.126 C 
HETATM   14  C16 UNL     1      -4.015  -0.797  -0.808  1.00  0.00     0.033 C 
HETATM   15  C17 UNL     1      -2.693  -1.439  -0.485  1.00  0.00     0.009 C 
HETATM   16  C18 UNL     1      -1.958  -0.461   0.418  1.00  0.00     0.005 C 
ENDROOT
BRANCH   1  17
HETATM   17  C4  UNL     1       2.607   0.862  -0.847  1.00  0.00     0.059 C 
BRANCH  17  18
HETATM   18  C3  UNL     1       4.049   0.677  -0.626  1.00  0.00    -0.028 C 
HETATM   19  C2  UNL     1       4.597   0.018   0.347  1.00  0.00    -0.035 C 
HETATM   20  C1  UNL     1       6.106  -0.059   0.400  1.00  0.00     0.036 C 
ENDBRANCH  17  18
ENDBRANCH   1  17
BRANCH  13  21
HETATM   21  O2  UNL     1      -4.169   1.477  -1.584  1.00  0.00    -0.395 OA
ATOM     22  H2  UNL     1      -5.077   1.348  -1.831  1.00  0.00     0.210 HD
ENDBRANCH  13  21
TORSDOF 3
