REMARK  15 active torsions:
REMARK  status: ('A' for Active; 'I' for Inactive)
REMARK    1  A    between atoms: C2_2  and  C4_4 
REMARK    2  A    between atoms: C4_4  and  N1_5 
REMARK    3  A    between atoms: C4_4  and  C13_23 
REMARK    4  A    between atoms: N1_5  and  C5_7 
REMARK    5  A    between atoms: C5_7  and  C6_8 
REMARK    6  A    between atoms: C5_7  and  C7_10 
REMARK    7  A    between atoms: C7_10  and  C8_11 
REMARK    8  A    between atoms: C7_10  and  N4_19 
REMARK    9  A    between atoms: C8_11  and  C9_12 
REMARK   10  A    between atoms: N4_19  and  C12_21 
REMARK   11  A    between atoms: C13_23  and  C14_24 
REMARK   12  A    between atoms: C13_23  and  C15_26 
REMARK   13  A    between atoms: C15_26  and  C16_27 
REMARK   14  A    between atoms: C16_27  and  C17_28 
REMARK   15  A    between atoms: C17_28  and  N5_29 
ROOT
HETATM    1  N1  UNL     1      -0.857  -0.113  -1.531  1.00  0.00    -0.404 N 
ATOM      2  H1  UNL     1      -0.712  -1.076  -1.834  1.00  0.00     0.154 HD
ENDROOT
BRANCH   1   3
HETATM    3  C4  UNL     1       0.224   0.737  -1.593  1.00  0.00     0.091 C 
BRANCH   3   4
HETATM    4  C2  UNL     1       1.214   0.237  -2.662  1.00  0.00     0.001 C 
HETATM    5  C1  UNL     1       0.551   0.231  -4.046  1.00  0.00     0.011 C 
HETATM    6  C3  UNL     1       1.624  -1.197  -2.426  1.00  0.00     0.011 C 
ENDBRANCH   3   4
BRANCH   3   7
HETATM    7  C13 UNL     1       0.948   1.176  -0.383  1.00  0.00     0.070 C 
BRANCH   7   8
HETATM    8  C14 UNL     1       0.124   1.693   0.725  1.00  0.00     0.237 C 
HETATM    9  O3  UNL     1      -0.212   2.860   0.819  1.00  0.00    -0.306 OA
ENDBRANCH   7   8
BRANCH   7  10
HETATM   10  C15 UNL     1       1.928   0.216   0.221  1.00  0.00     0.015 C 
BRANCH  10  11
HETATM   11  C16 UNL     1       2.553   0.887   1.467  1.00  0.00     0.020 C 
BRANCH  11  12
HETATM   12  C17 UNL     1       3.534  -0.159   2.013  1.00  0.00     0.122 C 
BRANCH  12  13
HETATM   13  N5  UNL     1       4.165   0.390   3.179  1.00  0.00    -0.367 N 
HETATM   14  C18 UNL     1       5.406   0.721   3.151  1.00  0.00     0.196 C 
HETATM   15  N6  UNL     1       6.140   0.537   1.952  1.00  0.00    -0.067 NA
HETATM   16  N7  UNL     1       6.078   1.270   4.278  1.00  0.00    -0.067 NA
ATOM     17  H5  UNL     1       3.625   0.518   4.035  1.00  0.00     0.161 HD
ENDBRANCH  12  13
ENDBRANCH  11  12
ENDBRANCH  10  11
ENDBRANCH   7  10
ENDBRANCH   3   7
ENDBRANCH   1   3
BRANCH   1  18
HETATM   18  C5  UNL     1      -2.141   0.233  -1.086  1.00  0.00     0.162 C 
BRANCH  18  19
HETATM   19  C6  UNL     1      -2.868   1.274  -1.845  1.00  0.00     0.257 C 
HETATM   20  O1  UNL     1      -2.471   1.868  -2.824  1.00  0.00    -0.305 OA
ENDBRANCH  18  19
BRANCH  18  21
HETATM   21  C7  UNL     1      -2.933  -1.065  -1.023  1.00  0.00     0.118 C 
BRANCH  21  22
HETATM   22  C8  UNL     1      -4.323  -0.980  -0.586  1.00  0.00     0.086 C 
BRANCH  22  23
HETATM   23  C9  UNL     1      -4.564  -0.454   0.782  1.00  0.00     0.027 A 
HETATM   24  C10 UNL     1      -5.862  -0.299   1.300  1.00  0.00     0.114 A 
HETATM   25  N2  UNL     1      -5.779   0.179   2.545  1.00  0.00    -0.360 N 
HETATM   26  C11 UNL     1      -4.472   0.318   2.799  1.00  0.00     0.180 A 
ATOM     27  H2  UNL     1      -6.553   0.394   3.173  1.00  0.00     0.166 HD
HETATM   28  N3  UNL     1      -3.741  -0.062   1.741  1.00  0.00    -0.355 N 
ATOM     29  H3  UNL     1      -2.723  -0.051   1.685  1.00  0.00     0.166 HD
ENDBRANCH  22  23
ENDBRANCH  21  22
BRANCH  21  30
HETATM   30  N4  UNL     1      -2.220  -2.017  -0.185  1.00  0.00    -0.361 N 
ATOM     31  H4  UNL     1      -2.086  -1.802   0.803  1.00  0.00     0.162 HD
BRANCH  30  32
HETATM   32  C12 UNL     1      -1.709  -3.228  -0.697  1.00  0.00     0.348 C 
HETATM   33  O2  UNL     1      -1.875  -3.488  -1.909  1.00  0.00    -0.284 OA
ENDBRANCH  30  32
ENDBRANCH  21  30
ENDBRANCH  18  21
ENDBRANCH   1  18
TORSDOF 15
