REMARK  15 active torsions:
REMARK  status: ('A' for Active; 'I' for Inactive)
REMARK    1  A    between atoms: N3_4  and  C2_6 
REMARK    2  A    between atoms: C2_6  and  C3_7 
REMARK    3  A    between atoms: C3_7  and  N4_8 
REMARK    4  A    between atoms: N4_8  and  C4_9 
REMARK    5  A    between atoms: N4_8  and  C14_26 
REMARK    6  A    between atoms: C4_9  and  C5_10 
REMARK    7  A    between atoms: C5_10  and  C6_11 
REMARK    8  A    between atoms: C6_11  and  C7_12 
REMARK    9  A    between atoms: C7_12  and  C8_13 
REMARK   10  A    between atoms: C14_26  and  C15_27 
REMARK   11  A    between atoms: C15_27  and  N8_28 
REMARK   12  A    between atoms: N8_28  and  C16_31 
REMARK   13  A    between atoms: C16_31  and  C17_32 
REMARK   14  A    between atoms: C17_32  and  N9_33 
REMARK   15  A    between atoms: N9_33  and  C18_35 
ROOT
HETATM    1  N4  UNL     1      -1.357   0.083   0.183  1.00  0.00     0.091 N 
ENDROOT
BRANCH   1   2
HETATM    2  C3  UNL     1      -1.839   1.255  -0.532  1.00  0.00     0.292 C 
BRANCH   2   3
HETATM    3  C2  UNL     1      -1.610   2.565   0.132  1.00  0.00     0.152 C 
BRANCH   3   4
HETATM    4  N3  UNL     1      -2.182   3.566  -0.794  1.00  0.00    -0.365 N 
HETATM    5  C1  UNL     1      -2.311   4.794  -0.520  1.00  0.00     0.197 C 
HETATM    6  N1  UNL     1      -2.879   5.640  -1.503  1.00  0.00    -0.067 NA
HETATM    7  N2  UNL     1      -1.920   5.381   0.709  1.00  0.00    -0.067 NA
ATOM      8  H3  UNL     1      -2.492   3.246  -1.712  1.00  0.00     0.161 HD
ENDBRANCH   3   4
ENDBRANCH   2   3
ENDBRANCH   1   2
BRANCH   1   9
HETATM    9  C4  UNL     1       0.071   0.099   0.192  1.00  0.00     0.272 C 
BRANCH   9  10
HETATM   10  C5  UNL     1       0.815  -0.905   0.947  1.00  0.00     0.030 C 
BRANCH  10  11
HETATM   11  C6  UNL     1       2.320  -0.693   0.733  1.00  0.00     0.008 C 
BRANCH  11  12
HETATM   12  C7  UNL     1       2.746  -0.828  -0.695  1.00  0.00     0.057 C 
BRANCH  12  13
HETATM   13  C8  UNL     1       4.225  -0.645  -0.779  1.00  0.00     0.012 A 
HETATM   14  C9  UNL     1       5.092  -0.400   0.258  1.00  0.00     0.046 A 
HETATM   15  C10 UNL     1       6.370  -0.314  -0.280  1.00  0.00     0.078 A 
HETATM   16  C11 UNL     1       7.607  -0.084   0.316  1.00  0.00     0.260 A 
HETATM   17  C13 UNL     1       6.236  -0.510  -1.634  1.00  0.00     0.122 A 
HETATM   18  O1  UNL     1       7.698   0.088   1.532  1.00  0.00    -0.267 OA
HETATM   19  N5  UNL     1       8.699  -0.054  -0.475  1.00  0.00    -0.319 N 
HETATM   20  C12 UNL     1       8.561  -0.248  -1.815  1.00  0.00     0.184 A 
ATOM     21  H5  UNL     1       9.621   0.113  -0.072  1.00  0.00     0.169 HD
HETATM   22  N6  UNL     1       7.366  -0.468  -2.370  1.00  0.00    -0.338 N 
ATOM     23  H6  UNL     1       7.306  -0.608  -3.379  1.00  0.00     0.168 HD
HETATM   24  N7  UNL     1       4.926  -0.709  -1.911  1.00  0.00    -0.345 N 
ATOM     25  H7  UNL     1       4.537  -0.881  -2.838  1.00  0.00     0.167 HD
ENDBRANCH  12  13
ENDBRANCH  11  12
ENDBRANCH  10  11
ENDBRANCH   9  10
ENDBRANCH   1   9
BRANCH   1  26
HETATM   26  C14 UNL     1      -2.065  -0.114   1.387  1.00  0.00     0.300 C 
BRANCH  26  27
HETATM   27  C15 UNL     1      -2.061  -1.480   1.983  1.00  0.00     0.262 C 
BRANCH  27  28
HETATM   28  N8  UNL     1      -2.635  -2.478   1.099  1.00  0.00    -0.072 N 
ATOM     29  H82 UNL     1      -2.167  -2.474   0.193  1.00  0.00     0.277 HD
ATOM     30  H81 UNL     1      -2.393  -3.420   1.408  1.00  0.00     0.277 HD
BRANCH  28  31
HETATM   31  C16 UNL     1      -4.041  -2.340   0.944  1.00  0.00     0.251 C 
BRANCH  31  32
HETATM   32  C17 UNL     1      -4.671  -3.301  -0.042  1.00  0.00     0.149 C 
BRANCH  32  33
HETATM   33  N9  UNL     1      -6.097  -3.048  -0.100  1.00  0.00    -0.367 N 
ATOM     34  H9  UNL     1      -6.473  -2.311   0.497  1.00  0.00     0.161 HD
BRANCH  33  35
HETATM   35  C18 UNL     1      -7.006  -3.753  -0.928  1.00  0.00     0.348 C 
HETATM   36  O2  UNL     1      -6.517  -4.684  -1.675  1.00  0.00    -0.284 OA
ENDBRANCH  33  35
ENDBRANCH  32  33
ENDBRANCH  31  32
ENDBRANCH  28  31
ENDBRANCH  27  28
ENDBRANCH  26  27
ENDBRANCH   1  26
TORSDOF 15
