REMARK  11 active torsions:
REMARK  status: ('A' for Active; 'I' for Inactive)
REMARK    1  A    between atoms: C5_5  and  C6_6 
REMARK    2  A    between atoms: C6_6  and  N1_7 
REMARK    3  A    between atoms: N1_7  and  C7_9 
REMARK    4  A    between atoms: C12_16  and  N3_17 
REMARK    5  A    between atoms: N3_17  and  C13_19 
REMARK    6  A    between atoms: C13_19  and  C14_20 
REMARK    7  A    between atoms: C14_20  and  O1_21 
REMARK    8  A    between atoms: C15_25  and  N5_26 
REMARK    9  A    between atoms: N5_26  and  C16_28 
REMARK   10  A    between atoms: C16_28  and  C17_29 
REMARK   11  A    between atoms: C20_32  and  C21_33 
ROOT
HETATM    1  C7  UNL     1      -3.105  -0.211   1.335  1.00  0.00     0.130 A 
HETATM    2  N2  UNL     1      -4.291  -0.704   1.718  1.00  0.00    -0.345 N 
ATOM      3  H2  UNL     1      -5.007  -0.083   2.096  1.00  0.00     0.167 HD
HETATM    4  C8  UNL     1      -4.533  -2.028   1.601  1.00  0.00     0.008 A 
HETATM    5  C9  UNL     1      -5.861  -2.531   2.038  1.00  0.00     0.068 C 
HETATM    6  C10 UNL     1      -3.549  -2.859   1.084  1.00  0.00     0.042 A 
HETATM    7  C11 UNL     1      -2.329  -2.373   0.686  1.00  0.00     0.041 A 
HETATM    8  C12 UNL     1      -1.320  -3.159   0.166  1.00  0.00     0.129 A 
HETATM    9  N4  UNL     1      -0.141  -2.644  -0.213  1.00  0.00    -0.176 N 
ATOM     10  H4  UNL     1       0.587  -3.247  -0.595  1.00  0.00     0.186 HD
HETATM   11  C15 UNL     1       0.069  -1.318  -0.083  1.00  0.00     0.680 A 
HETATM   12  N6  UNL     1      -0.916  -0.542   0.427  1.00  0.00    -0.187 N 
ATOM     13  H6  UNL     1      -0.746   0.459   0.522  1.00  0.00     0.184 HD
HETATM   14  C29 UNL     1      -2.106  -1.029   0.814  1.00  0.00     0.106 A 
ENDROOT
BRANCH  11  15
HETATM   15  N5  UNL     1       1.171  -0.765  -0.428  1.00  0.00    -0.222 N 
ATOM     16  H5  UNL     1       1.248   0.243  -0.296  1.00  0.00     0.178 HD
BRANCH  15  17
HETATM   17  C16 UNL     1       2.304  -1.442  -0.983  1.00  0.00     0.176 C 
BRANCH  17  18
HETATM   18  C17 UNL     1       3.492  -0.586  -0.785  1.00  0.00    -0.040 A 
HETATM   19  C18 UNL     1       3.774   0.371  -1.735  1.00  0.00     0.009 A 
HETATM   20  C19 UNL     1       4.886   1.183  -1.568  1.00  0.00     0.013 A 
HETATM   21  C20 UNL     1       5.727   1.070  -0.480  1.00  0.00    -0.026 A 
HETATM   22  C27 UNL     1       5.407   0.093   0.452  1.00  0.00     0.013 A 
HETATM   23  C28 UNL     1       4.310  -0.729   0.316  1.00  0.00     0.009 A 
BRANCH  21  24
HETATM   24  C21 UNL     1       6.888   1.941  -0.334  1.00  0.00    -0.026 A 
HETATM   25  C22 UNL     1       6.901   3.238  -0.800  1.00  0.00     0.012 A 
HETATM   26  C23 UNL     1       8.008   4.061  -0.660  1.00  0.00     0.001 A 
HETATM   27  C24 UNL     1       9.149   3.600  -0.038  1.00  0.00     0.000 A 
HETATM   28  C25 UNL     1       9.145   2.303   0.432  1.00  0.00     0.001 A 
HETATM   29  C26 UNL     1       8.028   1.477   0.288  1.00  0.00     0.012 A 
ENDBRANCH  21  24
ENDBRANCH  17  18
ENDBRANCH  15  17
ENDBRANCH  11  15
BRANCH   8  30
HETATM   30  N3  UNL     1      -1.524  -4.414   0.045  1.00  0.00    -0.373 N 
ATOM     31  H3  UNL     1      -2.418  -4.813   0.331  1.00  0.00     0.161 HD
BRANCH  30  32
HETATM   32  C13 UNL     1      -0.494  -5.269  -0.495  1.00  0.00     0.147 C 
BRANCH  32  33
HETATM   33  C14 UNL     1      -1.032  -6.696  -0.628  1.00  0.00     0.183 C 
BRANCH  33  34
HETATM   34  O1  UNL     1      -1.415  -7.168   0.617  1.00  0.00    -0.399 OA
ATOM     35  H1  UNL     1      -1.749  -8.054   0.534  1.00  0.00     0.209 HD
ENDBRANCH  33  34
ENDBRANCH  32  33
ENDBRANCH  30  32
ENDBRANCH   8  30
BRANCH   1  36
HETATM   36  N1  UNL     1      -2.819   1.026   1.422  1.00  0.00    -0.370 N 
ATOM     37  H1  UNL     1      -1.887   1.288   1.102  1.00  0.00     0.161 HD
BRANCH  36  38
HETATM   38  C6  UNL     1      -3.628   2.093   1.907  1.00  0.00     0.161 C 
BRANCH  38  39
HETATM   39  C5  UNL     1      -4.285   2.818   0.770  1.00  0.00    -0.025 A 
HETATM   40  C4  UNL     1      -3.648   3.918   0.235  1.00  0.00     0.012 A 
HETATM   41  C3  UNL     1      -4.246   4.589  -0.813  1.00  0.00     0.025 A 
HETATM   42  C2  UNL     1      -5.458   4.203  -1.348  1.00  0.00     0.005 A 
HETATM   43  C1  UNL     1      -6.067   4.950  -2.473  1.00  0.00     0.068 C 
HETATM   44  N7  UNL     1      -6.052   3.120  -0.797  1.00  0.00    -0.369 N 
HETATM   45  C30 UNL     1      -5.482   2.445   0.234  1.00  0.00     0.096 A 
ATOM     46  H7  UNL     1      -6.949   2.803  -1.165  1.00  0.00     0.165 HD
ENDBRANCH  38  39
ENDBRANCH  36  38
ENDBRANCH   1  36
TORSDOF 11
