REMARK  4 active torsions:
REMARK  status: ('A' for Active; 'I' for Inactive)
REMARK    1  A    between atoms: S1_2  and  C2_3 
REMARK    2  A    between atoms: C2_3  and  C3_4 
REMARK    3  A    between atoms: C5_7  and  N1_8 
REMARK    4  A    between atoms: N1_8  and  C6_10 
ROOT
HETATM    1  C3  UNL     1       1.642  -0.507  -0.706  1.00  0.00     0.027 A 
HETATM    2  C4  UNL     1       1.138   0.039  -1.857  1.00  0.00     0.079 A 
HETATM    3  S2  UNL     1      -0.462   0.423  -1.404  1.00  0.00    -0.064 SA
HETATM    4  C5  UNL     1      -0.403  -0.126   0.207  1.00  0.00     0.146 A 
HETATM    5  N2  UNL     1       0.835  -0.579   0.329  1.00  0.00    -0.339 N 
ATOM      6  H2  UNL     1       1.157  -0.977   1.211  1.00  0.00     0.168 HD
ENDROOT
BRANCH   4   7
HETATM    7  N1  UNL     1      -1.354  -0.109   1.121  1.00  0.00    -0.349 N 
ATOM      8  H1  UNL     1      -1.214  -0.467   2.066  1.00  0.00     0.163 HD
BRANCH   7   9
HETATM    9  C6  UNL     1      -2.615   0.457   0.680  1.00  0.00     0.102 C 
HETATM   10  C7  UNL     1      -3.106  -0.404  -0.471  1.00  0.00     0.056 C 
HETATM   11  C8  UNL     1      -3.649   0.469   1.750  1.00  0.00     0.056 C 
HETATM   12 CL1  UNL     1      -2.306   2.121   0.066  1.00  0.00    -0.096 Cl
ENDBRANCH   7   9
ENDBRANCH   4   7
BRANCH   1  13
HETATM   13  C2  UNL     1       3.084  -0.995  -0.681  1.00  0.00     0.131 C 
BRANCH  13  14
HETATM   14  S1  UNL     1       4.195   0.321  -0.196  1.00  0.00    -0.168 SA
HETATM   15  C1  UNL     1       3.883   0.801   1.535  1.00  0.00     0.090 C 
ENDBRANCH  13  14
ENDBRANCH   1  13
TORSDOF 4
