REMARK  15 active torsions:
REMARK  status: ('A' for Active; 'I' for Inactive)
REMARK    1  A    between atoms: O1_2  and  C2_3 
REMARK    2  A    between atoms: C2_3  and  C3_5 
REMARK    3  A    between atoms: C3_5  and  C4_6 
REMARK    4  A    between atoms: C4_6  and  O3_7 
REMARK    5  A    between atoms: C4_6  and  C5_9 
REMARK    6  A    between atoms: C7_11  and  O4_12 
REMARK    7  A    between atoms: C10_16  and  O5_17 
REMARK    8  A    between atoms: C11_19  and  C12_20 
REMARK    9  A    between atoms: C13_23  and  C14_24 
REMARK   10  A    between atoms: C14_24  and  C15_25 
REMARK   11  A    between atoms: C16_28  and  C17_29 
REMARK   12  A    between atoms: C17_29  and  O8_30 
REMARK   13  A    between atoms: C17_29  and  O9_32 
REMARK   14  A    between atoms: C19_34  and  O10_35 
REMARK   15  A    between atoms: C21_38  and  O11_39 
ROOT
HETATM    1  C5  UNL     1       3.236   0.133  -0.172  1.00  0.00     0.008 A 
HETATM    2  C6  UNL     1       2.691  -0.451  -1.293  1.00  0.00     0.050 A 
HETATM    3  C7  UNL     1       1.346  -0.360  -1.570  1.00  0.00     0.081 A 
HETATM    4  C8  UNL     1       0.535   0.339  -0.691  1.00  0.00     0.062 A 
HETATM    5  C9  UNL     1       1.035   0.952   0.463  1.00  0.00     0.032 A 
HETATM    6  C10 UNL     1       2.404   0.824   0.687  1.00  0.00     0.087 A 
HETATM    7  C11 UNL     1      -0.064   1.606   1.180  1.00  0.00     0.065 A 
HETATM    8  C13 UNL     1      -1.195   1.420   0.523  1.00  0.00     0.017 A 
HETATM    9  C22 UNL     1      -0.885   0.620  -0.681  1.00  0.00     0.193 A 
HETATM   10  O12 UNL     1      -1.689   0.234  -1.561  1.00  0.00    -0.287 OA
ENDROOT
BRANCH   8  11
HETATM   11  C14 UNL     1      -2.557   1.851   0.800  1.00  0.00     0.104 C 
BRANCH  11  12
HETATM   12  C15 UNL     1      -3.514   0.705   0.864  1.00  0.00     0.047 A 
HETATM   13  N1  UNL     1      -4.330   0.528  -0.185  1.00  0.00    -0.354 N 
HETATM   14  C16 UNL     1      -5.249  -0.485  -0.240  1.00  0.00     0.098 A 
ATOM     15  H1  UNL     1      -4.263   1.173  -0.972  1.00  0.00     0.166 HD
HETATM   16  C19 UNL     1      -5.306  -1.326   0.840  1.00  0.00     0.096 A 
HETATM   17  C20 UNL     1      -4.459  -1.160   1.952  1.00  0.00     0.077 A 
HETATM   18  C21 UNL     1      -3.557  -0.132   1.957  1.00  0.00     0.091 A 
BRANCH  14  19
HETATM   19  C17 UNL     1      -6.088  -0.642  -1.456  1.00  0.00     0.310 C 
BRANCH  19  20
HETATM   20  O8  UNL     1      -6.037  -1.951  -1.889  1.00  0.00    -0.366 OA
ATOM     21  H8  UNL     1      -6.573  -2.051  -2.667  1.00  0.00     0.213 HD
ENDBRANCH  19  20
BRANCH  19  22
HETATM   22  O9  UNL     1      -5.548   0.165  -2.456  1.00  0.00    -0.360 OA
HETATM   23  C18 UNL     1      -6.481   1.154  -2.832  1.00  0.00     0.205 C 
ENDBRANCH  19  22
ENDBRANCH  14  19
BRANCH  16  24
HETATM   24  O10 UNL     1      -6.193  -2.362   0.887  1.00  0.00    -0.358 OA
ATOM     25  H10 UNL     1      -6.233  -2.945   1.636  1.00  0.00     0.217 HD
ENDBRANCH  16  24
BRANCH  18  26
HETATM   26  O11 UNL     1      -2.701   0.061   3.045  1.00  0.00    -0.359 OA
ATOM     27  H11 UNL     1      -2.731  -0.516   3.799  1.00  0.00     0.217 HD
ENDBRANCH  18  26
ENDBRANCH  11  12
ENDBRANCH   8  11
BRANCH   7  28
HETATM   28  C12 UNL     1       0.048   2.363   2.403  1.00  0.00     0.211 C 
HETATM   29  O6  UNL     1      -0.953   2.937   2.965  1.00  0.00    -0.644 OA
HETATM   30  O7  UNL     1       1.235   2.541   3.083  1.00  0.00    -0.644 OA
ENDBRANCH   7  28
BRANCH   6  31
HETATM   31  O5  UNL     1       3.021   1.377   1.786  1.00  0.00    -0.359 OA
ATOM     32  H5  UNL     1       2.449   1.852   2.377  1.00  0.00     0.217 HD
ENDBRANCH   6  31
BRANCH   3  33
HETATM   33  O4  UNL     1       0.839  -0.963  -2.709  1.00  0.00    -0.360 OA
ATOM     34  H4  UNL     1      -0.089  -0.900  -2.900  1.00  0.00     0.217 HD
ENDBRANCH   3  33
BRANCH   1  35
HETATM   35  C4  UNL     1       4.685   0.018   0.064  1.00  0.00     0.163 C 
BRANCH  35  36
HETATM   36  C3  UNL     1       5.319  -0.961  -0.916  1.00  0.00     0.147 C 
BRANCH  36  37
HETATM   37  C2  UNL     1       6.758  -1.170  -0.640  1.00  0.00     0.261 C 
HETATM   38  O2  UNL     1       7.340  -0.601   0.310  1.00  0.00    -0.265 OA
BRANCH  37  39
HETATM   39  O1  UNL     1       7.546  -2.011  -1.421  1.00  0.00    -0.326 OA
HETATM   40  C1  UNL     1       8.933  -2.200  -1.141  1.00  0.00     0.213 C 
ENDBRANCH  37  39
ENDBRANCH  36  37
ENDBRANCH  35  36
BRANCH  35  41
HETATM   41  O3  UNL     1       5.317   1.259  -0.026  1.00  0.00    -0.390 OA
ATOM     42  H3  UNL     1       4.922   1.870   0.585  1.00  0.00     0.210 HD
ENDBRANCH  35  41
ENDBRANCH   1  35
TORSDOF 15
