REMARK  13 active torsions:
REMARK  status: ('A' for Active; 'I' for Inactive)
REMARK    1  A    between atoms: C3_3  and  O1_4 
REMARK    2  A    between atoms: O1_4  and  C4_5 
REMARK    3  A    between atoms: C4_5  and  C5_6 
REMARK    4  A    between atoms: C10_12  and  N2_13 
REMARK    5  A    between atoms: N2_13  and  C11_15 
REMARK    6  A    between atoms: C14_24  and  C15_25 
REMARK    7  A    between atoms: C19_31  and  N7_32 
REMARK    8  A    between atoms: N7_32  and  C20_34 
REMARK    9  A    between atoms: C20_34  and  C21_35 
REMARK   10  A    between atoms: C24_38  and  C25_39 
REMARK   11  A    between atoms: C25_39  and  C26_40 
REMARK   12  A    between atoms: C26_40  and  C27_41 
REMARK   13  A    between atoms: C27_41  and  O2_42 
ROOT
HETATM    1  C1  UNL     1      -9.176   2.731  -1.578  1.00  0.00     0.014 C 
HETATM    2  C2  UNL     1      -8.167   2.109  -1.739  1.00  0.00    -0.091 C 
HETATM    3  C3  UNL     1      -6.943   1.340  -1.943  1.00  0.00     0.260 C 
ENDROOT
BRANCH   3   4
HETATM    4  O1  UNL     1      -6.723   0.424  -0.922  1.00  0.00    -0.379 OA
BRANCH   4   5
HETATM    5  C4  UNL     1      -6.605   1.020   0.315  1.00  0.00     0.177 C 
BRANCH   5   6
HETATM    6  C5  UNL     1      -6.372   0.093   1.448  1.00  0.00     0.060 C 
HETATM    7  C6  UNL     1      -7.502  -0.917   1.610  1.00  0.00     0.280 C 
HETATM    8  N1  UNL     1      -7.497  -1.768   0.463  1.00  0.00     0.084 N 
HETATM    9  C7  UNL     1      -8.653  -2.652   0.501  1.00  0.00     0.309 C 
HETATM   10  C8  UNL     1      -6.309  -2.598   0.558  1.00  0.00     0.274 C 
HETATM   11  C9  UNL     1      -5.050  -1.814   0.502  1.00  0.00     0.056 C 
HETATM   12  C10 UNL     1      -5.074  -0.626   1.484  1.00  0.00     0.092 C 
BRANCH  12  13
HETATM   13  N2  UNL     1      -3.893   0.088   1.387  1.00  0.00    -0.369 N 
ATOM     14  H2  UNL     1      -3.266  -0.454   0.792  1.00  0.00     0.161 HD
BRANCH  13  15
HETATM   15  C11 UNL     1      -3.291   1.092   1.715  1.00  0.00     0.133 A 
HETATM   16  N3  UNL     1      -3.734   2.076   2.490  1.00  0.00    -0.337 N 
HETATM   17  C12 UNL     1      -2.992   3.174   2.815  1.00  0.00     0.183 A 
ATOM     18  H3  UNL     1      -4.681   2.007   2.863  1.00  0.00     0.168 HD
HETATM   19  N4  UNL     1      -1.739   3.313   2.351  1.00  0.00    -0.337 N 
HETATM   20  C13 UNL     1      -1.217   2.372   1.568  1.00  0.00     0.139 A 
ATOM     21  H4  UNL     1      -1.190   4.136   2.598  1.00  0.00     0.168 HD
HETATM   22  N5  UNL     1      -0.011   2.227   0.965  1.00  0.00    -0.326 N 
HETATM   23  C29 UNL     1      -1.969   1.273   1.246  1.00  0.00     0.122 A 
HETATM   24  C14 UNL     1       0.005   1.074   0.281  1.00  0.00     0.118 A 
ATOM     25  H5  UNL     1       0.762   2.890   1.023  1.00  0.00     0.169 HD
HETATM   26  N8  UNL     1      -1.185   0.506   0.458  1.00  0.00    -0.336 N 
ATOM     27  H8  UNL     1      -1.467  -0.387   0.054  1.00  0.00     0.168 HD
BRANCH  24  28
HETATM   28  C15 UNL     1       1.144   0.573  -0.489  1.00  0.00     0.013 A 
HETATM   29  C16 UNL     1       1.074  -0.628  -1.139  1.00  0.00     0.040 A 
HETATM   30  C17 UNL     1       2.174  -1.071  -1.853  1.00  0.00     0.007 A 
HETATM   31  C18 UNL     1       2.062  -2.378  -2.545  1.00  0.00     0.068 C 
HETATM   32  N6  UNL     1       3.313  -0.358  -1.929  1.00  0.00    -0.347 N 
HETATM   33  C19 UNL     1       3.432   0.826  -1.309  1.00  0.00     0.102 A 
ATOM     34  H6  UNL     1       4.099  -0.724  -2.467  1.00  0.00     0.167 HD
HETATM   35  C28 UNL     1       2.320   1.278  -0.585  1.00  0.00     0.063 A 
BRANCH  33  36
HETATM   36  N7  UNL     1       4.464   1.562  -1.321  1.00  0.00    -0.370 N 
ATOM     37  H7  UNL     1       4.402   2.437  -0.800  1.00  0.00     0.161 HD
BRANCH  36  38
HETATM   38  C20 UNL     1       5.698   1.306  -1.979  1.00  0.00     0.186 C 
BRANCH  38  39
HETATM   39  C21 UNL     1       6.798   1.121  -0.984  1.00  0.00     0.071 A 
HETATM   40  C22 UNL     1       6.637   1.194   0.393  1.00  0.00     0.037 A 
HETATM   41  C23 UNL     1       7.871   0.970   0.925  1.00  0.00     0.035 A 
HETATM   42  C24 UNL     1       8.729   0.771  -0.132  1.00  0.00     0.053 A 
HETATM   43  O3  UNL     1       8.044   0.871  -1.232  1.00  0.00    -0.318 OA
BRANCH  42  44
HETATM   44  C25 UNL     1      10.174   0.493  -0.041  1.00  0.00     0.067 C 
BRANCH  44  45
HETATM   45  C26 UNL     1      10.407  -0.987   0.035  1.00  0.00     0.032 C 
BRANCH  45  46
HETATM   46  C27 UNL     1      11.897  -1.283   0.134  1.00  0.00     0.164 C 
BRANCH  46  47
HETATM   47  O2  UNL     1      12.545  -0.787  -0.972  1.00  0.00    -0.401 OA
ATOM     48  H2  UNL     1      13.475  -0.972  -0.910  1.00  0.00     0.209 HD
ENDBRANCH  46  47
ENDBRANCH  45  46
ENDBRANCH  44  45
ENDBRANCH  42  44
ENDBRANCH  38  39
ENDBRANCH  36  38
ENDBRANCH  33  36
ENDBRANCH  24  28
ENDBRANCH  13  15
ENDBRANCH  12  13
ENDBRANCH   5   6
ENDBRANCH   4   5
ENDBRANCH   3   4
TORSDOF 13
