REMARK  12 active torsions:
REMARK  status: ('A' for Active; 'I' for Inactive)
REMARK    1  A    between atoms: C2_2  and  C3_3 
REMARK    2  A    between atoms: C3_3  and  C4_4 
REMARK    3  A    between atoms: C4_4  and  C5_5 
REMARK    4  A    between atoms: C7_10  and  C8_11 
REMARK    5  A    between atoms: C8_11  and  C9_12 
REMARK    6  A    between atoms: C9_12  and  C11_14 
REMARK    7  A    between atoms: C14_20  and  C15_21 
REMARK    8  A    between atoms: C15_21  and  C16_22 
REMARK    9  A    between atoms: C20_29  and  C21_30 
REMARK   10  A    between atoms: C21_30  and  C23_32 
REMARK   11  A    between atoms: C31_47  and  O6_48 
REMARK   12  A    between atoms: C32_50  and  C33_51 
ROOT
HETATM    1  C5  UNL     1      -2.613  -0.658   0.774  1.00  0.00     0.184 C 
HETATM    2  N1  UNL     1      -2.531  -1.736  -0.161  1.00  0.00    -0.338 N 
ATOM      3  H1  UNL     1      -3.354  -1.876  -0.746  1.00  0.00     0.164 HD
HETATM    4  C6  UNL     1      -1.463  -2.633  -0.383  1.00  0.00     0.242 C 
HETATM    5  O1  UNL     1      -1.648  -3.897  -0.157  1.00  0.00    -0.271 OA
HETATM    6  C7  UNL     1      -0.111  -2.300  -0.858  1.00  0.00     0.177 C 
HETATM    7  N2  UNL     1       0.823  -3.347  -0.493  1.00  0.00    -0.346 N 
ATOM      8  H2  UNL     1       0.595  -4.310  -0.740  1.00  0.00     0.163 HD
HETATM    9  C13 UNL     1       2.031  -3.095   0.187  1.00  0.00     0.241 C 
HETATM   10  O2  UNL     1       3.119  -3.686  -0.145  1.00  0.00    -0.271 OA
HETATM   11  C14 UNL     1       2.154  -2.148   1.324  1.00  0.00     0.177 C 
HETATM   12  N3  UNL     1       3.298  -1.318   1.045  1.00  0.00    -0.346 N 
ATOM     13  H3  UNL     1       4.164  -1.819   0.849  1.00  0.00     0.163 HD
HETATM   14  C19 UNL     1       3.389   0.059   1.005  1.00  0.00     0.241 C 
HETATM   15  O3  UNL     1       4.259   0.646   1.739  1.00  0.00    -0.271 OA
HETATM   16  C20 UNL     1       2.558   1.004   0.170  1.00  0.00     0.180 C 
HETATM   17  N4  UNL     1       2.149   2.139   0.967  1.00  0.00    -0.346 N 
ATOM     18  H4  UNL     1       2.838   2.447   1.653  1.00  0.00     0.163 HD
HETATM   19  C25 UNL     1       0.965   2.885   0.953  1.00  0.00     0.241 C 
HETATM   20  O4  UNL     1       0.345   2.898   2.092  1.00  0.00    -0.271 OA
HETATM   21  C26 UNL     1       0.334   3.641  -0.126  1.00  0.00     0.187 C 
HETATM   22  C27 UNL     1       1.323   4.706  -0.680  1.00  0.00     0.138 C 
HETATM   23  C28 UNL     1       0.551   5.655  -1.517  1.00  0.00     0.220 C 
HETATM   24  O5  UNL     1       0.551   6.867  -1.200  1.00  0.00    -0.274 OA
HETATM   25  N5  UNL     1      -0.225   5.379  -2.682  1.00  0.00    -0.359 N 
ATOM     26  H5  UNL     1      -0.514   6.202  -3.210  1.00  0.00     0.162 HD
HETATM   27  C29 UNL     1      -0.667   4.114  -3.233  1.00  0.00     0.142 C 
HETATM   28  C30 UNL     1       0.142   3.038  -2.588  1.00  0.00     0.145 C 
HETATM   29  N6  UNL     1      -0.338   2.935  -1.170  1.00  0.00    -0.345 N 
HETATM   30  C31 UNL     1      -1.444   2.108  -1.185  1.00  0.00     0.162 C 
HETATM   31  C32 UNL     1      -2.342   1.587  -0.120  1.00  0.00     0.061 C 
HETATM   32  N7  UNL     1      -1.776   0.474   0.559  1.00  0.00    -0.368 N 
ATOM     33  H7  UNL     1      -0.808   0.486   0.880  1.00  0.00     0.161 HD
ENDROOT
BRANCH   6  34
HETATM   34  C8  UNL     1       0.024  -1.848  -2.250  1.00  0.00     0.039 C 
BRANCH  34  35
HETATM   35  C9  UNL     1      -0.382  -2.694  -3.388  1.00  0.00    -0.017 C 
HETATM   36  C10 UNL     1      -0.028  -1.921  -4.714  1.00  0.00     0.010 C 
BRANCH  35  37
HETATM   37  C11 UNL     1      -1.871  -2.916  -3.566  1.00  0.00    -0.000 C 
HETATM   38  C12 UNL     1      -2.099  -3.808  -4.800  1.00  0.00     0.005 C 
ENDBRANCH  35  37
ENDBRANCH  34  35
ENDBRANCH   6  34
BRANCH   1  39
HETATM   39  C4  UNL     1      -2.494  -1.153   2.232  1.00  0.00     0.047 C 
BRANCH  39  40
HETATM   40  C3  UNL     1      -3.631  -2.104   2.465  1.00  0.00     0.003 C 
BRANCH  40  41
HETATM   41  C2  UNL     1      -3.654  -2.673   3.845  1.00  0.00    -0.004 C 
HETATM   42  C1  UNL     1      -3.786  -1.596   4.902  1.00  0.00     0.005 C 
ENDBRANCH  40  41
ENDBRANCH  39  40
ENDBRANCH   1  39
BRANCH  11  43
HETATM   43  C15 UNL     1       2.365  -3.010   2.554  1.00  0.00     0.038 C 
BRANCH  43  44
HETATM   44  C16 UNL     1       2.511  -2.179   3.805  1.00  0.00    -0.020 C 
HETATM   45  C17 UNL     1       1.216  -1.373   3.955  1.00  0.00     0.009 C 
HETATM   46  C18 UNL     1       2.588  -3.052   5.039  1.00  0.00     0.009 C 
ENDBRANCH  43  44
ENDBRANCH  11  43
BRANCH  31  47
HETATM   47  C33 UNL     1      -3.030   2.635   0.662  1.00  0.00     0.031 C 
HETATM   48  C34 UNL     1      -3.966   2.188   1.747  1.00  0.00     0.016 C 
HETATM   49  C35 UNL     1      -3.898   3.538  -0.239  1.00  0.00     0.016 C 
ENDBRANCH  31  47
BRANCH  30  50
HETATM   50  O6  UNL     1      -1.770   1.698  -2.385  1.00  0.00    -0.345 OA
ATOM     51  H6  UNL     1      -2.531   1.129  -2.395  1.00  0.00     0.219 HD
ENDBRANCH  30  50
BRANCH  16  52
HETATM   52  C21 UNL     1       3.535   1.443  -0.932  1.00  0.00     0.013 C 
HETATM   53  C22 UNL     1       4.744   2.133  -0.384  1.00  0.00     0.012 C 
BRANCH  52  54
HETATM   54  C23 UNL     1       3.934   0.209  -1.722  1.00  0.00     0.002 C 
HETATM   55  C24 UNL     1       4.901   0.703  -2.797  1.00  0.00     0.005 C 
ENDBRANCH  52  54
ENDBRANCH  16  52
TORSDOF 12
