REMARK  8 active torsions:
REMARK  status: ('A' for Active; 'I' for Inactive)
REMARK    1  A    between atoms: C3_3  and  C4_4 
REMARK    2  A    between atoms: C4_4  and  C5_5 
REMARK    3  A    between atoms: C5_5  and  C6_6 
REMARK    4  A    between atoms: C6_6  and  C7_8 
REMARK    5  A    between atoms: C9_10  and  O2_11 
REMARK    6  A    between atoms: C18_21  and  O3_22 
REMARK    7  A    between atoms: O3_22  and  C19_23 
REMARK    8  A    between atoms: C19_23  and  C20_25 
ROOT
HETATM    1  C7  UNL     1      -0.427   1.110   0.403  1.00  0.00     0.062 A 
HETATM    2  C8  UNL     1      -0.729   0.654  -0.977  1.00  0.00     0.029 C 
HETATM    3  C9  UNL     1      -0.301  -0.634  -1.501  1.00  0.00     0.059 C 
HETATM    4  C10 UNL     1      -0.269  -1.886  -0.759  1.00  0.00     0.017 C 
HETATM    5  C11 UNL     1       0.580  -2.204   0.358  1.00  0.00     0.041 C 
HETATM    6  C12 UNL     1      -0.154  -2.168   1.722  1.00  0.00     0.017 C 
HETATM    7  C13 UNL     1      -0.228  -0.780   2.278  1.00  0.00     0.007 A 
HETATM    8  C14 UNL     1      -0.954   0.255   1.545  1.00  0.00    -0.011 A 
HETATM    9  C15 UNL     1      -2.378  -0.009   1.447  1.00  0.00     0.018 C 
HETATM   10  C16 UNL     1       0.282   0.105   1.108  1.00  0.00    -0.005 A 
HETATM   11  C17 UNL     1       1.673  -0.093   1.141  1.00  0.00     0.045 C 
HETATM   12  C18 UNL     1       1.887  -1.483   0.564  1.00  0.00     0.140 C 
ENDROOT
BRANCH   1  13
HETATM   13  C6  UNL     1      -0.214   2.545   0.682  1.00  0.00     0.170 C 
HETATM   14  O1  UNL     1       0.939   2.837   1.203  1.00  0.00    -0.291 OA
BRANCH  13  15
HETATM   15  C5  UNL     1      -1.110   3.668   0.455  1.00  0.00     0.106 C 
BRANCH  15  16
HETATM   16  C4  UNL     1      -2.283   3.611  -0.060  1.00  0.00    -0.125 C 
BRANCH  16  17
HETATM   17  C3  UNL     1      -3.541   3.762  -0.584  1.00  0.00     0.051 C 
HETATM   18  C2  UNL     1      -4.250   2.718  -1.086  1.00  0.00    -0.023 C 
HETATM   19  C1  UNL     1      -5.590   2.979  -1.624  1.00  0.00     0.036 C 
ENDBRANCH  16  17
ENDBRANCH  15  16
ENDBRANCH  13  15
ENDBRANCH   1  13
BRANCH   3  20
HETATM   20  O2  UNL     1       0.766  -0.527  -2.447  1.00  0.00    -0.361 OA
ATOM     21  H2  UNL     1       1.045  -1.368  -2.789  1.00  0.00     0.217 HD
ENDBRANCH   3  20
BRANCH  12  22
HETATM   22  O3  UNL     1       2.741  -1.507  -0.533  1.00  0.00    -0.315 OA
BRANCH  22  23
HETATM   23  C19 UNL     1       3.900  -2.234  -0.568  1.00  0.00     0.258 C 
HETATM   24  O4  UNL     1       4.211  -2.932   0.423  1.00  0.00    -0.265 OA
BRANCH  23  25
HETATM   25  C20 UNL     1       4.819  -2.223  -1.757  1.00  0.00     0.106 C 
HETATM   26  C21 UNL     1       5.965  -3.156  -1.568  1.00  0.00     0.015 C 
ENDBRANCH  23  25
ENDBRANCH  22  23
ENDBRANCH  12  22
TORSDOF 8
