REMARK  3 active torsions:
REMARK  status: ('A' for Active; 'I' for Inactive)
REMARK    1  A    between atoms: C2_3  and  N3_6 
REMARK    2  A    between atoms: N3_6  and  C4_7 
REMARK    3  A    between atoms: C5_10  and  N5_11 
ROOT
HETATM    1  N1  UNL     1       3.329   1.008   2.671  1.00  0.00    -0.193 NA
HETATM    2  C1  UNL     1       3.031   0.876   1.566  1.00  0.00     0.114 C 
HETATM    3  C2  UNL     1       2.627   0.715   0.155  1.00  0.00     0.376 C 
HETATM    4  C3  UNL     1       3.821   0.153  -0.576  1.00  0.00     0.114 C 
HETATM    5  N2  UNL     1       4.732  -0.294  -1.126  1.00  0.00    -0.193 NA
ENDROOT
BRANCH   3   6
HETATM    6  N3  UNL     1       1.537  -0.026  -0.044  1.00  0.00    -0.395 NA
BRANCH   6   7
HETATM    7  C4  UNL     1       0.370  -0.363  -0.145  1.00  0.00     0.205 A 
HETATM    8  N4  UNL     1       0.067  -1.678  -0.474  1.00  0.00    -0.164 N 
HETATM    9  C5  UNL     1      -1.186  -2.110  -0.600  1.00  0.00     0.679 A 
ATOM     10  H4  UNL     1       0.832  -2.336  -0.624  1.00  0.00     0.187 HD
HETATM   11  N6  UNL     1      -2.234  -1.289  -0.415  1.00  0.00    -0.176 N 
HETATM   12  C6  UNL     1      -2.047  -0.000  -0.095  1.00  0.00     0.138 A 
ATOM     13  H6  UNL     1      -3.182  -1.650  -0.519  1.00  0.00     0.186 HD
HETATM   14  N7  UNL     1      -3.114   0.801   0.085  1.00  0.00    -0.337 N 
HETATM   15  C9  UNL     1      -0.745   0.445   0.035  1.00  0.00     0.082 A 
HETATM   16  C7  UNL     1      -2.878   2.093   0.407  1.00  0.00     0.181 A 
ATOM     17  H7  UNL     1      -4.065   0.447  -0.018  1.00  0.00     0.168 HD
HETATM   18  N8  UNL     1      -1.653   2.570   0.544  1.00  0.00    -0.361 N 
HETATM   19  C8  UNL     1      -0.563   1.769   0.364  1.00  0.00     0.109 A 
ATOM     20  H8  UNL     1      -1.520   3.551   0.788  1.00  0.00     0.166 HD
BRANCH   9  21
HETATM   21  N5  UNL     1      -1.421  -3.350  -0.909  1.00  0.00    -0.234 N 
ATOM     22  H52 UNL     1      -0.626  -3.973  -1.049  1.00  0.00     0.174 HD
ATOM     23  H51 UNL     1      -2.381  -3.681  -1.006  1.00  0.00     0.174 HD
ENDBRANCH   9  21
ENDBRANCH   6   7
ENDBRANCH   3   6
TORSDOF 3
