REMARK  2 active torsions:
REMARK  status: ('A' for Active; 'I' for Inactive)
REMARK    1  A    between atoms: C3_6  and  C4_7 
REMARK    2  A    between atoms: C8_18  and  N6_19 
ROOT
HETATM    1  N1  UNL     1      -4.132  -2.961  -0.010  1.00  0.00    -0.188 NA
HETATM    2  C1  UNL     1      -3.419  -2.048  -0.002  1.00  0.00     0.137 C 
HETATM    3  C2  UNL     1      -2.520  -0.915   0.029  1.00  0.00     0.204 A 
HETATM    4  N2  UNL     1      -1.174  -1.107   0.097  1.00  0.00    -0.317 N 
ATOM      5  H2  UNL     1      -0.807  -2.058   0.126  1.00  0.00     0.169 HD
HETATM    6  C3  UNL     1      -0.319  -0.071   0.127  1.00  0.00     0.151 A 
HETATM    7  N5  UNL     1      -0.860   1.167   0.087  1.00  0.00    -0.174 N 
ATOM      8  H5  UNL     1      -0.241   1.977   0.108  1.00  0.00     0.186 HD
HETATM    9  C8  UNL     1      -2.189   1.365   0.020  1.00  0.00     0.679 A 
HETATM   10  N7  UNL     1      -3.041   0.329  -0.010  1.00  0.00    -0.167 N 
ATOM     11  H7  UNL     1      -4.049   0.477  -0.061  1.00  0.00     0.186 HD
ENDROOT
BRANCH   6  12
HETATM   12  C4  UNL     1       1.129  -0.253   0.200  1.00  0.00     0.095 A 
HETATM   13  C5  UNL     1       1.687  -1.495   0.241  1.00  0.00     0.121 A 
HETATM   14  N3  UNL     1       3.019  -1.667   0.307  1.00  0.00    -0.368 N 
HETATM   15  C6  UNL     1       3.822  -0.584   0.334  1.00  0.00     0.162 A 
ATOM     16  H3  UNL     1       3.417  -2.606   0.336  1.00  0.00     0.164 HD
HETATM   17  C7  UNL     1       3.289   0.687   0.294  1.00  0.00     0.261 A 
HETATM   18  O1  UNL     1       4.059   1.694   0.320  1.00  0.00    -0.267 OA
HETATM   19  N4  UNL     1       1.956   0.808   0.228  1.00  0.00    -0.318 N 
ATOM     20  H4  UNL     1       1.551   1.744   0.198  1.00  0.00     0.169 HD
ENDBRANCH   6  12
BRANCH   9  21
HETATM   21  N6  UNL     1      -2.687   2.552  -0.018  1.00  0.00    -0.234 N 
ATOM     22  H62 UNL     1      -2.039   3.340   0.005  1.00  0.00     0.174 HD
ATOM     23  H61 UNL     1      -3.695   2.702  -0.069  1.00  0.00     0.174 HD
ENDBRANCH   9  21
TORSDOF 2
