REMARK  7 active torsions:
REMARK  status: ('A' for Active; 'I' for Inactive)
REMARK    1  A    between atoms: C3_3  and  O1_4 
REMARK    2  A    between atoms: O1_4  and  C4_5 
REMARK    3  A    between atoms: C7_8  and  N1_9 
REMARK    4  A    between atoms: N2_11  and  C9_12 
REMARK    5  A    between atoms: C16_19  and  C17_20 
REMARK    6  A    between atoms: C16_19  and  N4_23 
REMARK    7  A    between atoms: C21_27  and  C22_28 
ROOT
HETATM    1  C1  UNL     1       8.427   3.993  -0.173  1.00  0.00     0.014 C 
HETATM    2  C2  UNL     1       7.685   3.166   0.263  1.00  0.00    -0.091 C 
HETATM    3  C3  UNL     1       6.803   2.146   0.791  1.00  0.00     0.260 C 
ENDROOT
BRANCH   3   4
HETATM    4  O1  UNL     1       5.485   2.308   0.341  1.00  0.00    -0.374 OA
BRANCH   4   5
HETATM    5  C4  UNL     1       4.648   1.328   0.849  1.00  0.00     0.122 C 
HETATM    6  C5  UNL     1       3.599   1.982   1.695  1.00  0.00     0.034 C 
HETATM    7  C6  UNL     1       2.390   1.039   1.745  1.00  0.00     0.028 C 
HETATM    8  C7  UNL     1       1.681   1.079   0.400  1.00  0.00     0.089 C 
HETATM    9  C26 UNL     1       2.692   0.869  -0.681  1.00  0.00     0.028 C 
HETATM   10  C27 UNL     1       4.049   0.460  -0.213  1.00  0.00     0.034 C 
BRANCH   8  11
HETATM   11  N1  UNL     1       0.567   0.177   0.353  1.00  0.00    -0.319 N 
HETATM   12  C8  UNL     1       0.824  -1.240   0.442  1.00  0.00     0.401 C 
HETATM   13  N2  UNL     1      -0.222  -2.024  -0.189  1.00  0.00     0.118 N 
HETATM   14  C15 UNL     1      -1.039  -1.272  -1.075  1.00  0.00     0.317 C 
HETATM   15  C16 UNL     1      -1.813  -0.193  -0.259  1.00  0.00     0.151 C 
HETATM   16  C25 UNL     1      -0.743   0.716   0.219  1.00  0.00     0.252 C 
HETATM   17  O2  UNL     1      -0.888   1.915   0.515  1.00  0.00    -0.270 OA
BRANCH  13  18
HETATM   18  C9  UNL     1       0.307  -3.240  -0.736  1.00  0.00     0.158 C 
HETATM   19  C10 UNL     1       1.330  -2.989  -1.841  1.00  0.00     0.049 C 
HETATM   20  C11 UNL     1       1.102  -3.920   0.388  1.00  0.00     0.041 C 
HETATM   21  C12 UNL     1       0.716  -5.377   0.350  1.00  0.00     0.003 C 
HETATM   22  C13 UNL     1      -0.730  -5.325  -0.089  1.00  0.00     0.003 C 
HETATM   23  C14 UNL     1      -0.668  -4.256  -1.184  1.00  0.00     0.041 C 
ENDBRANCH  13  18
BRANCH  15  24
HETATM   24  C17 UNL     1      -2.438  -0.929   0.902  1.00  0.00     0.166 C 
HETATM   25  C18 UNL     1      -3.361  -1.970   0.439  1.00  0.00     0.062 C 
HETATM   26  N3  UNL     1      -4.103  -2.780   0.069  1.00  0.00    -0.197 NA
ENDBRANCH  15  24
BRANCH  15  27
HETATM   27  N4  UNL     1      -2.774   0.410  -1.087  1.00  0.00    -0.355 N 
HETATM   28  C19 UNL     1      -3.681   1.256  -0.912  1.00  0.00     0.118 A 
HETATM   29  C20 UNL     1      -4.060   1.920   0.229  1.00  0.00     0.076 A 
HETATM   30  N6  UNL     1      -4.535   1.717  -1.897  1.00  0.00    -0.285 N 
HETATM   31  C21 UNL     1      -5.113   2.754  -0.075  1.00  0.00     0.033 A 
HETATM   32  N5  UNL     1      -5.371   2.596  -1.391  1.00  0.00    -0.303 N 
ATOM     33  H5  UNL     1      -6.101   3.083  -1.911  1.00  0.00     0.186 HD
ATOM     34  H6  UNL     1      -4.519   1.419  -2.872  1.00  0.00     0.188 HD
ATOM     35  H4  UNL     1      -2.721   0.084  -2.052  1.00  0.00     0.162 HD
BRANCH  31  36
HETATM   36  C22 UNL     1      -5.801   3.639   0.895  1.00  0.00     0.037 A 
HETATM   37  C23 UNL     1      -6.446   4.896   0.443  1.00  0.00     0.011 A 
HETATM   38  C24 UNL     1      -7.289   3.671   0.749  1.00  0.00     0.011 A 
ENDBRANCH  31  36
ENDBRANCH  15  27
ENDBRANCH   8  11
ENDBRANCH   4   5
ENDBRANCH   3   4
TORSDOF 7
