REMARK  3 active torsions:
REMARK  status: ('A' for Active; 'I' for Inactive)
REMARK    1  A    between atoms: N1_2  and  C2_4 
REMARK    2  A    between atoms: C17_23  and  C18_24 
REMARK    3  A    between atoms: C18_24  and  N4_25 
ROOT
HETATM    1  C2  UNL     1      -0.563   3.158   0.062  1.00  0.00     0.101 A 
HETATM    2  C3  UNL     1       0.176   1.997   0.210  1.00  0.00     0.061 A 
HETATM    3  C4  UNL     1      -0.485   0.800   0.221  1.00  0.00    -0.007 A 
HETATM    4  C5  UNL     1      -1.890   0.777   0.084  1.00  0.00     0.004 A 
HETATM    5  C6  UNL     1      -2.598   1.936  -0.058  1.00  0.00     0.102 A 
HETATM    6  N2  UNL     1      -1.917   3.103  -0.067  1.00  0.00    -0.352 N 
ATOM      7  H2  UNL     1      -2.436   3.974  -0.174  1.00  0.00     0.166 HD
HETATM    8  C7  UNL     1      -2.714  -0.399   0.095  1.00  0.00     0.010 A 
HETATM    9  C8  UNL     1      -3.860  -0.217  -0.626  1.00  0.00     0.017 A 
HETATM   10  C9  UNL     1      -4.776  -1.264  -0.655  1.00  0.00     0.024 A 
HETATM   11  C10 UNL     1      -4.511  -2.452   0.036  1.00  0.00     0.047 A 
HETATM   12  C11 UNL     1      -5.459  -3.526   0.005  1.00  0.00     0.099 C 
HETATM   13  N3  UNL     1      -6.212  -4.402  -0.016  1.00  0.00    -0.191 NA
HETATM   14  C12 UNL     1      -3.323  -2.600   0.762  1.00  0.00     0.061 A 
HETATM   15  C13 UNL     1      -2.425  -1.567   0.787  1.00  0.00     0.088 A 
HETATM   16  O1  UNL     1      -1.252  -1.850   1.553  1.00  0.00    -0.309 OA
HETATM   17  C14 UNL     1       0.043  -1.509   1.041  1.00  0.00     0.087 A 
HETATM   18  C15 UNL     1       0.991  -2.468   1.199  1.00  0.00     0.039 A 
HETATM   19  C16 UNL     1       2.289  -2.238   0.725  1.00  0.00     0.011 A 
HETATM   20  C17 UNL     1       2.602  -1.036   0.097  1.00  0.00    -0.032 A 
HETATM   21  C20 UNL     1       1.655  -0.046  -0.075  1.00  0.00     0.024 A 
HETATM   22  C21 UNL     1       0.409  -0.323   0.408  1.00  0.00     0.010 A 
ENDROOT
BRANCH   1  23
HETATM   23  N1  UNL     1       0.096   4.248   0.056  1.00  0.00    -0.381 N 
HETATM   24  C1  UNL     1      -0.427   5.565  -0.081  1.00  0.00     0.147 C 
ATOM     25  H1  UNL     1       1.108   4.169   0.161  1.00  0.00     0.160 HD
ENDBRANCH   1  23
BRANCH  20  26
HETATM   26  C18 UNL     1       3.994  -0.846  -0.387  1.00  0.00     0.270 C 
BRANCH  26  27
HETATM   27  N4  UNL     1       4.825  -1.986  -0.106  1.00  0.00    -0.075 N 
HETATM   28  C19 UNL     1       6.162  -1.705  -0.616  1.00  0.00     0.267 C 
ATOM     29  H42 UNL     1       4.825  -2.241   0.882  1.00  0.00     0.277 HD
ATOM     30  H41 UNL     1       4.438  -2.856  -0.471  1.00  0.00     0.277 HD
ENDBRANCH  26  27
ENDBRANCH  20  26
TORSDOF 3
