REMARK  9 active torsions:
REMARK  status: ('A' for Active; 'I' for Inactive)
REMARK    1  A    between atoms: N1_1  and  C1_4 
REMARK    2  A    between atoms: C5_17  and  O1_18 
REMARK    3  A    between atoms: C6_20  and  C7_21 
REMARK    4  A    between atoms: C7_21  and  N6_22 
REMARK    5  A    between atoms: N6_22  and  C8_25 
REMARK    6  A    between atoms: C8_25  and  O2_26 
REMARK    7  A    between atoms: O2_26  and  C9_27 
REMARK    8  A    between atoms: C9_27  and  C10_28 
REMARK    9  A    between atoms: C10_28  and  N7_29 
ROOT
HETATM    1  C1  UNL     1      -5.220  -0.477  -1.318  1.00  0.00     0.679 A 
HETATM    2  N2  UNL     1      -4.243  -1.390  -1.230  1.00  0.00    -0.176 N 
ATOM      3  H2  UNL     1      -4.323  -2.251  -1.771  1.00  0.00     0.186 HD
HETATM    4  C2  UNL     1      -3.158  -1.209  -0.450  1.00  0.00     0.129 A 
HETATM    5  N3  UNL     1      -2.280  -2.140  -0.434  1.00  0.00    -0.384 N 
ATOM      6  H31 UNL     1      -1.459  -2.003   0.156  1.00  0.00     0.157 HD
ATOM      7  H32 UNL     1      -2.407  -2.983  -0.993  1.00  0.00     0.157 HD
HETATM    8  C3  UNL     1      -2.985  -0.057   0.314  1.00  0.00     0.061 A 
HETATM    9  C4  UNL     1      -4.008   0.868   0.204  1.00  0.00     0.133 A 
HETATM   10  N4  UNL     1      -5.077   0.654  -0.585  1.00  0.00    -0.176 N 
ATOM     11  H4  UNL     1      -5.804   1.367  -0.633  1.00  0.00     0.186 HD
HETATM   12  N5  UNL     1      -3.799   1.909   0.929  1.00  0.00    -0.345 N 
ATOM     13  H5  UNL     1      -4.418   2.716   1.004  1.00  0.00     0.164 HD
HETATM   14  C5  UNL     1      -2.551   1.747   1.614  1.00  0.00     0.252 A 
HETATM   15  C6  UNL     1      -2.079   0.399   1.153  1.00  0.00     0.011 A 
ENDROOT
BRANCH  15  16
HETATM   16  C7  UNL     1      -0.846  -0.285   1.568  1.00  0.00     0.274 C 
BRANCH  16  17
HETATM   17  N6  UNL     1       0.361   0.459   1.247  1.00  0.00    -0.051 N 
ATOM     18  H62 UNL     1       0.356   1.390   1.664  1.00  0.00     0.280 HD
ATOM     19  H61 UNL     1       1.179   0.083   1.727  1.00  0.00     0.280 HD
BRANCH  17  20
HETATM   20  C8  UNL     1       0.553   0.511  -0.188  1.00  0.00     0.399 C 
BRANCH  20  21
HETATM   21  O2  UNL     1       1.677   1.193  -0.562  1.00  0.00    -0.363 OA
BRANCH  21  22
HETATM   22  C9  UNL     1       2.871   0.721  -0.099  1.00  0.00     0.189 C 
BRANCH  22  23
HETATM   23  C10 UNL     1       3.208  -0.689  -0.509  1.00  0.00     0.148 C 
BRANCH  23  24
HETATM   24  N7  UNL     1       4.493  -1.066   0.041  1.00  0.00    -0.365 N 
HETATM   25  C11 UNL     1       5.610  -0.663  -0.511  1.00  0.00     0.197 C 
HETATM   26  N8  UNL     1       6.816  -1.081   0.096  1.00  0.00    -0.067 NA
HETATM   27  N9  UNL     1       5.576   0.156  -1.664  1.00  0.00    -0.067 NA
ATOM     28  H7  UNL     1       4.529  -1.656   0.873  1.00  0.00     0.161 HD
ENDBRANCH  23  24
ENDBRANCH  22  23
ENDBRANCH  21  22
ENDBRANCH  20  21
ENDBRANCH  17  20
ENDBRANCH  16  17
ENDBRANCH  15  16
BRANCH  14  29
HETATM   29  O1  UNL     1      -1.717   2.775   1.192  1.00  0.00    -0.373 OA
ATOM     30  H1  UNL     1      -0.890   2.668   1.646  1.00  0.00     0.212 HD
ENDBRANCH  14  29
BRANCH   1  31
HETATM   31  N1  UNL     1      -6.256  -0.658  -2.065  1.00  0.00    -0.234 N 
ATOM     32  H12 UNL     1      -6.364  -1.509  -2.617  1.00  0.00     0.174 HD
ATOM     33  H11 UNL     1      -7.000   0.037  -2.132  1.00  0.00     0.174 HD
ENDBRANCH   1  31
TORSDOF 9
