REMARK  16 active torsions:
REMARK  status: ('A' for Active; 'I' for Inactive)
REMARK    1  A    between atoms: C2_2  and  C3_3 
REMARK    2  A    between atoms: C2_2  and  O4_12 
REMARK    3  A    between atoms: C3_3  and  C4_4 
REMARK    4  A    between atoms: C4_4  and  O2_6 
REMARK    5  A    between atoms: O2_6  and  C5_7 
REMARK    6  A    between atoms: C5_7  and  C6_9 
REMARK    7  A    between atoms: O4_12  and  C9_13 
REMARK    8  A    between atoms: C9_13  and  C10_14 
REMARK    9  A    between atoms: C21_25  and  C22_26 
REMARK   10  A    between atoms: C22_26  and  C24_28 
REMARK   11  A    between atoms: C24_28  and  C25_29 
REMARK   12  A    between atoms: C25_29  and  O6_31 
REMARK   13  A    between atoms: C27_33  and  C28_34 
REMARK   14  A    between atoms: C27_33  and  C29_37 
REMARK   15  A    between atoms: C28_34  and  O7_35 
REMARK   16  A    between atoms: C29_37  and  C30_38 
ROOT
HETATM    1  C10 UNL     1       1.156   1.847   0.014  1.00  0.00    -0.018 C 
HETATM    2  C11 UNL     1       2.055   2.656  -0.858  1.00  0.00     0.018 C 
HETATM    3  C12 UNL     1       0.888   2.599   1.350  1.00  0.00     0.012 C 
HETATM    4  C13 UNL     1      -0.028   3.663   1.022  1.00  0.00     0.006 C 
HETATM    5  C14 UNL     1      -1.448   3.162   0.635  1.00  0.00    -0.009 C 
HETATM    6  C15 UNL     1      -2.047   4.528   0.367  1.00  0.00     0.011 C 
HETATM    7  C16 UNL     1      -1.362   2.221  -0.534  1.00  0.00    -0.026 C 
HETATM    8  C17 UNL     1      -1.255   3.179  -1.677  1.00  0.00     0.017 C 
HETATM    9  C18 UNL     1      -0.124   1.382  -0.457  1.00  0.00     0.005 C 
HETATM   10  C19 UNL     1       0.048   0.660  -1.763  1.00  0.00     0.007 C 
HETATM   11  C20 UNL     1      -0.933  -0.480  -1.632  1.00  0.00     0.006 C 
HETATM   12  C21 UNL     1      -2.303  -0.089  -1.224  1.00  0.00     0.001 C 
HETATM   13  C27 UNL     1      -2.594   1.257  -0.671  1.00  0.00    -0.005 C 
ENDROOT
BRANCH   1  14
HETATM   14  C9  UNL     1       1.992   0.668   0.536  1.00  0.00     0.184 C 
BRANCH  14  15
HETATM   15  O4  UNL     1       2.531  -0.143  -0.411  1.00  0.00    -0.355 OA
BRANCH  15  16
HETATM   16  C2  UNL     1       3.319  -1.272  -0.319  1.00  0.00     0.046 C 
HETATM   17  C1  UNL     1       2.936  -2.420  -0.348  1.00  0.00     0.046 C 
BRANCH  16  18
HETATM   18  C3  UNL     1       4.787  -0.942  -0.174  1.00  0.00     0.175 C 
BRANCH  18  19
HETATM   19  C4  UNL     1       5.664  -2.101  -0.126  1.00  0.00     0.272 C 
HETATM   20  O1  UNL     1       5.259  -3.265  -0.289  1.00  0.00    -0.264 OA
BRANCH  19  21
HETATM   21  O2  UNL     1       7.043  -1.980   0.110  1.00  0.00    -0.244 OA
BRANCH  21  22
HETATM   22  C5  UNL     1       7.880  -3.095   0.157  1.00  0.00     0.269 C 
HETATM   23  O3  UNL     1       7.365  -4.249  -0.022  1.00  0.00    -0.264 OA
BRANCH  22  24
HETATM   24  C6  UNL     1       9.325  -2.985   0.402  1.00  0.00     0.078 C 
HETATM   25  C7  UNL     1       9.628  -2.274   1.715  1.00  0.00     0.020 C 
HETATM   26  C8  UNL     1       9.936  -4.379   0.476  1.00  0.00     0.020 C 
ENDBRANCH  22  24
ENDBRANCH  21  22
ENDBRANCH  19  21
ENDBRANCH  18  19
ENDBRANCH  16  18
ENDBRANCH  15  16
ENDBRANCH  14  15
ENDBRANCH   1  14
BRANCH  13  27
HETATM   27  C28 UNL     1      -3.436   1.965  -1.731  1.00  0.00     0.175 C 
BRANCH  27  28
HETATM   28  O7  UNL     1      -4.584   1.259  -2.085  1.00  0.00    -0.400 OA
ATOM     29  H7  UNL     1      -5.108   1.699  -2.744  1.00  0.00     0.209 HD
ENDBRANCH  27  28
ENDBRANCH  13  27
BRANCH  13  30
HETATM   30  C29 UNL     1      -3.340   1.293   0.610  1.00  0.00     0.047 C 
BRANCH  30  31
HETATM   31  C30 UNL     1      -4.532   0.710   1.115  1.00  0.00     0.152 C 
HETATM   32  O8  UNL     1      -4.609   1.194   2.538  1.00  0.00    -0.340 OA
HETATM   33  C31 UNL     1      -5.866   0.764   2.914  1.00  0.00     0.222 C 
HETATM   34  N1  UNL     1      -6.671   0.791   1.930  1.00  0.00    -0.374 N 
HETATM   35  C32 UNL     1      -5.891   1.289   0.773  1.00  0.00     0.108 C 
ATOM     36  H1  UNL     1      -7.655   0.524   1.936  1.00  0.00     0.161 HD
HETATM   37  C33 UNL     1      -5.965   2.779   0.901  1.00  0.00     0.035 C 
ENDBRANCH  30  31
ENDBRANCH  13  30
BRANCH  12  38
HETATM   38  C22 UNL     1      -2.858  -1.328  -0.615  1.00  0.00    -0.004 C 
HETATM   39  C23 UNL     1      -2.174  -1.907   0.579  1.00  0.00     0.011 C 
BRANCH  38  40
HETATM   40  C24 UNL     1      -2.630  -2.439  -1.690  1.00  0.00     0.115 C 
BRANCH  40  41
HETATM   41  C25 UNL     1      -3.184  -3.725  -1.180  1.00  0.00     0.258 C 
HETATM   42  O5  UNL     1      -2.455  -4.494  -0.509  1.00  0.00    -0.265 OA
BRANCH  41  43
HETATM   43  O6  UNL     1      -4.487  -4.110  -1.423  1.00  0.00    -0.326 OA
HETATM   44  C26 UNL     1      -5.103  -5.278  -0.998  1.00  0.00     0.213 C 
ENDBRANCH  41  43
ENDBRANCH  40  41
ENDBRANCH  38  40
ENDBRANCH  12  38
TORSDOF 16
