REMARK  10 active torsions:
REMARK  status: ('A' for Active; 'I' for Inactive)
REMARK       I    between atoms: C1_2  and  N1_3 
REMARK    1  A    between atoms: C1_2  and  C14_32 
REMARK    2  A    between atoms: N1_3  and  C2_5 
REMARK    3  A    between atoms: C2_5  and  N2_7 
REMARK    4  A    between atoms: N2_7  and  N3_9 
REMARK    5  A    between atoms: N3_9  and  C3_11 
REMARK    6  A    between atoms: C3_11  and  N4_13 
REMARK    7  A    between atoms: N4_13  and  N5_15 
REMARK    8  A    between atoms: C4_17  and  C5_18 
REMARK    9  A    between atoms: C4_17  and  C13_28 
REMARK   10  A    between atoms: C6_19  and  C7_20 
ROOT
HETATM    1  C3  UNL     1       0.163  -1.314   1.043  1.00  0.00     0.205 C 
HETATM    2  S2  UNL     1      -0.376  -0.244   2.130  1.00  0.00    -0.038 SA
ENDROOT
BRANCH   1   3
HETATM    3  N3  UNL     1      -0.529  -1.527  -0.154  1.00  0.00    -0.273 N 
ATOM      4  H3  UNL     1      -0.201  -2.197  -0.849  1.00  0.00     0.189 HD
BRANCH   3   5
HETATM    5  N2  UNL     1      -1.720  -0.758  -0.355  1.00  0.00    -0.274 N 
ATOM      6  H2  UNL     1      -1.720   0.247  -0.179  1.00  0.00     0.189 HD
BRANCH   5   7
HETATM    7  C2  UNL     1      -2.870  -1.392  -0.790  1.00  0.00     0.193 C 
HETATM    8  S1  UNL     1      -2.764  -3.033  -1.047  1.00  0.00    -0.039 SA
BRANCH   7   9
HETATM    9  N1  UNL     1      -4.091  -0.767  -1.025  1.00  0.00    -0.298 N 
HETATM   10  C1  UNL     1      -4.349   0.594  -0.860  1.00  0.00     0.259 C 
HETATM   11  O1  UNL     1      -3.515   1.468  -0.472  1.00  0.00    -0.267 OA
ATOM     12  H1  UNL     1      -4.862  -1.353  -1.345  1.00  0.00     0.171 HD
BRANCH  10  13
HETATM   13  C14 UNL     1      -5.726   1.074  -1.164  1.00  0.00     0.054 A 
HETATM   14  C15 UNL     1      -6.094   1.504  -2.415  1.00  0.00     0.019 A 
HETATM   15  C16 UNL     1      -7.375   1.949  -2.688  1.00  0.00     0.001 A 
HETATM   16  C17 UNL     1      -8.267   1.937  -1.633  1.00  0.00     0.002 A 
HETATM   17  C18 UNL     1      -7.923   1.512  -0.371  1.00  0.00     0.025 A 
HETATM   18  C19 UNL     1      -6.620   1.069  -0.130  1.00  0.00     0.049 A 
HETATM   19 CL6  UNL     1      -6.208   0.536   1.474  1.00  0.00    -0.083 Cl
ENDBRANCH  10  13
ENDBRANCH   7   9
ENDBRANCH   5   7
ENDBRANCH   3   5
ENDBRANCH   1   3
BRANCH   1  20
HETATM   20  N4  UNL     1       1.351  -2.039   1.312  1.00  0.00    -0.275 N 
ATOM     21  H4  UNL     1       1.701  -2.716   0.634  1.00  0.00     0.189 HD
BRANCH  20  22
HETATM   22  N5  UNL     1       2.028  -1.829   2.482  1.00  0.00    -0.298 N 
HETATM   23  C4  UNL     1       3.092  -1.293   2.820  1.00  0.00     0.079 C 
ATOM     24  H5  UNL     1       1.527  -2.213   3.283  1.00  0.00     0.186 HD
BRANCH  23  25
HETATM   25  C5  UNL     1       4.032  -0.659   1.950  1.00  0.00     0.032 C 
HETATM   26  C6  UNL     1       3.989  -0.505   0.654  1.00  0.00     0.015 C 
BRANCH  26  27
HETATM   27  C7  UNL     1       5.025   0.171  -0.138  1.00  0.00    -0.014 A 
HETATM   28  C8  UNL     1       6.149   0.710   0.417  1.00  0.00     0.015 A 
HETATM   29  C9  UNL     1       7.139   1.357  -0.342  1.00  0.00     0.024 A 
HETATM   30  C10 UNL     1       6.964   1.448  -1.704  1.00  0.00     0.035 A 
HETATM   31 CL1  UNL     1       8.128   2.230  -2.757  1.00  0.00    -0.084 Cl
HETATM   32  C11 UNL     1       5.824   0.903  -2.278  1.00  0.00     0.048 A 
HETATM   33  C12 UNL     1       4.878   0.280  -1.516  1.00  0.00     0.045 A 
HETATM   34 CL2  UNL     1       3.426  -0.415  -2.239  1.00  0.00    -0.083 Cl
ENDBRANCH  26  27
ENDBRANCH  23  25
BRANCH  23  35
HETATM   35  C13 UNL     1       3.428  -1.312   4.294  1.00  0.00     0.232 C 
HETATM   36 CL3  UNL     1       4.966  -2.166   4.558  1.00  0.00    -0.077 Cl
HETATM   37 CL4  UNL     1       3.535   0.346   4.926  1.00  0.00    -0.077 Cl
HETATM   38 CL5  UNL     1       2.179  -2.177   5.210  1.00  0.00    -0.077 Cl
ENDBRANCH  23  35
ENDBRANCH  20  22
ENDBRANCH   1  20
TORSDOF 10
