REMARK  6 active torsions:
REMARK  status: ('A' for Active; 'I' for Inactive)
REMARK    1  A    between atoms: C5_5  and  C6_6 
REMARK    2  A    between atoms: C6_6  and  N1_7 
REMARK    3  A    between atoms: C9_12  and  C10_13 
REMARK    4  A    between atoms: C10_13  and  N3_14 
REMARK    5  A    between atoms: C14_19  and  C15_20 
REMARK    6  A    between atoms: C15_20  and  O2_21 
ROOT
HETATM    1  N1  UNL     1       0.603  -0.652   0.643  1.00  0.00    -0.384 N 
HETATM    2  C7  UNL     1      -0.054  -0.009  -0.428  1.00  0.00     0.181 C 
HETATM    3  C8  UNL     1      -1.538  -0.215  -0.212  1.00  0.00     0.059 A 
HETATM    4  N2  UNL     1      -2.624   0.461  -0.619  1.00  0.00    -0.339 N 
ATOM      5  H2  UNL     1      -2.606   1.298  -1.202  1.00  0.00     0.167 HD
HETATM    6  C9  UNL     1      -3.736  -0.123  -0.149  1.00  0.00     0.152 A 
HETATM    7  O1  UNL     1      -3.308  -1.157   0.544  1.00  0.00    -0.298 OA
HETATM    8  C13 UNL     1      -2.019  -1.262   0.541  1.00  0.00     0.087 A 
HETATM    9  C14 UNL     1      -1.128  -2.262   1.181  1.00  0.00     0.086 C 
HETATM   10  C16 UNL     1       0.300  -2.056   0.770  1.00  0.00     0.136 C 
ENDROOT
BRANCH   1  11
HETATM   11  C6  UNL     1       1.846  -0.240   1.091  1.00  0.00     0.090 C 
BRANCH  11  12
HETATM   12  C5  UNL     1       3.064  -0.442   0.282  1.00  0.00     0.159 C 
HETATM   13  C4  UNL     1       3.002   0.014  -1.141  1.00  0.00     0.038 C 
HETATM   14  C3  UNL     1       4.372   0.465  -1.642  1.00  0.00     0.009 C 
HETATM   15  C2  UNL     1       4.884   1.599  -0.769  1.00  0.00     0.005 C 
HETATM   16  C1  UNL     1       6.368   1.709  -0.996  1.00  0.00     0.012 C 
HETATM   17  C17 UNL     1       4.512   1.350   0.679  1.00  0.00     0.172 C 
HETATM   18  O3  UNL     1       4.218   0.032   0.926  1.00  0.00    -0.380 OA
ENDBRANCH  11  12
ENDBRANCH   1  11
BRANCH   9  19
HETATM   19  C15 UNL     1      -1.615  -3.662   0.958  1.00  0.00     0.177 C 
BRANCH  19  20
HETATM   20  O2  UNL     1      -0.760  -4.596   1.559  1.00  0.00    -0.400 OA
ATOM     21  H2  UNL     1      -1.069  -5.483   1.418  1.00  0.00     0.209 HD
ENDBRANCH  19  20
ENDBRANCH   9  19
BRANCH   6  22
HETATM   22  C10 UNL     1      -5.134   0.322  -0.378  1.00  0.00     0.355 C 
BRANCH  22  23
HETATM   23  N3  UNL     1      -5.253   1.169  -1.524  1.00  0.00     0.087 N 
HETATM   24  C11 UNL     1      -6.681   1.505  -1.653  1.00  0.00     0.309 C 
HETATM   25  C12 UNL     1      -4.573   2.433  -1.391  1.00  0.00     0.309 C 
ENDBRANCH  22  23
ENDBRANCH   6  22
TORSDOF 6
