REMARK  9 active torsions:
REMARK  status: ('A' for Active; 'I' for Inactive)
REMARK    1  A    between atoms: C2_2  and  C3_3 
REMARK    2  A    between atoms: C3_3  and  C4_4 
REMARK    3  A    between atoms: C4_4  and  C5_5 
REMARK    4  A    between atoms: C5_5  and  C6_6 
REMARK    5  A    between atoms: C7_7  and  C8_8 
REMARK    6  A    between atoms: C12_16  and  O3_17 
REMARK    7  A    between atoms: C13_19  and  O4_20 
REMARK    8  A    between atoms: C24_33  and  C26_35 
REMARK    9  A    between atoms: C26_35  and  O6_36 
ROOT
HETATM    1  C8  UNL     1       2.747  -0.881  -0.839  1.00  0.00     0.152 A 
HETATM    2  C9  UNL     1       1.824  -0.758   0.324  1.00  0.00     0.116 A 
HETATM    3  C10 UNL     1       1.136   0.369  -0.354  1.00  0.00     0.314 A 
HETATM    4  O1  UNL     1       2.091   0.232  -1.397  1.00  0.00    -0.337 OA
HETATM    5  C11 UNL     1       1.265   1.684   0.312  1.00  0.00     0.284 C 
HETATM    6  O2  UNL     1       2.490   2.083   0.406  1.00  0.00    -0.268 OA
HETATM    7  N1  UNL     1       0.257   2.507   0.828  1.00  0.00    -0.328 N 
ATOM      8  H1  UNL     1       0.226   3.443   0.424  1.00  0.00     0.165 HD
HETATM    9  C12 UNL     1      -0.733   2.257   1.823  1.00  0.00     0.249 C 
HETATM   10  C13 UNL     1      -2.149   2.181   1.375  1.00  0.00     0.176 C 
HETATM   11  C15 UNL     1      -2.483   1.502   0.101  1.00  0.00     0.059 C 
HETATM   12  C16 UNL     1      -1.816   1.989  -1.131  1.00  0.00     0.038 C 
HETATM   13  C17 UNL     1      -0.673   1.207  -1.642  1.00  0.00     0.242 C 
HETATM   14  N2  UNL     1      -0.190   0.109  -0.912  1.00  0.00    -0.026 N 
HETATM   15  C18 UNL     1       0.061  -1.001  -1.865  1.00  0.00     0.277 C 
HETATM   16  C19 UNL     1      -1.004  -0.473   0.104  1.00  0.00     0.282 C 
HETATM   17  C20 UNL     1      -2.468  -0.008   0.070  1.00  0.00     0.118 C 
HETATM   18  O5  UNL     1      -2.858  -0.326  -1.225  1.00  0.00    -0.362 OA
HETATM   19  C21 UNL     1      -4.065  -0.887  -1.421  1.00  0.00     0.087 C 
HETATM   20  C22 UNL     1      -4.002  -1.574  -2.799  1.00  0.00     0.049 C 
HETATM   21  C23 UNL     1      -5.173   0.156  -1.584  1.00  0.00     0.049 C 
HETATM   22  C24 UNL     1      -4.483  -1.905  -0.441  1.00  0.00     0.109 C 
HETATM   23  C25 UNL     1      -6.025  -1.884  -0.370  1.00  0.00     0.051 C 
HETATM   24  O7  UNL     1      -4.038  -1.720   0.807  1.00  0.00    -0.367 OA
HETATM   25  C27 UNL     1      -3.227  -0.689   1.134  1.00  0.00     0.155 C 
HETATM   26  C28 UNL     1      -2.345  -1.280   2.248  1.00  0.00     0.042 C 
ENDROOT
BRANCH  10  27
HETATM   27  O4  UNL     1      -2.801   3.424   1.485  1.00  0.00    -0.386 OA
HETATM   28  C14 UNL     1      -3.775   3.537   2.400  1.00  0.00     0.202 C 
ENDBRANCH  10  27
BRANCH   9  29
HETATM   29  O3  UNL     1      -0.705   3.376   2.720  1.00  0.00    -0.374 OA
ATOM     30  H3  UNL     1      -1.365   3.209   3.383  1.00  0.00     0.212 HD
ENDBRANCH   9  29
BRANCH  22  31
HETATM   31  C26 UNL     1      -4.185  -3.334  -0.853  1.00  0.00     0.204 C 
BRANCH  31  32
HETATM   32  O6  UNL     1      -2.872  -3.690  -0.844  1.00  0.00    -0.398 OA
ATOM     33  H6  UNL     1      -2.685  -4.585  -1.102  1.00  0.00     0.209 HD
ENDBRANCH  31  32
ENDBRANCH  22  31
BRANCH   1  34
HETATM   34  C7  UNL     1       4.172  -0.557  -0.629  1.00  0.00     0.001 C 
HETATM   35  C6  UNL     1       4.903   0.123  -1.498  1.00  0.00    -0.028 C 
BRANCH  35  36
HETATM   36  C5  UNL     1       6.321   0.440  -1.283  1.00  0.00     0.027 C 
BRANCH  36  37
HETATM   37  C4  UNL     1       6.734  -0.144   0.050  1.00  0.00     0.004 C 
BRANCH  37  38
HETATM   38  C3  UNL     1       8.210   0.149   0.356  1.00  0.00    -0.000 C 
BRANCH  38  39
HETATM   39  C2  UNL     1       8.468  -0.500   1.718  1.00  0.00    -0.005 C 
HETATM   40  C1  UNL     1       7.566   0.097   2.760  1.00  0.00     0.005 C 
ENDBRANCH  38  39
ENDBRANCH  37  38
ENDBRANCH  36  37
ENDBRANCH  35  36
ENDBRANCH   1  34
TORSDOF 9
