REMARK  8 active torsions:
REMARK  status: ('A' for Active; 'I' for Inactive)
REMARK    1  A    between atoms: C2_2  and  C4_4 
REMARK    2  A    between atoms: C4_4  and  N1_5 
REMARK    3  A    between atoms: C4_4  and  C20_33 
REMARK    4  A    between atoms: N1_5  and  C5_7 
REMARK    5  A    between atoms: C11_15  and  C12_16 
REMARK       I    between atoms: C12_16  and  N3_18 
REMARK    6  A    between atoms: N3_18  and  C13_20 
REMARK    7  A    between atoms: C13_20  and  C14_21 
REMARK    8  A    between atoms: C18_27  and  C19_28 
ROOT
HETATM    1  C14 UNL     1       6.353  -0.037  -1.925  1.00  0.00     0.143 C 
HETATM    2  C15 UNL     1       6.034   1.362  -2.202  1.00  0.00     0.060 C 
HETATM    3  N4  UNL     1       5.783   2.474  -2.440  1.00  0.00    -0.197 NA
ENDROOT
BRANCH   1   4
HETATM    4  C13 UNL     1       5.820  -0.393  -0.561  1.00  0.00     0.136 C 
BRANCH   4   5
HETATM    5  N3  UNL     1       4.392  -0.223  -0.476  1.00  0.00    -0.360 N 
HETATM    6  C12 UNL     1       3.715  -0.507   0.721  1.00  0.00     0.223 C 
HETATM    7  O1  UNL     1       4.385  -0.911   1.713  1.00  0.00    -0.273 OA
ATOM      8  H3  UNL     1       3.870   0.105  -1.289  1.00  0.00     0.162 HD
BRANCH   6   9
HETATM    9  C11 UNL     1       2.221  -0.336   0.834  1.00  0.00     0.100 C 
HETATM   10  C10 UNL     1       1.594  -1.242  -0.183  1.00  0.00     0.043 C 
HETATM   11  C9  UNL     1       0.162  -0.913  -0.479  1.00  0.00     0.131 C 
HETATM   12  C6  UNL     1      -0.798  -1.974  -0.057  1.00  0.00     0.061 C 
HETATM   13  N6  UNL     1      -0.295   0.264   0.221  1.00  0.00    -0.196 N 
HETATM   14  N2  UNL     1      -1.855  -1.276   0.608  1.00  0.00    -0.216 N 
HETATM   15  C7  UNL     1      -0.253  -2.987   0.902  1.00  0.00     0.041 C 
HETATM   16  C8  UNL     1      -1.309  -2.732  -1.274  1.00  0.00     0.041 C 
HETATM   17  C5  UNL     1      -1.592  -0.025   0.760  1.00  0.00     0.678 C 
ATOM     18  H2  UNL     1      -2.718  -1.719   0.925  1.00  0.00     0.178 HD
HETATM   19  C18 UNL     1       0.505   1.439   0.301  1.00  0.00     0.228 C 
HETATM   20  C16 UNL     1       1.929   1.117   0.677  1.00  0.00     0.138 C 
HETATM   21  C17 UNL     1       2.226   1.770   1.952  1.00  0.00     0.067 C 
HETATM   22  N5  UNL     1       2.467   2.305   2.954  1.00  0.00    -0.197 NA
BRANCH  17  23
HETATM   23  N1  UNL     1      -2.481   0.883   1.390  1.00  0.00    -0.189 N 
ATOM     24  H1  UNL     1      -2.053   1.632   1.935  1.00  0.00     0.184 HD
BRANCH  23  25
HETATM   25  C4  UNL     1      -3.901   0.866   1.347  1.00  0.00     0.106 C 
BRANCH  25  26
HETATM   26  C2  UNL     1      -4.547   1.060   0.017  1.00  0.00     0.035 C 
HETATM   27  C1  UNL     1      -4.145   2.386  -0.540  1.00  0.00     0.016 C 
HETATM   28  C3  UNL     1      -4.348   0.005  -1.002  1.00  0.00     0.016 C 
ENDBRANCH  25  26
BRANCH  25  29
HETATM   29  C20 UNL     1      -4.547  -0.218   2.123  1.00  0.00     0.223 C 
HETATM   30  O2  UNL     1      -3.857  -1.013   2.772  1.00  0.00    -0.643 OA
HETATM   31  O3  UNL     1      -5.915  -0.329   2.112  1.00  0.00    -0.643 OA
ENDBRANCH  25  29
ENDBRANCH  23  25
ENDBRANCH  17  23
BRANCH  19  32
HETATM   32  C19 UNL     1       0.577   2.129  -1.060  1.00  0.00     0.409 C 
HETATM   33  F1  UNL     1       1.355   3.287  -0.908  1.00  0.00    -0.169 F 
HETATM   34  F2  UNL     1      -0.631   2.554  -1.519  1.00  0.00    -0.169 F 
HETATM   35  F3  UNL     1       1.259   1.368  -1.982  1.00  0.00    -0.169 F 
ENDBRANCH  19  32
ENDBRANCH   6   9
ENDBRANCH   4   5
ENDBRANCH   1   4
TORSDOF 8
