REMARK  7 active torsions:
REMARK  status: ('A' for Active; 'I' for Inactive)
REMARK    1  A    between atoms: O1_2  and  N1_3 
REMARK       I    between atoms: N1_3  and  C2_4 
REMARK    2  A    between atoms: C2_4  and  C3_6 
REMARK    3  A    between atoms: C5_8  and  N2_9 
REMARK    4  A    between atoms: N2_9  and  C6_11 
REMARK    5  A    between atoms: C12_18  and  N3_19 
REMARK    6  A    between atoms: N3_19  and  C14_21 
REMARK    7  A    between atoms: C14_21  and  C15_22 
ROOT
HETATM    1  C6  UNL     1      -0.261  -0.660  -0.002  1.00  0.00     0.107 C 
HETATM    2  C7  UNL     1       0.337  -0.698   1.374  1.00  0.00     0.193 C 
HETATM    3  O3  UNL     1       1.334   0.290   1.334  1.00  0.00    -0.381 OA
HETATM    4  C8  UNL     1       2.279   0.074   0.392  1.00  0.00     0.159 C 
HETATM    5  C9  UNL     1       2.159  -1.028  -0.558  1.00  0.00     0.019 C 
HETATM    6  C10 UNL     1       3.067  -2.152  -0.094  1.00  0.00     0.009 C 
HETATM    7  C11 UNL     1       3.927  -1.593   1.003  1.00  0.00     0.039 C 
HETATM    8  C12 UNL     1       3.601  -0.142   1.131  1.00  0.00     0.251 C 
HETATM    9  C16 UNL     1       0.767  -1.562  -0.788  1.00  0.00     0.034 C 
ENDROOT
BRANCH   1  10
HETATM   10  N2  UNL     1      -1.563  -1.044  -0.246  1.00  0.00    -0.369 N 
ATOM     11  H2  UNL     1      -1.665  -1.837  -0.879  1.00  0.00     0.161 HD
BRANCH  10  12
HETATM   12  C5  UNL     1      -2.657  -0.566   0.193  1.00  0.00     0.104 A 
HETATM   13  C4  UNL     1      -3.855  -1.153  -0.236  1.00  0.00     0.084 A 
HETATM   14  C3  UNL     1      -5.009  -0.596   0.175  1.00  0.00     0.122 A 
HETATM   15  N5  UNL     1      -5.059   0.466   0.973  1.00  0.00    -0.347 N 
HETATM   16  C17 UNL     1      -3.910   1.047   1.410  1.00  0.00     0.182 A 
ATOM     17  H5  UNL     1      -5.962   0.846   1.258  1.00  0.00     0.167 HD
HETATM   18  N4  UNL     1      -2.727   0.502   0.999  1.00  0.00    -0.339 N 
ATOM     19  H4  UNL     1      -1.857   0.927   1.320  1.00  0.00     0.168 HD
BRANCH  14  20
HETATM   20  C2  UNL     1      -6.333  -1.024  -0.586  1.00  0.00     0.370 C 
HETATM   21  N1  UNL     1      -7.303  -0.105  -0.265  1.00  0.00    -0.235 NA
HETATM   22  O2  UNL     1      -6.130  -1.946  -1.246  1.00  0.00    -0.247 OA
BRANCH  21  23
HETATM   23  O1  UNL     1      -8.276   0.665  -0.083  1.00  0.00    -0.211 OA
HETATM   24  C1  UNL     1      -8.111   1.984  -0.503  1.00  0.00     0.255 C 
ENDBRANCH  21  23
ENDBRANCH  14  20
ENDBRANCH  10  12
ENDBRANCH   1  10
BRANCH   8  25
HETATM   25  N3  UNL     1       4.647   0.760   0.663  1.00  0.00     0.095 N 
HETATM   26  C13 UNL     1       4.162   2.126   0.927  1.00  0.00     0.310 C 
BRANCH  25  27
HETATM   27  C14 UNL     1       4.845   0.617  -0.781  1.00  0.00     0.331 C 
BRANCH  27  28
HETATM   28  C15 UNL     1       6.171   1.197  -1.227  1.00  0.00     0.214 C 
HETATM   29 CL1  UNL     1       6.234   2.922  -0.835  1.00  0.00    -0.082 Cl
HETATM   30 CL2  UNL     1       6.238   1.098  -3.012  1.00  0.00    -0.082 Cl
HETATM   31 CL3  UNL     1       7.528   0.263  -0.523  1.00  0.00    -0.082 Cl
ENDBRANCH  27  28
ENDBRANCH  25  27
ENDBRANCH   8  25
TORSDOF 7
