REMARK  4 active torsions:
REMARK  status: ('A' for Active; 'I' for Inactive)
REMARK    1  A    between atoms: C2_2  and  O1_3 
REMARK    2  A    between atoms: O1_3  and  C3_4 
REMARK       I    between atoms: C3_4  and  N1_6 
REMARK    3  A    between atoms: N1_6  and  C4_8 
REMARK    4  A    between atoms: C14_22  and  C15_23 
ROOT
HETATM    1  C4  UNL     1      -3.717  -0.766   0.207  1.00  0.00     0.122 A 
HETATM    2  N2  UNL     1      -4.373  -1.893   0.553  1.00  0.00    -0.351 N 
ATOM      3  H2  UNL     1      -5.167  -1.840   1.191  1.00  0.00     0.166 HD
HETATM    4  C5  UNL     1      -3.989  -3.084   0.065  1.00  0.00     0.090 A 
HETATM    5  C6  UNL     1      -2.894  -3.217  -0.819  1.00  0.00     0.025 A 
HETATM    6  C7  UNL     1      -2.248  -2.061  -1.145  1.00  0.00    -0.036 A 
HETATM    7  C8  UNL     1      -2.636  -0.808  -0.654  1.00  0.00     0.044 A 
HETATM    8  C9  UNL     1      -1.939   0.302  -1.225  1.00  0.00     0.075 A 
HETATM    9  C10 UNL     1      -0.871   0.931  -1.306  1.00  0.00     0.072 A 
HETATM   10  N3  UNL     1      -1.972   1.470  -2.109  1.00  0.00    -0.351 N 
ATOM     11  H3  UNL     1      -2.408   2.126  -2.757  1.00  0.00     0.166 HD
HETATM   12  C11 UNL     1       0.500   0.874  -0.806  1.00  0.00     0.004 A 
HETATM   13  C12 UNL     1       1.196   2.112  -0.814  1.00  0.00     0.015 A 
HETATM   14  C13 UNL     1       2.505   2.305  -0.496  1.00  0.00     0.013 A 
HETATM   15  C14 UNL     1       3.248   1.236  -0.132  1.00  0.00    -0.025 A 
HETATM   16  C22 UNL     1       2.619   0.021  -0.106  1.00  0.00     0.025 A 
HETATM   17  C23 UNL     1       1.239  -0.203  -0.434  1.00  0.00    -0.012 A 
HETATM   18  C24 UNL     1       0.882  -1.619  -0.220  1.00  0.00    -0.018 A 
HETATM   19  C25 UNL     1       1.584  -2.254   0.861  1.00  0.00     0.013 A 
HETATM   20  C26 UNL     1       1.500  -3.574   1.190  1.00  0.00     0.001 A 
HETATM   21  C27 UNL     1       0.697  -4.387   0.460  1.00  0.00     0.001 A 
HETATM   22  C28 UNL     1       0.005  -3.834  -0.575  1.00  0.00     0.008 A 
HETATM   23  C29 UNL     1       0.090  -2.457  -0.912  1.00  0.00    -0.043 A 
HETATM   24  C30 UNL     1      -0.966  -2.178  -1.970  1.00  0.00     0.079 C 
ENDROOT
BRANCH   1  25
HETATM   25  N1  UNL     1      -4.130   0.345   0.697  1.00  0.00    -0.288 N 
HETATM   26  C3  UNL     1      -5.196   0.543   1.563  1.00  0.00     0.366 C 
HETATM   27  O2  UNL     1      -5.290   0.052   2.719  1.00  0.00    -0.238 OA
ATOM     28  H1  UNL     1      -3.615   1.180   0.418  1.00  0.00     0.172 HD
BRANCH  26  29
HETATM   29  O1  UNL     1      -6.250   1.342   1.141  1.00  0.00    -0.304 OA
BRANCH  29  30
HETATM   30  C2  UNL     1      -7.388   1.636   1.892  1.00  0.00     0.176 C 
HETATM   31  C1  UNL     1      -8.276   2.542   1.047  1.00  0.00     0.034 C 
ENDBRANCH  29  30
ENDBRANCH  26  29
ENDBRANCH   1  25
BRANCH  15  32
HETATM   32  C15 UNL     1       4.657   1.343   0.223  1.00  0.00    -0.025 A 
HETATM   33  C16 UNL     1       5.200   0.487   1.142  1.00  0.00     0.012 A 
HETATM   34  C17 UNL     1       6.549   0.575   1.493  1.00  0.00     0.001 A 
HETATM   35  C18 UNL     1       7.321   1.537   0.899  1.00  0.00     0.007 A 
HETATM   36  C19 UNL     1       6.793   2.415  -0.035  1.00  0.00    -0.061 A 
HETATM   37  C20 UNL     1       7.640   3.452  -0.670  1.00  0.00     0.048 C 
HETATM   38  C21 UNL     1       5.439   2.296  -0.360  1.00  0.00     0.019 A 
ENDBRANCH  15  32
TORSDOF 4
