REMARK  6 active torsions:
REMARK  status: ('A' for Active; 'I' for Inactive)
REMARK       I    between atoms: C1_4  and  N2_5 
REMARK       I    between atoms: C1_4  and  N4_10 
REMARK    1  A    between atoms: N2_5  and  N3_7 
REMARK    2  A    between atoms: N4_10  and  C2_12 
REMARK    3  A    between atoms: C2_12  and  C3_13 
REMARK       I    between atoms: C3_13  and  N5_15 
REMARK    4  A    between atoms: N5_15  and  N6_17 
REMARK    5  A    between atoms: C4_19  and  C5_20 
REMARK    6  A    between atoms: C7_29  and  N10_30 
ROOT
HETATM    1  C3  UNL     1       0.908   0.251   0.915  1.00  0.00     0.254 C 
HETATM    2  O1  UNL     1       0.305   0.484   2.021  1.00  0.00    -0.270 OA
HETATM    3  N5  UNL     1       0.131  -0.103  -0.191  1.00  0.00    -0.269 N 
ATOM      4  H5  UNL     1       0.595  -0.292  -1.079  1.00  0.00     0.190 HD
ENDROOT
BRANCH   3   5
HETATM    5  N6  UNL     1      -1.261  -0.206  -0.120  1.00  0.00    -0.307 N 
HETATM    6  C4  UNL     1      -2.043   0.804  -0.087  1.00  0.00     0.141 C 
ATOM      7  H6  UNL     1      -1.675  -1.138  -0.093  1.00  0.00     0.186 HD
BRANCH   6   8
HETATM    8  C5  UNL     1      -3.482   0.783  -0.014  1.00  0.00     0.105 A 
HETATM    9  N7  UNL     1      -4.197   1.943   0.046  1.00  0.00    -0.282 N 
HETATM   10  N8  UNL     1      -5.499   2.005   0.133  1.00  0.00    -0.239 N 
ATOM     11  H7  UNL     1      -3.680   2.822   0.021  1.00  0.00     0.188 HD
HETATM   12  N9  UNL     1      -6.230   0.926   0.169  1.00  0.00    -0.250 N 
ATOM     13  H8  UNL     1      -5.954   2.917   0.174  1.00  0.00     0.208 HD
HETATM   14  C6  UNL     1      -5.639  -0.264   0.117  1.00  0.00     0.296 A 
ATOM     15  H9  UNL     1      -7.245   0.994   0.236  1.00  0.00     0.192 HD
HETATM   16  O2  UNL     1      -6.369  -1.296   0.154  1.00  0.00    -0.264 OA
HETATM   17  C7  UNL     1      -4.243  -0.383   0.022  1.00  0.00     0.201 A 
BRANCH  17  18
HETATM   18  N10 UNL     1      -3.646  -1.645  -0.032  1.00  0.00    -0.107 N 
HETATM   19  O3  UNL     1      -3.260  -2.112  -1.109  1.00  0.00    -0.531 OA
HETATM   20  O4  UNL     1      -3.501  -2.384   1.107  1.00  0.00    -0.531 OA
ENDBRANCH  17  18
ENDBRANCH   6   8
ENDBRANCH   3   5
BRANCH   1  21
HETATM   21  C2  UNL     1       2.361   0.391   0.957  1.00  0.00     0.242 C 
BRANCH  21  22
HETATM   22  N4  UNL     1       3.055   0.139  -0.265  1.00  0.00    -0.216 N 
HETATM   23  C1  UNL     1       4.467   0.239  -0.307  1.00  0.00     0.686 C 
HETATM   24  N1  UNL     1       5.053   1.240   0.257  1.00  0.00    -0.234 N 
HETATM   25  N2  UNL     1       5.300  -0.700  -0.938  1.00  0.00    -0.139 N 
ATOM     26  H12 UNL     1       6.070   1.312   0.227  1.00  0.00     0.174 HD
ATOM     27  H11 UNL     1       4.448   1.922   0.715  1.00  0.00     0.174 HD
ATOM     28  H2  UNL     1       5.293  -0.783  -1.955  1.00  0.00     0.205 HD
ATOM     29  H4  UNL     1       2.535  -0.112  -1.106  1.00  0.00     0.178 HD
BRANCH  25  30
HETATM   30  N3  UNL     1       6.131  -1.514  -0.186  1.00  0.00    -0.331 N 
ATOM     31  H32 UNL     1       6.126  -1.419   0.830  1.00  0.00     0.177 HD
ATOM     32  H31 UNL     1       6.736  -2.196  -0.644  1.00  0.00     0.177 HD
ENDBRANCH  25  30
ENDBRANCH  21  22
ENDBRANCH   1  21
TORSDOF 6
