REMARK  15 active torsions:
REMARK  status: ('A' for Active; 'I' for Inactive)
REMARK    1  A    between atoms: C2_7  and  C3_8 
REMARK    2  A    between atoms: C3_8  and  N3_9 
REMARK       I    between atoms: N3_9  and  C4_11 
REMARK    3  A    between atoms: C4_11  and  C5_13 
REMARK    4  A    between atoms: C5_13  and  S1_14 
REMARK    5  A    between atoms: S1_14  and  C6_15 
REMARK    6  A    between atoms: N6_19  and  N7_20 
REMARK    7  A    between atoms: C7_25  and  O2_26 
REMARK    8  A    between atoms: O2_26  and  C8_27 
REMARK    9  A    between atoms: C9_28  and  N9_29 
REMARK   10  A    between atoms: C11_34  and  N10_35 
REMARK   11  A    between atoms: C12_39  and  O3_40 
REMARK   12  A    between atoms: C13_42  and  O4_43 
REMARK   13  A    between atoms: C14_45  and  N11_46 
REMARK   14  A    between atoms: C15_50  and  O5_51 
REMARK   15  A    between atoms: C16_53  and  O6_54 
ROOT
HETATM    1  N1  UNL     1       3.027  -3.422   0.651  1.00  0.00    -0.387 N 
ATOM      2  H11 UNL     1       3.043  -4.440   0.586  1.00  0.00     0.157 HD
ATOM      3  H12 UNL     1       3.845  -2.826   0.778  1.00  0.00     0.157 HD
HETATM    4  C1  UNL     1       1.857  -2.903   0.569  1.00  0.00     0.107 C 
HETATM    5  N2  UNL     1       1.834  -1.442   0.663  1.00  0.00    -0.344 N 
ATOM      6  H2  UNL     1       2.700  -0.946   0.454  1.00  0.00     0.167 HD
HETATM    7  C2  UNL     1       0.713  -0.666   1.018  1.00  0.00     0.057 C 
HETATM    8  C7  UNL     1      -0.252  -0.505  -0.196  1.00  0.00     0.206 C 
HETATM    9  C14 UNL     1       0.037  -1.778  -1.020  1.00  0.00     0.249 C 
HETATM   10  C15 UNL     1      -0.474  -2.997  -0.265  1.00  0.00     0.187 C 
HETATM   11  C16 UNL     1       0.669  -3.769   0.385  1.00  0.00     0.215 C 
ENDROOT
BRANCH   8  12
HETATM   12  O2  UNL     1      -1.574  -0.602   0.177  1.00  0.00    -0.367 OA
BRANCH  12  13
HETATM   13  C8  UNL     1      -2.413   0.410  -0.282  1.00  0.00     0.184 C 
HETATM   14  C9  UNL     1      -2.992   1.111   0.920  1.00  0.00     0.217 C 
HETATM   15  C10 UNL     1      -3.901   2.222   0.371  1.00  0.00     0.071 C 
HETATM   16  C11 UNL     1      -5.157   1.453  -0.062  1.00  0.00     0.216 C 
HETATM   17  C12 UNL     1      -4.803   0.530  -1.164  1.00  0.00     0.179 C 
HETATM   18  C13 UNL     1      -3.515  -0.192  -1.077  1.00  0.00     0.180 C 
BRANCH  14  19
HETATM   19  N9  UNL     1      -3.784   0.167   1.666  1.00  0.00    -0.072 N 
ATOM     20  H93 UNL     1      -4.499  -0.282   1.093  1.00  0.00     0.274 HD
ATOM     21  H92 UNL     1      -3.259  -0.671   1.917  1.00  0.00     0.274 HD
ATOM     22  H91 UNL     1      -4.176   0.641   2.479  1.00  0.00     0.274 HD
ENDBRANCH  14  19
BRANCH  16  23
HETATM   23  N10 UNL     1      -6.087   2.473  -0.546  1.00  0.00    -0.072 N 
ATOM     24 3H10 UNL     1      -6.272   3.215   0.129  1.00  0.00     0.274 HD
ATOM     25 2H10 UNL     1      -5.699   3.070  -1.276  1.00  0.00     0.274 HD
ATOM     26 1H10 UNL     1      -6.922   1.962  -0.834  1.00  0.00     0.274 HD
ENDBRANCH  16  23
BRANCH  17  27
HETATM   27  O3  UNL     1      -4.970   1.213  -2.398  1.00  0.00    -0.391 OA
ATOM     28  H3  UNL     1      -4.743   0.621  -3.105  1.00  0.00     0.210 HD
ENDBRANCH  17  27
BRANCH  18  29
HETATM   29  O4  UNL     1      -3.757  -1.527  -0.692  1.00  0.00    -0.390 OA
ATOM     30  H4  UNL     1      -4.461  -1.912  -1.200  1.00  0.00     0.210 HD
ENDBRANCH  18  29
ENDBRANCH  12  13
ENDBRANCH   8  12
BRANCH   7  31
HETATM   31  C3  UNL     1       0.860   0.568   1.790  1.00  0.00     0.118 C 
BRANCH  31  32
HETATM   32  N3  UNL     1       1.587   1.682   1.380  1.00  0.00    -0.335 N 
HETATM   33  C4  UNL     1       2.941   1.928   1.194  1.00  0.00     0.231 C 
HETATM   34  O1  UNL     1       3.833   1.081   1.413  1.00  0.00    -0.272 OA
ATOM     35  H3  UNL     1       1.000   2.490   1.172  1.00  0.00     0.168 HD
BRANCH  33  36
HETATM   36  C5  UNL     1       3.449   3.270   0.702  1.00  0.00     0.185 C 
BRANCH  36  37
HETATM   37  S1  UNL     1       4.165   3.034  -0.963  1.00  0.00    -0.082 SA
BRANCH  37  38
HETATM   38  C6  UNL     1       5.628   2.034  -0.885  1.00  0.00     0.175 A 
HETATM   39  N4  UNL     1       5.692   0.695  -0.969  1.00  0.00    -0.260 N 
HETATM   40  N5  UNL     1       6.985   0.355  -0.857  1.00  0.00     0.019 NA
ATOM     41  H4  UNL     1       4.906   0.057  -1.094  1.00  0.00     0.186 HD
HETATM   42  N6  UNL     1       7.725   1.454  -0.707  1.00  0.00    -0.120 N 
HETATM   43  N8  UNL     1       6.876   2.460  -0.727  1.00  0.00    -0.244 N 
ATOM     44  H8  UNL     1       7.142   3.440  -0.633  1.00  0.00     0.192 HD
BRANCH  42  45
HETATM   45  N7  UNL     1       9.119   1.509  -0.555  1.00  0.00    -0.310 N 
ATOM     46  H72 UNL     1       9.777   0.730  -0.540  1.00  0.00     0.180 HD
ATOM     47  H71 UNL     1       9.685   2.350  -0.440  1.00  0.00     0.180 HD
ENDBRANCH  42  45
ENDBRANCH  37  38
ENDBRANCH  36  37
ENDBRANCH  33  36
ENDBRANCH  31  32
ENDBRANCH   7  31
BRANCH   9  48
HETATM   48  N11 UNL     1      -0.577  -1.755  -2.313  1.00  0.00    -0.070 N 
ATOM     49 3H11 UNL     1      -1.581  -1.589  -2.237  1.00  0.00     0.275 HD
ATOM     50 2H11 UNL     1      -0.309  -0.917  -2.829  1.00  0.00     0.275 HD
ATOM     51 1H11 UNL     1      -0.386  -2.596  -2.857  1.00  0.00     0.275 HD
ENDBRANCH   9  48
BRANCH  10  52
HETATM   52  O5  UNL     1      -1.220  -3.845  -1.064  1.00  0.00    -0.390 OA
ATOM     53  H5  UNL     1      -1.539  -4.606  -0.593  1.00  0.00     0.210 HD
ENDBRANCH  10  52
BRANCH  11  54
HETATM   54  O6  UNL     1       0.287  -4.318   1.610  1.00  0.00    -0.385 OA
ATOM     55  H6  UNL     1      -0.475  -4.873   1.492  1.00  0.00     0.210 HD
ENDBRANCH  11  54
TORSDOF 15
