REMARK  14 active torsions:
REMARK  status: ('A' for Active; 'I' for Inactive)
REMARK       I    between atoms: C1_2  and  N2_4 
REMARK    1  A    between atoms: N2_4  and  C2_6 
REMARK    2  A    between atoms: C2_6  and  C3_7 
REMARK    3  A    between atoms: C4_11  and  C5_12 
REMARK    4  A    between atoms: C4_11  and  N5_32 
REMARK    5  A    between atoms: C5_12  and  C6_13 
REMARK    6  A    between atoms: C5_12  and  O3_16 
REMARK    7  A    between atoms: C6_13  and  O2_14 
REMARK    8  A    between atoms: O3_16  and  C7_17 
REMARK    9  A    between atoms: C8_21  and  O4_22 
REMARK   10  A    between atoms: C9_24  and  O5_25 
REMARK   11  A    between atoms: C10_27  and  C11_28 
REMARK   12  A    between atoms: C11_28  and  O6_29 
REMARK   13  A    between atoms: C15_41  and  N8_42 
REMARK   14  A    between atoms: N8_42  and  O9_44 
ROOT
HETATM    1  C3  UNL     1       2.282  -1.004   0.287  1.00  0.00     0.348 C 
HETATM    2  N3  UNL     1       1.227  -0.334   1.018  1.00  0.00     0.008 N 
ATOM      3  H31 UNL     1       1.402   0.070   1.938  1.00  0.00     0.286 HD
ATOM      4  H32 UNL     1       0.450  -0.860   1.418  1.00  0.00     0.286 HD
HETATM    5  C4  UNL     1       1.035   0.507  -0.136  1.00  0.00     0.347 C 
HETATM    6  O10 UNL     1       2.363   0.175  -0.491  1.00  0.00    -0.300 OA
ENDROOT
BRANCH   5   7
HETATM    7  C5  UNL     1       0.037  -0.035  -1.120  1.00  0.00     0.236 C 
BRANCH   7   8
HETATM    8  C6  UNL     1       0.021   0.937  -2.309  1.00  0.00     0.203 C 
BRANCH   8   9
HETATM    9  O2  UNL     1      -0.860   0.463  -3.310  1.00  0.00    -0.398 OA
ATOM     10  H2  UNL     1      -0.870   1.064  -4.045  1.00  0.00     0.209 HD
ENDBRANCH   8   9
ENDBRANCH   7   8
BRANCH   7  11
HETATM   11  O3  UNL     1      -1.189  -0.165  -0.554  1.00  0.00    -0.324 OA
BRANCH  11  12
HETATM   12  C7  UNL     1      -1.798  -1.392  -0.615  1.00  0.00     0.473 C 
HETATM   13  N4  UNL     1      -2.991  -1.253  -1.433  1.00  0.00     0.004 N 
HETATM   14  C8  UNL     1      -4.114  -1.979  -0.891  1.00  0.00     0.356 C 
ATOM     15  H42 UNL     1      -3.224  -0.271  -1.581  1.00  0.00     0.286 HD
ATOM     16  H41 UNL     1      -2.809  -1.524  -2.399  1.00  0.00     0.286 HD
HETATM   17  C9  UNL     1      -4.444  -1.520   0.500  1.00  0.00     0.205 C 
HETATM   18  C10 UNL     1      -3.171  -1.269   1.237  1.00  0.00     0.183 C 
HETATM   19  O7  UNL     1      -2.066  -1.864   0.638  1.00  0.00    -0.329 OA
BRANCH  14  20
HETATM   20  O4  UNL     1      -3.883  -3.346  -0.978  1.00  0.00    -0.368 OA
ATOM     21  H4  UNL     1      -4.622  -3.824  -0.621  1.00  0.00     0.212 HD
ENDBRANCH  14  20
BRANCH  17  22
HETATM   22  O5  UNL     1      -5.290  -2.409   1.161  1.00  0.00    -0.389 OA
ATOM     23  H5  UNL     1      -5.499  -2.119   2.041  1.00  0.00     0.210 HD
ENDBRANCH  17  22
BRANCH  18  24
HETATM   24  C11 UNL     1      -3.237  -1.619   2.701  1.00  0.00     0.199 C 
BRANCH  24  25
HETATM   25  O6  UNL     1      -4.359  -1.000   3.246  1.00  0.00    -0.398 OA
ATOM     26  H6  UNL     1      -4.401  -1.221   4.169  1.00  0.00     0.209 HD
ENDBRANCH  24  25
ENDBRANCH  18  24
ENDBRANCH  11  12
ENDBRANCH   7  11
ENDBRANCH   5   7
BRANCH   5  27
HETATM   27  N5  UNL     1       0.855   1.903   0.176  1.00  0.00    -0.268 N 
HETATM   28  C12 UNL     1      -0.038   2.379   1.056  1.00  0.00     0.190 A 
HETATM   29  N6  UNL     1       0.047   3.715   1.122  1.00  0.00    -0.345 N 
HETATM   30  C13 UNL     1       1.020   4.091   0.260  1.00  0.00     0.147 A 
ATOM     31  H6  UNL     1      -0.515   4.331   1.710  1.00  0.00     0.167 HD
HETATM   32  C14 UNL     1       1.538   5.327  -0.088  1.00  0.00     0.290 A 
HETATM   33  C16 UNL     1       1.536   2.968  -0.340  1.00  0.00     0.160 A 
HETATM   34  O8  UNL     1       1.068   6.351   0.460  1.00  0.00    -0.265 OA
HETATM   35  N7  UNL     1       2.520   5.377  -0.995  1.00  0.00    -0.152 N 
HETATM   36  C15 UNL     1       3.006   4.283  -1.564  1.00  0.00     0.706 A 
ATOM     37  H7  UNL     1       2.906   6.284  -1.257  1.00  0.00     0.187 HD
HETATM   38  N9  UNL     1       2.515   3.086  -1.237  1.00  0.00    -0.172 N 
ATOM     39  H9  UNL     1       2.894   2.249  -1.680  1.00  0.00     0.186 HD
BRANCH  36  40
HETATM   40  N8  UNL     1       3.963   4.395  -2.441  1.00  0.00    -0.098 N 
ATOM     41  H8  UNL     1       4.340   3.556  -2.882  1.00  0.00     0.213 HD
BRANCH  40  42
HETATM   42  O9  UNL     1       4.469   5.617  -2.779  1.00  0.00    -0.276 OA
ATOM     43  H9  UNL     1       5.167   5.699  -3.418  1.00  0.00     0.245 HD
ENDBRANCH  40  42
ENDBRANCH  36  40
ENDBRANCH   5  27
BRANCH   1  44
HETATM   44  C2  UNL     1       3.470  -1.223   1.171  1.00  0.00     0.185 C 
BRANCH  44  45
HETATM   45  N2  UNL     1       3.362  -2.420   1.946  1.00  0.00    -0.341 N 
HETATM   46  C1  UNL     1       3.252  -3.727   1.402  1.00  0.00     0.328 C 
HETATM   47  N1  UNL     1       3.145  -4.877   2.260  1.00  0.00    -0.040 NA
HETATM   48  O1  UNL     1       3.248  -3.863   0.161  1.00  0.00    -0.251 OA
ATOM     49  H2  UNL     1       3.364  -2.328   2.962  1.00  0.00     0.163 HD
ENDBRANCH  44  45
ENDBRANCH   1  44
TORSDOF 14
