REMARK  11 active torsions:
REMARK  status: ('A' for Active; 'I' for Inactive)
REMARK    1  A    between atoms: C4_4  and  C5_5 
REMARK    2  A    between atoms: C6_16  and  N6_17 
REMARK    3  A    between atoms: C7_23  and  C8_24 
REMARK       I    between atoms: C8_24  and  N8_26 
REMARK    4  A    between atoms: N8_26  and  C9_28 
REMARK    5  A    between atoms: C9_28  and  C10_29 
REMARK       I    between atoms: C10_29  and  N9_31 
REMARK    6  A    between atoms: N9_31  and  C11_33 
REMARK    7  A    between atoms: C14_36  and  N10_37 
REMARK    8  A    between atoms: N11_42  and  C16_43 
REMARK    9  A    between atoms: C16_43  and  C17_44 
REMARK   10  A    between atoms: C17_44  and  N13_48 
REMARK   11  A    between atoms: N13_48  and  N14_50 
ROOT
HETATM    1  C8  UNL     1      -2.423  -0.086  -0.116  1.00  0.00     0.241 C 
HETATM    2  O1  UNL     1      -2.431  -0.726   0.983  1.00  0.00    -0.271 OA
HETATM    3  N8  UNL     1      -1.366   0.785  -0.365  1.00  0.00    -0.351 N 
ATOM      4  H8  UNL     1      -1.364   1.298  -1.247  1.00  0.00     0.163 HD
ENDROOT
BRANCH   3   5
HETATM    5  C9  UNL     1      -0.289   1.001   0.539  1.00  0.00     0.225 C 
BRANCH   5   6
HETATM    6  C10 UNL     1       0.504  -0.219   0.786  1.00  0.00     0.236 C 
HETATM    7  O2  UNL     1       0.199  -1.284   0.197  1.00  0.00    -0.272 OA
HETATM    8  N9  UNL     1       1.611  -0.199   1.689  1.00  0.00    -0.338 N 
ATOM      9  H9  UNL     1       1.872   0.658   2.177  1.00  0.00     0.164 HD
BRANCH   8  10
HETATM   10  C11 UNL     1       2.348  -1.416   1.893  1.00  0.00     0.186 C 
HETATM   11  C12 UNL     1       2.309  -1.717   3.390  1.00  0.00     0.049 C 
HETATM   12  C13 UNL     1       3.398  -2.696   3.763  1.00  0.00     0.038 C 
HETATM   13  C14 UNL     1       3.725  -3.508   2.537  1.00  0.00     0.201 C 
HETATM   14  C15 UNL     1       4.378  -2.613   1.514  1.00  0.00     0.157 C 
HETATM   15  N11 UNL     1       3.686  -1.328   1.491  1.00  0.00    -0.363 N 
BRANCH  13  16
HETATM   16  N10 UNL     1       4.543  -4.664   2.851  1.00  0.00    -0.073 N 
ATOM     17 3H10 UNL     1       5.389  -4.393   3.352  1.00  0.00     0.274 HD
ATOM     18 2H10 UNL     1       4.107  -5.241   3.571  1.00  0.00     0.274 HD
ATOM     19 1H10 UNL     1       4.764  -5.214   2.021  1.00  0.00     0.274 HD
ENDBRANCH  13  16
BRANCH  15  20
HETATM   20  C16 UNL     1       4.495  -0.227   1.731  1.00  0.00     0.137 C 
BRANCH  20  21
HETATM   21  C17 UNL     1       4.262   1.032   1.040  1.00  0.00     0.129 C 
HETATM   22  N12 UNL     1       4.290   2.146   1.683  1.00  0.00    -0.383 N 
ATOM     23 2H12 UNL     1       4.453   2.114   2.689  1.00  0.00     0.157 HD
ATOM     24 1H12 UNL     1       4.127   3.029   1.199  1.00  0.00     0.157 HD
BRANCH  21  25
HETATM   25  N13 UNL     1       4.035   1.077  -0.363  1.00  0.00    -0.283 N 
ATOM     26  H13 UNL     1       3.286   0.519  -0.773  1.00  0.00     0.188 HD
BRANCH  25  27
HETATM   27  N14 UNL     1       4.832   1.882  -1.185  1.00  0.00    -0.274 N 
HETATM   28  C18 UNL     1       5.179   1.629  -2.378  1.00  0.00     0.215 C 
HETATM   29  N15 UNL     1       6.002   2.607  -3.023  1.00  0.00    -0.065 NA
HETATM   30  N16 UNL     1       4.845   0.491  -3.139  1.00  0.00    -0.065 NA
ATOM     31  H14 UNL     1       5.167   2.759  -0.785  1.00  0.00     0.189 HD
ENDBRANCH  25  27
ENDBRANCH  21  25
ENDBRANCH  20  21
ENDBRANCH  15  20
ENDBRANCH   8  10
ENDBRANCH   5   6
ENDBRANCH   3   5
BRANCH   1  32
HETATM   32  C7  UNL     1      -3.572  -0.340  -1.050  1.00  0.00     0.186 C 
HETATM   33  C2  UNL     1      -4.263   0.872  -1.521  1.00  0.00     0.027 C 
HETATM   34  C1  UNL     1      -3.943   2.085  -0.612  1.00  0.00     0.024 C 
HETATM   35  C3  UNL     1      -3.778   1.271  -2.927  1.00  0.00     0.024 C 
HETATM   36  C4  UNL     1      -5.725   0.791  -1.499  1.00  0.00     0.066 C 
HETATM   37  N5  UNL     1      -6.341  -0.062  -0.769  1.00  0.00    -0.347 N 
HETATM   38  C6  UNL     1      -5.587  -0.991   0.074  1.00  0.00     0.383 C 
ATOM     39  H5  UNL     1      -7.360  -0.094  -0.775  1.00  0.00     0.163 HD
HETATM   40  N7  UNL     1      -4.399  -1.380  -0.590  1.00  0.00    -0.366 N 
ATOM     41  H7  UNL     1      -4.156  -2.361  -0.727  1.00  0.00     0.157 HD
BRANCH  36  42
HETATM   42  C5  UNL     1      -6.508   1.733  -2.331  1.00  0.00     0.160 A 
HETATM   43  N1  UNL     1      -7.849   1.780  -2.409  1.00  0.00    -0.267 N 
HETATM   44  N2  UNL     1      -8.180   2.770  -3.250  1.00  0.00    -0.227 N 
ATOM     45  H1  UNL     1      -8.500   1.170  -1.915  1.00  0.00     0.190 HD
HETATM   46  N3  UNL     1      -7.090   3.339  -3.696  1.00  0.00    -0.227 N 
ATOM     47  H2  UNL     1      -9.131   3.037  -3.502  1.00  0.00     0.210 HD
HETATM   48  N4  UNL     1      -6.073   2.701  -3.131  1.00  0.00    -0.267 N 
ATOM     49  H3  UNL     1      -7.033   4.120  -4.350  1.00  0.00     0.210 HD
ATOM     50  H4  UNL     1      -5.090   2.923  -3.289  1.00  0.00     0.190 HD
ENDBRANCH  36  42
BRANCH  38  51
HETATM   51  N6  UNL     1      -5.393  -0.434   1.395  1.00  0.00    -0.041 N 
ATOM     52  H63 UNL     1      -4.954   0.486   1.358  1.00  0.00     0.278 HD
ATOM     53  H62 UNL     1      -6.277  -0.163   1.826  1.00  0.00     0.278 HD
ATOM     54  H61 UNL     1      -4.868  -1.081   1.982  1.00  0.00     0.278 HD
ENDBRANCH  38  51
ENDBRANCH   1  32
TORSDOF 11
