REMARK  2 active torsions:
REMARK  status: ('A' for Active; 'I' for Inactive)
REMARK    1  A    between atoms: C1_2  and  C2_4 
REMARK    2  A    between atoms: N4_13  and  C6_14 
ROOT
HETATM    1  C2  UNL     1      -1.708   0.252   0.033  1.00  0.00     0.134 A 
HETATM    2  C3  UNL     1      -2.876   0.118  -0.759  1.00  0.00     0.146 A 
HETATM    3  N2  UNL     1      -4.163   0.503  -0.293  1.00  0.00    -0.094 NA
HETATM    4  C4  UNL     1      -2.787  -0.399  -2.021  1.00  0.00     0.276 A 
HETATM    5  O2  UNL     1      -3.806  -0.539  -2.771  1.00  0.00    -0.266 OA
HETATM    6  N3  UNL     1      -1.574  -0.757  -2.448  1.00  0.00    -0.274 N 
ATOM      7  H3  UNL     1      -1.488  -1.144  -3.388  1.00  0.00     0.173 HD
HETATM    8  C5  UNL     1      -0.473  -0.637  -1.715  1.00  0.00     0.330 A 
HETATM    9  O3  UNL     1       0.638  -1.018  -2.239  1.00  0.00    -0.246 OA
HETATM   10  N4  UNL     1      -0.531  -0.126  -0.454  1.00  0.00    -0.287 N 
ENDROOT
BRANCH  10  11
HETATM   11  C6  UNL     1       0.680  -0.036   0.269  1.00  0.00     0.120 C 
HETATM   12  C7  UNL     1       1.424  -1.356   0.391  1.00  0.00     0.029 C 
HETATM   13  C8  UNL     1       2.878  -1.222   0.131  1.00  0.00     0.029 C 
HETATM   14  C9  UNL     1       3.496   0.027   0.705  1.00  0.00     0.232 C 
HETATM   15  N5  UNL     1       2.669   1.200   0.569  1.00  0.00    -0.073 N 
HETATM   16  C10 UNL     1       1.599   0.999  -0.398  1.00  0.00     0.257 C 
ATOM     17  H52 UNL     1       2.302   1.502   1.471  1.00  0.00     0.277 HD
ATOM     18  H51 UNL     1       3.227   2.023   0.340  1.00  0.00     0.277 HD
ENDBRANCH  10  11
BRANCH   1  19
HETATM   19  C1  UNL     1      -1.980   0.812   1.329  1.00  0.00     0.283 C 
HETATM   20  N1  UNL     1      -1.080   1.093   2.349  1.00  0.00    -0.056 NA
HETATM   21  O1  UNL     1      -3.199   1.119   1.652  1.00  0.00    -0.269 OA
ENDBRANCH   1  19
TORSDOF 2
