REMARK  9 active torsions:
REMARK  status: ('A' for Active; 'I' for Inactive)
REMARK    1  A    between atoms: N1_1  and  N2_4 
REMARK    2  A    between atoms: C1_6  and  N3_7 
REMARK    3  A    between atoms: C1_6  and  C4_13 
REMARK    4  A    between atoms: N3_7  and  C2_9 
REMARK    5  A    between atoms: C2_9  and  C3_10 
REMARK    6  A    between atoms: C4_13  and  C5_14 
REMARK    7  A    between atoms: C4_13  and  N5_21 
REMARK    8  A    between atoms: C5_14  and  C6_15 
REMARK    9  A    between atoms: C6_15  and  C7_16 
REMARK       I    between atoms: N5_21  and  C9_23 
REMARK       I    between atoms: C9_23  and  N6_25 
ROOT
HETATM    1  C4  UNL     1       1.178   0.003   0.609  1.00  0.00     0.155 C 
ENDROOT
BRANCH   1   2
HETATM    2  C1  UNL     1       1.922  -1.275   0.534  1.00  0.00     0.115 C 
HETATM    3  N2  UNL     1       2.252  -1.860   1.629  1.00  0.00    -0.294 N 
ATOM      4  H2  UNL     1       2.763  -2.742   1.605  1.00  0.00     0.187 HD
BRANCH   3   5
HETATM    5  N1  UNL     1       1.910  -1.287   2.840  1.00  0.00    -0.344 N 
ATOM      6  H12 UNL     1       1.399  -0.405   2.846  1.00  0.00     0.176 HD
ATOM      7  H11 UNL     1       2.172  -1.752   3.709  1.00  0.00     0.176 HD
ENDBRANCH   3   5
BRANCH   2   8
HETATM    8  N3  UNL     1       2.285  -1.887  -0.676  1.00  0.00    -0.369 N 
ATOM      9  H3  UNL     1       1.893  -1.533  -1.548  1.00  0.00     0.161 HD
BRANCH   8  10
HETATM   10  C2  UNL     1       3.199  -3.004  -0.719  1.00  0.00     0.220 C 
BRANCH  10  11
HETATM   11  C3  UNL     1       4.577  -2.583  -0.332  1.00  0.00     0.248 C 
HETATM   12  N4  UNL     1       4.877  -1.247   0.017  1.00  0.00    -0.061 NA
HETATM   13  O1  UNL     1       5.535  -3.404  -0.301  1.00  0.00    -0.275 OA
ENDBRANCH  10  11
ENDBRANCH   8  10
ENDBRANCH   2   8
ENDBRANCH   1   2
BRANCH   1  14
HETATM   14  C5  UNL     1       1.928   1.131  -0.100  1.00  0.00     0.040 C 
BRANCH  14  15
HETATM   15  C6  UNL     1       1.111   2.382   0.023  1.00  0.00     0.078 C 
BRANCH  15  16
HETATM   16  C7  UNL     1       1.713   3.553  -0.611  1.00  0.00     0.161 C 
HETATM   17  F1  UNL     1       0.932   4.717  -0.498  1.00  0.00    -0.205 F 
HETATM   18  C8  UNL     1       2.827   3.670  -1.242  1.00  0.00     0.301 C 
HETATM   19  F2  UNL     1       3.682   2.663  -1.435  1.00  0.00    -0.170 F 
HETATM   20  F3  UNL     1       3.201   4.889  -1.765  1.00  0.00    -0.170 F 
ENDBRANCH  15  16
ENDBRANCH  14  15
ENDBRANCH   1  14
BRANCH   1  21
HETATM   21  N5  UNL     1      -0.135  -0.212   0.059  1.00  0.00    -0.331 N 
HETATM   22  C9  UNL     1      -1.316   0.011   0.831  1.00  0.00     0.319 C 
HETATM   23  O2  UNL     1      -1.238   0.411   2.037  1.00  0.00    -0.247 OA
HETATM   24  N6  UNL     1      -2.614  -0.199   0.303  1.00  0.00    -0.332 N 
HETATM   25  C10 UNL     1      -2.697  -0.660  -1.075  1.00  0.00     0.147 C 
HETATM   26  C14 UNL     1      -3.687   0.086   1.235  1.00  0.00     0.136 C 
HETATM   27  C11 UNL     1      -4.050  -1.291  -1.356  1.00  0.00     0.142 C 
HETATM   28  N7  UNL     1      -5.113  -0.334  -1.261  1.00  0.00    -0.359 N 
HETATM   29  C12 UNL     1      -5.223   0.834  -0.473  1.00  0.00     0.219 C 
ATOM     30  H7  UNL     1      -5.918  -0.527  -1.857  1.00  0.00     0.162 HD
HETATM   31  O3  UNL     1      -6.160   1.604  -0.798  1.00  0.00    -0.274 OA
HETATM   32  C13 UNL     1      -4.409   1.303   0.680  1.00  0.00     0.122 C 
ATOM     33  H5  UNL     1      -0.224  -0.531  -0.906  1.00  0.00     0.165 HD
ENDBRANCH   1  21
TORSDOF 9
