REMARK  9 active torsions:
REMARK  status: ('A' for Active; 'I' for Inactive)
REMARK    1  A    between atoms: N1_2  and  N2_3 
REMARK    2  A    between atoms: N2_3  and  C2_5 
REMARK    3  A    between atoms: C2_5  and  C3_9 
REMARK    4  A    between atoms: C4_15  and  C5_16 
REMARK    5  A    between atoms: N6_18  and  C7_19 
REMARK    6  A    between atoms: C7_19  and  C8_20 
REMARK    7  A    between atoms: C10_26  and  C11_27 
REMARK    8  A    between atoms: N9_28  and  N10_30 
REMARK    9  A    between atoms: N10_30  and  C12_32 
ROOT
HETATM    1  C5  UNL     1       0.584  -1.310  -0.800  1.00  0.00     0.097 A 
HETATM    2  C6  UNL     1       0.991  -0.792   0.373  1.00  0.00     0.145 A 
HETATM    3  N6  UNL     1       0.056  -0.010   0.954  1.00  0.00    -0.281 N 
HETATM    4  N14 UNL     1      -0.955  -0.045   0.121  1.00  0.00    -0.240 N 
ATOM      5  H14 UNL     1      -1.834   0.450   0.273  1.00  0.00     0.208 HD
HETATM    6  N15 UNL     1      -0.713  -0.775  -0.910  1.00  0.00    -0.282 N 
ATOM      7  H15 UNL     1      -1.358  -0.940  -1.683  1.00  0.00     0.188 HD
ENDROOT
BRANCH   3   8
HETATM    8  C7  UNL     1       0.170   0.812   2.141  1.00  0.00     0.208 C 
BRANCH   8   9
HETATM    9  C8  UNL     1       0.423   2.256   1.627  1.00  0.00     0.049 A 
HETATM   10  N7  UNL     1       1.642   2.728   1.499  1.00  0.00    -0.326 N 
HETATM   11  S1  UNL     1       1.461   4.226   0.755  1.00  0.00     0.002 SA
ATOM     12  H7  UNL     1       2.512   2.282   1.789  1.00  0.00     0.174 HD
HETATM   13  C9  UNL     1      -0.230   4.237   0.614  1.00  0.00     0.117 A 
HETATM   14  N8  UNL     1      -1.125   5.233   0.059  1.00  0.00    -0.092 NA
HETATM   15  C10 UNL     1      -0.602   3.038   1.170  1.00  0.00     0.038 A 
BRANCH  15  16
HETATM   16  C11 UNL     1      -2.047   2.694   1.394  1.00  0.00     0.123 C 
HETATM   17  N9  UNL     1      -2.947   3.441   0.898  1.00  0.00    -0.308 N 
ATOM     18  H9  UNL     1      -2.629   4.246   0.358  1.00  0.00     0.186 HD
BRANCH  17  19
HETATM   19  N10 UNL     1      -4.328   3.271   1.017  1.00  0.00    -0.271 N 
ATOM     20  H10 UNL     1      -4.925   4.012   1.384  1.00  0.00     0.190 HD
BRANCH  19  21
HETATM   21  C12 UNL     1      -4.869   2.016   0.603  1.00  0.00     0.207 C 
HETATM   22  N11 UNL     1      -5.491   1.858  -0.524  1.00  0.00    -0.345 N 
HETATM   23  C13 UNL     1      -5.900   0.490  -0.628  1.00  0.00     0.259 C 
ATOM     24  H11 UNL     1      -5.660   2.585  -1.219  1.00  0.00     0.164 HD
HETATM   25  N12 UNL     1      -5.048  -0.208   0.288  1.00  0.00    -0.119 NA
HETATM   26  N13 UNL     1      -4.830   0.786   1.283  1.00  0.00    -0.273 N 
ATOM     27  H13 UNL     1      -4.677   0.637   2.280  1.00  0.00     0.185 HD
ENDBRANCH  19  21
ENDBRANCH  17  19
ENDBRANCH  15  16
ENDBRANCH   8   9
ENDBRANCH   3   8
BRANCH   1  28
HETATM   28  C4  UNL     1       1.128  -2.108  -1.855  1.00  0.00     0.119 A 
HETATM   29  C3  UNL     1       2.302  -2.706  -2.021  1.00  0.00     0.175 A 
HETATM   30  O1  UNL     1       2.254  -3.296  -3.256  1.00  0.00    -0.216 OA
HETATM   31  N4  UNL     1       1.136  -3.074  -3.797  1.00  0.00    -0.201 N 
HETATM   32  N5  UNL     1       0.394  -2.367  -3.025  1.00  0.00    -0.276 N 
ATOM     33  H4  UNL     1       0.860  -3.410  -4.720  1.00  0.00     0.216 HD
ATOM     34  H5  UNL     1      -0.555  -2.051  -3.224  1.00  0.00     0.189 HD
BRANCH  29  35
HETATM   35  C2  UNL     1       3.490  -2.826  -1.188  1.00  0.00     0.149 C 
HETATM   36  N3  UNL     1       3.720  -2.459  -0.080  1.00  0.00    -0.382 N 
ATOM     37  H32 UNL     1       4.552  -2.543   0.504  1.00  0.00     0.157 HD
ATOM     38  H31 UNL     1       2.953  -1.987   0.399  1.00  0.00     0.157 HD
BRANCH  35  39
HETATM   39  N2  UNL     1       4.617  -3.520  -1.892  1.00  0.00    -0.288 N 
ATOM     40  H2  UNL     1       4.924  -3.263  -2.830  1.00  0.00     0.184 HD
BRANCH  39  41
HETATM   41  N1  UNL     1       5.203  -4.532  -1.167  1.00  0.00    -0.144 NA
HETATM   42  C1  UNL     1       6.284  -4.075  -0.308  1.00  0.00     0.159 C 
ENDBRANCH  39  41
ENDBRANCH  35  39
ENDBRANCH  29  35
ENDBRANCH   1  28
TORSDOF 9
