REMARK  3 active torsions:
REMARK  status: ('A' for Active; 'I' for Inactive)
REMARK    1  A    between atoms: O1_2  and  C2_3 
REMARK    2  A    between atoms: C2_3  and  C3_4 
REMARK    3  A    between atoms: N1_7  and  O2_8 
ROOT
HETATM    1  C2  UNL     1      -0.510   0.735   0.037  1.00  0.00     0.212 C 
HETATM    2  C8  UNL     1      -1.024   0.896  -1.336  1.00  0.00     0.045 C 
HETATM    3  C9  UNL     1      -2.217   0.478  -1.747  1.00  0.00     0.014 C 
HETATM    4  C10 UNL     1      -3.104  -0.197  -0.776  1.00  0.00     0.216 C 
HETATM    5  F1  UNL     1      -3.775  -1.207  -1.413  1.00  0.00    -0.243 F 
HETATM    6  C11 UNL     1      -2.229  -0.792   0.303  1.00  0.00     0.213 C 
HETATM    7  O3  UNL     1      -1.404   0.142   0.896  1.00  0.00    -0.345 OA
ENDROOT
BRANCH   1   8
HETATM    8  O1  UNL     1      -0.184   2.029   0.497  1.00  0.00    -0.353 OA
HETATM    9  C1  UNL     1       0.391   1.980   1.763  1.00  0.00     0.206 C 
ENDBRANCH   1   8
BRANCH   1  10
HETATM   10  C3  UNL     1       0.760  -0.030  -0.002  1.00  0.00     0.010 A 
HETATM   11  C4  UNL     1       1.754   0.243  -0.920  1.00  0.00     0.033 A 
HETATM   12  C5  UNL     1       2.941  -0.486  -0.942  1.00  0.00     0.123 A 
HETATM   13  N1  UNL     1       3.135  -1.481  -0.056  1.00  0.00    -0.247 N 
HETATM   14  C6  UNL     1       2.161  -1.744   0.838  1.00  0.00     0.123 A 
HETATM   15  C7  UNL     1       0.987  -1.065   0.903  1.00  0.00     0.033 A 
BRANCH  13  16
HETATM   16  O2  UNL     1       4.318  -2.200  -0.087  1.00  0.00    -0.284 OA
ATOM     17  H2  UNL     1       4.455  -2.902   0.538  1.00  0.00     0.245 HD
ENDBRANCH  13  16
ENDBRANCH   1  10
TORSDOF 3
