REMARK  12 active torsions:
REMARK  status: ('A' for Active; 'I' for Inactive)
REMARK    1  A    between atoms: C2_2  and  C3_3 
REMARK    2  A    between atoms: C3_3  and  N1_4 
REMARK    3  A    between atoms: N1_4  and  C4_5 
REMARK    4  A    between atoms: N1_4  and  C6_8 
REMARK    5  A    between atoms: C4_5  and  C5_6 
REMARK    6  A    between atoms: C7_11  and  O1_12 
REMARK    7  A    between atoms: C8_14  and  C9_15 
REMARK    8  A    between atoms: C9_15  and  C10_16 
REMARK    9  A    between atoms: C9_15  and  C18_33 
REMARK   10  A    between atoms: C11_18  and  C12_19 
REMARK   11  A    between atoms: C15_28  and  O2_29 
REMARK   12  A    between atoms: C18_33  and  O3_34 
ROOT
HETATM    1  C18 UNL     1       1.021  -3.342  -1.277  1.00  0.00     0.238 C 
HETATM    2  C19 UNL     1       0.347  -4.616  -0.930  1.00  0.00     0.092 C 
HETATM    3  N6  UNL     1      -0.187  -5.619  -0.676  1.00  0.00    -0.194 NA
ENDROOT
BRANCH   1   4
HETATM    4  C9  UNL     1       0.622  -2.284  -0.327  1.00  0.00     0.113 C 
BRANCH   4   5
HETATM    5  C8  UNL     1      -0.771  -1.805  -0.391  1.00  0.00     0.049 A 
HETATM    6  C7  UNL     1      -1.733  -1.916  -1.366  1.00  0.00     0.156 A 
HETATM    7  N2  UNL     1      -2.880  -1.368  -1.131  1.00  0.00    -0.317 N 
HETATM    8  C6  UNL     1      -3.141  -0.733  -0.030  1.00  0.00     0.149 A 
ATOM      9  H2  UNL     1      -3.610  -1.438  -1.840  1.00  0.00     0.170 HD
HETATM   10  S2  UNL     1      -1.608  -0.912   0.794  1.00  0.00    -0.053 SA
BRANCH   6  11
HETATM   11  O1  UNL     1      -1.483  -2.604  -2.586  1.00  0.00    -0.345 OA
ATOM     12  H1  UNL     1      -0.640  -3.007  -2.759  1.00  0.00     0.219 HD
ENDBRANCH   6  11
BRANCH   8  13
HETATM   13  N1  UNL     1      -4.287  -0.026   0.486  1.00  0.00    -0.360 N 
BRANCH  13  14
HETATM   14  C3  UNL     1      -4.407   1.416   0.434  1.00  0.00     0.124 C 
BRANCH  14  15
HETATM   15  C2  UNL     1      -3.323   2.150  -0.243  1.00  0.00     0.015 C 
HETATM   16  C1  UNL     1      -3.237   1.817  -1.692  1.00  0.00     0.006 C 
ENDBRANCH  14  15
ENDBRANCH  13  14
BRANCH  13  17
HETATM   17  C4  UNL     1      -5.345  -0.757   1.146  1.00  0.00     0.140 C 
BRANCH  17  18
HETATM   18  C5  UNL     1      -5.295  -2.227   1.084  1.00  0.00     0.134 C 
HETATM   19 CL1  UNL     1      -5.454  -2.921  -0.539  1.00  0.00    -0.129 Cl
ENDBRANCH  17  18
ENDBRANCH  13  17
ENDBRANCH   8  13
ENDBRANCH   4   5
BRANCH   4  20
HETATM   20  C10 UNL     1       1.621  -1.159  -0.213  1.00  0.00     0.005 A 
HETATM   21  S1  UNL     1       2.780  -0.924   1.016  1.00  0.00    -0.087 SA
HETATM   22  C11 UNL     1       3.534   0.526   0.425  1.00  0.00     0.084 A 
HETATM   23  C15 UNL     1       2.838   0.762  -0.712  1.00  0.00     0.093 A 
HETATM   24  C16 UNL     1       1.848  -0.116  -1.039  1.00  0.00    -0.013 A 
HETATM   25  C17 UNL     1       0.993   0.072  -2.284  1.00  0.00     0.052 C 
BRANCH  22  26
HETATM   26  C12 UNL     1       4.649   1.168   1.108  1.00  0.00     0.141 A 
HETATM   27  N3  UNL     1       5.106   0.790   2.349  1.00  0.00    -0.283 N 
HETATM   28  N4  UNL     1       6.104   1.547   2.733  1.00  0.00    -0.288 N 
ATOM     29  H3  UNL     1       4.719   0.022   2.898  1.00  0.00     0.188 HD
HETATM   30  C13 UNL     1       6.339   2.433   1.781  1.00  0.00     0.093 A 
ATOM     31  H4  UNL     1       6.612   1.466   3.614  1.00  0.00     0.188 HD
HETATM   32  C14 UNL     1       7.377   3.478   1.803  1.00  0.00     0.090 C 
HETATM   33  N5  UNL     1       5.429   2.188   0.774  1.00  0.00    -0.329 N 
ATOM     34  H5  UNL     1       5.365   2.713  -0.098  1.00  0.00     0.168 HD
ENDBRANCH  22  26
BRANCH  23  35
HETATM   35  O2  UNL     1       3.125   1.878  -1.533  1.00  0.00    -0.359 OA
ATOM     36  H2  UNL     1       2.637   2.044  -2.331  1.00  0.00     0.217 HD
ENDBRANCH  23  35
ENDBRANCH   4  20
ENDBRANCH   1   4
BRANCH   1  37
HETATM   37  O3  UNL     1       2.388  -3.611  -1.008  1.00  0.00    -0.380 OA
ATOM     38  H3  UNL     1       2.645  -4.292  -1.619  1.00  0.00     0.211 HD
ENDBRANCH   1  37
TORSDOF 12
