REMARK  13 active torsions:
REMARK  status: ('A' for Active; 'I' for Inactive)
REMARK    1  A    between atoms: O1_2  and  C2_3 
REMARK    2  A    between atoms: C4_5  and  C5_6 
REMARK    3  A    between atoms: N1_7  and  N2_9 
REMARK       I    between atoms: N2_9  and  C6_11 
REMARK       I    between atoms: C6_11  and  N4_16 
REMARK    4  A    between atoms: N3_12  and  O2_14 
REMARK    5  A    between atoms: N4_16  and  N5_18 
REMARK    6  A    between atoms: N5_18  and  C7_19 
REMARK    7  A    between atoms: C7_19  and  C8_20 
REMARK    8  A    between atoms: C10_22  and  O3_23 
REMARK    9  A    between atoms: C12_25  and  O4_26 
REMARK   10  A    between atoms: C14_28  and  O5_29 
REMARK   11  A    between atoms: C18_34  and  O6_35 
REMARK   12  A    between atoms: O6_35  and  C19_36 
REMARK   13  A    between atoms: C21_39  and  O8_40 
ROOT
HETATM    1  N2  UNL     1       1.198  -0.644   0.146  1.00  0.00    -0.129 N 
ATOM      2  H2  UNL     1       1.299  -1.650   0.012  1.00  0.00     0.205 HD
HETATM    3  C6  UNL     1       0.466   0.113  -0.793  1.00  0.00     0.741 C 
HETATM    4  N3  UNL     1       0.749   1.318  -1.023  1.00  0.00    -0.095 N 
ATOM      5  H3  UNL     1       1.521   1.760  -0.524  1.00  0.00     0.213 HD
HETATM    6  N4  UNL     1      -0.625  -0.516  -1.496  1.00  0.00    -0.062 N 
ATOM      7  H4  UNL     1      -0.699  -0.355  -2.500  1.00  0.00     0.221 HD
ENDROOT
BRANCH   1   8
HETATM    8  N1  UNL     1       1.764  -0.058   1.215  1.00  0.00    -0.297 N 
HETATM    9  C5  UNL     1       2.862   0.247   1.686  1.00  0.00     0.119 C 
ATOM     10  H1  UNL     1       1.031   0.237   1.860  1.00  0.00     0.186 HD
BRANCH   9  11
HETATM   11  C4  UNL     1       4.153   0.019   1.108  1.00  0.00    -0.014 A 
HETATM   12  C3  UNL     1       4.298  -0.590  -0.112  1.00  0.00     0.052 A 
HETATM   13  C2  UNL     1       5.570  -0.794  -0.634  1.00  0.00     0.104 A 
HETATM   14  C21 UNL     1       6.678  -0.392   0.059  1.00  0.00     0.133 A 
HETATM   15  C18 UNL     1       6.570   0.232   1.302  1.00  0.00     0.116 A 
HETATM   16  C17 UNL     1       5.313   0.427   1.806  1.00  0.00     0.053 A 
BRANCH  13  17
HETATM   17  O1  UNL     1       5.693  -1.405  -1.853  1.00  0.00    -0.353 OA
HETATM   18  C1  UNL     1       4.544  -1.813  -2.554  1.00  0.00     0.210 C 
ENDBRANCH  13  17
BRANCH  14  19
HETATM   19  O8  UNL     1       7.969  -0.572  -0.420  1.00  0.00    -0.356 OA
ATOM     20  H8  UNL     1       8.739  -0.293   0.061  1.00  0.00     0.218 HD
ENDBRANCH  14  19
BRANCH  15  21
HETATM   21  O6  UNL     1       7.680   0.648   2.023  1.00  0.00    -0.276 OA
BRANCH  21  22
HETATM   22  C19 UNL     1       8.152   1.934   1.868  1.00  0.00     0.260 C 
HETATM   23  C20 UNL     1       9.344   2.344   2.658  1.00  0.00     0.126 C 
HETATM   24  O7  UNL     1       7.550   2.689   1.067  1.00  0.00    -0.265 OA
ENDBRANCH  21  22
ENDBRANCH  15  21
ENDBRANCH   9  11
ENDBRANCH   1   8
BRANCH   4  25
HETATM   25  O2  UNL     1       0.029   2.042  -1.938  1.00  0.00    -0.276 OA
ATOM     26  H2  UNL     1       0.243   2.951  -2.112  1.00  0.00     0.245 HD
ENDBRANCH   4  25
BRANCH   6  27
HETATM   27  N5  UNL     1      -1.519  -1.273  -0.937  1.00  0.00    -0.323 NA
BRANCH  27  28
HETATM   28  C7  UNL     1      -2.543  -1.697  -0.529  1.00  0.00     0.224 C 
BRANCH  28  29
HETATM   29  C8  UNL     1      -3.886  -1.116  -0.589  1.00  0.00     0.039 A 
HETATM   30  C9  UNL     1      -4.939  -1.830  -0.041  1.00  0.00     0.057 A 
HETATM   31  C10 UNL     1      -6.218  -1.340  -0.071  1.00  0.00     0.105 A 
HETATM   32  C12 UNL     1      -6.519  -0.123  -0.642  1.00  0.00     0.138 A 
HETATM   33  C14 UNL     1      -5.461   0.569  -1.180  1.00  0.00     0.144 A 
HETATM   34  C16 UNL     1      -4.146   0.095  -1.164  1.00  0.00     0.165 A 
HETATM   35  F1  UNL     1      -3.174   0.853  -1.716  1.00  0.00    -0.202 F 
BRANCH  31  36
HETATM   36  O3  UNL     1      -7.283  -2.060   0.482  1.00  0.00    -0.353 OA
HETATM   37  C11 UNL     1      -7.094  -3.327   1.097  1.00  0.00     0.210 C 
ENDBRANCH  31  36
BRANCH  32  38
HETATM   38  O4  UNL     1      -7.814   0.384  -0.678  1.00  0.00    -0.351 OA
HETATM   39  C13 UNL     1      -8.382   1.187   0.311  1.00  0.00     0.210 C 
ENDBRANCH  32  38
BRANCH  33  40
HETATM   40  O5  UNL     1      -5.693   1.796  -1.768  1.00  0.00    -0.350 OA
HETATM   41  C15 UNL     1      -5.623   2.952  -0.984  1.00  0.00     0.210 C 
ENDBRANCH  33  40
ENDBRANCH  28  29
ENDBRANCH  27  28
ENDBRANCH   6  27
TORSDOF 13
