REMARK  1 active torsions:
REMARK  status: ('A' for Active; 'I' for Inactive)
REMARK    1  A    between atoms: C3_3  and  C4_4 
ROOT
HETATM    1  C1  UNL     1      -2.521   2.787   1.066  1.00  0.00     0.017 C 
HETATM    2  C2  UNL     1      -1.443   2.342   0.756  1.00  0.00    -0.087 C 
HETATM    3  C3  UNL     1      -0.183   1.796   0.392  1.00  0.00     0.093 C 
ENDROOT
BRANCH   3   4
HETATM    4  C4  UNL     1      -0.023   0.500   0.238  1.00  0.00     0.046 A 
HETATM    5  N1  UNL     1      -1.004  -0.421   0.402  1.00  0.00    -0.356 N 
HETATM    6  C5  UNL     1      -0.483  -1.630   0.165  1.00  0.00     0.023 A 
ATOM      7  H1  UNL     1      -1.971  -0.226   0.661  1.00  0.00     0.166 HD
HETATM    8  C6  UNL     1      -1.147  -2.783   0.230  1.00  0.00     0.043 C 
HETATM    9  C7  UNL     1       0.871  -1.509  -0.163  1.00  0.00     0.037 A 
HETATM   10  C8  UNL     1       1.147  -0.161  -0.114  1.00  0.00    -0.033 A 
HETATM   11  C9  UNL     1       2.449   0.499  -0.382  1.00  0.00     0.050 C 
ENDBRANCH   3   4
TORSDOF 1
