REMARK  1 active torsions:
REMARK  status: ('A' for Active; 'I' for Inactive)
REMARK    1  A    between atoms: C6_6  and  C7_7 
ROOT
HETATM    1  C7  UNL     1       1.794  -0.598   0.866  1.00  0.00     0.123 C 
HETATM    2  C8  UNL     1       2.882   0.303   0.667  1.00  0.00     0.090 C 
HETATM    3  N1  UNL     1       3.794   1.029   0.517  1.00  0.00    -0.192 NA
ENDROOT
BRANCH   1   4
HETATM    4  C6  UNL     1       0.582  -0.408   0.404  1.00  0.00     0.048 A 
HETATM    5  C4  UNL     1       0.098   0.647  -0.342  1.00  0.00    -0.033 A 
HETATM    6  C3  UNL     1      -1.255   0.361  -0.573  1.00  0.00     0.037 A 
HETATM    7  C5  UNL     1       0.818   1.840  -0.815  1.00  0.00     0.050 C 
HETATM    8  C2  UNL     1      -1.565  -0.835   0.022  1.00  0.00     0.023 A 
HETATM    9  C1  UNL     1      -2.752  -1.439   0.021  1.00  0.00     0.043 C 
HETATM   10  N2  UNL     1      -0.439  -1.276   0.603  1.00  0.00    -0.356 N 
ATOM     11  H2  UNL     1      -0.362  -2.149   1.125  1.00  0.00     0.166 HD
ENDBRANCH   1   4
TORSDOF 1
