REMARK  16 active torsions:
REMARK  status: ('A' for Active; 'I' for Inactive)
REMARK    1  A    between atoms: C1_2  and  C2_4 
REMARK    2  A    between atoms: C2_4  and  C3_5 
REMARK    3  A    between atoms: C3_5  and  C4_6 
REMARK    4  A    between atoms: C4_6  and  C5_7 
REMARK    5  A    between atoms: C5_7  and  C6_8 
REMARK    6  A    between atoms: C6_8  and  C7_9 
REMARK    7  A    between atoms: C7_9  and  C8_10 
REMARK    8  A    between atoms: C8_10  and  C9_11 
REMARK    9  A    between atoms: C9_11  and  C10_12 
REMARK   10  A    between atoms: C10_12  and  C11_13 
REMARK   11  A    between atoms: C11_13  and  C12_14 
REMARK   12  A    between atoms: C13_15  and  O3_16 
REMARK   13  A    between atoms: C16_23  and  O4_24 
REMARK   14  A    between atoms: C17_26  and  O5_27 
REMARK   15  A    between atoms: C18_29  and  N2_30 
REMARK       I    between atoms: N2_30  and  C19_32 
REMARK   16  A    between atoms: C19_32  and  C20_34 
ROOT
HETATM    1  C12 UNL     1      -0.780  -1.289   1.764  1.00  0.00     0.050 C 
HETATM    2  C13 UNL     1      -0.995   0.134   1.469  1.00  0.00     0.157 C 
HETATM    3  C14 UNL     1      -2.032   0.133   0.335  1.00  0.00     0.240 C 
HETATM    4  N1  UNL     1      -1.902  -1.137  -0.308  1.00  0.00    -0.059 N 
ATOM      5  H11 UNL     1      -1.183  -1.176  -1.030  1.00  0.00     0.278 HD
ATOM      6  H12 UNL     1      -2.679  -1.384  -0.921  1.00  0.00     0.278 HD
HETATM    7  C15 UNL     1      -1.696  -2.038   0.789  1.00  0.00     0.224 C 
HETATM    8  C16 UNL     1      -3.053  -2.241   1.452  1.00  0.00     0.180 C 
HETATM    9  C17 UNL     1      -3.644  -0.950   1.919  1.00  0.00     0.173 C 
HETATM   10  C18 UNL     1      -3.425   0.195   0.928  1.00  0.00     0.149 C 
ENDROOT
BRANCH   1  11
HETATM   11  C11 UNL     1       0.577  -1.834   1.814  1.00  0.00     0.009 C 
BRANCH  11  12
HETATM   12  C10 UNL     1       1.449  -1.776   0.635  1.00  0.00     0.001 C 
BRANCH  12  13
HETATM   13  C9  UNL     1       2.826  -2.402   0.892  1.00  0.00     0.000 C 
BRANCH  13  14
HETATM   14  C8  UNL     1       3.562  -1.722   1.991  1.00  0.00     0.000 C 
BRANCH  14  15
HETATM   15  C7  UNL     1       3.828  -0.266   1.758  1.00  0.00     0.000 C 
BRANCH  15  16
HETATM   16  C6  UNL     1       4.673  -0.059   0.494  1.00  0.00     0.000 C 
BRANCH  16  17
HETATM   17  C5  UNL     1       4.904   1.410   0.312  1.00  0.00     0.000 C 
BRANCH  17  18
HETATM   18  C4  UNL     1       5.710   1.741  -0.896  1.00  0.00     0.001 C 
BRANCH  18  19
HETATM   19  C3  UNL     1       7.067   1.127  -0.852  1.00  0.00     0.010 C 
BRANCH  19  20
HETATM   20  C2  UNL     1       7.929   1.427  -2.039  1.00  0.00     0.113 C 
BRANCH  20  21
HETATM   21  C1  UNL     1       7.391   0.954  -3.317  1.00  0.00     0.172 C 
HETATM   22  O1  UNL     1       8.015   1.264  -4.367  1.00  0.00    -0.648 OA
HETATM   23  O2  UNL     1       6.248   0.187  -3.482  1.00  0.00    -0.648 OA
ENDBRANCH  20  21
ENDBRANCH  19  20
ENDBRANCH  18  19
ENDBRANCH  17  18
ENDBRANCH  16  17
ENDBRANCH  15  16
ENDBRANCH  14  15
ENDBRANCH  13  14
ENDBRANCH  12  13
ENDBRANCH  11  12
ENDBRANCH   1  11
BRANCH   2  24
HETATM   24  O3  UNL     1       0.094   0.903   1.171  1.00  0.00    -0.393 OA
ATOM     25  H3  UNL     1      -0.045   1.823   0.980  1.00  0.00     0.210 HD
ENDBRANCH   2  24
BRANCH   8  26
HETATM   26  O4  UNL     1      -3.934  -2.911   0.643  1.00  0.00    -0.391 OA
ATOM     27  H4  UNL     1      -4.780  -3.038   1.056  1.00  0.00     0.210 HD
ENDBRANCH   8  26
BRANCH  10  28
HETATM   28  N2  UNL     1      -4.449   0.135  -0.071  1.00  0.00    -0.350 N 
HETATM   29  C19 UNL     1      -5.429   1.155  -0.148  1.00  0.00     0.256 C 
HETATM   30  O6  UNL     1      -5.380   2.105   0.672  1.00  0.00    -0.271 OA
ATOM     31  H2  UNL     1      -4.473  -0.644  -0.729  1.00  0.00     0.163 HD
BRANCH  29  32
HETATM   32  C20 UNL     1      -6.516   1.146  -1.164  1.00  0.00     0.345 C 
HETATM   33  N3  UNL     1      -7.394   2.264  -1.043  1.00  0.00    -0.055 N 
HETATM   34  C21 UNL     1      -8.051   2.393  -2.316  1.00  0.00     0.241 C 
ATOM     35  H32 UNL     1      -8.040   2.190  -0.257  1.00  0.00     0.278 HD
ATOM     36  H31 UNL     1      -6.926   3.118  -0.739  1.00  0.00     0.278 HD
HETATM   37  C22 UNL     1      -6.961   2.020  -3.330  1.00  0.00     0.108 C 
HETATM   38  C23 UNL     1      -6.009   1.203  -2.537  1.00  0.00     0.168 C 
HETATM   39  O7  UNL     1      -5.006   0.691  -2.976  1.00  0.00    -0.295 OA
ENDBRANCH  29  32
ENDBRANCH  10  28
BRANCH   9  40
HETATM   40  O5  UNL     1      -4.988  -1.147   2.165  1.00  0.00    -0.391 OA
ATOM     41  H5  UNL     1      -5.364  -0.326   2.462  1.00  0.00     0.210 HD
ENDBRANCH   9  40
TORSDOF 16
