REMARK  2 active torsions:
REMARK  status: ('A' for Active; 'I' for Inactive)
REMARK    1  A    between atoms: C1_2  and  C2_4 
REMARK    2  A    between atoms: N2_9  and  C7_10 
ROOT
HETATM    1  C2  UNL     1      -1.418   0.031  -0.683  1.00  0.00     0.098 C 
HETATM    2  C3  UNL     1      -1.654  -1.460  -0.524  1.00  0.00     0.025 C 
HETATM    3  C4  UNL     1      -0.643  -1.863   0.527  1.00  0.00     0.042 C 
HETATM    4  C5  UNL     1      -0.776  -0.645   1.462  1.00  0.00     0.035 C 
HETATM    5  C6  UNL     1      -0.360   0.369   0.375  1.00  0.00     0.095 C 
HETATM    6  N2  UNL     1       0.818  -0.218  -0.093  1.00  0.00    -0.374 N 
HETATM    7  C10 UNL     1       0.787  -1.612   0.027  1.00  0.00     0.272 C 
HETATM    8  F1  UNL     1       0.983  -2.213  -1.197  1.00  0.00    -0.227 F 
ENDROOT
BRANCH   1   9
HETATM    9  C1  UNL     1      -2.606   0.843  -0.586  1.00  0.00     0.237 C 
HETATM   10  N1  UNL     1      -2.512   2.253  -0.722  1.00  0.00    -0.062 NA
HETATM   11  O1  UNL     1      -3.741   0.354  -0.384  1.00  0.00    -0.276 OA
ENDBRANCH   1   9
BRANCH   6  12
HETATM   12  C7  UNL     1       1.888   0.491  -0.566  1.00  0.00     0.082 A 
HETATM   13  C8  UNL     1       2.660   1.450   0.307  1.00  0.00     0.027 A 
HETATM   14  C9  UNL     1       3.332   0.241  -0.194  1.00  0.00     0.027 A 
ENDBRANCH   6  12
TORSDOF 2
