REMARK  3 active torsions:
REMARK  status: ('A' for Active; 'I' for Inactive)
REMARK    1  A    between atoms: C2_2  and  C3_3 
REMARK    2  A    between atoms: C3_3  and  N1_4 
REMARK       I    between atoms: N1_4  and  C4_6 
REMARK    3  A    between atoms: C4_6  and  C5_8 
ROOT
HETATM    1  C5  UNL     1      -0.408  -0.057  -0.272  1.00  0.00     0.086 C 
HETATM    2  C6  UNL     1      -0.864   1.408  -0.175  1.00  0.00     0.019 C 
HETATM    3  C7  UNL     1      -2.221   1.212   0.455  1.00  0.00    -0.006 C 
HETATM    4  C8  UNL     1      -2.974   0.278  -0.513  1.00  0.00     0.049 C 
HETATM    5  C9  UNL     1      -2.652  -1.032   0.154  1.00  0.00     0.109 C 
HETATM    6  F1  UNL     1      -3.013  -2.173  -0.371  1.00  0.00    -0.242 F 
HETATM    7  C10 UNL     1      -3.094  -0.702   1.589  1.00  0.00     0.049 C 
HETATM    8  C11 UNL     1      -1.913   0.230   1.545  1.00  0.00     0.001 C 
HETATM    9  C12 UNL     1      -1.236  -0.844   0.676  1.00  0.00     0.043 C 
ENDROOT
BRANCH   1  10
HETATM   10  C4  UNL     1       1.034  -0.083   0.002  1.00  0.00     0.222 C 
HETATM   11  N1  UNL     1       1.911   0.650  -0.835  1.00  0.00    -0.357 N 
ATOM     12  H1  UNL     1       1.518   1.181  -1.612  1.00  0.00     0.162 HD
HETATM   13  O1  UNL     1       1.557  -0.725   0.950  1.00  0.00    -0.273 OA
BRANCH  11  14
HETATM   14  C3  UNL     1       3.346   0.674  -0.628  1.00  0.00     0.149 C 
BRANCH  14  15
HETATM   15  C2  UNL     1       3.942  -0.683  -0.714  1.00  0.00    -0.018 C 
HETATM   16  C1  UNL     1       4.580  -1.161   0.338  1.00  0.00     0.008 C 
ENDBRANCH  14  15
ENDBRANCH  11  14
ENDBRANCH   1  10
TORSDOF 3
