REMARK  9 active torsions:
REMARK  status: ('A' for Active; 'I' for Inactive)
REMARK    1  A    between atoms: C2_2  and  C3_3 
REMARK    2  A    between atoms: C3_3  and  C4_4 
REMARK    3  A    between atoms: C4_4  and  C5_5 
REMARK    4  A    between atoms: C6_6  and  O1_7 
REMARK    5  A    between atoms: C8_9  and  O2_10 
REMARK    6  A    between atoms: C12_15  and  N1_16 
REMARK    7  A    between atoms: C14_20  and  O3_21 
REMARK    8  A    between atoms: C16_23  and  O4_24 
REMARK    9  A    between atoms: C18_26  and  O5_27 
ROOT
HETATM    1  C5  UNL     1      -2.529  -0.415   0.106  1.00  0.00     0.013 A 
HETATM    2  C6  UNL     1      -3.014  -1.602  -0.284  1.00  0.00     0.111 A 
HETATM    3  C8  UNL     1      -2.167  -2.694  -0.456  1.00  0.00     0.106 A 
HETATM    4  C9  UNL     1      -0.773  -2.617  -0.237  1.00  0.00    -0.011 A 
HETATM    5  C10 UNL     1       0.144  -3.730  -0.416  1.00  0.00     0.052 C 
HETATM    6  C11 UNL     1      -0.375  -1.354   0.162  1.00  0.00     0.034 A 
HETATM    7  C12 UNL     1       1.012  -1.357   0.393  1.00  0.00     0.053 C 
HETATM    8  C13 UNL     1       1.842  -0.227   0.325  1.00  0.00     0.044 A 
HETATM    9  C14 UNL     1       3.110  -0.520  -0.064  1.00  0.00     0.117 A 
HETATM   10  C16 UNL     1       4.027   0.539  -0.106  1.00  0.00     0.136 A 
HETATM   11  C18 UNL     1       3.687   1.828   0.225  1.00  0.00     0.105 A 
HETATM   12  C20 UNL     1       2.390   2.070   0.608  1.00  0.00     0.058 A 
HETATM   13  C21 UNL     1       1.441   1.059   0.668  1.00  0.00     0.058 A 
HETATM   14  C22 UNL     1       0.190   1.521   1.047  1.00  0.00     0.299 C 
HETATM   15  O6  UNL     1       0.218   2.541   1.763  1.00  0.00    -0.259 OA
HETATM   16  O7  UNL     1      -0.957   0.970   0.708  1.00  0.00    -0.273 OA
HETATM   17  C23 UNL     1      -1.191  -0.275   0.336  1.00  0.00     0.101 A 
ENDROOT
BRANCH   1  18
HETATM   18  C4  UNL     1      -3.449   0.738   0.283  1.00  0.00     0.044 C 
BRANCH  18  19
HETATM   19  C3  UNL     1      -3.863   1.324  -1.053  1.00  0.00     0.004 C 
BRANCH  19  20
HETATM   20  C2  UNL     1      -4.799   2.496  -0.876  1.00  0.00    -0.004 C 
HETATM   21  C1  UNL     1      -4.076   3.563  -0.067  1.00  0.00     0.005 C 
ENDBRANCH  19  20
ENDBRANCH  18  19
ENDBRANCH   1  18
BRANCH   2  22
HETATM   22  O1  UNL     1      -4.394  -1.768  -0.527  1.00  0.00    -0.352 OA
HETATM   23  C7  UNL     1      -5.206  -2.167   0.560  1.00  0.00     0.210 C 
ENDBRANCH   2  22
BRANCH   3  24
HETATM   24  O2  UNL     1      -2.756  -3.869  -0.855  1.00  0.00    -0.357 OA
ATOM     25  H2  UNL     1      -2.178  -4.614  -0.972  1.00  0.00     0.217 HD
ENDBRANCH   3  24
BRANCH   7  26
HETATM   26  N1  UNL     1       1.502  -2.399   0.697  1.00  0.00    -0.398 N 
ATOM     27  H12 UNL     1       0.899  -3.220   0.746  1.00  0.00     0.156 HD
ATOM     28  H11 UNL     1       2.508  -2.401   0.865  1.00  0.00     0.156 HD
ENDBRANCH   7  26
BRANCH   9  29
HETATM   29  O3  UNL     1       3.509  -1.795  -0.419  1.00  0.00    -0.352 OA
HETATM   30  C15 UNL     1       3.428  -2.065  -1.837  1.00  0.00     0.210 C 
ENDBRANCH   9  29
BRANCH  10  31
HETATM   31  O4  UNL     1       5.315   0.219  -0.502  1.00  0.00    -0.351 OA
HETATM   32  C17 UNL     1       6.313  -0.170   0.429  1.00  0.00     0.210 C 
ENDBRANCH  10  31
BRANCH  11  33
HETATM   33  O5  UNL     1       4.600   2.836   0.175  1.00  0.00    -0.353 OA
HETATM   34  C19 UNL     1       4.441   4.181   0.468  1.00  0.00     0.210 C 
ENDBRANCH  11  33
TORSDOF 9
