REMARK  2 active torsions:
REMARK  status: ('A' for Active; 'I' for Inactive)
REMARK       I    between atoms: N1_6  and  C5_7 
REMARK    1  A    between atoms: C5_7  and  C6_9 
REMARK    2  A    between atoms: C8_11  and  C9_12 
ROOT
HETATM    1  C1  UNL     1      -3.915   0.448   0.190  1.00  0.00     0.026 C 
HETATM    2  C2  UNL     1      -2.930   0.524  -0.949  1.00  0.00     0.097 C 
HETATM    3  S1  UNL     1      -2.521  -1.123  -1.600  1.00  0.00    -0.158 SA
HETATM    4  C3  UNL     1      -1.461  -1.895  -0.337  1.00  0.00     0.094 C 
HETATM    5  C4  UNL     1      -0.947  -0.807   0.618  1.00  0.00     0.139 C 
HETATM    6  N1  UNL     1      -0.606   0.385  -0.107  1.00  0.00    -0.314 N 
HETATM    7  C5  UNL     1       0.702   0.786  -0.395  1.00  0.00     0.274 C 
HETATM    8  O1  UNL     1       0.819   1.898  -1.049  1.00  0.00    -0.266 OA
HETATM    9  C10 UNL     1      -1.674   1.263  -0.611  1.00  0.00     0.287 C 
HETATM   10  F1  UNL     1      -1.938   2.303   0.242  1.00  0.00    -0.225 F 
ENDROOT
BRANCH   7  11
HETATM   11  C6  UNL     1       1.934   0.109  -0.054  1.00  0.00     0.125 A 
HETATM   12  C7  UNL     1       3.226   0.575  -0.376  1.00  0.00     0.079 A 
HETATM   13  C8  UNL     1       4.153  -0.321   0.104  1.00  0.00     0.138 A 
HETATM   14  O3  UNL     1       3.477  -1.266   0.678  1.00  0.00    -0.234 OA
HETATM   15  N2  UNL     1       2.198  -1.032   0.595  1.00  0.00    -0.255 N 
ATOM     16  H2  UNL     1       1.481  -1.647   0.980  1.00  0.00     0.195 HD
BRANCH  13  17
HETATM   17  C9  UNL     1       5.596  -0.219  -0.013  1.00  0.00     0.297 C 
HETATM   18  O2  UNL     1       6.134   0.757  -0.600  1.00  0.00    -0.299 OA
ENDBRANCH  13  17
ENDBRANCH   7  11
TORSDOF 2
