REMARK  6 active torsions:
REMARK  status: ('A' for Active; 'I' for Inactive)
REMARK    1  A    between atoms: C2_2  and  O1_3 
REMARK    2  A    between atoms: O1_3  and  C3_4 
REMARK    3  A    between atoms: C4_5  and  O2_6 
REMARK    4  A    between atoms: C5_8  and  C6_9 
REMARK       I    between atoms: C6_9  and  N1_11 
REMARK    5  A    between atoms: C11_17  and  O4_18 
REMARK    6  A    between atoms: C11_17  and  C12_20 
ROOT
HETATM    1  C3  UNL     1       1.044   0.486   0.112  1.00  0.00     0.393 C 
HETATM    2  C4  UNL     1      -0.376   0.798   0.610  1.00  0.00     0.193 C 
HETATM    3  C5  UNL     1      -1.164  -0.313  -0.044  1.00  0.00     0.147 C 
HETATM    4  C9  UNL     1      -0.205  -1.478   0.071  1.00  0.00     0.285 C 
HETATM    5  C10 UNL     1       0.168  -2.060  -1.250  1.00  0.00     0.275 C 
HETATM    6  F1  UNL     1      -0.115  -3.389  -1.442  1.00  0.00    -0.242 F 
HETATM    7  C11 UNL     1       1.553  -1.700  -0.871  1.00  0.00     0.340 C 
HETATM    8  N2  UNL     1       1.109  -0.927   0.266  1.00  0.00     0.171 N 
ENDROOT
BRANCH   3   9
HETATM    9  C6  UNL     1      -2.451  -0.601   0.577  1.00  0.00     0.228 C 
HETATM   10  O3  UNL     1      -2.643  -1.712   1.132  1.00  0.00    -0.273 OA
HETATM   11  N1  UNL     1      -3.499   0.339   0.572  1.00  0.00    -0.360 N 
HETATM   12  C7  UNL     1      -4.780   0.050   1.206  1.00  0.00     0.152 C 
HETATM   13  C8  UNL     1      -3.355   1.628  -0.065  1.00  0.00     0.152 C 
ENDBRANCH   3   9
BRANCH   2  14
HETATM   14  O2  UNL     1      -0.327   0.659   1.995  1.00  0.00    -0.390 OA
ATOM     15  H2  UNL     1      -1.205   0.852   2.303  1.00  0.00     0.210 HD
ENDBRANCH   2  14
BRANCH   1  16
HETATM   16  O1  UNL     1       1.986   1.088   0.933  1.00  0.00    -0.355 OA
BRANCH  16  17
HETATM   17  C2  UNL     1       2.839   1.906   0.195  1.00  0.00     0.166 C 
HETATM   18  C1  UNL     1       3.871   2.578   1.038  1.00  0.00     0.033 C 
ENDBRANCH  16  17
ENDBRANCH   1  16
BRANCH   7  19
HETATM   19  O4  UNL     1       2.177  -0.981  -1.887  1.00  0.00    -0.357 OA
ATOM     20  H4  UNL     1       3.066  -0.750  -1.644  1.00  0.00     0.213 HD
ENDBRANCH   7  19
BRANCH   7  21
HETATM   21  C12 UNL     1       2.454  -2.818  -0.415  1.00  0.00     0.334 C 
HETATM   22  F2  UNL     1       2.627  -3.791  -1.373  1.00  0.00    -0.227 F 
HETATM   23 CL1  UNL     1       1.847  -3.579   1.078  1.00  0.00    -0.084 Cl
ENDBRANCH   7  21
TORSDOF 6
