REMARK  1 active torsions:
REMARK  status: ('A' for Active; 'I' for Inactive)
REMARK       I    between atoms: C2_2  and  N1_4 
REMARK       I    between atoms: N1_4  and  C3_6 
REMARK       I    between atoms: C3_6  and  N2_7 
REMARK       I    between atoms: C3_6  and  N3_11 
REMARK    1  A    between atoms: N3_11  and  C4_13 
ROOT
HETATM    1  C1  UNL     1       3.583   0.953   1.379  1.00  0.00     0.117 C 
HETATM    2  C2  UNL     1       2.581  -0.115   1.388  1.00  0.00     0.216 C 
HETATM    3  O1  UNL     1       2.146  -0.528   2.493  1.00  0.00    -0.274 OA
HETATM    4  N1  UNL     1       2.058  -0.728   0.215  1.00  0.00    -0.318 N 
ATOM      5  H1  UNL     1       2.398  -0.409  -0.692  1.00  0.00     0.166 HD
HETATM    6  C3  UNL     1       1.071  -1.778   0.246  1.00  0.00     0.385 C 
HETATM    7  N2  UNL     1       1.792  -2.980  -0.227  1.00  0.00    -0.041 N 
ATOM      8  H21 UNL     1       1.094  -3.723  -0.205  1.00  0.00     0.279 HD
ATOM      9  H22 UNL     1       2.640  -3.190   0.299  1.00  0.00     0.279 HD
ATOM     10  H23 UNL     1       2.246  -2.863  -1.133  1.00  0.00     0.279 HD
HETATM   11  N3  UNL     1      -0.094  -1.566  -0.539  1.00  0.00    -0.376 N 
ATOM     12  H3  UNL     1      -0.314  -2.179  -1.324  1.00  0.00     0.157 HD
ENDROOT
BRANCH  11  13
HETATM   13  C4  UNL     1      -0.943  -0.483  -0.206  1.00  0.00     0.080 C 
HETATM   14  C5  UNL     1      -0.369   0.892  -0.335  1.00  0.00     0.025 C 
HETATM   15  C6  UNL     1      -1.402   1.844  -0.961  1.00  0.00     0.002 C 
HETATM   16  C7  UNL     1      -2.610   1.766  -0.024  1.00  0.00     0.000 C 
HETATM   17  C8  UNL     1      -3.277   0.438  -0.372  1.00  0.00     0.002 C 
HETATM   18  C9  UNL     1      -2.310  -0.581  -0.854  1.00  0.00     0.025 C 
ENDBRANCH  11  13
TORSDOF 1
