REMARK  3 active torsions:
REMARK  status: ('A' for Active; 'I' for Inactive)
REMARK    1  A    between atoms: N2_5  and  C4_6 
REMARK    2  A    between atoms: C6_13  and  C7_14 
REMARK    3  A    between atoms: C8_15  and  C9_16 
ROOT
HETATM    1  C4  UNL     1      -2.478  -0.167  -0.466  1.00  0.00     0.130 A 
HETATM    2  N3  UNL     1      -2.095   0.307  -1.660  1.00  0.00    -0.277 N 
ATOM      3  H3  UNL     1      -2.819   0.627  -2.303  1.00  0.00     0.189 HD
HETATM    4  N4  UNL     1      -0.839   0.384  -2.053  1.00  0.00    -0.247 N 
HETATM    5  C5  UNL     1      -0.276   0.827  -3.202  1.00  0.00     0.208 A 
HETATM    6  N5  UNL     1       1.039   0.706  -3.132  1.00  0.00    -0.342 N 
ATOM      7  H5  UNL     1       1.699   0.967  -3.864  1.00  0.00     0.167 HD
HETATM    8  C6  UNL     1       1.371   0.167  -1.903  1.00  0.00     0.118 A 
HETATM    9  C18 UNL     1       0.203  -0.022  -1.258  1.00  0.00     0.104 A 
HETATM   10  C19 UNL     1      -0.113  -0.523  -0.014  1.00  0.00     0.010 A 
HETATM   11  C20 UNL     1       0.851  -0.962   0.849  1.00  0.00     0.015 A 
HETATM   12  C21 UNL     1       0.446  -1.462   2.084  1.00  0.00     0.001 A 
HETATM   13  C22 UNL     1      -0.865  -1.528   2.455  1.00  0.00     0.001 A 
HETATM   14  C23 UNL     1      -1.848  -1.092   1.603  1.00  0.00     0.016 A 
HETATM   15  C24 UNL     1      -1.441  -0.588   0.361  1.00  0.00     0.022 A 
ENDROOT
BRANCH   8  16
HETATM   16  C7  UNL     1       2.711  -0.093  -1.505  1.00  0.00    -0.041 C 
HETATM   17  C8  UNL     1       3.885  -0.300  -1.209  1.00  0.00    -0.059 C 
BRANCH  17  18
HETATM   18  C9  UNL     1       5.254  -0.551  -0.848  1.00  0.00     0.032 A 
HETATM   19  C10 UNL     1       5.946  -1.671  -1.323  1.00  0.00     0.038 A 
HETATM   20  C11 UNL     1       7.257  -1.898  -0.968  1.00  0.00     0.090 A 
HETATM   21  N6  UNL     1       7.912  -1.054  -0.157  1.00  0.00    -0.365 N 
HETATM   22  C12 UNL     1       7.286   0.055   0.336  1.00  0.00     0.043 A 
ATOM     23  H6  UNL     1       8.883  -1.242   0.093  1.00  0.00     0.165 HD
HETATM   24  C13 UNL     1       7.978   0.909   1.168  1.00  0.00     0.030 A 
HETATM   25  C17 UNL     1       5.972   0.290  -0.014  1.00  0.00     0.009 A 
HETATM   26  C14 UNL     1       7.298   2.020   1.642  1.00  0.00     0.002 A 
HETATM   27  C15 UNL     1       5.982   2.260   1.294  1.00  0.00     0.001 A 
HETATM   28  C16 UNL     1       5.304   1.405   0.466  1.00  0.00     0.015 A 
ENDBRANCH  17  18
ENDBRANCH   8  16
BRANCH   1  29
HETATM   29  N2  UNL     1      -3.852  -0.179  -0.127  1.00  0.00    -0.362 N 
HETATM   30  C3  UNL     1      -4.398   0.732   0.858  1.00  0.00     0.154 C 
HETATM   31  C2  UNL     1      -5.545   1.470   0.187  1.00  0.00     0.291 C 
HETATM   32  N1  UNL     1      -6.584   0.518  -0.082  1.00  0.00     0.087 N 
HETATM   33  C1  UNL     1      -7.642   0.764   0.897  1.00  0.00     0.310 C 
HETATM   34  C26 UNL     1      -6.145  -0.840  -0.068  1.00  0.00     0.291 C 
HETATM   35  C25 UNL     1      -4.811  -1.083  -0.732  1.00  0.00     0.154 C 
ENDBRANCH   1  29
TORSDOF 3
