REMARK  6 active torsions:
REMARK  status: ('A' for Active; 'I' for Inactive)
REMARK    1  A    between atoms: C2_2  and  O2_4 
REMARK    2  A    between atoms: O2_4  and  C3_5 
REMARK    3  A    between atoms: C7_9  and  O3_10 
REMARK    4  A    between atoms: C12_19  and  C13_20 
REMARK    5  A    between atoms: C13_20  and  C14_21 
REMARK    6  A    between atoms: C22_29  and  O5_30 
ROOT
HETATM    1  C3  UNL     1      -1.977   1.046   0.474  1.00  0.00     0.143 C 
HETATM    2  C4  UNL     1      -0.456   0.983   0.239  1.00  0.00     0.039 C 
HETATM    3  C5  UNL     1      -0.050  -0.400   0.507  1.00  0.00     0.005 C 
HETATM    4  C6  UNL     1      -0.582  -1.331  -0.564  1.00  0.00     0.024 C 
HETATM    5  C7  UNL     1      -0.810  -2.654   0.095  1.00  0.00     0.123 C 
HETATM    6  C8  UNL     1       0.607  -3.124   0.481  1.00  0.00     0.038 C 
HETATM    7  C9  UNL     1       1.331  -2.158   1.307  1.00  0.00     0.007 C 
HETATM    8  C10 UNL     1       2.699  -2.683   1.660  1.00  0.00     0.108 C 
HETATM    9  C11 UNL     1       3.506  -2.615   0.408  1.00  0.00     0.218 C 
HETATM   10  O4  UNL     1       4.587  -3.218   0.348  1.00  0.00    -0.274 OA
HETATM   11  N1  UNL     1       2.984  -1.862  -0.644  1.00  0.00    -0.356 N 
ATOM     12  H1  UNL     1       3.054  -2.209  -1.600  1.00  0.00     0.162 HD
HETATM   13  C12 UNL     1       2.324  -0.550  -0.376  1.00  0.00     0.093 C 
HETATM   14  C17 UNL     1       1.392  -0.707   0.785  1.00  0.00    -0.015 C 
HETATM   15  C18 UNL     1       1.785   0.076   2.019  1.00  0.00     0.018 C 
HETATM   16  C19 UNL     1      -1.653  -0.704  -1.286  1.00  0.00     0.006 C 
HETATM   17  C20 UNL     1      -2.611  -1.498  -2.096  1.00  0.00     0.009 C 
HETATM   18  C21 UNL     1      -3.575  -0.396  -2.565  1.00  0.00     0.033 C 
HETATM   19  C22 UNL     1      -3.320   0.813  -1.665  1.00  0.00     0.129 C 
HETATM   20  C23 UNL     1      -2.639   0.125  -0.468  1.00  0.00     0.013 C 
HETATM   21  C24 UNL     1      -3.720  -0.691   0.173  1.00  0.00     0.021 C 
ENDROOT
BRANCH   1  22
HETATM   22  O2  UNL     1      -2.452   2.353   0.484  1.00  0.00    -0.315 OA
BRANCH  22  23
HETATM   23  C2  UNL     1      -2.979   2.962   1.641  1.00  0.00     0.255 C 
HETATM   24  C1  UNL     1      -3.482   4.346   1.652  1.00  0.00     0.126 C 
HETATM   25  O1  UNL     1      -2.988   2.235   2.670  1.00  0.00    -0.266 OA
ENDBRANCH  22  23
ENDBRANCH   1  22
BRANCH  19  26
HETATM   26  O5  UNL     1      -2.432   1.640  -2.337  1.00  0.00    -0.395 OA
ATOM     27  H5  UNL     1      -2.274   2.391  -1.778  1.00  0.00     0.210 HD
ENDBRANCH  19  26
BRANCH   5  28
HETATM   28  O3  UNL     1      -1.352  -3.603  -0.739  1.00  0.00    -0.395 OA
ATOM     29  H3  UNL     1      -1.497  -4.443  -0.320  1.00  0.00     0.210 HD
ENDBRANCH   5  28
BRANCH  13  30
HETATM   30  C13 UNL     1       3.480   0.376  -0.224  1.00  0.00     0.029 C 
BRANCH  30  31
HETATM   31  C14 UNL     1       3.214   1.827  -0.035  1.00  0.00    -0.021 C 
HETATM   32  C15 UNL     1       4.630   2.465   0.125  1.00  0.00     0.009 C 
HETATM   33  C16 UNL     1       2.662   2.417  -1.361  1.00  0.00     0.009 C 
ENDBRANCH  30  31
ENDBRANCH  13  30
TORSDOF 6
