REMARK  7 active torsions:
REMARK  status: ('A' for Active; 'I' for Inactive)
REMARK    1  A    between atoms: N1_1  and  C1_4 
REMARK    2  A    between atoms: C4_11  and  N4_12 
REMARK    3  A    between atoms: N4_12  and  C5_14 
REMARK    4  A    between atoms: C5_14  and  C6_15 
REMARK    5  A    between atoms: C6_15  and  N5_16 
REMARK    6  A    between atoms: C6_15  and  N6_20 
REMARK    7  A    between atoms: N6_20  and  N7_21 
REMARK       I    between atoms: N6_20  and  C7_24 
ROOT
HETATM    1  C1  UNL     1       3.566   1.324  -0.467  1.00  0.00     0.118 A 
HETATM    2  N2  UNL     1       2.674   2.137  -1.060  1.00  0.00    -0.338 N 
ATOM      3  H2  UNL     1       2.996   3.013  -1.470  1.00  0.00     0.168 HD
HETATM    4  C2  UNL     1       1.368   1.824  -1.126  1.00  0.00     0.182 A 
HETATM    5  N3  UNL     1       0.909   0.679  -0.597  1.00  0.00    -0.348 N 
ATOM      6  H3  UNL     1      -0.085   0.460  -0.658  1.00  0.00     0.167 HD
HETATM    7  C3  UNL     1       1.726  -0.166  -0.000  1.00  0.00     0.097 A 
HETATM    8  C4  UNL     1       1.053  -1.265   0.463  1.00  0.00     0.137 C 
HETATM    9  N9  UNL     1       1.649  -2.483   0.637  1.00  0.00    -0.292 N 
ATOM     10  H9  UNL     1       1.016  -3.282   0.646  1.00  0.00     0.172 HD
HETATM   11  C8  UNL     1       2.957  -2.779   0.799  1.00  0.00     0.328 C 
HETATM   12  O2  UNL     1       3.279  -3.993   0.864  1.00  0.00    -0.247 OA
HETATM   13  N10 UNL     1       4.005  -1.933   0.904  1.00  0.00    -0.275 N 
ATOM     14  H10 UNL     1       4.872  -2.368   1.221  1.00  0.00     0.173 HD
HETATM   15  C9  UNL     1       4.096  -0.621   0.662  1.00  0.00     0.265 C 
HETATM   16  O3  UNL     1       5.108   0.028   0.947  1.00  0.00    -0.267 OA
HETATM   17  C10 UNL     1       3.091   0.151   0.074  1.00  0.00     0.106 A 
ENDROOT
BRANCH   8  18
HETATM   18  N4  UNL     1      -0.127  -1.202   0.752  1.00  0.00    -0.350 N 
ATOM     19  H4  UNL     1      -0.414  -2.128   1.070  1.00  0.00     0.166 HD
BRANCH  18  20
HETATM   20  C5  UNL     1      -1.231  -0.381   0.822  1.00  0.00     0.118 C 
BRANCH  20  21
HETATM   21  C6  UNL     1      -2.265  -0.528  -0.263  1.00  0.00     0.346 C 
BRANCH  21  22
HETATM   22  N5  UNL     1      -2.832  -1.862  -0.314  1.00  0.00    -0.052 N 
ATOM     23  H53 UNL     1      -2.101  -2.568  -0.406  1.00  0.00     0.277 HD
ATOM     24  H52 UNL     1      -3.211  -2.134   0.593  1.00  0.00     0.277 HD
ATOM     25  H51 UNL     1      -3.532  -1.962  -1.049  1.00  0.00     0.277 HD
ENDBRANCH  21  22
BRANCH  21  26
HETATM   26  N6  UNL     1      -3.365   0.390  -0.038  1.00  0.00    -0.215 N 
HETATM   27  C7  UNL     1      -3.758   1.338  -1.027  1.00  0.00     0.351 C 
HETATM   28  N8  UNL     1      -4.841   2.219  -0.766  1.00  0.00    -0.038 NA
HETATM   29  O1  UNL     1      -3.139   1.375  -2.108  1.00  0.00    -0.249 OA
BRANCH  26  30
HETATM   30  N7  UNL     1      -4.062   0.338   1.198  1.00  0.00    -0.337 N 
ATOM     31  H72 UNL     1      -3.781  -0.340   1.906  1.00  0.00     0.177 HD
ATOM     32  H71 UNL     1      -4.836   0.984   1.356  1.00  0.00     0.177 HD
ENDBRANCH  26  30
ENDBRANCH  21  26
ENDBRANCH  20  21
ENDBRANCH  18  20
ENDBRANCH   8  18
BRANCH   1  33
HETATM   33  N1  UNL     1       4.810   1.592  -0.388  1.00  0.00    -0.385 N 
ATOM     34  H12 UNL     1       5.162   2.461  -0.789  1.00  0.00     0.157 HD
ATOM     35  H11 UNL     1       5.487   0.975   0.062  1.00  0.00     0.157 HD
ENDBRANCH   1  33
TORSDOF 7
