REMARK  6 active torsions:
REMARK  status: ('A' for Active; 'I' for Inactive)
REMARK    1  A    between atoms: C2_2  and  C4_4 
REMARK    2  A    between atoms: C4_4  and  C5_5 
REMARK    3  A    between atoms: C5_5  and  N2_8 
REMARK    4  A    between atoms: C7_9  and  O1_10 
REMARK    5  A    between atoms: C10_14  and  O2_15 
REMARK    6  A    between atoms: C15_21  and  C17_23 
ROOT
HETATM    1  C5  UNL     1       2.948   0.803   0.321  1.00  0.00     0.201 C 
HETATM    2  C6  UNL     1       3.170   2.103  -0.298  1.00  0.00     0.085 C 
HETATM    3  N1  UNL     1       3.331   3.144  -0.806  1.00  0.00    -0.195 NA
ENDROOT
BRANCH   1   4
HETATM    4  C4  UNL     1       3.853  -0.218  -0.335  1.00  0.00     0.044 C 
BRANCH   4   5
HETATM    5  C2  UNL     1       5.287   0.197  -0.149  1.00  0.00    -0.020 C 
HETATM    6  C1  UNL     1       6.218  -0.805  -0.795  1.00  0.00     0.009 C 
HETATM    7  C3  UNL     1       5.620   0.330   1.325  1.00  0.00     0.009 C 
ENDBRANCH   4   5
ENDBRANCH   1   4
BRANCH   1   8
HETATM    8  N2  UNL     1       1.568   0.395   0.305  1.00  0.00    -0.289 N 
HETATM    9  C7  UNL     1       0.739   0.209   1.344  1.00  0.00     0.152 A 
HETATM   10  C8  UNL     1      -0.501  -0.181   0.904  1.00  0.00     0.009 A 
HETATM   11  C9  UNL     1      -0.420  -0.235  -0.474  1.00  0.00     0.009 A 
HETATM   12  C14 UNL     1      -1.923  -0.582   1.241  1.00  0.00     0.033 C 
HETATM   13  C10 UNL     1       0.852   0.121  -0.815  1.00  0.00     0.152 A 
HETATM   14  C11 UNL     1      -1.795  -0.668  -0.963  1.00  0.00     0.033 C 
HETATM   15  C12 UNL     1      -1.825  -2.126  -0.587  1.00  0.00     0.011 C 
HETATM   16  C15 UNL     1      -2.601   0.084   0.064  1.00  0.00    -0.022 C 
HETATM   17  C13 UNL     1      -1.966  -2.059   0.912  1.00  0.00     0.011 C 
HETATM   18  C16 UNL     1      -2.088   1.537  -0.001  1.00  0.00     0.017 C 
BRANCH   9  19
HETATM   19  O1  UNL     1       1.075   0.385   2.686  1.00  0.00    -0.345 OA
ATOM     20  H1  UNL     1       0.488   0.253   3.421  1.00  0.00     0.219 HD
ENDBRANCH   9  19
BRANCH  13  21
HETATM   21  O2  UNL     1       1.299   0.178  -2.136  1.00  0.00    -0.345 OA
ATOM     22  H2  UNL     1       0.798  -0.014  -2.920  1.00  0.00     0.219 HD
ENDBRANCH  13  21
BRANCH  16  23
HETATM   23  C17 UNL     1      -4.028   0.124   0.002  1.00  0.00    -0.043 C 
HETATM   24  C18 UNL     1      -4.520   0.973   1.190  1.00  0.00     0.015 C 
HETATM   25  C19 UNL     1      -4.859  -1.105   0.039  1.00  0.00     0.015 C 
HETATM   26  C20 UNL     1      -4.444   0.895  -1.252  1.00  0.00     0.015 C 
ENDBRANCH  16  23
ENDBRANCH   1   8
TORSDOF 6
