REMARK  2 active torsions:
REMARK  status: ('A' for Active; 'I' for Inactive)
REMARK    1  A    between atoms: C2_2  and  C3_6 
REMARK    2  A    between atoms: C11_14  and  N2_15 
ROOT
HETATM    1  C3  UNL     1       0.918   0.468  -0.467  1.00  0.00     0.070 C 
HETATM    2  C4  UNL     1       0.008   1.391   0.307  1.00  0.00    -0.002 C 
HETATM    3  C5  UNL     1      -1.167   1.706  -0.637  1.00  0.00     0.010 C 
HETATM    4  C6  UNL     1      -1.848   0.437  -1.046  1.00  0.00    -0.011 C 
HETATM    5  C7  UNL     1      -2.491  -0.174   0.177  1.00  0.00     0.009 C 
HETATM    6  C8  UNL     1      -1.384  -0.505   1.153  1.00  0.00    -0.011 C 
HETATM    7  C9  UNL     1      -0.635   0.757   1.509  1.00  0.00     0.010 C 
HETATM    8  C10 UNL     1      -0.378  -1.458   0.544  1.00  0.00     0.044 C 
HETATM    9  C11 UNL     1       0.248  -0.850  -0.663  1.00  0.00     0.133 C 
HETATM   10  C12 UNL     1      -0.919  -0.592  -1.638  1.00  0.00     0.044 C 
ENDROOT
BRANCH   1  11
HETATM   11  C2  UNL     1       2.302   0.445  -0.012  1.00  0.00    -0.017 C 
HETATM   12  C1  UNL     1       2.792   0.071   1.339  1.00  0.00     0.063 C 
HETATM   13  N1  UNL     1       3.290   0.773  -0.805  1.00  0.00    -0.405 N 
ATOM     14  H12 UNL     1       4.259   0.757  -0.486  1.00  0.00     0.155 HD
ATOM     15  H11 UNL     1       2.953   1.030  -1.733  1.00  0.00     0.155 HD
ENDBRANCH   1  11
BRANCH   9  16
HETATM   16  N2  UNL     1       1.132  -1.818  -1.282  1.00  0.00    -0.070 N 
ATOM     17  H23 UNL     1       1.516  -1.463  -2.158  1.00  0.00     0.275 HD
ATOM     18  H22 UNL     1       2.000  -1.918  -0.756  1.00  0.00     0.275 HD
ATOM     19  H21 UNL     1       0.674  -2.719  -1.416  1.00  0.00     0.275 HD
ENDBRANCH   9  16
TORSDOF 2
