REMARK  3 active torsions:
REMARK  status: ('A' for Active; 'I' for Inactive)
REMARK    1  A    between atoms: C4_4  and  O1_5 
REMARK    2  A    between atoms: C5_7  and  C7_9 
REMARK    3  A    between atoms: C11_13  and  O2_14 
ROOT
HETATM    1  C1  UNL     1      -3.461   0.147   0.581  1.00  0.00     0.012 C 
HETATM    2  C2  UNL     1      -2.321   0.005  -0.391  1.00  0.00     0.013 C 
HETATM    3  C3  UNL     1      -1.456   1.219  -0.435  1.00  0.00     0.039 C 
HETATM    4  C4  UNL     1      -0.051   0.941  -0.926  1.00  0.00     0.127 C 
HETATM    5  C5  UNL     1       0.663  -0.077  -0.100  1.00  0.00    -0.013 C 
HETATM    6  C6  UNL     1       1.186  -1.237  -0.935  1.00  0.00     0.018 C 
HETATM    7  C10 UNL     1      -0.329  -0.654   0.886  1.00  0.00     0.044 C 
HETATM    8  C11 UNL     1      -1.490  -1.177   0.029  1.00  0.00     0.122 C 
ENDROOT
BRANCH   5   9
HETATM    9  C7  UNL     1       1.808   0.533   0.677  1.00  0.00    -0.012 C 
HETATM   10  C8  UNL     1       2.485  -0.560   1.492  1.00  0.00     0.010 C 
HETATM   11  C9  UNL     1       2.847   1.143  -0.209  1.00  0.00     0.010 C 
ENDBRANCH   5   9
BRANCH   4  12
HETATM   12  O1  UNL     1       0.605   2.177  -0.967  1.00  0.00    -0.395 OA
ATOM     13  H1  UNL     1       1.487   2.003  -1.275  1.00  0.00     0.210 HD
ENDBRANCH   4  12
BRANCH   8  14
HETATM   14  O2  UNL     1      -2.222  -2.140   0.714  1.00  0.00    -0.395 OA
ATOM     15  H2  UNL     1      -1.697  -2.886   0.979  1.00  0.00     0.210 HD
ENDBRANCH   8  14
TORSDOF 3
