REMARK  2 active torsions:
REMARK  status: ('A' for Active; 'I' for Inactive)
REMARK    1  A    between atoms: C3_3  and  C4_4 
REMARK    2  A    between atoms: N2_11  and  C8_12 
ROOT
HETATM    1  C1  UNL     1      -0.031   2.508  -0.553  1.00  0.00     0.032 C 
HETATM    2  C2  UNL     1      -0.849   1.809   0.527  1.00  0.00     0.038 C 
HETATM    3  C3  UNL     1      -0.471   0.355   0.267  1.00  0.00     0.229 C 
HETATM    4  N2  UNL     1       0.797   0.374  -0.366  1.00  0.00     0.099 N 
HETATM    5  C12 UNL     1       1.251   1.731  -0.495  1.00  0.00     0.273 C 
ENDROOT
BRANCH   3   6
HETATM    6  C4  UNL     1      -1.556  -0.158  -0.675  1.00  0.00     0.046 C 
HETATM    7  C5  UNL     1      -2.937   0.117  -0.088  1.00  0.00     0.036 C 
HETATM    8  C6  UNL     1      -3.680  -1.208  -0.149  1.00  0.00     0.232 C 
HETATM    9  N1  UNL     1      -2.947  -1.888  -1.216  1.00  0.00    -0.075 N 
HETATM   10  C7  UNL     1      -1.574  -1.655  -0.770  1.00  0.00     0.239 C 
ATOM     11  H12 UNL     1      -3.202  -2.862  -1.380  1.00  0.00     0.277 HD
ATOM     12  H11 UNL     1      -3.163  -1.586  -2.166  1.00  0.00     0.277 HD
ENDBRANCH   3   6
BRANCH   4  13
HETATM   13  C8  UNL     1       1.783  -0.532   0.063  1.00  0.00     0.233 C 
HETATM   14  C9  UNL     1       3.068   0.226   0.370  1.00  0.00     0.047 C 
HETATM   15  C10 UNL     1       4.100  -0.888   0.512  1.00  0.00     0.076 C 
HETATM   16  S1  UNL     1       3.175  -1.973   1.656  1.00  0.00    -0.167 SA
HETATM   17  C11 UNL     1       1.489  -1.374   1.256  1.00  0.00     0.109 C 
ENDBRANCH   4  13
TORSDOF 2
