REMARK  4 active torsions:
REMARK  status: ('A' for Active; 'I' for Inactive)
REMARK    1  A    between atoms: C2_2  and  C4_4 
REMARK    2  A    between atoms: C4_4  and  N1_5 
REMARK    3  A    between atoms: N2_9  and  C8_10 
REMARK    4  A    between atoms: C13_15  and  O1_16 
ROOT
HETATM    1  N1  UNL     1      -1.847  -0.701   0.373  1.00  0.00    -0.374 N 
HETATM    2  C5  UNL     1      -1.718  -1.755  -0.586  1.00  0.00     0.125 C 
HETATM    3  C6  UNL     1      -0.451  -2.510  -0.158  1.00  0.00     0.039 C 
HETATM    4  C7  UNL     1       0.498  -1.540   0.555  1.00  0.00     0.120 C 
HETATM    5  N2  UNL     1       0.382  -0.217   0.119  1.00  0.00    -0.390 N 
HETATM    6  C14 UNL     1      -0.919   0.370   0.184  1.00  0.00     0.243 C 
ENDROOT
BRANCH   5   7
HETATM    7  C8  UNL     1       1.464   0.571  -0.230  1.00  0.00     0.109 C 
HETATM    8  C9  UNL     1       2.361   0.788   0.955  1.00  0.00     0.032 C 
HETATM    9  C10 UNL     1       3.780   0.710   0.434  1.00  0.00    -0.014 C 
HETATM   10  C11 UNL     1       4.335   2.041   0.052  1.00  0.00     0.010 C 
HETATM   11  C12 UNL     1       3.708  -0.185  -0.780  1.00  0.00     0.038 C 
HETATM   12  C13 UNL     1       2.349   0.080  -1.337  1.00  0.00     0.141 C 
BRANCH  12  13
HETATM   13  O1  UNL     1       2.487   1.089  -2.292  1.00  0.00    -0.394 OA
ATOM     14  H1  UNL     1       3.048   0.778  -2.993  1.00  0.00     0.210 HD
ENDBRANCH  12  13
ENDBRANCH   5   7
BRANCH   1  15
HETATM   15  C4  UNL     1      -3.072  -0.463   0.973  1.00  0.00     0.093 C 
BRANCH  15  16
HETATM   16  C2  UNL     1      -4.168   0.078   0.157  1.00  0.00    -0.056 C 
HETATM   17  C1  UNL     1      -5.310  -0.570  -0.022  1.00  0.00     0.020 C 
HETATM   18  C3  UNL     1      -4.005   1.404  -0.485  1.00  0.00     0.049 C 
ENDBRANCH  15  16
ENDBRANCH   1  15
TORSDOF 4
