REMARK  19 active torsions:
REMARK  status: ('A' for Active; 'I' for Inactive)
REMARK    1  A    between atoms: C2_2  and  C3_3 
REMARK    2  A    between atoms: C4_4  and  C5_5 
REMARK    3  A    between atoms: C5_5  and  C6_6 
REMARK    4  A    between atoms: C6_6  and  O1_7 
REMARK    5  A    between atoms: C6_6  and  C7_9 
REMARK    6  A    between atoms: C7_9  and  O2_10 
REMARK    7  A    between atoms: C7_9  and  C8_12 
REMARK    8  A    between atoms: C8_12  and  O3_13 
REMARK    9  A    between atoms: C8_12  and  C9_15 
REMARK   10  A    between atoms: C10_16  and  C11_17 
REMARK   11  A    between atoms: C11_17  and  C12_18 
REMARK   12  A    between atoms: C12_18  and  O4_19 
REMARK   13  A    between atoms: C12_18  and  C13_21 
REMARK   14  A    between atoms: C14_22  and  C15_23 
REMARK   15  A    between atoms: C15_23  and  C16_24 
REMARK   16  A    between atoms: C16_24  and  C17_25 
REMARK   17  A    between atoms: C17_25  and  C18_26 
REMARK   18  A    between atoms: C20_28  and  O5_29 
REMARK   19  A    between atoms: C27_38  and  O7_39 
ROOT
HETATM    1  C12 UNL     1       1.017  -2.754  -0.769  1.00  0.00     0.144 C 
ENDROOT
BRANCH   1   2
HETATM    2  C11 UNL     1       1.928  -1.597  -1.086  1.00  0.00     0.062 C 
BRANCH   2   3
HETATM    3  C10 UNL     1       2.866  -1.327   0.034  1.00  0.00    -0.025 C 
HETATM    4  C9  UNL     1       4.194  -1.391  -0.121  1.00  0.00     0.003 C 
BRANCH   4   5
HETATM    5  C8  UNL     1       5.094  -1.114   1.026  1.00  0.00     0.172 C 
BRANCH   5   6
HETATM    6  C7  UNL     1       5.267   0.365   1.297  1.00  0.00     0.179 C 
BRANCH   6   7
HETATM    7  C6  UNL     1       5.816   1.137   0.156  1.00  0.00     0.153 C 
BRANCH   7   8
HETATM    8  C5  UNL     1       7.214   0.800  -0.262  1.00  0.00     0.061 C 
BRANCH   8   9
HETATM    9  C4  UNL     1       8.251   0.999   0.744  1.00  0.00    -0.024 C 
HETATM   10  C3  UNL     1       9.274   1.808   0.624  1.00  0.00    -0.005 C 
BRANCH  10  11
HETATM   11  C2  UNL     1       9.582   2.648  -0.495  1.00  0.00    -0.011 C 
HETATM   12  C1  UNL     1      10.648   3.420  -0.492  1.00  0.00     0.011 C 
ENDBRANCH  10  11
ENDBRANCH   8   9
ENDBRANCH   7   8
BRANCH   7  13
HETATM   13  O1  UNL     1       5.006   0.874  -0.961  1.00  0.00    -0.393 OA
ATOM     14  H1  UNL     1       4.119   1.088  -0.696  1.00  0.00     0.210 HD
ENDBRANCH   7  13
ENDBRANCH   6   7
BRANCH   6  15
HETATM   15  O2  UNL     1       5.906   0.496   2.500  1.00  0.00    -0.390 OA
ATOM     16  H2  UNL     1       5.554   0.001   3.231  1.00  0.00     0.210 HD
ENDBRANCH   6  15
ENDBRANCH   5   6
BRANCH   5  17
HETATM   17  O3  UNL     1       6.284  -1.807   0.961  1.00  0.00    -0.389 OA
ATOM     18  H3  UNL     1       6.175  -2.735   0.791  1.00  0.00     0.210 HD
ENDBRANCH   5  17
ENDBRANCH   4   5
ENDBRANCH   2   3
ENDBRANCH   1   2
BRANCH   1  19
HETATM   19  O4  UNL     1       0.228  -2.581   0.346  1.00  0.00    -0.391 OA
ATOM     20  H4  UNL     1      -0.347  -3.311   0.546  1.00  0.00     0.210 HD
ENDBRANCH   1  19
BRANCH   1  21
HETATM   21  C13 UNL     1       0.206  -3.203  -1.912  1.00  0.00     0.001 C 
HETATM   22  C14 UNL     1      -0.854  -2.568  -2.343  1.00  0.00    -0.028 C 
BRANCH  22  23
HETATM   23  C15 UNL     1      -1.385  -1.335  -1.765  1.00  0.00     0.027 C 
BRANCH  23  24
HETATM   24  C16 UNL     1      -2.817  -1.655  -1.306  1.00  0.00     0.004 C 
BRANCH  24  25
HETATM   25  C17 UNL     1      -3.358  -0.367  -0.706  1.00  0.00     0.008 C 
BRANCH  25  26
HETATM   26  C18 UNL     1      -4.777  -0.652  -0.247  1.00  0.00     0.023 C 
HETATM   27  C19 UNL     1      -4.810  -1.748   0.784  1.00  0.00     0.039 C 
HETATM   28  C20 UNL     1      -5.730  -1.259   1.884  1.00  0.00     0.126 C 
HETATM   29  C21 UNL     1      -5.682   0.264   1.773  1.00  0.00     0.056 C 
HETATM   30  C22 UNL     1      -6.906   0.900   2.349  1.00  0.00     0.088 C 
HETATM   31  C27 UNL     1      -5.435   0.549   0.333  1.00  0.00     0.069 C 
HETATM   32  C23 UNL     1      -7.431   2.038   1.580  1.00  0.00     0.131 C 
HETATM   33  O6  UNL     1      -7.895   3.005   2.149  1.00  0.00    -0.298 OA
HETATM   34  C24 UNL     1      -7.412   2.046   0.094  1.00  0.00     0.054 C 
HETATM   35  C25 UNL     1      -6.823   3.349  -0.387  1.00  0.00     0.018 C 
HETATM   36  C26 UNL     1      -6.703   0.834  -0.451  1.00  0.00     0.050 C 
BRANCH  28  37
HETATM   37  O5  UNL     1      -7.039  -1.712   1.702  1.00  0.00    -0.395 OA
ATOM     38  H5  UNL     1      -7.616  -1.405   2.392  1.00  0.00     0.210 HD
ENDBRANCH  28  37
BRANCH  31  39
HETATM   39  O7  UNL     1      -4.634   1.693   0.270  1.00  0.00    -0.389 OA
ATOM     40  H7  UNL     1      -5.054   2.460   0.640  1.00  0.00     0.210 HD
ENDBRANCH  31  39
ENDBRANCH  25  26
ENDBRANCH  24  25
ENDBRANCH  23  24
ENDBRANCH  22  23
ENDBRANCH   1  21
TORSDOF 19
