REMARK  14 active torsions:
REMARK  status: ('A' for Active; 'I' for Inactive)
REMARK    1  A    between atoms: N1_2  and  C2_4 
REMARK    2  A    between atoms: C3_7  and  N3_8 
REMARK    3  A    between atoms: C7_16  and  S1_17 
REMARK    4  A    between atoms: S1_17  and  C8_18 
REMARK    5  A    between atoms: C8_18  and  C9_19 
REMARK    6  A    between atoms: C9_19  and  C10_20 
REMARK    7  A    between atoms: C10_20  and  C11_21 
REMARK    8  A    between atoms: C11_21  and  C12_22 
REMARK    9  A    between atoms: C12_22  and  N5_23 
REMARK   10  A    between atoms: N5_23  and  C14_25 
REMARK   11  A    between atoms: C14_25  and  C15_26 
REMARK       I    between atoms: C15_26  and  N6_28 
REMARK   12  A    between atoms: N6_28  and  C16_30 
REMARK   13  A    between atoms: C16_30  and  C17_31 
REMARK   14  A    between atoms: C17_31  and  N7_32 
ROOT
HETATM    1  C2  UNL     1       6.103  -0.602   0.941  1.00  0.00     0.145 A 
HETATM    2  N2  UNL     1       7.118   0.081   1.501  1.00  0.00    -0.175 N 
ATOM      3  H2  UNL     1       7.880  -0.422   1.955  1.00  0.00     0.186 HD
HETATM    4  C3  UNL     1       7.131   1.436   1.463  1.00  0.00     0.678 A 
HETATM    5  N4  UNL     1       6.141   2.111   0.872  1.00  0.00    -0.189 N 
ATOM      6  H4  UNL     1       6.174   3.130   0.857  1.00  0.00     0.184 HD
HETATM    7  C4  UNL     1       5.092   1.474   0.291  1.00  0.00     0.088 A 
HETATM    8  C5  UNL     1       3.974   1.925  -0.367  1.00  0.00     0.001 A 
HETATM    9  C6  UNL     1       3.618   3.328  -0.617  1.00  0.00     0.054 C 
HETATM   10  C7  UNL     1       3.265   0.782  -0.736  1.00  0.00     0.078 A 
HETATM   11  N8  UNL     1       3.938  -0.297  -0.313  1.00  0.00    -0.345 N 
ATOM     12  H8  UNL     1       3.646  -1.265  -0.448  1.00  0.00     0.167 HD
HETATM   13  C18 UNL     1       5.070   0.100   0.324  1.00  0.00     0.106 A 
ENDROOT
BRANCH  10  14
HETATM   14  S1  UNL     1       1.728   0.818  -1.607  1.00  0.00    -0.112 SA
BRANCH  14  15
HETATM   15  C8  UNL     1       0.998  -0.816  -1.838  1.00  0.00     0.081 C 
BRANCH  15  16
HETATM   16  C9  UNL     1       0.540  -1.373  -0.494  1.00  0.00     0.010 C 
BRANCH  16  17
HETATM   17  C10 UNL     1      -0.479  -0.427   0.103  1.00  0.00     0.002 C 
BRANCH  17  18
HETATM   18  C11 UNL     1      -1.688  -0.249  -0.771  1.00  0.00     0.020 C 
BRANCH  18  19
HETATM   19  C12 UNL     1      -2.404  -1.550  -0.996  1.00  0.00     0.122 C 
BRANCH  19  20
HETATM   20  N5  UNL     1      -3.547  -1.441  -1.821  1.00  0.00    -0.390 N 
HETATM   21  C13 UNL     1      -4.275  -2.632  -2.026  1.00  0.00     0.149 C 
BRANCH  20  22
HETATM   22  C14 UNL     1      -4.341  -0.281  -1.726  1.00  0.00     0.160 C 
BRANCH  22  23
HETATM   23  C15 UNL     1      -5.082  -0.104  -0.460  1.00  0.00     0.256 C 
HETATM   24  O1  UNL     1      -4.972  -0.962   0.436  1.00  0.00    -0.267 OA
HETATM   25  N6  UNL     1      -5.913   1.022  -0.248  1.00  0.00    -0.355 N 
ATOM     26  H6  UNL     1      -5.984   1.711  -0.996  1.00  0.00     0.162 HD
BRANCH  25  27
HETATM   27  C16 UNL     1      -6.663   1.255   0.956  1.00  0.00     0.150 C 
BRANCH  27  28
HETATM   28  C17 UNL     1      -7.669   0.176   1.250  1.00  0.00     0.249 C 
BRANCH  28  29
HETATM   29  N7  UNL     1      -8.404   0.462   2.469  1.00  0.00    -0.078 N 
ATOM     30  H73 UNL     1      -7.776   0.615   3.258  1.00  0.00     0.274 HD
ATOM     31  H72 UNL     1      -8.841   1.383   2.436  1.00  0.00     0.274 HD
ATOM     32  H71 UNL     1      -9.086  -0.270   2.668  1.00  0.00     0.274 HD
ENDBRANCH  28  29
ENDBRANCH  27  28
ENDBRANCH  25  27
ENDBRANCH  22  23
ENDBRANCH  20  22
ENDBRANCH  19  20
ENDBRANCH  18  19
ENDBRANCH  17  18
ENDBRANCH  16  17
ENDBRANCH  15  16
ENDBRANCH  14  15
ENDBRANCH  10  14
BRANCH   1  33
HETATM   33  N1  UNL     1       6.053  -1.891   0.950  1.00  0.00    -0.378 N 
HETATM   34  C1  UNL     1       7.096  -2.653   1.568  1.00  0.00     0.147 C 
ATOM     35  H1  UNL     1       5.265  -2.371   0.514  1.00  0.00     0.160 HD
ENDBRANCH   1  33
BRANCH   4  36
HETATM   36  N3  UNL     1       8.119   2.055   2.010  1.00  0.00    -0.234 N 
ATOM     37  H32 UNL     1       8.875   1.540   2.461  1.00  0.00     0.174 HD
ATOM     38  H31 UNL     1       8.129   3.075   1.981  1.00  0.00     0.174 HD
ENDBRANCH   4  36
TORSDOF 14
