REMARK  11 active torsions:
REMARK  status: ('A' for Active; 'I' for Inactive)
REMARK    1  A    between atoms: C2_2  and  S1_3 
REMARK    2  A    between atoms: S1_3  and  C3_4 
REMARK    3  A    between atoms: C3_4  and  C4_5 
REMARK    4  A    between atoms: C4_5  and  N1_6 
REMARK    5  A    between atoms: N1_6  and  C5_9 
REMARK    6  A    between atoms: C5_9  and  C6_10 
REMARK    7  A    between atoms: C6_10  and  N2_11 
REMARK    8  A    between atoms: N2_11  and  S2_13 
REMARK    9  A    between atoms: S2_13  and  N3_16 
REMARK   10  A    between atoms: N3_16  and  C7_18 
REMARK   11  A    between atoms: C13_26  and  N5_27 
ROOT
HETATM    1  N3  UNL     1      -2.221  -2.146  -0.296  1.00  0.00    -0.292 N 
ATOM      2  H3  UNL     1      -2.639  -2.590   0.522  1.00  0.00     0.174 HD
ENDROOT
BRANCH   1   3
HETATM    3  S2  UNL     1      -0.587  -2.423  -0.773  1.00  0.00     0.315 S 
HETATM    4  O1  UNL     1      -0.240  -3.816  -0.262  1.00  0.00    -0.183 OA
HETATM    5  O2  UNL     1      -0.430  -2.479  -2.259  1.00  0.00    -0.183 OA
BRANCH   3   6
HETATM    6  N2  UNL     1       0.531  -1.349  -0.056  1.00  0.00    -0.301 N 
ATOM      7  H2  UNL     1       0.929  -1.499   0.871  1.00  0.00     0.173 HD
BRANCH   6   8
HETATM    8  C6  UNL     1       0.859  -0.219  -0.874  1.00  0.00     0.161 C 
BRANCH   8   9
HETATM    9  C5  UNL     1       1.850   0.698  -0.192  1.00  0.00     0.252 C 
BRANCH   9  10
HETATM   10  N1  UNL     1       3.060  -0.045   0.085  1.00  0.00    -0.073 N 
ATOM     11  H12 UNL     1       3.430  -0.476  -0.762  1.00  0.00     0.277 HD
ATOM     12  H11 UNL     1       2.860  -0.889   0.622  1.00  0.00     0.277 HD
BRANCH  10  13
HETATM   13  C4  UNL     1       4.065   0.767   0.741  1.00  0.00     0.242 C 
BRANCH  13  14
HETATM   14  C3  UNL     1       4.624   1.831  -0.135  1.00  0.00     0.101 C 
BRANCH  14  15
HETATM   15  S1  UNL     1       5.847   2.797   0.772  1.00  0.00    -0.168 SA
BRANCH  15  16
HETATM   16  C2  UNL     1       7.322   1.883   1.220  1.00  0.00     0.069 C 
HETATM   17  C1  UNL     1       7.121   0.804   2.232  1.00  0.00     0.016 C 
ENDBRANCH  15  16
ENDBRANCH  14  15
ENDBRANCH  13  14
ENDBRANCH  10  13
ENDBRANCH   9  10
ENDBRANCH   8   9
ENDBRANCH   6   8
ENDBRANCH   3   6
ENDBRANCH   1   3
BRANCH   1  18
HETATM   18  C7  UNL     1      -2.943  -1.245  -1.137  1.00  0.00     0.145 C 
HETATM   19  C8  UNL     1      -4.194  -1.887  -1.759  1.00  0.00     0.032 C 
HETATM   20  C9  UNL     1      -5.183  -2.368  -0.771  1.00  0.00     0.007 C 
HETATM   21  C10 UNL     1      -4.994  -1.854   0.631  1.00  0.00     0.046 C 
HETATM   22  C11 UNL     1      -4.492  -0.475   0.574  1.00  0.00     0.036 A 
HETATM   23  C12 UNL     1      -3.477  -0.150  -0.290  1.00  0.00     0.061 A 
HETATM   24  C14 UNL     1      -5.010   0.519   1.369  1.00  0.00     0.267 A 
HETATM   25  N4  UNL     1      -2.988   1.113  -0.371  1.00  0.00    -0.193 N 
HETATM   26  C13 UNL     1      -3.530   2.064   0.434  1.00  0.00     0.679 A 
ATOM     27  H4  UNL     1      -2.234   1.342  -1.019  1.00  0.00     0.184 HD
HETATM   28  N6  UNL     1      -4.526   1.794   1.298  1.00  0.00    -0.156 N 
ATOM     29  H6  UNL     1      -4.913   2.529   1.890  1.00  0.00     0.187 HD
HETATM   30  O3  UNL     1      -5.944   0.200   2.159  1.00  0.00    -0.267 OA
BRANCH  26  31
HETATM   31  N5  UNL     1      -3.082   3.286   0.381  1.00  0.00    -0.234 N 
ATOM     32  H52 UNL     1      -2.327   3.491  -0.274  1.00  0.00     0.174 HD
ATOM     33  H51 UNL     1      -3.489   4.000   0.985  1.00  0.00     0.174 HD
ENDBRANCH  26  31
ENDBRANCH   1  18
TORSDOF 11
