REMARK  14 active torsions:
REMARK  status: ('A' for Active; 'I' for Inactive)
REMARK    1  A    between atoms: C2_2  and  C3_3 
REMARK    2  A    between atoms: C3_3  and  C4_4 
REMARK    3  A    between atoms: C4_4  and  C5_5 
REMARK    4  A    between atoms: C5_5  and  C6_6 
REMARK    5  A    between atoms: C6_6  and  C7_7 
REMARK    6  A    between atoms: C7_7  and  C8_8 
REMARK    7  A    between atoms: C8_8  and  C9_9 
REMARK    8  A    between atoms: C9_9  and  C10_10 
REMARK    9  A    between atoms: C10_10  and  C11_11 
REMARK   10  A    between atoms: C11_11  and  C12_12 
REMARK   11  A    between atoms: C14_17  and  C15_18 
REMARK   12  A    between atoms: C15_18  and  O2_19 
REMARK   13  A    between atoms: C16_24  and  O3_25 
REMARK   14  A    between atoms: C19_32  and  C20_33 
ROOT
HETATM    1  C12 UNL     1      -1.180  -0.469   0.258  1.00  0.00     0.177 C 
HETATM    2  N1  UNL     1      -1.734   0.567   1.084  1.00  0.00    -0.346 N 
ATOM      3  H1  UNL     1      -1.616   0.440   2.089  1.00  0.00     0.163 HD
HETATM    4  C13 UNL     1      -2.415   1.729   0.695  1.00  0.00     0.251 C 
HETATM    5  O1  UNL     1      -2.285   2.760   1.453  1.00  0.00    -0.271 OA
HETATM    6  C14 UNL     1      -3.274   1.941  -0.479  1.00  0.00     0.305 C 
HETATM    7  N2  UNL     1      -3.642   0.783  -1.214  1.00  0.00    -0.008 N 
ATOM      8  H21 UNL     1      -3.456  -0.069  -0.684  1.00  0.00     0.283 HD
ATOM      9  H22 UNL     1      -3.010   0.624  -1.999  1.00  0.00     0.283 HD
HETATM   10  C16 UNL     1      -5.045   0.843  -1.658  1.00  0.00     0.522 C 
HETATM   11  N3  UNL     1      -5.463  -0.517  -1.860  1.00  0.00    -0.023 N 
ATOM     12  H31 UNL     1      -4.767  -1.031  -2.400  1.00  0.00     0.282 HD
ATOM     13  H32 UNL     1      -6.248  -0.559  -2.510  1.00  0.00     0.282 HD
HETATM   14  C17 UNL     1      -5.773  -1.210  -0.651  1.00  0.00     0.240 C 
HETATM   15  C18 UNL     1      -4.711  -2.250  -0.393  1.00  0.00     0.062 C 
HETATM   16  C19 UNL     1      -3.958  -2.005   0.898  1.00  0.00     0.175 C 
HETATM   17  N5  UNL     1      -2.624  -2.534   0.722  1.00  0.00    -0.346 N 
ATOM     18  H5  UNL     1      -2.548  -3.516   0.458  1.00  0.00     0.163 HD
HETATM   19  C21 UNL     1      -1.415  -1.820   0.881  1.00  0.00     0.241 C 
HETATM   20  O5  UNL     1      -0.508  -2.375   1.590  1.00  0.00    -0.271 OA
ENDROOT
BRANCH   1  21
HETATM   21  C11 UNL     1       0.362  -0.276   0.306  1.00  0.00     0.039 C 
BRANCH  21  22
HETATM   22  C10 UNL     1       0.761   1.037  -0.206  1.00  0.00     0.029 C 
BRANCH  22  23
HETATM   23  C9  UNL     1       2.216   1.303  -0.243  1.00  0.00    -0.027 C 
BRANCH  23  24
HETATM   24  C8  UNL     1       3.027   1.347   0.967  1.00  0.00    -0.008 C 
BRANCH  24  25
HETATM   25  C7  UNL     1       3.221   0.218   1.860  1.00  0.00    -0.027 C 
BRANCH  25  26
HETATM   26  C6  UNL     1       3.782  -1.066   1.434  1.00  0.00     0.027 C 
BRANCH  26  27
HETATM   27  C5  UNL     1       5.165  -1.170   0.911  1.00  0.00     0.004 C 
BRANCH  27  28
HETATM   28  C4  UNL     1       5.539  -0.473  -0.332  1.00  0.00     0.000 C 
BRANCH  28  29
HETATM   29  C3  UNL     1       7.011  -0.791  -0.631  1.00  0.00    -0.000 C 
BRANCH  29  30
HETATM   30  C2  UNL     1       7.427  -0.085  -1.909  1.00  0.00    -0.005 C 
HETATM   31  C1  UNL     1       7.269   1.416  -1.776  1.00  0.00     0.005 C 
ENDBRANCH  29  30
ENDBRANCH  28  29
ENDBRANCH  27  28
ENDBRANCH  26  27
ENDBRANCH  25  26
ENDBRANCH  24  25
ENDBRANCH  23  24
ENDBRANCH  22  23
ENDBRANCH  21  22
ENDBRANCH   1  21
BRANCH   6  32
HETATM   32  C15 UNL     1      -2.527   2.873  -1.433  1.00  0.00     0.207 C 
BRANCH  32  33
HETATM   33  O2  UNL     1      -2.133   4.037  -0.763  1.00  0.00    -0.398 OA
ATOM     34  H2  UNL     1      -1.669   4.616  -1.356  1.00  0.00     0.209 HD
ENDBRANCH  32  33
ENDBRANCH   6  32
BRANCH  16  35
HETATM   35  C20 UNL     1      -4.641  -2.809   1.977  1.00  0.00     0.254 C 
HETATM   36  N4  UNL     1      -5.966  -2.466   2.317  1.00  0.00    -0.060 NA
HETATM   37  O4  UNL     1      -4.029  -3.760   2.550  1.00  0.00    -0.275 OA
ENDBRANCH  16  35
BRANCH  10  38
HETATM   38  O3  UNL     1      -5.841   1.555  -0.797  1.00  0.00    -0.349 OA
ATOM     39  H3  UNL     1      -6.746   1.594  -1.083  1.00  0.00     0.213 HD
ENDBRANCH  10  38
TORSDOF 14
