REMARK  16 active torsions:
REMARK  status: ('A' for Active; 'I' for Inactive)
REMARK    1  A    between atoms: C2_2  and  N1_3 
REMARK       I    between atoms: N1_3  and  C3_5 
REMARK       I    between atoms: C3_5  and  N2_7 
REMARK    2  A    between atoms: N2_7  and  C4_9 
REMARK    3  A    between atoms: C4_9  and  C5_10 
REMARK    4  A    between atoms: C5_10  and  C6_11 
REMARK    5  A    between atoms: C6_11  and  C7_12 
REMARK    6  A    between atoms: C7_12  and  N3_13 
REMARK    7  A    between atoms: C9_18  and  N5_19 
REMARK    8  A    between atoms: N5_19  and  C10_21 
REMARK    9  A    between atoms: C10_21  and  C11_22 
REMARK   10  A    between atoms: C11_22  and  C12_23 
REMARK   11  A    between atoms: C12_23  and  N6_24 
REMARK   12  A    between atoms: C13_30  and  N8_31 
REMARK   13  A    between atoms: N8_31  and  N9_33 
REMARK   14  A    between atoms: N9_33  and  C14_35 
REMARK   15  A    between atoms: C14_35  and  C15_36 
REMARK   16  A    between atoms: C15_36  and  N10_37 
ROOT
HETATM    1  N3  UNL     1       2.458  -0.754   0.577  1.00  0.00    -0.225 N 
ATOM      2  H3  UNL     1       3.049  -1.478   0.168  1.00  0.00     0.177 HD
HETATM    3  C8  UNL     1       1.224  -1.013   0.723  1.00  0.00     0.707 A 
HETATM    4  N4  UNL     1       0.767  -2.248   0.322  1.00  0.00    -0.022 N 
ATOM      5  H4  UNL     1       1.430  -2.911  -0.079  1.00  0.00     0.203 HD
HETATM    6  C9  UNL     1      -0.511  -2.608   0.439  1.00  0.00     0.707 A 
HETATM    7  N7  UNL     1      -1.389  -1.728   0.971  1.00  0.00    -0.020 N 
ATOM      8  H7  UNL     1      -2.369  -1.997   1.064  1.00  0.00     0.203 HD
HETATM    9  C13 UNL     1      -1.005  -0.517   1.377  1.00  0.00     0.725 A 
HETATM   10  N11 UNL     1       0.312  -0.179   1.242  1.00  0.00    -0.020 N 
ATOM     11  H11 UNL     1       0.614   0.746   1.549  1.00  0.00     0.203 HD
ENDROOT
BRANCH   1  12
HETATM   12  C7  UNL     1       3.071   0.467   0.941  1.00  0.00     0.138 C 
BRANCH  12  13
HETATM   13  C6  UNL     1       3.462   1.183  -0.342  1.00  0.00     0.022 C 
BRANCH  13  14
HETATM   14  C5  UNL     1       4.129   2.512  -0.003  1.00  0.00     0.021 C 
BRANCH  14  15
HETATM   15  C4  UNL     1       4.484   3.144  -1.324  1.00  0.00     0.124 C 
BRANCH  15  16
HETATM   16  N2  UNL     1       5.368   2.283  -2.050  1.00  0.00    -0.343 N 
HETATM   17  C3  UNL     1       6.641   1.948  -1.545  1.00  0.00     0.316 C 
HETATM   18  N1  UNL     1       7.456   1.081  -2.309  1.00  0.00    -0.344 N 
HETATM   19  O1  UNL     1       7.096   2.370  -0.460  1.00  0.00    -0.247 OA
ATOM     20  H1  UNL     1       7.116   0.717  -3.199  1.00  0.00     0.164 HD
ATOM     21  H2  UNL     1       5.071   1.905  -2.950  1.00  0.00     0.164 HD
BRANCH  18  22
HETATM   22  C2  UNL     1       8.759   0.711  -1.836  1.00  0.00     0.120 C 
HETATM   23  C1  UNL     1       8.675   0.001  -0.501  1.00  0.00     0.026 C 
ENDBRANCH  18  22
ENDBRANCH  15  16
ENDBRANCH  14  15
ENDBRANCH  13  14
ENDBRANCH  12  13
ENDBRANCH   1  12
BRANCH   6  24
HETATM   24  N5  UNL     1      -0.954  -3.753   0.071  1.00  0.00    -0.225 N 
ATOM     25  H5  UNL     1      -1.939  -3.995   0.177  1.00  0.00     0.177 HD
BRANCH  24  26
HETATM   26  C10 UNL     1      -0.019  -4.686  -0.496  1.00  0.00     0.139 C 
BRANCH  26  27
HETATM   27  C11 UNL     1      -0.621  -5.957  -0.987  1.00  0.00     0.047 C 
BRANCH  27  28
HETATM   28  C12 UNL     1      -1.297  -6.675   0.153  1.00  0.00     0.231 C 
BRANCH  28  29
HETATM   29  N6  UNL     1      -2.335  -5.821   0.682  1.00  0.00    -0.079 N 
ATOM     30  H63 UNL     1      -1.986  -4.901   0.951  1.00  0.00     0.274 HD
ATOM     31  H62 UNL     1      -2.994  -5.516  -0.034  1.00  0.00     0.274 HD
ATOM     32  H61 UNL     1      -2.792  -6.307   1.453  1.00  0.00     0.274 HD
ENDBRANCH  28  29
ENDBRANCH  27  28
ENDBRANCH  26  27
ENDBRANCH  24  26
ENDBRANCH   6  24
BRANCH   9  33
HETATM   33  N8  UNL     1      -1.804   0.360   1.898  1.00  0.00    -0.135 N 
ATOM     34  H8  UNL     1      -1.477   1.278   2.198  1.00  0.00     0.205 HD
BRANCH  33  35
HETATM   35  N9  UNL     1      -3.140  -0.027   2.025  1.00  0.00    -0.321 N 
ATOM     36  H9  UNL     1      -3.464  -0.523   2.855  1.00  0.00     0.180 HD
BRANCH  35  37
HETATM   37  C14 UNL     1      -4.053   0.294   0.949  1.00  0.00     0.170 C 
BRANCH  37  38
HETATM   38  C15 UNL     1      -4.092   1.775   0.775  1.00  0.00     0.293 C 
BRANCH  38  39
HETATM   39  N10 UNL     1      -4.986   2.175  -0.285  1.00  0.00     0.090 N 
HETATM   40  C16 UNL     1      -5.022   3.590  -0.455  1.00  0.00     0.272 C 
HETATM   41  C17 UNL     1      -6.103   4.111  -1.329  1.00  0.00     0.030 C 
HETATM   42  C18 UNL     1      -7.440   3.440  -1.087  1.00  0.00     0.003 C 
HETATM   43  C19 UNL     1      -7.202   1.951  -1.315  1.00  0.00     0.030 C 
HETATM   44  C20 UNL     1      -6.228   1.493  -0.284  1.00  0.00     0.272 C 
ENDBRANCH  38  39
ENDBRANCH  37  38
ENDBRANCH  35  37
ENDBRANCH  33  35
ENDBRANCH   9  33
TORSDOF 16
