REMARK  4 active torsions:
REMARK  status: ('A' for Active; 'I' for Inactive)
REMARK    1  A    between atoms: C5_8  and  N2_9 
REMARK    2  A    between atoms: N2_9  and  S1_11 
REMARK    3  A    between atoms: S1_11  and  N3_14 
REMARK    4  A    between atoms: N3_14  and  N4_16 
ROOT
HETATM    1  C1  UNL     1      -3.027  -0.997  -1.057  1.00  0.00     0.069 C 
HETATM    2  C2  UNL     1      -2.137   0.068  -0.501  1.00  0.00     0.028 A 
HETATM    3  C3  UNL     1      -2.721   1.240  -0.040  1.00  0.00     0.100 A 
HETATM    4  C4  UNL     1      -1.890   2.215   0.471  1.00  0.00     0.261 A 
HETATM    5  O1  UNL     1      -2.364   3.316   0.912  1.00  0.00    -0.268 OA
HETATM    6  N1  UNL     1      -0.572   1.962   0.487  1.00  0.00    -0.155 N 
ATOM      7  H1  UNL     1       0.048   2.678   0.864  1.00  0.00     0.187 HD
HETATM    8  C5  UNL     1      -0.018   0.819   0.035  1.00  0.00     0.696 A 
HETATM    9  N5  UNL     1      -0.812  -0.138  -0.464  1.00  0.00    -0.195 N 
ATOM     10  H5  UNL     1      -0.414  -1.011  -0.811  1.00  0.00     0.184 HD
ENDROOT
BRANCH   8  11
HETATM   11  N2  UNL     1       1.249   0.650   0.083  1.00  0.00    -0.098 N 
ATOM     12  H2  UNL     1       1.812   1.406   0.472  1.00  0.00     0.199 HD
BRANCH  11  13
HETATM   13  S1  UNL     1       2.065  -0.746  -0.455  1.00  0.00     0.350 S 
HETATM   14  O2  UNL     1       1.744  -0.964  -1.926  1.00  0.00    -0.180 OA
HETATM   15  O3  UNL     1       1.533  -1.939   0.306  1.00  0.00    -0.180 OA
BRANCH  13  16
HETATM   16  N3  UNL     1       3.751  -0.655  -0.281  1.00  0.00    -0.216 N 
ATOM     17  H3  UNL     1       4.366  -0.287  -1.007  1.00  0.00     0.201 HD
BRANCH  16  18
HETATM   18  N4  UNL     1       4.219  -1.128   0.943  1.00  0.00    -0.335 N 
ATOM     19  H42 UNL     1       3.592  -1.493   1.660  1.00  0.00     0.177 HD
ATOM     20  H41 UNL     1       5.232  -1.073   1.048  1.00  0.00     0.177 HD
ENDBRANCH  16  18
ENDBRANCH  13  16
ENDBRANCH  11  13
ENDBRANCH   8  11
TORSDOF 4
