REMARK  6 active torsions:
REMARK  status: ('A' for Active; 'I' for Inactive)
REMARK    1  A    between atoms: C2_2  and  O2_4 
REMARK    2  A    between atoms: O2_4  and  C3_5 
REMARK    3  A    between atoms: C11_14  and  C12_15 
REMARK    4  A    between atoms: C12_15  and  O4_16 
REMARK    5  A    between atoms: C15_21  and  O6_22 
REMARK    6  A    between atoms: O6_22  and  C16_23 
ROOT
HETATM    1  C3  UNL     1       0.937  -0.937  -0.086  1.00  0.00     0.190 C 
HETATM    2  C4  UNL     1       0.574  -1.432   1.299  1.00  0.00     0.150 C 
HETATM    3  C5  UNL     1       1.431  -0.797   2.378  1.00  0.00     0.042 C 
HETATM    4  O3  UNL     1      -0.754  -1.396   1.562  1.00  0.00    -0.372 OA
HETATM    5  C6  UNL     1      -1.424  -0.245   1.346  1.00  0.00     0.075 C 
HETATM    6  C7  UNL     1      -1.471   0.612   2.598  1.00  0.00     0.047 C 
HETATM    7  C8  UNL     1      -2.889  -0.647   1.077  1.00  0.00     0.091 C 
HETATM    8  C9  UNL     1      -2.775  -1.813   0.117  1.00  0.00     0.016 C 
HETATM    9  C10 UNL     1      -2.432  -1.130  -1.208  1.00  0.00     0.021 C 
HETATM   10  C11 UNL     1      -2.234   0.315  -0.849  1.00  0.00     0.051 C 
HETATM   11  C13 UNL     1      -3.343   0.414   0.153  1.00  0.00     0.145 C 
HETATM   12  O5  UNL     1      -4.260   1.156   0.120  1.00  0.00    -0.296 OA
HETATM   13  C14 UNL     1      -1.097   0.539   0.114  1.00  0.00     0.071 C 
HETATM   14  C15 UNL     1       0.267   0.373  -0.432  1.00  0.00     0.172 C 
ENDROOT
BRANCH   1  15
HETATM   15  O2  UNL     1       2.347  -0.832  -0.126  1.00  0.00    -0.311 OA
BRANCH  15  16
HETATM   16  C2  UNL     1       3.155  -1.581  -0.951  1.00  0.00     0.255 C 
HETATM   17  C1  UNL     1       4.629  -1.472  -0.994  1.00  0.00     0.126 C 
HETATM   18  O1  UNL     1       2.561  -2.413  -1.715  1.00  0.00    -0.266 OA
ENDBRANCH  15  16
ENDBRANCH   1  15
BRANCH  14  19
HETATM   19  O6  UNL     1       1.125   1.383   0.055  1.00  0.00    -0.313 OA
BRANCH  19  20
HETATM   20  C16 UNL     1       1.779   2.211  -0.830  1.00  0.00     0.255 C 
HETATM   21  C17 UNL     1       2.695   3.296  -0.428  1.00  0.00     0.126 C 
HETATM   22  O7  UNL     1       1.583   2.034  -2.058  1.00  0.00    -0.266 OA
ENDBRANCH  19  20
ENDBRANCH  14  19
BRANCH  10  23
HETATM   23  C12 UNL     1      -2.397   1.288  -1.932  1.00  0.00     0.182 C 
BRANCH  23  24
HETATM   24  O4  UNL     1      -1.556   1.145  -2.999  1.00  0.00    -0.400 OA
ATOM     25  H4  UNL     1      -1.662   1.776  -3.701  1.00  0.00     0.209 HD
ENDBRANCH  23  24
ENDBRANCH  10  23
TORSDOF 6
