REMARK  1 active torsions:
REMARK  status: ('A' for Active; 'I' for Inactive)
REMARK    1  A    between atoms: C5_5  and  C6_6 
ROOT
HETATM    1  C1  UNL     1      -2.187  -1.323   0.133  1.00  0.00     0.012 C 
HETATM    2  C2  UNL     1      -0.884  -0.754   0.721  1.00  0.00     0.010 C 
HETATM    3  C3  UNL     1       0.243  -1.429   0.053  1.00  0.00     0.010 C 
HETATM    4  C4  UNL     1       1.142  -0.576  -0.780  1.00  0.00     0.041 C 
HETATM    5  C5  UNL     1       1.141   0.875  -0.387  1.00  0.00     0.210 C 
HETATM    6  O2  UNL     1      -0.111   1.341  -0.205  1.00  0.00    -0.372 OA
HETATM    7  C7  UNL     1      -0.887   0.728   0.727  1.00  0.00     0.122 C 
HETATM    8  C8  UNL     1      -2.307   1.303   0.563  1.00  0.00     0.040 C 
ENDROOT
BRANCH   5   9
HETATM    9  C6  UNL     1       2.085   1.085   0.719  1.00  0.00     0.260 C 
HETATM   10  N1  UNL     1       3.416   0.606   0.559  1.00  0.00    -0.060 NA
HETATM   11  O1  UNL     1       1.824   1.652   1.799  1.00  0.00    -0.274 OA
ENDBRANCH   5   9
TORSDOF 1
