REMARK  10 active torsions:
REMARK  status: ('A' for Active; 'I' for Inactive)
REMARK    1  A    between atoms: C6_9  and  C7_10 
REMARK    2  A    between atoms: C7_10  and  O2_11 
REMARK    3  A    between atoms: C7_10  and  C8_13 
REMARK    4  A    between atoms: C8_13  and  O3_14 
REMARK    5  A    between atoms: C11_18  and  C12_19 
REMARK    6  A    between atoms: C11_18  and  C21_31 
REMARK    7  A    between atoms: C12_19  and  C13_20 
REMARK    8  A    between atoms: C14_21  and  C15_22 
REMARK    9  A    between atoms: C15_22  and  C16_23 
REMARK   10  A    between atoms: C21_31  and  C22_32 
ROOT
HETATM    1  O1  UNL     1      -5.753   1.041  -2.578  1.00  0.00    -0.239 OA
HETATM    2  C1  UNL     1      -4.759   0.726  -1.867  1.00  0.00     0.360 C 
HETATM    3  N1  UNL     1      -4.602   1.348  -0.616  1.00  0.00    -0.336 N 
ATOM      4  H1  UNL     1      -5.315   1.989  -0.268  1.00  0.00     0.164 HD
HETATM    5  C2  UNL     1      -3.415   1.070   0.178  1.00  0.00     0.133 C 
HETATM    6  C3  UNL     1      -2.313   0.755  -0.782  1.00  0.00     0.043 C 
HETATM    7  C4  UNL     1      -2.679  -0.526  -1.457  1.00  0.00     0.140 C 
HETATM    8  C5  UNL     1      -3.147  -1.611  -0.564  1.00  0.00     0.040 C 
HETATM    9  C6  UNL     1      -2.319  -2.147   0.499  1.00  0.00     0.019 C 
HETATM   10  C9  UNL     1      -1.369  -1.400   1.292  1.00  0.00     0.008 C 
HETATM   11  C10 UNL     1      -1.162   0.048   1.189  1.00  0.00     0.012 C 
HETATM   12  C11 UNL     1      -0.958   0.635  -0.161  1.00  0.00    -0.019 C 
HETATM   13  O4  UNL     1      -3.836  -0.196  -2.270  1.00  0.00    -0.298 OA
ENDROOT
BRANCH  12  14
HETATM   14  C12 UNL     1      -0.078  -0.323  -0.972  1.00  0.00     0.104 C 
BRANCH  14  15
HETATM   15  C13 UNL     1       1.240  -0.423  -0.327  1.00  0.00    -0.106 C 
HETATM   16  C14 UNL     1       2.344  -0.535   0.202  1.00  0.00    -0.106 C 
BRANCH  16  17
HETATM   17  C15 UNL     1       3.649  -0.670   0.849  1.00  0.00     0.098 C 
BRANCH  17  18
HETATM   18  C16 UNL     1       4.621  -1.058  -0.242  1.00  0.00    -0.000 C 
HETATM   19  C17 UNL     1       4.703  -0.036  -1.332  1.00  0.00     0.033 C 
HETATM   20  C18 UNL     1       6.052   0.649  -1.289  1.00  0.00     0.232 C 
HETATM   21  N2  UNL     1       7.123  -0.283  -1.472  1.00  0.00    -0.075 N 
HETATM   22  C19 UNL     1       7.086  -1.395  -0.571  1.00  0.00     0.232 C 
ATOM     23  H22 UNL     1       7.156  -0.606  -2.439  1.00  0.00     0.277 HD
ATOM     24  H21 UNL     1       8.024   0.192  -1.419  1.00  0.00     0.277 HD
HETATM   25  C20 UNL     1       5.959  -1.293   0.429  1.00  0.00     0.033 C 
ENDBRANCH  17  18
ENDBRANCH  16  17
ENDBRANCH  14  15
ENDBRANCH  12  14
BRANCH  12  26
HETATM   26  C21 UNL     1      -0.156   1.891  -0.137  1.00  0.00     0.049 C 
BRANCH  26  27
HETATM   27  C22 UNL     1      -0.659   3.069   0.532  1.00  0.00    -0.054 A 
HETATM   28  C23 UNL     1      -0.441   3.266   1.875  1.00  0.00     0.010 A 
HETATM   29  C24 UNL     1      -0.870   4.374   2.574  1.00  0.00     0.046 A 
HETATM   30  C25 UNL     1      -1.556   5.328   1.866  1.00  0.00     0.154 A 
HETATM   31  F1  UNL     1      -1.986   6.431   2.550  1.00  0.00    -0.203 F 
HETATM   32  C26 UNL     1      -1.795   5.172   0.523  1.00  0.00     0.155 A 
HETATM   33  F2  UNL     1      -2.480   6.166  -0.095  1.00  0.00    -0.203 F 
HETATM   34  C27 UNL     1      -1.352   4.061  -0.127  1.00  0.00     0.052 A 
ENDBRANCH  26  27
ENDBRANCH  12  26
BRANCH   9  35
HETATM   35  C7  UNL     1      -3.273  -2.934   1.438  1.00  0.00     0.145 C 
BRANCH  35  36
HETATM   36  O2  UNL     1      -2.476  -3.441   2.447  1.00  0.00    -0.393 OA
ATOM     37  H2  UNL     1      -3.060  -3.922   3.021  1.00  0.00     0.210 HD
ENDBRANCH  35  36
BRANCH  35  38
HETATM   38  C8  UNL     1      -3.881  -4.096   0.699  1.00  0.00     0.196 C 
BRANCH  38  39
HETATM   39  O3  UNL     1      -2.818  -4.851   0.183  1.00  0.00    -0.398 OA
ATOM     40  H3  UNL     1      -3.202  -5.584  -0.283  1.00  0.00     0.209 HD
ENDBRANCH  38  39
ENDBRANCH  35  38
ENDBRANCH   9  35
TORSDOF 10
