REMARK  12 active torsions:
REMARK  status: ('A' for Active; 'I' for Inactive)
REMARK    1  A    between atoms: C2_2  and  O1_4 
REMARK    2  A    between atoms: C2_2  and  C4_6 
REMARK    3  A    between atoms: C4_6  and  C5_7 
REMARK    4  A    between atoms: C5_7  and  C6_8 
REMARK    5  A    between atoms: C9_12  and  C10_13 
REMARK    6  A    between atoms: C10_13  and  C11_14 
REMARK    7  A    between atoms: C10_13  and  N2_25 
REMARK    8  A    between atoms: C11_14  and  C12_15 
REMARK    9  A    between atoms: C15_18  and  N1_19 
REMARK   10  A    between atoms: N2_25  and  C18_27 
REMARK   11  A    between atoms: C20_29  and  C21_30 
REMARK   12  A    between atoms: C24_39  and  C25_40 
ROOT
HETATM    1  C10 UNL     1      -1.697   0.129  -0.909  1.00  0.00     0.133 C 
ENDROOT
BRANCH   1   2
HETATM    2  C9  UNL     1      -0.253  -0.120  -0.717  1.00  0.00     0.035 A 
HETATM    3  C8  UNL     1       0.360  -0.566   0.403  1.00  0.00     0.071 A 
HETATM    4  C7  UNL     1       1.709  -0.779   0.421  1.00  0.00     0.139 A 
HETATM    5  C6  UNL     1       2.512  -0.550  -0.700  1.00  0.00     0.086 A 
HETATM    6  F1  UNL     1       2.318  -1.223   1.532  1.00  0.00    -0.204 F 
HETATM    7  C24 UNL     1       1.865  -0.095  -1.828  1.00  0.00     0.092 A 
HETATM    8  N5  UNL     1       0.522   0.109  -1.822  1.00  0.00    -0.354 N 
ATOM      9  H5  UNL     1       0.074   0.446  -2.674  1.00  0.00     0.166 HD
BRANCH   5  10
HETATM   10  C5  UNL     1       3.928  -0.793  -0.619  1.00  0.00    -0.058 C 
BRANCH  10  11
HETATM   11  C4  UNL     1       5.105  -1.002  -0.526  1.00  0.00    -0.063 C 
BRANCH  11  12
HETATM   12  C2  UNL     1       6.560  -1.248  -0.390  1.00  0.00     0.114 C 
HETATM   13  C1  UNL     1       7.077  -2.111  -1.518  1.00  0.00     0.060 C 
HETATM   14  C3  UNL     1       6.743  -1.977   0.923  1.00  0.00     0.060 C 
BRANCH  12  15
HETATM   15  O1  UNL     1       7.269  -0.061  -0.314  1.00  0.00    -0.378 OA
ATOM     16  H1  UNL     1       6.944   0.481   0.395  1.00  0.00     0.211 HD
ENDBRANCH  12  15
ENDBRANCH  11  12
ENDBRANCH  10  11
ENDBRANCH   5  10
BRANCH   7  17
HETATM   17  C25 UNL     1       2.640   0.166  -3.033  1.00  0.00     0.289 C 
HETATM   18  O2  UNL     1       3.851  -0.006  -3.078  1.00  0.00    -0.300 OA
ENDBRANCH   7  17
ENDBRANCH   1   2
BRANCH   1  19
HETATM   19  C11 UNL     1      -2.631  -0.324   0.118  1.00  0.00     0.036 C 
BRANCH  19  20
HETATM   20  C12 UNL     1      -2.772  -1.744   0.447  1.00  0.00    -0.012 C 
HETATM   21  C13 UNL     1      -3.211  -2.629  -0.697  1.00  0.00     0.007 C 
HETATM   22  C14 UNL     1      -2.922  -4.067  -0.233  1.00  0.00     0.033 C 
HETATM   23  C15 UNL     1      -3.728  -4.349   1.012  1.00  0.00     0.183 C 
HETATM   24  C16 UNL     1      -4.590  -3.197   1.405  1.00  0.00     0.033 C 
HETATM   25  C17 UNL     1      -3.889  -1.888   1.499  1.00  0.00     0.007 C 
BRANCH  23  26
HETATM   26  N1  UNL     1      -2.877  -4.842   2.052  1.00  0.00    -0.075 N 
ATOM     27  H13 UNL     1      -2.342  -5.657   1.752  1.00  0.00     0.274 HD
ATOM     28  H12 UNL     1      -2.098  -4.211   2.238  1.00  0.00     0.274 HD
ATOM     29  H11 UNL     1      -3.422  -5.033   2.893  1.00  0.00     0.274 HD
ENDBRANCH  23  26
ENDBRANCH  19  20
ENDBRANCH   1  19
BRANCH   1  30
HETATM   30  N2  UNL     1      -1.888   1.506  -1.230  1.00  0.00    -0.365 N 
ATOM     31  H2  UNL     1      -2.247   1.673  -2.170  1.00  0.00     0.162 HD
BRANCH  30  32
HETATM   32  C18 UNL     1      -1.691   2.551  -0.556  1.00  0.00     0.118 A 
HETATM   33  C19 UNL     1      -1.958   3.821  -1.095  1.00  0.00     0.076 A 
HETATM   34  C20 UNL     1      -1.652   4.765  -0.144  1.00  0.00     0.033 A 
HETATM   35  N3  UNL     1      -1.215   4.095   0.932  1.00  0.00    -0.303 N 
HETATM   36  N4  UNL     1      -1.243   2.793   0.675  1.00  0.00    -0.286 N 
ATOM     37  H3  UNL     1      -0.910   4.518   1.808  1.00  0.00     0.186 HD
ATOM     38  H4  UNL     1      -0.958   2.070   1.336  1.00  0.00     0.188 HD
BRANCH  34  39
HETATM   39  C21 UNL     1      -1.786   6.254  -0.296  1.00  0.00     0.037 A 
HETATM   40  C22 UNL     1      -0.514   7.029   0.148  1.00  0.00     0.011 A 
HETATM   41  C23 UNL     1      -1.813   7.120   0.895  1.00  0.00     0.011 A 
ENDBRANCH  34  39
ENDBRANCH  30  32
ENDBRANCH   1  30
TORSDOF 12
