REMARK  12 active torsions:
REMARK  status: ('A' for Active; 'I' for Inactive)
REMARK    1  A    between atoms: C5_5  and  O1_6 
REMARK    2  A    between atoms: O1_6  and  C6_7 
REMARK    3  A    between atoms: C6_7  and  C7_9 
REMARK    4  A    between atoms: C15_18  and  C16_19 
REMARK    5  A    between atoms: C16_19  and  C17_20 
REMARK    6  A    between atoms: C17_20  and  C18_21 
REMARK    7  A    between atoms: C18_21  and  C19_22 
REMARK    8  A    between atoms: C19_22  and  C20_23 
REMARK    9  A    between atoms: C20_23  and  O3_24 
REMARK   10  A    between atoms: N1_26  and  O4_28 
REMARK   11  A    between atoms: N2_30  and  O5_32 
REMARK   12  A    between atoms: C23_36  and  O6_37 
ROOT
HETATM    1  C1  UNL     1       2.341   1.054  -1.586  1.00  0.00     0.016 C 
HETATM    2  C2  UNL     1       1.957   0.200  -0.364  1.00  0.00    -0.036 C 
HETATM    3  C3  UNL     1       1.881   1.165   0.789  1.00  0.00     0.012 C 
HETATM    4  C4  UNL     1       3.155   1.810   1.171  1.00  0.00     0.033 C 
HETATM    5  C5  UNL     1       4.401   1.251   0.595  1.00  0.00     0.132 C 
HETATM    6  C8  UNL     1       4.368  -0.214   0.290  1.00  0.00     0.038 C 
HETATM    7  C9  UNL     1       3.099  -0.771  -0.189  1.00  0.00    -0.004 C 
HETATM    8  C10 UNL     1       2.597  -1.877   0.731  1.00  0.00     0.006 C 
HETATM    9  C11 UNL     1       1.725  -2.726  -0.160  1.00  0.00     0.006 C 
HETATM   10  C12 UNL     1       0.683  -1.934  -0.876  1.00  0.00    -0.005 C 
HETATM   11  C13 UNL     1       0.659  -0.466  -0.595  1.00  0.00    -0.001 C 
HETATM   12  C14 UNL     1      -0.408  -0.212   0.475  1.00  0.00     0.011 C 
HETATM   13  C15 UNL     1      -1.785  -0.443  -0.103  1.00  0.00    -0.003 C 
HETATM   14  C21 UNL     1      -1.844  -1.742  -0.855  1.00  0.00    -0.010 C 
HETATM   15  C22 UNL     1      -2.138  -1.602  -2.306  1.00  0.00     0.018 C 
HETATM   16  C23 UNL     1      -2.915  -2.695  -0.298  1.00  0.00     0.127 C 
HETATM   17  C24 UNL     1      -2.405  -4.027  -0.845  1.00  0.00     0.033 C 
HETATM   18  C25 UNL     1      -0.937  -3.853  -1.155  1.00  0.00     0.008 C 
HETATM   19  C26 UNL     1      -0.632  -2.529  -0.518  1.00  0.00     0.001 C 
ENDROOT
BRANCH  13  20
HETATM   20  C16 UNL     1      -2.290   0.717  -0.867  1.00  0.00     0.011 C 
BRANCH  20  21
HETATM   21  C17 UNL     1      -2.427   1.993  -0.081  1.00  0.00     0.055 C 
BRANCH  21  22
HETATM   22  C18 UNL     1      -3.341   1.853   1.071  1.00  0.00     0.017 C 
HETATM   23  N2  UNL     1      -2.893   2.071   2.252  1.00  0.00    -0.277 N 
ATOM     24  H2  UNL     1      -1.916   2.336   2.375  1.00  0.00     0.193 HD
BRANCH  22  25
HETATM   25  C19 UNL     1      -4.754   1.470   0.894  1.00  0.00     0.140 C 
BRANCH  25  26
HETATM   26  C20 UNL     1      -5.526   2.426   0.052  1.00  0.00     0.140 C 
HETATM   27  N1  UNL     1      -6.568   3.069   0.516  1.00  0.00    -0.251 N 
ATOM     28  H1  UNL     1      -7.071   3.715  -0.092  1.00  0.00     0.196 HD
BRANCH  26  29
HETATM   29  O3  UNL     1      -5.207   2.704  -1.269  1.00  0.00    -0.348 OA
ATOM     30  H3  UNL     1      -5.699   3.314  -1.806  1.00  0.00     0.219 HD
ENDBRANCH  26  29
BRANCH  27  31
HETATM   31  O4  UNL     1      -6.990   2.889   1.797  1.00  0.00    -0.288 OA
ATOM     32  H4  UNL     1      -7.746   3.356   2.134  1.00  0.00     0.244 HD
ENDBRANCH  27  31
ENDBRANCH  25  26
ENDBRANCH  22  25
BRANCH  23  33
HETATM   33  O5  UNL     1      -3.704   1.954   3.357  1.00  0.00    -0.290 OA
ATOM     34  H5  UNL     1      -3.372   2.116   4.232  1.00  0.00     0.244 HD
ENDBRANCH  23  33
ENDBRANCH  21  22
ENDBRANCH  20  21
ENDBRANCH  13  20
BRANCH  16  35
HETATM   35  O6  UNL     1      -4.157  -2.418  -0.857  1.00  0.00    -0.395 OA
ATOM     36  H6  UNL     1      -4.819  -3.007  -0.513  1.00  0.00     0.210 HD
ENDBRANCH  16  35
BRANCH   5  37
HETATM   37  O1  UNL     1       5.496   1.564   1.437  1.00  0.00    -0.315 OA
BRANCH  37  38
HETATM   38  C6  UNL     1       6.549   2.357   1.052  1.00  0.00     0.273 C 
HETATM   39  O2  UNL     1       6.514   2.818  -0.117  1.00  0.00    -0.264 OA
BRANCH  38  40
HETATM   40  C7  UNL     1       7.657   2.644   1.975  1.00  0.00     0.225 C 
HETATM   41 CL1  UNL     1       8.824   3.689   1.132  1.00  0.00    -0.120 Cl
ENDBRANCH  38  40
ENDBRANCH  37  38
ENDBRANCH   5  37
TORSDOF 12
