REMARK  8 active torsions:
REMARK  status: ('A' for Active; 'I' for Inactive)
REMARK    1  A    between atoms: O1_1  and  C1_3 
REMARK    2  A    between atoms: N3_12  and  C5_13 
REMARK    3  A    between atoms: C5_13  and  C6_14 
REMARK    4  A    between atoms: C10_19  and  O2_20 
REMARK    5  A    between atoms: O2_20  and  C11_21 
REMARK    6  A    between atoms: C11_21  and  C12_22 
REMARK    7  A    between atoms: C14_25  and  C15_26 
REMARK    8  A    between atoms: C15_26  and  N4_27 
ROOT
HETATM    1  C1  UNL     1       1.977   0.734   1.596  1.00  0.00     0.152 A 
HETATM    2  N1  UNL     1       0.635   0.818   1.834  1.00  0.00    -0.321 N 
ATOM      3  H1  UNL     1       0.187   0.600   2.724  1.00  0.00     0.169 HD
HETATM    4  C2  UNL     1      -0.002   1.223   0.746  1.00  0.00     0.140 A 
HETATM    5  C3  UNL     1       0.946   1.409  -0.223  1.00  0.00     0.091 A 
HETATM    6  N2  UNL     1       0.282   1.838  -1.303  1.00  0.00    -0.329 N 
ATOM      7  H2  UNL     1       0.696   2.072  -2.205  1.00  0.00     0.168 HD
HETATM    8  C4  UNL     1      -1.043   1.909  -0.990  1.00  0.00     0.180 A 
HETATM    9  S1  UNL     1      -2.175   2.405  -2.045  1.00  0.00    -0.040 SA
HETATM   10  N3  UNL     1      -1.233   1.531   0.277  1.00  0.00    -0.304 N 
HETATM   11  C14 UNL     1       2.217   1.098   0.309  1.00  0.00     0.051 A 
ENDROOT
BRANCH  10  12
HETATM   12  C5  UNL     1      -2.474   1.423   1.014  1.00  0.00     0.171 C 
BRANCH  12  13
HETATM   13  C6  UNL     1      -3.197   0.160   0.760  1.00  0.00    -0.037 A 
HETATM   14  C7  UNL     1      -2.606  -1.031   0.937  1.00  0.00     0.010 A 
HETATM   15  C8  UNL     1      -3.297  -2.237   0.711  1.00  0.00     0.023 A 
HETATM   16  C9  UNL     1      -4.596  -2.170   0.306  1.00  0.00     0.045 A 
HETATM   17  S2  UNL     1      -5.501  -3.711  -0.019  1.00  0.00    -0.050 SA
HETATM   18  C10 UNL     1      -5.261  -0.940   0.109  1.00  0.00     0.086 A 
HETATM   19  C13 UNL     1      -4.527   0.207   0.346  1.00  0.00     0.047 A 
BRANCH  18  20
HETATM   20  O2  UNL     1      -6.564  -1.003  -0.290  1.00  0.00    -0.349 OA
BRANCH  20  21
HETATM   21  C11 UNL     1      -7.441   0.009  -0.577  1.00  0.00     0.186 C 
BRANCH  21  22
HETATM   22  C12 UNL     1      -7.026   0.793  -1.782  1.00  0.00     0.112 C 
HETATM   23 BR1  UNL     1      -6.935  -0.420  -3.312  1.00  0.00    -0.094 Br
ENDBRANCH  21  22
ENDBRANCH  20  21
ENDBRANCH  18  20
ENDBRANCH  12  13
ENDBRANCH  10  12
BRANCH   1  24
HETATM   24  O1  UNL     1       2.911   0.339   2.528  1.00  0.00    -0.346 OA
ATOM     25  H1  UNL     1       3.845   0.281   2.362  1.00  0.00     0.219 HD
ENDBRANCH   1  24
BRANCH  11  26
HETATM   26  C15 UNL     1       3.496   1.252  -0.461  1.00  0.00     0.317 C 
BRANCH  26  27
HETATM   27  N4  UNL     1       4.299   0.046  -0.257  1.00  0.00     0.092 N 
HETATM   28  C16 UNL     1       4.861  -0.354  -1.562  1.00  0.00     0.272 C 
HETATM   29  C17 UNL     1       6.066  -1.203  -1.285  1.00  0.00     0.030 C 
HETATM   30  C18 UNL     1       6.014  -1.895   0.055  1.00  0.00     0.003 C 
HETATM   31  C19 UNL     1       6.081  -0.792   1.118  1.00  0.00     0.030 C 
HETATM   32  C20 UNL     1       5.489   0.450   0.555  1.00  0.00     0.272 C 
ENDBRANCH  26  27
ENDBRANCH  11  26
TORSDOF 8
