REMARK  9 active torsions:
REMARK  status: ('A' for Active; 'I' for Inactive)
REMARK    1  A    between atoms: C4_4  and  C5_5 
REMARK    2  A    between atoms: C5_5  and  C6_6 
REMARK    3  A    between atoms: C6_6  and  C8_8 
REMARK    4  A    between atoms: C12_13  and  O2_14 
REMARK    5  A    between atoms: C14_17  and  O3_18 
REMARK    6  A    between atoms: O3_18  and  C15_19 
REMARK    7  A    between atoms: C15_19  and  C16_21 
REMARK    8  A    between atoms: C19_24  and  N1_25 
REMARK    9  A    between atoms: C24_35  and  O7_36 
ROOT
HETATM    1  C8  UNL     1      -2.686  -0.264   0.243  1.00  0.00     0.139 C 
HETATM    2  O1  UNL     1      -2.061   0.677  -0.545  1.00  0.00    -0.378 OA
HETATM    3  C9  UNL     1      -1.000  -0.267  -0.579  1.00  0.00     0.142 C 
HETATM    4  C10 UNL     1       0.254   0.363  -0.945  1.00  0.00     0.060 C 
HETATM    5  C11 UNL     1       0.224   1.901  -0.918  1.00  0.00     0.042 C 
HETATM    6  C12 UNL     1       1.145   2.436  -2.032  1.00  0.00     0.121 C 
HETATM    7  C13 UNL     1       2.352   1.513  -2.011  1.00  0.00     0.067 C 
HETATM    8  C14 UNL     1       2.580   0.922  -0.628  1.00  0.00     0.174 C 
HETATM    9  C21 UNL     1       1.508  -0.143  -0.332  1.00  0.00     0.136 C 
HETATM   10  F1  UNL     1       1.941  -1.258  -1.078  1.00  0.00    -0.240 F 
HETATM   11  C22 UNL     1       1.492  -0.563   1.069  1.00  0.00     0.049 C 
HETATM   12  C23 UNL     1       0.682   0.189   2.050  1.00  0.00     0.036 C 
HETATM   13  C24 UNL     1      -0.786   0.164   1.903  1.00  0.00     0.131 C 
HETATM   14  C25 UNL     1      -1.351  -0.606   0.801  1.00  0.00     0.035 C 
HETATM   15  C26 UNL     1      -1.331  -2.109   1.131  1.00  0.00     0.023 C 
ENDROOT
BRANCH   8  16
HETATM   16  O3  UNL     1       3.841   0.256  -0.689  1.00  0.00    -0.308 OA
BRANCH  16  17
HETATM   17  C15 UNL     1       4.886   0.613   0.140  1.00  0.00     0.295 C 
HETATM   18  O4  UNL     1       4.699   1.545   0.956  1.00  0.00    -0.259 OA
BRANCH  17  19
HETATM   19  C16 UNL     1       6.164  -0.080   0.062  1.00  0.00     0.055 A 
HETATM   20  C17 UNL     1       7.235   0.253   0.875  1.00  0.00     0.023 A 
HETATM   21  C18 UNL     1       8.436  -0.431   0.769  1.00  0.00     0.056 A 
HETATM   22  C19 UNL     1       8.613  -1.457  -0.136  1.00  0.00     0.173 A 
HETATM   23  N2  UNL     1       7.561  -1.764  -0.916  1.00  0.00    -0.346 N 
HETATM   24  C20 UNL     1       6.380  -1.111  -0.831  1.00  0.00     0.107 A 
ATOM     25  H2  UNL     1       7.658  -2.517  -1.597  1.00  0.00     0.167 HD
BRANCH  22  26
HETATM   26  N1  UNL     1       9.855  -2.165  -0.246  1.00  0.00    -0.098 N 
HETATM   27  O5  UNL     1      10.835  -1.889   0.469  1.00  0.00    -0.531 OA
HETATM   28  O6  UNL     1       9.977  -3.168  -1.154  1.00  0.00    -0.531 OA
ENDBRANCH  22  26
ENDBRANCH  17  19
ENDBRANCH  16  17
ENDBRANCH   8  16
BRANCH   6  29
HETATM   29  O2  UNL     1       0.451   2.344  -3.232  1.00  0.00    -0.395 OA
ATOM     30  H2  UNL     1       1.019   2.674  -3.919  1.00  0.00     0.210 HD
ENDBRANCH   6  29
BRANCH  13  31
HETATM   31  O7  UNL     1      -1.229   1.508   1.974  1.00  0.00    -0.395 OA
ATOM     32  H7  UNL     1      -2.174   1.492   1.879  1.00  0.00     0.210 HD
ENDBRANCH  13  31
BRANCH   1  33
HETATM   33  C6  UNL     1      -3.796   0.218   1.054  1.00  0.00     0.015 C 
HETATM   34  C7  UNL     1      -4.499  -0.896   1.826  1.00  0.00     0.012 C 
BRANCH  33  35
HETATM   35  C5  UNL     1      -4.859   0.789   0.097  1.00  0.00     0.034 C 
BRANCH  35  36
HETATM   36  C4  UNL     1      -5.382  -0.209  -0.835  1.00  0.00    -0.024 C 
HETATM   37  C2  UNL     1      -6.674  -0.495  -0.858  1.00  0.00    -0.091 C 
HETATM   38  C1  UNL     1      -7.631   0.185   0.057  1.00  0.00     0.042 C 
HETATM   39  C3  UNL     1      -7.221  -1.517  -1.810  1.00  0.00     0.042 C 
ENDBRANCH  35  36
ENDBRANCH  33  35
ENDBRANCH   1  33
TORSDOF 9
