REMARK  5 active torsions:
REMARK  status: ('A' for Active; 'I' for Inactive)
REMARK       I    between atoms: C1_2  and  N1_3 
REMARK    1  A    between atoms: C1_2  and  C8_10 
REMARK    2  A    between atoms: N1_3  and  C2_4 
REMARK       I    between atoms: N2_14  and  C12_15 
REMARK    3  A    between atoms: C12_15  and  C13_17 
REMARK    4  A    between atoms: N6_24  and  C14_25 
REMARK    5  A    between atoms: C14_25  and  C15_26 
ROOT
HETATM    1  C8  UNL     1      -1.641   0.437   0.104  1.00  0.00     0.111 C 
HETATM    2  C9  UNL     1      -1.843  -0.437   1.318  1.00  0.00     0.018 C 
HETATM    3  C10 UNL     1      -1.613  -1.868   0.932  1.00  0.00     0.021 C 
HETATM    4  C11 UNL     1      -0.081  -2.002   0.769  1.00  0.00     0.126 C 
HETATM    5  N2  UNL     1       0.419  -0.948  -0.065  1.00  0.00    -0.345 N 
HETATM    6  C12 UNL     1       1.807  -0.935  -0.417  1.00  0.00     0.290 C 
HETATM    7  O2  UNL     1       2.213  -0.029  -1.182  1.00  0.00    -0.264 OA
HETATM    8  C21 UNL     1      -0.367   0.153  -0.580  1.00  0.00     0.141 C 
ENDROOT
BRANCH   6   9
HETATM    9  C13 UNL     1       2.765  -1.926   0.074  1.00  0.00     0.208 A 
HETATM   10  N3  UNL     1       2.478  -2.957   0.908  1.00  0.00    -0.264 N 
HETATM   11  N4  UNL     1       3.548  -3.661   1.109  1.00  0.00    -0.226 N 
ATOM     12  H3  UNL     1       1.562  -3.149   1.314  1.00  0.00     0.190 HD
HETATM   13  N5  UNL     1       4.511  -3.120   0.433  1.00  0.00    -0.224 N 
ATOM     14  H4  UNL     1       3.619  -4.493   1.695  1.00  0.00     0.210 HD
HETATM   15  N6  UNL     1       4.043  -2.021  -0.228  1.00  0.00    -0.255 N 
ATOM     16  H5  UNL     1       5.471  -3.462   0.400  1.00  0.00     0.210 HD
BRANCH  15  17
HETATM   17  C14 UNL     1       4.952  -1.207  -1.008  1.00  0.00     0.157 C 
BRANCH  17  18
HETATM   18  C15 UNL     1       5.745  -0.335  -0.104  1.00  0.00     0.006 C 
HETATM   19  C16 UNL     1       6.729   0.547  -0.897  1.00  0.00     0.006 C 
HETATM   20  C17 UNL     1       7.767   0.948   0.122  1.00  0.00     0.000 C 
HETATM   21  C18 UNL     1       7.194   1.747   1.247  1.00  0.00     0.000 C 
HETATM   22  C19 UNL     1       5.881   1.282   1.766  1.00  0.00     0.000 C 
HETATM   23  C20 UNL     1       5.005   0.554   0.793  1.00  0.00     0.006 C 
ENDBRANCH  17  18
ENDBRANCH  15  17
ENDBRANCH   6   9
BRANCH   1  24
HETATM   24  C1  UNL     1      -2.851   0.302  -0.844  1.00  0.00     0.292 C 
HETATM   25  O1  UNL     1      -2.482   0.074  -2.022  1.00  0.00    -0.257 OA
HETATM   26  N1  UNL     1      -4.116   0.436  -0.349  1.00  0.00    -0.409 NA
BRANCH  26  27
HETATM   27  C2  UNL     1      -5.390   0.571   0.149  1.00  0.00     0.166 C 
HETATM   28  C3  UNL     1      -5.921   1.953  -0.116  1.00  0.00     0.039 C 
HETATM   29  C4  UNL     1      -7.399   2.109  -0.030  1.00  0.00     0.003 C 
HETATM   30  C5  UNL     1      -8.045   1.040  -0.889  1.00  0.00     0.000 C 
HETATM   31  C6  UNL     1      -7.755  -0.270  -0.174  1.00  0.00     0.003 C 
HETATM   32  C7  UNL     1      -6.301  -0.544  -0.329  1.00  0.00     0.039 C 
ENDBRANCH  26  27
ENDBRANCH   1  24
TORSDOF 5
