REMARK  4 active torsions:
REMARK  status: ('A' for Active; 'I' for Inactive)
REMARK    1  A    between atoms: C2_2  and  N1_3 
REMARK    2  A    between atoms: C2_2  and  C3_7 
REMARK       I    between atoms: C3_7  and  N2_9 
REMARK    3  A    between atoms: N5_17  and  N6_19 
REMARK    4  A    between atoms: N6_19  and  N7_21 
ROOT
HETATM    1  C3  UNL     1       2.131  -0.660  -0.862  1.00  0.00     0.253 C 
HETATM    2  O1  UNL     1       1.824  -0.375  -2.059  1.00  0.00    -0.271 OA
HETATM    3  N2  UNL     1       1.182  -1.370  -0.105  1.00  0.00    -0.307 N 
ATOM      4  H2  UNL     1       1.417  -2.294   0.259  1.00  0.00     0.170 HD
HETATM    5  C4  UNL     1       0.019  -0.868   0.135  1.00  0.00     0.177 A 
HETATM    6  N3  UNL     1      -0.439   0.404  -0.307  1.00  0.00    -0.280 N 
ATOM      7  H3  UNL     1       0.116   1.052  -0.866  1.00  0.00     0.188 HD
HETATM    8  N4  UNL     1      -1.729   0.650   0.116  1.00  0.00    -0.279 N 
ATOM      9  H4  UNL     1      -2.269   1.494  -0.078  1.00  0.00     0.189 HD
HETATM   10  C5  UNL     1      -2.182  -0.476   0.871  1.00  0.00     0.191 A 
HETATM   11  N5  UNL     1      -3.343  -0.634   1.441  1.00  0.00    -0.267 N 
ATOM     12  H5  UNL     1      -3.558  -1.486   1.958  1.00  0.00     0.190 HD
HETATM   13  C6  UNL     1      -1.084  -1.447   0.891  1.00  0.00     0.263 A 
HETATM   14  O2  UNL     1      -1.055  -2.576   1.444  1.00  0.00    -0.280 OA
ENDROOT
BRANCH   1  15
HETATM   15  C2  UNL     1       3.444  -0.224  -0.376  1.00  0.00     0.271 C 
HETATM   16  C1  UNL     1       3.617   1.278  -0.415  1.00  0.00     0.050 C 
BRANCH  15  17
HETATM   17  N1  UNL     1       3.620  -0.641   1.022  1.00  0.00    -0.067 N 
ATOM     18  H13 UNL     1       4.504  -0.329   1.425  1.00  0.00     0.275 HD
ATOM     19  H12 UNL     1       3.002  -0.150   1.668  1.00  0.00     0.275 HD
ATOM     20  H11 UNL     1       3.503  -1.654   1.048  1.00  0.00     0.275 HD
ENDBRANCH  15  17
ENDBRANCH   1  15
BRANCH  11  21
HETATM   21  N6  UNL     1      -4.285   0.388   1.328  1.00  0.00    -0.248 N 
ATOM     22  H6  UNL     1      -4.116   1.294   1.766  1.00  0.00     0.207 HD
BRANCH  21  23
HETATM   23  N7  UNL     1      -5.461   0.161   0.610  1.00  0.00    -0.331 N 
ATOM     24  H72 UNL     1      -5.614  -0.750   0.178  1.00  0.00     0.178 HD
ATOM     25  H71 UNL     1      -6.150   0.909   0.527  1.00  0.00     0.178 HD
ENDBRANCH  21  23
ENDBRANCH  11  21
TORSDOF 4
