REMARK  4 active torsions:
REMARK  status: ('A' for Active; 'I' for Inactive)
REMARK    1  A    between atoms: N1_1  and  C1_4 
REMARK    2  A    between atoms: N5_14  and  C4_16 
REMARK    3  A    between atoms: C4_16  and  C5_17 
REMARK    4  A    between atoms: C4_16  and  C6_19 
ROOT
HETATM    1  C1  UNL     1      -1.457  -0.280   0.592  1.00  0.00     0.149 A 
HETATM    2  N2  UNL     1      -2.815  -0.424   0.559  1.00  0.00    -0.291 N 
ATOM      3  H2  UNL     1      -3.292  -0.747   1.401  1.00  0.00     0.172 HD
HETATM    4  C2  UNL     1      -3.547  -0.159  -0.531  1.00  0.00     0.340 A 
HETATM    5  O1  UNL     1      -4.795  -0.285  -0.580  1.00  0.00    -0.245 OA
HETATM    6  N3  UNL     1      -2.882   0.265  -1.621  1.00  0.00    -0.250 N 
ATOM      7  H3  UNL     1      -3.402   0.477  -2.472  1.00  0.00     0.192 HD
HETATM    8  N4  UNL     1      -1.585   0.410  -1.611  1.00  0.00    -0.279 N 
ATOM      9  H4  UNL     1      -1.136   0.735  -2.467  1.00  0.00     0.189 HD
HETATM   10  C3  UNL     1      -0.781   0.153  -0.521  1.00  0.00     0.161 A 
HETATM   11  N5  UNL     1       0.457   0.334  -0.643  1.00  0.00    -0.354 N 
ATOM     12  H5  UNL     1       0.738   0.660  -1.568  1.00  0.00     0.162 HD
ENDROOT
BRANCH   1  13
HETATM   13  N1  UNL     1      -0.827  -0.556   1.679  1.00  0.00    -0.382 N 
ATOM     14  H12 UNL     1      -1.329  -0.878   2.506  1.00  0.00     0.157 HD
ATOM     15  H11 UNL     1       0.187  -0.448   1.704  1.00  0.00     0.157 HD
ENDBRANCH   1  13
BRANCH  11  16
HETATM   16  C4  UNL     1       1.527   0.172   0.253  1.00  0.00     0.234 C 
BRANCH  16  17
HETATM   17  C5  UNL     1       1.966  -1.264   0.374  1.00  0.00     0.265 C 
HETATM   18  O2  UNL     1       2.882  -1.500   1.123  1.00  0.00    -0.304 OA
ENDBRANCH  16  17
BRANCH  16  19
HETATM   19  C6  UNL     1       2.752   0.910  -0.200  1.00  0.00     0.260 C 
HETATM   20  N6  UNL     1       3.921   0.855   0.583  1.00  0.00    -0.060 NA
HETATM   21  O3  UNL     1       2.757   1.571  -1.254  1.00  0.00    -0.274 OA
ENDBRANCH  16  19
ENDBRANCH  11  16
TORSDOF 4
