REMARK  9 active torsions:
REMARK  status: ('A' for Active; 'I' for Inactive)
REMARK    1  A    between atoms: C3_3  and  O1_4 
REMARK    2  A    between atoms: C3_3  and  C5_6 
REMARK    3  A    between atoms: C12_19  and  N5_20 
REMARK    4  A    between atoms: C12_19  and  C13_24 
REMARK    5  A    between atoms: C17_28  and  C18_29 
REMARK    6  A    between atoms: C19_34  and  O2_35 
REMARK    7  A    between atoms: C20_37  and  O3_38 
REMARK    8  A    between atoms: O3_38  and  C21_39 
REMARK    9  A    between atoms: C21_39  and  C22_40 
ROOT
HETATM    1  C1  UNL     1      -2.381  -4.125  -0.508  1.00  0.00     0.099 C 
HETATM    2  C2  UNL     1      -1.702  -3.222  -0.037  1.00  0.00    -0.155 C 
HETATM    3  C3  UNL     1      -0.857  -2.178   0.564  1.00  0.00     0.199 C 
ENDROOT
BRANCH   3   4
HETATM    4  O1  UNL     1      -1.544  -1.587   1.615  1.00  0.00    -0.379 OA
HETATM    5  C4  UNL     1      -1.041  -1.961   2.816  1.00  0.00     0.203 C 
ENDBRANCH   3   4
BRANCH   3   6
HETATM    6  C5  UNL     1      -0.299  -1.176  -0.423  1.00  0.00     0.057 C 
HETATM    7  C6  UNL     1       0.413  -2.033  -1.463  1.00  0.00     0.022 C 
HETATM    8  C7  UNL     1       1.862  -2.047  -1.610  1.00  0.00    -0.007 C 
HETATM    9  C8  UNL     1       2.372  -1.393  -2.921  1.00  0.00     0.025 C 
HETATM   10  C25 UNL     1       2.705  -1.492  -0.482  1.00  0.00     0.066 C 
HETATM   11  C9  UNL     1       2.735   0.094  -2.646  1.00  0.00     0.145 C 
HETATM   12  N1  UNL     1       1.814   0.394  -1.563  1.00  0.00    -0.185 N 
HETATM   13  C10 UNL     1       0.714   1.190  -1.985  1.00  0.00     0.690 C 
HETATM   14  C20 UNL     1       2.043  -0.132  -0.254  1.00  0.00     0.153 C 
HETATM   15  N2  UNL     1       1.034   2.111  -2.794  1.00  0.00    -0.126 N 
HETATM   16  N4  UNL     1      -0.636   1.004  -1.576  1.00  0.00    -0.185 N 
HETATM   17  C11 UNL     1       0.098   3.006  -3.330  1.00  0.00     0.196 C 
ATOM     18  H2  UNL     1       2.012   2.205  -3.066  1.00  0.00     0.197 HD
HETATM   19  N3  UNL     1      -0.676   3.756  -3.756  1.00  0.00    -0.171 NA
HETATM   20  C12 UNL     1      -1.265  -0.196  -0.994  1.00  0.00     0.251 C 
ATOM     21  H4  UNL     1      -1.251   1.808  -1.702  1.00  0.00     0.180 HD
HETATM   22  C26 UNL     1       0.763  -0.507   0.456  1.00  0.00     0.079 C 
BRANCH  20  23
HETATM   23  N5  UNL     1      -1.731  -0.776  -2.351  1.00  0.00    -0.047 N 
ATOM     24  H53 UNL     1      -0.960  -0.997  -2.981  1.00  0.00     0.277 HD
ATOM     25  H52 UNL     1      -2.110  -1.720  -2.278  1.00  0.00     0.277 HD
ATOM     26  H51 UNL     1      -2.392  -0.105  -2.742  1.00  0.00     0.277 HD
ENDBRANCH  20  23
BRANCH  20  27
HETATM   27  C13 UNL     1      -2.538   0.121  -0.390  1.00  0.00     0.033 A 
HETATM   28  C14 UNL     1      -3.703  -0.601  -0.705  1.00  0.00     0.014 A 
HETATM   29  C15 UNL     1      -4.924  -0.432  -0.134  1.00  0.00     0.002 A 
HETATM   30  C16 UNL     1      -5.044   0.529   0.842  1.00  0.00     0.018 A 
HETATM   31  C17 UNL     1      -3.975   1.286   1.219  1.00  0.00     0.038 A 
HETATM   32  C19 UNL     1      -2.731   1.079   0.599  1.00  0.00     0.089 A 
BRANCH  31  33
HETATM   33  C18 UNL     1      -4.095   2.298   2.243  1.00  0.00     0.123 C 
HETATM   34  N6  UNL     1      -5.202   2.525   2.836  1.00  0.00    -0.387 N 
ATOM     35  H62 UNL     1      -5.984   1.944   2.533  1.00  0.00     0.157 HD
ATOM     36  H61 UNL     1      -5.287   3.240   3.559  1.00  0.00     0.157 HD
HETATM   37  N7  UNL     1      -2.997   3.114   2.668  1.00  0.00    -0.082 NA
ENDBRANCH  31  33
BRANCH  32  38
HETATM   38  O2  UNL     1      -1.756   1.930   1.064  1.00  0.00    -0.359 OA
ATOM     39  H2  UNL     1      -1.888   2.585   1.740  1.00  0.00     0.217 HD
ENDBRANCH  32  38
ENDBRANCH  20  27
BRANCH  14  40
HETATM   40  O3  UNL     1       2.735   0.692   0.580  1.00  0.00    -0.360 OA
BRANCH  40  41
HETATM   41  C21 UNL     1       3.985   1.060   0.169  1.00  0.00     0.175 C 
BRANCH  41  42
HETATM   42  C22 UNL     1       4.588   1.962   1.255  1.00  0.00     0.009 A 
HETATM   43  C23 UNL     1       4.725   1.332   2.595  1.00  0.00     0.007 A 
HETATM   44  C24 UNL     1       3.715   2.389   2.356  1.00  0.00     0.007 A 
ENDBRANCH  41  42
ENDBRANCH  40  41
ENDBRANCH  14  40
ENDBRANCH   3   6
TORSDOF 9
