REMARK  8 active torsions:
REMARK  status: ('A' for Active; 'I' for Inactive)
REMARK    1  A    between atoms: N1_1  and  C1_4 
REMARK    2  A    between atoms: C2_7  and  C3_8 
REMARK    3  A    between atoms: C3_8  and  N3_9 
REMARK    4  A    between atoms: N3_9  and  C4_12 
REMARK    5  A    between atoms: C4_12  and  C5_13 
REMARK    6  A    between atoms: C5_13  and  N4_14 
REMARK    7  A    between atoms: N4_14  and  C6_17 
REMARK    8  A    between atoms: C8_23  and  O1_24 
ROOT
HETATM    1  N3  UNL     1      -0.923  -0.852  -0.289  1.00  0.00    -0.067 N 
ATOM      2  H31 UNL     1      -1.027  -1.106   0.693  1.00  0.00     0.277 HD
ATOM      3  H32 UNL     1      -0.670   0.129  -0.167  1.00  0.00     0.277 HD
ENDROOT
BRANCH   1   4
HETATM    4  C3  UNL     1      -2.166  -1.000  -1.018  1.00  0.00     0.309 C 
BRANCH   4   5
HETATM    5  C2  UNL     1      -3.248  -0.253  -0.369  1.00  0.00     0.127 A 
HETATM    6  N2  UNL     1      -3.546   1.012  -0.712  1.00  0.00    -0.179 N 
HETATM    7  C1  UNL     1      -4.552   1.663  -0.083  1.00  0.00     0.681 A 
ATOM      8  H2  UNL     1      -3.014   1.481  -1.446  1.00  0.00     0.185 HD
HETATM    9  N9  UNL     1      -5.257   1.055   0.883  1.00  0.00    -0.141 N 
HETATM   10  C9  UNL     1      -4.971  -0.198   1.232  1.00  0.00     0.340 A 
ATOM     11  H9  UNL     1      -6.014   1.554   1.351  1.00  0.00     0.189 HD
HETATM   12  N8  UNL     1      -3.969  -0.861   0.613  1.00  0.00    -0.296 N 
HETATM   13  O2  UNL     1      -5.592  -0.811   2.121  1.00  0.00    -0.246 OA
ATOM     14  H8  UNL     1      -3.752  -1.821   0.883  1.00  0.00     0.172 HD
BRANCH   7  15
HETATM   15  N1  UNL     1      -4.816   2.883  -0.436  1.00  0.00    -0.234 N 
ATOM     16  H12 UNL     1      -4.280   3.345  -1.170  1.00  0.00     0.174 HD
ATOM     17  H11 UNL     1      -5.574   3.374   0.038  1.00  0.00     0.174 HD
ENDBRANCH   7  15
ENDBRANCH   4   5
ENDBRANCH   1   4
BRANCH   1  18
HETATM   18  C4  UNL     1       0.151  -1.616  -0.939  1.00  0.00     0.260 C 
BRANCH  18  19
HETATM   19  C5  UNL     1       1.449  -1.455  -0.166  1.00  0.00     0.260 C 
BRANCH  19  20
HETATM   20  N4  UNL     1       1.854  -0.066  -0.115  1.00  0.00    -0.059 N 
ATOM     21  H42 UNL     1       1.928   0.345  -1.046  1.00  0.00     0.278 HD
ATOM     22  H41 UNL     1       1.116   0.533   0.255  1.00  0.00     0.278 HD
BRANCH  20  23
HETATM   23  C6  UNL     1       3.087   0.066   0.635  1.00  0.00     0.296 C 
HETATM   24  C7  UNL     1       3.596   1.441   0.484  1.00  0.00     0.139 C 
HETATM   25  N5  UNL     1       2.799   2.648   0.489  1.00  0.00    -0.084 NA
HETATM   26  N6  UNL     1       4.865   1.388   0.347  1.00  0.00    -0.291 N 
HETATM   27  N7  UNL     1       5.332   0.078   0.384  1.00  0.00    -0.105 NA
ATOM     28  H6  UNL     1       5.462   2.206   0.225  1.00  0.00     0.183 HD
HETATM   29  C8  UNL     1       4.200  -0.761   0.076  1.00  0.00     0.269 C 
BRANCH  29  30
HETATM   30  O1  UNL     1       4.300  -2.019   0.657  1.00  0.00    -0.375 OA
ATOM     31  H1  UNL     1       5.007  -2.545   0.302  1.00  0.00     0.211 HD
ENDBRANCH  29  30
ENDBRANCH  20  23
ENDBRANCH  19  20
ENDBRANCH  18  19
ENDBRANCH   1  18
TORSDOF 8
