REMARK  8 active torsions:
REMARK  status: ('A' for Active; 'I' for Inactive)
REMARK    1  A    between atoms: N1_2  and  C2_4 
REMARK    2  A    between atoms: C3_7  and  O1_8 
REMARK    3  A    between atoms: O1_8  and  C4_9 
REMARK    4  A    between atoms: C4_9  and  C5_10 
REMARK    5  A    between atoms: C5_10  and  C6_11 
REMARK    6  A    between atoms: C6_11  and  N3_12 
REMARK    7  A    between atoms: C14_20  and  C15_21 
REMARK    8  A    between atoms: N4_22  and  N5_24 
ROOT
HETATM    1  C2  UNL     1      -3.515  -0.697  -0.094  1.00  0.00     0.114 A 
HETATM    2  N2  UNL     1      -2.432  -1.428   0.161  1.00  0.00    -0.323 N 
ATOM      3  H2  UNL     1      -2.552  -2.415   0.390  1.00  0.00     0.169 HD
HETATM    4  C3  UNL     1      -1.161  -0.910   0.129  1.00  0.00     0.143 A 
HETATM    5  C12 UNL     1      -1.069   0.417  -0.185  1.00  0.00     0.057 A 
HETATM    6  C13 UNL     1      -2.198   1.205  -0.457  1.00  0.00     0.021 A 
HETATM    7  C14 UNL     1      -3.437   0.667  -0.417  1.00  0.00     0.025 A 
ENDROOT
BRANCH   4   8
HETATM    8  O1  UNL     1      -0.107  -1.679   0.394  1.00  0.00    -0.336 OA
BRANCH   8   9
HETATM    9  C4  UNL     1       1.241  -1.574   0.482  1.00  0.00     0.179 C 
BRANCH   9  10
HETATM   10  C5  UNL     1       1.708  -0.652   1.556  1.00  0.00     0.047 C 
BRANCH  10  11
HETATM   11  C6  UNL     1       3.221  -0.554   1.661  1.00  0.00     0.130 C 
BRANCH  11  12
HETATM   12  N3  UNL     1       3.832  -0.071   0.451  1.00  0.00    -0.366 N 
HETATM   13  C7  UNL     1       3.981   1.267   0.320  1.00  0.00     0.090 A 
HETATM   14  C8  UNL     1       4.560   1.849  -0.784  1.00  0.00     0.017 A 
HETATM   15  C9  UNL     1       5.001   1.018  -1.787  1.00  0.00     0.003 A 
HETATM   16  C10 UNL     1       4.854  -0.339  -1.665  1.00  0.00     0.017 A 
HETATM   17  C11 UNL     1       4.271  -0.849  -0.543  1.00  0.00     0.090 A 
ENDBRANCH  11  12
ENDBRANCH  10  11
ENDBRANCH   9  10
ENDBRANCH   8   9
ENDBRANCH   4   8
BRANCH   1  18
HETATM   18  N1  UNL     1      -4.707  -1.215  -0.056  1.00  0.00    -0.380 N 
HETATM   19  C1  UNL     1      -4.829  -2.620   0.274  1.00  0.00     0.147 C 
ATOM     20  H1  UNL     1      -5.532  -0.648  -0.253  1.00  0.00     0.160 HD
ENDBRANCH   1  18
BRANCH   7  21
HETATM   21  C15 UNL     1      -4.654   1.420  -0.687  1.00  0.00     0.121 C 
HETATM   22  N4  UNL     1      -4.769   2.626  -0.987  1.00  0.00    -0.318 N 
ATOM     23  H4  UNL     1      -5.747   2.884  -1.122  1.00  0.00     0.185 HD
BRANCH  22  24
HETATM   24  N5  UNL     1      -3.949   3.685  -1.182  1.00  0.00    -0.345 N 
ATOM     25  H52 UNL     1      -2.979   3.403  -1.042  1.00  0.00     0.176 HD
ATOM     26  H51 UNL     1      -4.043   4.671  -1.427  1.00  0.00     0.176 HD
ENDBRANCH  22  24
ENDBRANCH   7  21
TORSDOF 8
