REMARK  5 active torsions:
REMARK  status: ('A' for Active; 'I' for Inactive)
REMARK    1  A    between atoms: C2_5  and  C3_6 
REMARK    2  A    between atoms: N3_8  and  C5_9 
REMARK    3  A    between atoms: C5_9  and  C6_10 
REMARK    4  A    between atoms: C6_10  and  N4_11 
REMARK       I    between atoms: N4_11  and  C7_13 
REMARK       I    between atoms: C7_13  and  N5_15 
REMARK    5  A    between atoms: N5_15  and  C8_17 
ROOT
HETATM    1  N1  UNL     1       8.790   2.318  -1.410  1.00  0.00    -0.172 NA
HETATM    2  C1  UNL     1       8.386   1.747  -0.490  1.00  0.00     0.181 C 
HETATM    3  N2  UNL     1       7.906   1.033   0.618  1.00  0.00    -0.308 N 
ATOM      4  H2  UNL     1       8.453   1.039   1.479  1.00  0.00     0.177 HD
HETATM    5  C2  UNL     1       6.802   0.371   0.592  1.00  0.00     0.080 C 
ENDROOT
BRANCH   5   6
HETATM    6  C3  UNL     1       5.995   0.342  -0.621  1.00  0.00     0.081 C 
HETATM    7  C4  UNL     1       4.607   0.944  -0.500  1.00  0.00     0.284 C 
HETATM    8  N3  UNL     1       4.133  -0.118  -1.317  1.00  0.00     0.091 N 
HETATM    9  C18 UNL     1       5.197  -0.942  -0.853  1.00  0.00     0.284 C 
BRANCH   8  10
HETATM   10  C5  UNL     1       2.787  -0.556  -1.177  1.00  0.00     0.292 C 
BRANCH  10  11
HETATM   11  C6  UNL     1       2.474  -1.233   0.112  1.00  0.00     0.154 C 
BRANCH  11  12
HETATM   12  N4  UNL     1       1.100  -1.656   0.192  1.00  0.00    -0.341 N 
HETATM   13  C7  UNL     1      -0.029  -0.799   0.127  1.00  0.00     0.316 C 
HETATM   14  O1  UNL     1       0.081   0.446  -0.008  1.00  0.00    -0.247 OA
HETATM   15  N5  UNL     1      -1.358  -1.297   0.210  1.00  0.00    -0.334 N 
ATOM     16  H5  UNL     1      -1.476  -2.305   0.317  1.00  0.00     0.165 HD
ATOM     17  H4  UNL     1       0.924  -2.654   0.305  1.00  0.00     0.164 HD
BRANCH  15  18
HETATM   18  C8  UNL     1      -2.537  -0.503   0.156  1.00  0.00     0.035 C 
HETATM   19  C9  UNL     1      -3.732  -1.439   0.267  1.00  0.00     0.035 C 
HETATM   20  C10 UNL     1      -5.046  -0.732   0.289  1.00  0.00    -0.012 C 
HETATM   21  C11 UNL     1      -5.193   0.017  -1.018  1.00  0.00     0.009 C 
HETATM   22  C15 UNL     1      -5.081   0.268   1.421  1.00  0.00     0.009 C 
HETATM   23  C12 UNL     1      -4.036   0.952  -1.132  1.00  0.00    -0.012 C 
HETATM   24  C13 UNL     1      -4.011   1.956   0.007  1.00  0.00     0.009 C 
HETATM   25  C17 UNL     1      -2.696   0.256  -1.137  1.00  0.00     0.035 C 
HETATM   26  C14 UNL     1      -3.925   1.211   1.301  1.00  0.00    -0.012 C 
HETATM   27  C16 UNL     1      -2.616   0.457   1.329  1.00  0.00     0.035 C 
ENDBRANCH  15  18
ENDBRANCH  11  12
ENDBRANCH  10  11
ENDBRANCH   8  10
ENDBRANCH   5   6
TORSDOF 5
