REMARK  6 active torsions:
REMARK  status: ('A' for Active; 'I' for Inactive)
REMARK    1  A    between atoms: O1_2  and  N1_3 
REMARK       I    between atoms: C2_5  and  N2_6 
REMARK       I    between atoms: C2_5  and  N3_16 
REMARK    2  A    between atoms: N2_6  and  C3_8 
REMARK    3  A    between atoms: C3_8  and  C4_9 
REMARK    4  A    between atoms: N4_19  and  C13_20 
REMARK    5  A    between atoms: C13_20  and  C14_21 
REMARK    6  A    between atoms: C14_21  and  O2_23 
ROOT
HETATM    1  N1  UNL     1       0.640  -2.388  -0.565  1.00  0.00    -0.097 N 
ATOM      2  H1  UNL     1       1.639  -2.589  -0.513  1.00  0.00     0.213 HD
HETATM    3  C2  UNL     1       0.277  -1.172  -0.414  1.00  0.00     0.696 C 
HETATM    4  N2  UNL     1      -1.094  -0.827  -0.475  1.00  0.00    -0.224 N 
ATOM      5  H2  UNL     1      -1.763  -1.522  -0.806  1.00  0.00     0.177 HD
HETATM    6  N3  UNL     1       1.247  -0.176  -0.185  1.00  0.00    -0.213 N 
HETATM    7  C11 UNL     1       1.858   0.046   1.115  1.00  0.00     0.160 C 
HETATM    8  C12 UNL     1       2.686   1.306   1.062  1.00  0.00     0.137 C 
HETATM    9  N4  UNL     1       3.571   1.384  -0.043  1.00  0.00    -0.407 N 
HETATM   10  C16 UNL     1       3.204   0.691  -1.223  1.00  0.00     0.137 C 
HETATM   11  C17 UNL     1       1.668   0.667  -1.270  1.00  0.00     0.160 C 
ENDROOT
BRANCH   1  12
HETATM   12  O1  UNL     1      -0.201  -3.441  -0.790  1.00  0.00    -0.272 OA
HETATM   13  C1  UNL     1      -0.113  -4.558   0.108  1.00  0.00     0.238 C 
ENDBRANCH   1  12
BRANCH   4  14
HETATM   14  C3  UNL     1      -1.577   0.476  -0.085  1.00  0.00     0.142 C 
BRANCH  14  15
HETATM   15  C4  UNL     1      -3.073   0.519  -0.261  1.00  0.00     0.004 C 
HETATM   16  C5  UNL     1      -3.640  -0.568   0.635  1.00  0.00     0.006 C 
HETATM   17  C6  UNL     1      -4.670  -1.343  -0.148  1.00  0.00     0.000 C 
HETATM   18  C7  UNL     1      -5.638  -0.470  -0.885  1.00  0.00     0.000 C 
HETATM   19  C8  UNL     1      -5.967   0.771  -0.089  1.00  0.00     0.000 C 
HETATM   20  C9  UNL     1      -5.082   1.930  -0.438  1.00  0.00     0.000 C 
HETATM   21  C10 UNL     1      -3.694   1.824   0.130  1.00  0.00     0.006 C 
ENDBRANCH  14  15
ENDBRANCH   4  14
BRANCH   9  22
HETATM   22  C13 UNL     1       4.946   1.555   0.230  1.00  0.00     0.148 C 
BRANCH  22  23
HETATM   23  C14 UNL     1       5.645   0.412   0.879  1.00  0.00     0.131 C 
HETATM   24  C15 UNL     1       7.114   0.761   1.009  1.00  0.00     0.041 C 
BRANCH  23  25
HETATM   25  O2  UNL     1       5.573  -0.734   0.072  1.00  0.00    -0.394 OA
ATOM     26  H2  UNL     1       6.019  -1.463   0.486  1.00  0.00     0.210 HD
ENDBRANCH  23  25
ENDBRANCH  22  23
ENDBRANCH   9  22
TORSDOF 6
