REMARK  10 active torsions:
REMARK  status: ('A' for Active; 'I' for Inactive)
REMARK    1  A    between atoms: C4_4  and  C5_5 
REMARK    2  A    between atoms: C5_5  and  O2_7 
REMARK    3  A    between atoms: O2_7  and  C6_8 
REMARK    4  A    between atoms: C8_11  and  C9_12 
REMARK    5  A    between atoms: C9_12  and  O4_13 
REMARK    6  A    between atoms: C10_15  and  O5_16 
REMARK    7  A    between atoms: O5_16  and  C11_17 
REMARK    8  A    between atoms: C11_17  and  C12_19 
REMARK    9  A    between atoms: C15_22  and  O7_23 
REMARK   10  A    between atoms: C16_25  and  O8_26 
ROOT
HETATM    1  C6  UNL     1       2.027  -1.396   1.044  1.00  0.00     0.181 C 
HETATM    2  C7  UNL     1       0.922  -1.315   0.356  1.00  0.00     0.100 C 
HETATM    3  O3  UNL     1       0.836  -0.405  -0.682  1.00  0.00    -0.341 OA
HETATM    4  C8  UNL     1      -0.392   0.124  -1.108  1.00  0.00     0.184 C 
HETATM    5  C10 UNL     1      -1.512  -0.866  -1.169  1.00  0.00     0.195 C 
HETATM    6  C15 UNL     1      -1.177  -2.213  -0.601  1.00  0.00     0.185 C 
HETATM    7  C16 UNL     1      -0.279  -2.148   0.612  1.00  0.00     0.208 C 
ENDROOT
BRANCH   1   8
HETATM    8  O2  UNL     1       3.120  -0.592   0.763  1.00  0.00    -0.285 OA
BRANCH   8   9
HETATM    9  C5  UNL     1       3.314   0.640   1.342  1.00  0.00     0.287 C 
HETATM   10  O1  UNL     1       2.442   1.063   2.181  1.00  0.00    -0.260 OA
BRANCH   9  11
HETATM   11  C4  UNL     1       4.450   1.467   1.045  1.00  0.00     0.084 C 
HETATM   12  C2  UNL     1       5.385   1.105   0.198  1.00  0.00    -0.082 C 
HETATM   13  C1  UNL     1       5.369  -0.163  -0.523  1.00  0.00     0.043 C 
HETATM   14  C3  UNL     1       6.541   2.078  -0.028  1.00  0.00     0.043 C 
ENDBRANCH   9  11
ENDBRANCH   8   9
ENDBRANCH   1   8
BRANCH   7  15
HETATM   15  O8  UNL     1       0.204  -3.463   0.822  1.00  0.00    -0.386 OA
ATOM     16  H8  UNL     1      -0.565  -3.996   0.986  1.00  0.00     0.210 HD
ENDBRANCH   7  15
BRANCH   4  17
HETATM   17  C9  UNL     1      -0.752   1.322  -0.221  1.00  0.00     0.199 C 
BRANCH  17  18
HETATM   18  O4  UNL     1      -0.869   0.984   1.099  1.00  0.00    -0.398 OA
ATOM     19  H4  UNL     1      -1.092   1.726   1.649  1.00  0.00     0.209 HD
ENDBRANCH  17  18
ENDBRANCH   4  17
BRANCH   6  20
HETATM   20  O7  UNL     1      -2.332  -2.896  -0.215  1.00  0.00    -0.390 OA
ATOM     21  H7  UNL     1      -2.120  -3.749   0.145  1.00  0.00     0.210 HD
ENDBRANCH   6  20
BRANCH   5  22
HETATM   22  O5  UNL     1      -2.642  -0.275  -0.566  1.00  0.00    -0.310 OA
BRANCH  22  23
HETATM   23  C11 UNL     1      -3.790  -0.019  -1.299  1.00  0.00     0.262 C 
HETATM   24  O6  UNL     1      -3.771  -0.337  -2.515  1.00  0.00    -0.265 OA
BRANCH  23  25
HETATM   25  C12 UNL     1      -5.002   0.590  -0.752  1.00  0.00     0.077 C 
HETATM   26  C13 UNL     1      -4.776   1.970  -0.183  1.00  0.00     0.020 C 
HETATM   27  C14 UNL     1      -5.626  -0.268   0.342  1.00  0.00     0.020 C 
ENDBRANCH  23  25
ENDBRANCH  22  23
ENDBRANCH   5  22
TORSDOF 10
