REMARK  9 active torsions:
REMARK  status: ('A' for Active; 'I' for Inactive)
REMARK    1  A    between atoms: C2_2  and  O1_3 
REMARK    2  A    between atoms: O1_3  and  C3_4 
REMARK    3  A    between atoms: C3_4  and  C4_8 
REMARK    4  A    between atoms: C4_8  and  N2_9 
REMARK    5  A    between atoms: C4_8  and  S1_13 
REMARK    6  A    between atoms: S1_13  and  S2_14 
REMARK    7  A    between atoms: S2_14  and  C5_15 
REMARK    8  A    between atoms: C7_20  and  O3_21 
REMARK    9  A    between atoms: C7_20  and  C8_23 
ROOT
HETATM    1  C5  UNL     1       0.227   0.547  -1.275  1.00  0.00     0.156 A 
HETATM    2  N3  UNL     1       0.211  -0.377  -0.422  1.00  0.00    -0.327 N 
ATOM      3  H3  UNL     1       0.958  -0.886   0.050  1.00  0.00     0.166 HD
HETATM    4  C6  UNL     1      -1.140  -0.465  -0.344  1.00  0.00     0.339 A 
HETATM    5  O2  UNL     1      -1.941   0.028   0.680  1.00  0.00    -0.311 OA
HETATM    6  C7  UNL     1      -2.950   0.771   0.063  1.00  0.00     0.186 C 
HETATM    7  C13 UNL     1      -2.557   0.983  -1.396  1.00  0.00     0.198 C 
HETATM    8  N4  UNL     1      -1.127   0.688  -1.279  1.00  0.00    -0.312 N 
ENDROOT
BRANCH   1   9
HETATM    9  S2  UNL     1       1.656   1.370  -2.048  1.00  0.00    -0.019 SA
BRANCH   9  10
HETATM   10  S1  UNL     1       3.466   0.465  -1.476  1.00  0.00    -0.048 SA
BRANCH  10  11
HETATM   11  C4  UNL     1       4.151   1.227   0.038  1.00  0.00     0.329 C 
BRANCH  11  12
HETATM   12  C3  UNL     1       5.408   0.604   0.441  1.00  0.00     0.153 C 
HETATM   13  N1  UNL     1       6.484   1.299   0.530  1.00  0.00    -0.381 N 
ATOM     14  H12 UNL     1       7.362   0.864   0.812  1.00  0.00     0.158 HD
ATOM     15  H11 UNL     1       6.431   2.294   0.312  1.00  0.00     0.158 HD
BRANCH  12  16
HETATM   16  O1  UNL     1       5.480  -0.744   0.737  1.00  0.00    -0.338 OA
BRANCH  16  17
HETATM   17  C2  UNL     1       6.721  -1.402   0.600  1.00  0.00     0.172 C 
HETATM   18  C1  UNL     1       7.159  -1.288  -0.838  1.00  0.00     0.034 C 
ENDBRANCH  16  17
ENDBRANCH  12  16
ENDBRANCH  11  12
BRANCH  11  19
HETATM   19  N2  UNL     1       3.104   1.107   1.060  1.00  0.00    -0.058 N 
ATOM     20  H23 UNL     1       2.961   0.132   1.324  1.00  0.00     0.276 HD
ATOM     21  H22 UNL     1       3.424   1.475   1.956  1.00  0.00     0.276 HD
ATOM     22  H21 UNL     1       2.226   1.542   0.778  1.00  0.00     0.276 HD
ENDBRANCH  11  19
ENDBRANCH  10  11
ENDBRANCH   9  10
ENDBRANCH   1   9
BRANCH   6  23
HETATM   23  O3  UNL     1      -2.920   2.036   0.678  1.00  0.00    -0.364 OA
ATOM     24  H3  UNL     1      -3.606   2.541   0.258  1.00  0.00     0.213 HD
ENDBRANCH   6  23
BRANCH   6  25
HETATM   25  C8  UNL     1      -4.316   0.229   0.189  1.00  0.00     0.050 C 
HETATM   26  C9  UNL     1      -4.551  -1.139  -0.363  1.00  0.00     0.010 C 
HETATM   27  C10 UNL     1      -5.855  -1.583   0.322  1.00  0.00     0.001 C 
HETATM   28  C11 UNL     1      -6.088  -0.632   1.455  1.00  0.00     0.001 C 
HETATM   29  C12 UNL     1      -4.734   0.016   1.647  1.00  0.00     0.010 C 
ENDBRANCH   6  25
TORSDOF 9
