REMARK  7 active torsions:
REMARK  status: ('A' for Active; 'I' for Inactive)
REMARK    1  A    between atoms: N1_1  and  C1_5 
REMARK    2  A    between atoms: C1_5  and  C2_6 
REMARK    3  A    between atoms: C1_5  and  C6_15 
REMARK    4  A    between atoms: C2_6  and  C3_7 
REMARK    5  A    between atoms: C6_15  and  S1_16 
REMARK    6  A    between atoms: S1_16  and  C7_18 
REMARK    7  A    between atoms: C7_18  and  C8_19 
ROOT
HETATM    1  C1  UNL     1       1.327   0.096  -0.624  1.00  0.00     0.200 C 
ENDROOT
BRANCH   1   2
HETATM    2  N1  UNL     1       1.456   1.510  -0.807  1.00  0.00    -0.074 N 
ATOM      3  H13 UNL     1       1.219   2.043   0.030  1.00  0.00     0.274 HD
ATOM      4  H12 UNL     1       2.426   1.814  -0.887  1.00  0.00     0.274 HD
ATOM      5  H11 UNL     1       0.890   1.767  -1.616  1.00  0.00     0.274 HD
ENDBRANCH   1   2
BRANCH   1   6
HETATM    6  C2  UNL     1       2.167  -0.285   0.577  1.00  0.00     0.092 C 
BRANCH   6   7
HETATM    7  C3  UNL     1       3.593   0.046   0.404  1.00  0.00     0.031 A 
HETATM    8  C4  UNL     1       4.513  -0.829  -0.147  1.00  0.00     0.118 A 
HETATM    9  N2  UNL     1       5.713  -0.228  -0.163  1.00  0.00    -0.317 N 
HETATM   10  C5  UNL     1       5.541   0.983   0.362  1.00  0.00     0.324 A 
ATOM     11  H2  UNL     1       6.587  -0.623  -0.510  1.00  0.00     0.170 HD
HETATM   12  O1  UNL     1       6.486   1.833   0.502  1.00  0.00    -0.247 OA
HETATM   13  N3  UNL     1       4.256   1.146   0.705  1.00  0.00    -0.311 N 
ATOM     14  H3  UNL     1       3.856   1.983   1.129  1.00  0.00     0.170 HD
ENDBRANCH   6   7
ENDBRANCH   1   6
BRANCH   1  15
HETATM   15  C6  UNL     1      -0.066  -0.373  -0.394  1.00  0.00     0.142 C 
BRANCH  15  16
HETATM   16  S1  UNL     1      -1.115   0.028  -1.744  1.00  0.00     0.021 S 
HETATM   17  O2  UNL     1      -1.224   1.647  -2.049  1.00  0.00    -0.258 OA
BRANCH  16  18
HETATM   18  C7  UNL     1      -2.662  -0.804  -1.697  1.00  0.00     0.147 C 
BRANCH  18  19
HETATM   19  C8  UNL     1      -3.463  -0.521  -0.508  1.00  0.00    -0.047 A 
HETATM   20  C9  UNL     1      -3.318  -1.316   0.608  1.00  0.00     0.008 A 
HETATM   21  C10 UNL     1      -4.042  -1.099   1.752  1.00  0.00     0.001 A 
HETATM   22  C11 UNL     1      -4.948  -0.067   1.824  1.00  0.00     0.000 A 
HETATM   23  C12 UNL     1      -5.083   0.719   0.702  1.00  0.00     0.001 A 
HETATM   24  C13 UNL     1      -4.366   0.520  -0.459  1.00  0.00     0.008 A 
ENDBRANCH  18  19
ENDBRANCH  16  18
ENDBRANCH  15  16
ENDBRANCH   1  15
TORSDOF 7
