REMARK  7 active torsions:
REMARK  status: ('A' for Active; 'I' for Inactive)
REMARK    1  A    between atoms: C2_2  and  O2_4 
REMARK    2  A    between atoms: O2_4  and  C3_5 
REMARK    3  A    between atoms: C4_6  and  C5_7 
REMARK    4  A    between atoms: C5_7  and  O3_8 
REMARK    5  A    between atoms: C6_11  and  O5_12 
REMARK    6  A    between atoms: O5_12  and  C7_13 
REMARK       I    between atoms: C7_13  and  N1_15 
REMARK    7  A    between atoms: C8_17  and  N2_18 
ROOT
HETATM    1  C3  UNL     1      -2.425  -0.547   0.262  1.00  0.00     0.218 C 
HETATM    2  C4  UNL     1      -2.555  -2.025   0.073  1.00  0.00     0.182 C 
HETATM    3  O4  UNL     1      -1.258  -2.271   0.526  1.00  0.00    -0.348 OA
HETATM    4  C6  UNL     1      -1.127  -0.926   0.863  1.00  0.00     0.303 C 
ENDROOT
BRANCH   4   5
HETATM    5  O5  UNL     1       0.024  -0.318   0.281  1.00  0.00    -0.269 OA
BRANCH   5   6
HETATM    6  C7  UNL     1       0.960   0.278   1.082  1.00  0.00     0.368 C 
HETATM    7  O6  UNL     1       0.796   0.284   2.326  1.00  0.00    -0.238 OA
HETATM    8  N1  UNL     1       2.125   0.897   0.549  1.00  0.00    -0.299 N 
HETATM    9  C8  UNL     1       3.162   0.151   0.342  1.00  0.00     0.182 C 
ATOM     10  H1  UNL     1       2.142   1.895   0.337  1.00  0.00     0.171 HD
BRANCH   9  11
HETATM   11  N2  UNL     1       4.374   0.668  -0.186  1.00  0.00    -0.386 N 
HETATM   12  C9  UNL     1       4.328   1.789  -1.113  1.00  0.00     0.149 C 
HETATM   13  C10 UNL     1       5.675   0.125   0.156  1.00  0.00     0.149 C 
ENDBRANCH   9  11
ENDBRANCH   5   6
ENDBRANCH   4   5
BRANCH   1  14
HETATM   14  O2  UNL     1      -2.418   0.247  -0.886  1.00  0.00    -0.309 OA
BRANCH  14  15
HETATM   15  C2  UNL     1      -3.224   1.362  -1.066  1.00  0.00     0.255 C 
HETATM   16  C1  UNL     1      -3.206   2.194  -2.286  1.00  0.00     0.126 C 
HETATM   17  O1  UNL     1      -3.989   1.620  -0.095  1.00  0.00    -0.266 OA
ENDBRANCH  14  15
ENDBRANCH   1  14
BRANCH   2  18
HETATM   18  C5  UNL     1      -3.533  -2.655   1.075  1.00  0.00     0.199 C 
BRANCH  18  19
HETATM   19  O3  UNL     1      -3.360  -2.093   2.339  1.00  0.00    -0.398 OA
ATOM     20  H3  UNL     1      -3.965  -2.483   2.959  1.00  0.00     0.209 HD
ENDBRANCH  18  19
ENDBRANCH   2  18
TORSDOF 7
