REMARK  10 active torsions:
REMARK  status: ('A' for Active; 'I' for Inactive)
REMARK    1  A    between atoms: C2_2  and  C3_3 
REMARK    2  A    between atoms: C3_3  and  C4_4 
REMARK    3  A    between atoms: C4_4  and  C5_5 
REMARK    4  A    between atoms: N3_11  and  C7_13 
REMARK    5  A    between atoms: C8_16  and  N5_17 
REMARK    6  A    between atoms: N5_17  and  C9_19 
REMARK    7  A    between atoms: C15_29  and  N8_30 
REMARK    8  A    between atoms: N8_30  and  C16_32 
REMARK    9  A    between atoms: C16_32  and  C17_33 
REMARK   10  A    between atoms: C17_33  and  C18_34 
ROOT
HETATM    1  C7  UNL     1      -0.129   0.444  -1.843  1.00  0.00     0.713 A 
HETATM    2  N4  UNL     1      -0.553   1.719  -1.997  1.00  0.00    -0.021 N 
ATOM      3  H4  UNL     1       0.078   2.413  -2.398  1.00  0.00     0.203 HD
HETATM    4  C8  UNL     1      -1.777   2.081  -1.635  1.00  0.00     0.713 A 
HETATM    5  N7  UNL     1      -2.612   1.159  -1.105  1.00  0.00    -0.021 N 
ATOM      6  H7  UNL     1      -3.553   1.440  -0.828  1.00  0.00     0.203 HD
HETATM    7  C15 UNL     1      -2.232  -0.119  -0.934  1.00  0.00     0.707 A 
HETATM    8  N9  UNL     1      -0.986  -0.446  -1.311  1.00  0.00    -0.021 N 
ATOM      9  H9  UNL     1      -0.676  -1.410  -1.189  1.00  0.00     0.203 HD
ENDROOT
BRANCH   1  10
HETATM   10  N3  UNL     1       1.184   0.141  -2.251  1.00  0.00    -0.168 N 
HETATM   11  C6  UNL     1       2.133  -0.126  -1.384  1.00  0.00     0.180 A 
HETATM   12  N2  UNL     1       2.063  -0.164  -0.050  1.00  0.00    -0.279 N 
HETATM   13  S1  UNL     1       3.771  -0.513  -1.659  1.00  0.00    -0.037 SA
HETATM   14  N1  UNL     1       3.113  -0.446   0.606  1.00  0.00    -0.296 N 
ATOM     15  H2  UNL     1       1.185   0.029   0.431  1.00  0.00     0.189 HD
HETATM   16  C5  UNL     1       4.249  -0.697  -0.026  1.00  0.00     0.069 A 
ATOM     17  H1  UNL     1       3.081  -0.479   1.625  1.00  0.00     0.187 HD
ATOM     18  H3  UNL     1       1.404   0.129  -3.247  1.00  0.00     0.186 HD
BRANCH  16  19
HETATM   19  C4  UNL     1       5.597  -1.049   0.553  1.00  0.00     0.066 C 
BRANCH  19  20
HETATM   20  C3  UNL     1       6.301   0.297   0.765  1.00  0.00     0.006 C 
BRANCH  20  21
HETATM   21  C2  UNL     1       7.679   0.068   1.349  1.00  0.00    -0.004 C 
HETATM   22  C1  UNL     1       8.470  -0.781   0.379  1.00  0.00     0.005 C 
ENDBRANCH  20  21
ENDBRANCH  19  20
ENDBRANCH  16  19
ENDBRANCH   1  10
BRANCH   4  23
HETATM   23  N5  UNL     1      -2.176   3.431  -1.817  1.00  0.00    -0.175 N 
ATOM     24  H5  UNL     1      -2.506   3.728  -2.735  1.00  0.00     0.186 HD
BRANCH  23  25
HETATM   25  C9  UNL     1      -2.136   4.282  -0.875  1.00  0.00     0.121 A 
HETATM   26  C10 UNL     1      -1.696   3.906   0.372  1.00  0.00     0.049 A 
HETATM   27  C11 UNL     1      -1.639   4.801   1.417  1.00  0.00     0.006 A 
HETATM   28  C12 UNL     1      -2.039   6.097   1.181  1.00  0.00     0.025 A 
HETATM   29  C13 UNL     1      -2.483   6.483  -0.069  1.00  0.00     0.007 A 
HETATM   30  C14 UNL     1      -2.912   7.882  -0.314  1.00  0.00     0.068 C 
HETATM   31  N6  UNL     1      -2.515   5.558  -1.051  1.00  0.00    -0.346 N 
ATOM     32  H6  UNL     1      -2.844   5.843  -1.974  1.00  0.00     0.167 HD
ENDBRANCH  23  25
ENDBRANCH   4  23
BRANCH   7  33
HETATM   33  N8  UNL     1      -3.068  -0.933  -0.429  1.00  0.00    -0.225 N 
ATOM     34  H8  UNL     1      -3.988  -0.569  -0.180  1.00  0.00     0.177 HD
BRANCH  33  35
HETATM   35  C16 UNL     1      -2.814  -2.339  -0.180  1.00  0.00     0.142 C 
BRANCH  35  36
HETATM   36  C17 UNL     1      -4.153  -3.029  -0.096  1.00  0.00     0.058 C 
BRANCH  36  37
HETATM   37  C18 UNL     1      -4.071  -4.465   0.154  1.00  0.00    -0.057 A 
HETATM   38  C19 UNL     1      -4.000  -5.375  -0.879  1.00  0.00     0.007 A 
HETATM   39  C20 UNL     1      -3.922  -6.742  -0.630  1.00  0.00     0.001 A 
HETATM   40  C21 UNL     1      -3.913  -7.218   0.665  1.00  0.00     0.000 A 
HETATM   41  C22 UNL     1      -3.984  -6.305   1.705  1.00  0.00     0.001 A 
HETATM   42  C23 UNL     1      -4.062  -4.935   1.451  1.00  0.00     0.007 A 
ENDBRANCH  36  37
ENDBRANCH  35  36
ENDBRANCH  33  35
ENDBRANCH   7  33
TORSDOF 10
