REMARK  8 active torsions:
REMARK  status: ('A' for Active; 'I' for Inactive)
REMARK    1  A    between atoms: O1_2  and  C2_3 
REMARK    2  A    between atoms: C2_3  and  C3_5 
REMARK    3  A    between atoms: C3_5  and  C21_29 
REMARK    4  A    between atoms: N1_8  and  C15_23 
REMARK    5  A    between atoms: C7_10  and  C8_11 
REMARK    6  A    between atoms: C10_13  and  C11_14 
REMARK    7  A    between atoms: C11_14  and  O3_16 
REMARK    8  A    between atoms: C14_19  and  N2_20 
ROOT
HETATM    1  C3  UNL     1      -1.266   0.720  -0.370  1.00  0.00     0.105 C 
HETATM    2  C4  UNL     1      -0.858  -0.416  -1.321  1.00  0.00     0.071 C 
HETATM    3  C5  UNL     1      -0.433  -1.671  -0.629  1.00  0.00     0.065 C 
HETATM    4  N1  UNL     1      -0.632  -1.533   0.725  1.00  0.00    -0.368 N 
HETATM    5  C6  UNL     1       0.389  -0.903   1.430  1.00  0.00     0.074 C 
HETATM    6  C7  UNL     1       0.883   0.439   1.010  1.00  0.00     0.082 C 
HETATM    7  C14 UNL     1      -0.011   1.269   0.158  1.00  0.00     0.087 C 
ENDROOT
BRANCH   6   8
HETATM    8  C8  UNL     1       2.252   0.159   0.379  1.00  0.00     0.001 C 
HETATM    9  C9  UNL     1       3.174  -0.672   1.241  1.00  0.00     0.012 C 
HETATM   10  C10 UNL     1       4.321   0.096   0.616  1.00  0.00     0.015 C 
HETATM   11  C13 UNL     1       3.289   1.238   0.471  1.00  0.00     0.012 C 
BRANCH  10  12
HETATM   12  C11 UNL     1       4.771  -0.536  -0.649  1.00  0.00     0.118 C 
HETATM   13  C12 UNL     1       5.922   0.202  -1.305  1.00  0.00     0.040 C 
BRANCH  12  14
HETATM   14  O3  UNL     1       5.206  -1.842  -0.361  1.00  0.00    -0.396 OA
ATOM     15  H3  UNL     1       5.494  -2.247  -1.171  1.00  0.00     0.210 HD
ENDBRANCH  12  14
ENDBRANCH  10  12
ENDBRANCH   6   8
BRANCH   7  16
HETATM   16  N2  UNL     1       0.002   2.672   0.517  1.00  0.00    -0.122 N 
HETATM   17  O4  UNL     1      -0.898   3.481   0.249  1.00  0.00    -0.532 OA
HETATM   18  O5  UNL     1       1.047   3.288   1.185  1.00  0.00    -0.532 OA
ENDBRANCH   7  16
BRANCH   4  19
HETATM   19  C15 UNL     1      -1.500  -2.389   1.447  1.00  0.00     0.088 C 
HETATM   20  C16 UNL     1      -2.403  -3.206   0.572  1.00  0.00     0.026 C 
HETATM   21  C17 UNL     1      -3.224  -2.128  -0.067  1.00  0.00     0.012 C 
HETATM   22  C18 UNL     1      -2.947  -0.876   0.643  1.00  0.00    -0.029 A 
HETATM   23  C19 UNL     1      -2.611  -1.408   1.967  1.00  0.00     0.036 C 
HETATM   24  C20 UNL     1      -3.778   0.193   0.147  1.00  0.00     0.022 A 
HETATM   25  C21 UNL     1      -2.385   0.401   0.531  1.00  0.00    -0.013 A 
HETATM   26  C22 UNL     1      -2.427   1.300   1.790  1.00  0.00     0.018 C 
ENDBRANCH   4  19
BRANCH   1  27
HETATM   27  C2  UNL     1      -1.808   1.718  -1.364  1.00  0.00     0.274 C 
HETATM   28  O2  UNL     1      -1.113   1.975  -2.408  1.00  0.00    -0.264 OA
BRANCH  27  29
HETATM   29  O1  UNL     1      -2.990   2.382  -1.254  1.00  0.00    -0.326 OA
HETATM   30  C1  UNL     1      -3.526   3.314  -2.170  1.00  0.00     0.213 C 
ENDBRANCH  27  29
ENDBRANCH   1  27
TORSDOF 8
