REMARK  2 active torsions:
REMARK  status: ('A' for Active; 'I' for Inactive)
REMARK    1  A    between atoms: N1_1  and  N2_4 
REMARK       I    between atoms: N2_4  and  C1_5 
REMARK    2  A    between atoms: C1_5  and  C2_7 
ROOT
HETATM    1  C2  UNL     1       0.044   0.105  -0.033  1.00  0.00     0.151 A 
HETATM    2  N3  UNL     1       0.588  -0.959   0.552  1.00  0.00    -0.301 N 
ATOM      3  H3  UNL     1       0.165  -1.879   0.427  1.00  0.00     0.171 HD
HETATM    4  C3  UNL     1       1.711  -0.825   1.320  1.00  0.00     0.327 A 
HETATM    5  O2  UNL     1       2.247  -1.819   1.887  1.00  0.00    -0.247 OA
HETATM    6  N4  UNL     1       2.287   0.369   1.498  1.00  0.00    -0.274 N 
ATOM      7  H4  UNL     1       3.126   0.461   2.071  1.00  0.00     0.173 HD
HETATM    8  C4  UNL     1       1.734   1.459   0.901  1.00  0.00     0.276 A 
HETATM    9  O3  UNL     1       2.282   2.575   1.080  1.00  0.00    -0.266 OA
HETATM   10  C5  UNL     1       0.609   1.342   0.130  1.00  0.00     0.147 A 
HETATM   11  N5  UNL     1       0.033   2.504  -0.481  1.00  0.00    -0.094 NA
ENDROOT
BRANCH   1  12
HETATM   12  C1  UNL     1      -1.167  -0.002  -0.889  1.00  0.00     0.363 C 
HETATM   13  N2  UNL     1      -1.748  -1.246  -1.016  1.00  0.00    -0.287 NA
HETATM   14  O1  UNL     1      -1.572   1.079  -1.440  1.00  0.00    -0.247 OA
BRANCH  13  15
HETATM   15  N1  UNL     1      -2.295  -2.417  -1.135  1.00  0.00    -0.276 N 
ATOM     16  H12 UNL     1      -1.869  -1.497  -1.020  1.00  0.00     0.191 HD
ATOM     17  H11 UNL     1      -2.725  -3.337  -1.229  1.00  0.00     0.191 HD
ENDBRANCH  13  15
ENDBRANCH   1  12
TORSDOF 2
