REMARK  2 active torsions:
REMARK  status: ('A' for Active; 'I' for Inactive)
REMARK    1  A    between atoms: N1_1  and  C1_4 
REMARK       I    between atoms: N3_9  and  C3_10 
REMARK       I    between atoms: C3_10  and  N4_12 
REMARK    2  A    between atoms: N4_12  and  N5_14 
ROOT
HETATM    1  C1  UNL     1      -2.571  -0.032   0.503  1.00  0.00     0.173 A 
HETATM    2  N2  UNL     1      -2.064   1.162   0.158  1.00  0.00    -0.289 N 
ATOM      3  H2  UNL     1      -2.676   1.970   0.047  1.00  0.00     0.172 HD
HETATM    4  C2  UNL     1      -0.738   1.280  -0.039  1.00  0.00     0.351 A 
HETATM    5  O1  UNL     1      -0.277   2.419  -0.365  1.00  0.00    -0.244 OA
HETATM    6  N3  UNL     1       0.123   0.245   0.093  1.00  0.00    -0.149 N 
HETATM    7  C3  UNL     1       1.521   0.475  -0.140  1.00  0.00     0.364 C 
HETATM    8  O2  UNL     1       1.921   1.645  -0.465  1.00  0.00    -0.243 OA
HETATM    9  N4  UNL     1       2.496  -0.531  -0.029  1.00  0.00    -0.256 N 
ATOM     10  H4  UNL     1       2.220  -1.479   0.228  1.00  0.00     0.191 HD
HETATM   11  N6  UNL     1      -0.373  -0.927   0.431  1.00  0.00    -0.248 N 
ATOM     12  H6  UNL     1       0.253  -1.725   0.537  1.00  0.00     0.191 HD
HETATM   13  C4  UNL     1      -1.710  -1.091   0.641  1.00  0.00     0.304 A 
HETATM   14  O3  UNL     1      -2.175  -2.212   0.963  1.00  0.00    -0.263 OA
ENDROOT
BRANCH   9  15
HETATM   15  N5  UNL     1       3.832  -0.241  -0.268  1.00  0.00    -0.341 N 
ATOM     16  H52 UNL     1       4.091   0.712  -0.524  1.00  0.00     0.177 HD
ATOM     17  H51 UNL     1       4.540  -0.971  -0.187  1.00  0.00     0.177 HD
ENDBRANCH   9  15
BRANCH   1  18
HETATM   18  N1  UNL     1      -3.849  -0.201   0.706  1.00  0.00    -0.381 N 
ATOM     19  H12 UNL     1      -4.489   0.586   0.603  1.00  0.00     0.157 HD
ATOM     20  H11 UNL     1      -4.234  -1.108   0.968  1.00  0.00     0.157 HD
ENDBRANCH   1  18
TORSDOF 2
