REMARK  7 active torsions:
REMARK  status: ('A' for Active; 'I' for Inactive)
REMARK    1  A    between atoms: C6_6  and  N1_7 
REMARK    2  A    between atoms: N1_7  and  C7_9 
REMARK    3  A    between atoms: C7_9  and  N2_11 
REMARK    4  A    between atoms: N2_11  and  C8_13 
REMARK    5  A    between atoms: C8_13  and  C9_14 
REMARK    6  A    between atoms: C9_14  and  C10_15 
REMARK    7  A    between atoms: C10_15  and  N3_16 
ROOT
HETATM    1  C1  UNL     1       3.080   3.239   1.089  1.00  0.00     0.046 C 
HETATM    2  C2  UNL     1       2.330   1.917   1.399  1.00  0.00    -0.052 C 
HETATM    3  C3  UNL     1       0.980   1.981   0.862  1.00  0.00     0.005 C 
HETATM    4  C4  UNL     1       0.612   1.675  -0.505  1.00  0.00     0.006 C 
HETATM    5  C5  UNL     1       0.475   0.308  -1.011  1.00  0.00    -0.039 C 
HETATM    6  C6  UNL     1      -0.228  -0.699  -0.142  1.00  0.00     0.115 C 
HETATM    7  C13 UNL     1       0.537  -1.203   1.013  1.00  0.00     0.040 C 
HETATM    8  C14 UNL     1       1.963  -1.420   0.919  1.00  0.00     0.053 C 
HETATM    9  C15 UNL     1       2.213  -2.770   0.213  1.00  0.00     0.186 C 
HETATM   10  O1  UNL     1       2.055  -2.722  -1.157  1.00  0.00    -0.320 OA
HETATM   11  C16 UNL     1       1.531  -1.705  -1.938  1.00  0.00     0.272 C 
HETATM   12  O2  UNL     1       0.834  -2.016  -2.953  1.00  0.00    -0.264 OA
HETATM   13  C17 UNL     1       1.707  -0.272  -1.700  1.00  0.00     0.076 C 
HETATM   14  C18 UNL     1       1.880   0.469  -3.039  1.00  0.00     0.031 C 
HETATM   15  C19 UNL     1       2.905   0.099  -0.890  1.00  0.00     0.049 C 
HETATM   16  C20 UNL     1       4.221  -0.144  -1.657  1.00  0.00     0.015 C 
HETATM   17  C21 UNL     1       5.243   0.726  -0.947  1.00  0.00     0.071 C 
HETATM   18  C22 UNL     1       5.326   0.531   0.520  1.00  0.00     0.194 C 
HETATM   19  C23 UNL     1       6.762   0.911   0.928  1.00  0.00     0.082 C 
HETATM   20  O3  UNL     1       5.169  -0.781   0.936  1.00  0.00    -0.200 OA
HETATM   21  O4  UNL     1       4.094  -1.242   0.528  1.00  0.00    -0.223 OA
HETATM   22  C24 UNL     1       2.943  -0.399   0.488  1.00  0.00     0.137 C 
HETATM   23  C25 UNL     1       3.177   0.733   1.434  1.00  0.00     0.192 C 
HETATM   24  O5  UNL     1       4.494   1.263   1.296  1.00  0.00    -0.340 OA
ENDROOT
BRANCH   6  25
HETATM   25  N1  UNL     1      -1.534  -0.207   0.163  1.00  0.00    -0.359 N 
ATOM     26  H1  UNL     1      -1.745   0.732  -0.174  1.00  0.00     0.162 HD
BRANCH  25  27
HETATM   27  C7  UNL     1      -2.571  -0.853   0.871  1.00  0.00     0.168 C 
HETATM   28  S1  UNL     1      -2.487  -2.342   1.497  1.00  0.00    -0.041 SA
BRANCH  27  29
HETATM   29  N2  UNL     1      -3.793  -0.145   1.051  1.00  0.00    -0.367 N 
ATOM     30  H2  UNL     1      -3.857   0.796   0.662  1.00  0.00     0.161 HD
BRANCH  29  31
HETATM   31  C8  UNL     1      -4.943  -0.660   1.741  1.00  0.00     0.123 C 
BRANCH  31  32
HETATM   32  C9  UNL     1      -5.630  -1.780   1.033  1.00  0.00     0.050 C 
BRANCH  32  33
HETATM   33  C10 UNL     1      -6.098  -1.299  -0.340  1.00  0.00     0.273 C 
BRANCH  33  34
HETATM   34  N3  UNL     1      -7.018  -0.194  -0.109  1.00  0.00     0.080 N 
HETATM   35  C11 UNL     1      -7.457   0.296  -1.414  1.00  0.00     0.309 C 
HETATM   36  C12 UNL     1      -8.177  -0.641   0.647  1.00  0.00     0.309 C 
ENDBRANCH  33  34
ENDBRANCH  32  33
ENDBRANCH  31  32
ENDBRANCH  29  31
ENDBRANCH  27  29
ENDBRANCH  25  27
ENDBRANCH   6  25
TORSDOF 7
