REMARK  1 active torsions:
REMARK  status: ('A' for Active; 'I' for Inactive)
REMARK    1  A    between atoms: C4_5  and  N2_6 
ROOT
HETATM    1  C1  UNL     1       2.598  -0.028  -0.482  1.00  0.00     0.156 C 
HETATM    2  N1  UNL     1       1.196  -0.088  -0.114  1.00  0.00    -0.358 N 
HETATM    3  C2  UNL     1       0.354   1.071  -0.113  1.00  0.00     0.091 A 
HETATM    4  C3  UNL     1      -0.915   1.022   0.219  1.00  0.00     0.044 A 
HETATM    5  C4  UNL     1      -1.553  -0.243   0.614  1.00  0.00     0.307 A 
HETATM    6  N3  UNL     1      -0.672  -1.337   0.591  1.00  0.00    -0.356 N 
ATOM      7  H3  UNL     1      -1.052  -2.246   0.855  1.00  0.00     0.162 HD
HETATM    8  C5  UNL     1       0.546  -1.295   0.273  1.00  0.00     0.179 A 
ENDROOT
BRANCH   5   9
HETATM    9  N2  UNL     1      -2.780  -0.478  -0.148  1.00  0.00    -0.055 N 
ATOM     10  H23 UNL     1      -3.426   0.308  -0.070  1.00  0.00     0.277 HD
ATOM     11  H22 UNL     1      -2.610  -0.442  -1.153  1.00  0.00     0.277 HD
ATOM     12  H21 UNL     1      -3.222  -1.355   0.126  1.00  0.00     0.277 HD
ENDBRANCH   5   9
TORSDOF 1
