REMARK  3 active torsions:
REMARK  status: ('A' for Active; 'I' for Inactive)
REMARK    1  A    between atoms: N1_1  and  C1_4 
REMARK    2  A    between atoms: C6_9  and  C7_10 
REMARK    3  A    between atoms: C7_10  and  N2_11 
ROOT
HETATM    1  N2  UNL     1      -1.515  -0.956  -0.223  1.00  0.00    -0.386 N 
HETATM    2  C8  UNL     1      -1.278   0.280   0.421  1.00  0.00     0.149 C 
HETATM    3  C9  UNL     1       0.055   0.830  -0.082  1.00  0.00     0.252 C 
HETATM    4  N3  UNL     1       0.519   1.871   0.830  1.00  0.00    -0.072 N 
ATOM      5  H31 UNL     1       0.094   1.785   1.753  1.00  0.00     0.277 HD
ATOM      6  H32 UNL     1       0.150   2.788   0.579  1.00  0.00     0.277 HD
HETATM    7  C10 UNL     1       1.982   1.871   0.900  1.00  0.00     0.251 C 
HETATM    8  C11 UNL     1       2.444   3.222   1.319  1.00  0.00     0.148 C 
HETATM    9  N4  UNL     1       3.337   3.854   0.387  1.00  0.00    -0.379 N 
ATOM     10  H4  UNL     1       2.975   4.675  -0.097  1.00  0.00     0.160 HD
HETATM   11  C12 UNL     1       4.514   3.513   0.098  1.00  0.00     0.114 C 
HETATM   12  N5  UNL     1       5.349   4.186  -0.839  1.00  0.00    -0.086 NA
HETATM   13  C13 UNL     1       5.124   2.328   0.753  1.00  0.00     0.304 C 
HETATM   14  N6  UNL     1       5.358   1.348  -0.291  1.00  0.00    -0.069 N 
ATOM     15  H61 UNL     1       5.924   1.746  -1.040  1.00  0.00     0.277 HD
ATOM     16  H62 UNL     1       4.500   1.160  -0.809  1.00  0.00     0.277 HD
HETATM   17  C14 UNL     1       5.937   0.132   0.191  1.00  0.00     0.234 C 
HETATM   18  C15 UNL     1       4.928  -0.767   0.880  1.00  0.00     0.055 C 
HETATM   19  C16 UNL     1       4.032  -1.463  -0.124  1.00  0.00     0.234 C 
HETATM   20  N7  UNL     1       3.770  -2.792   0.380  1.00  0.00    -0.073 N 
ATOM     21  H71 UNL     1       3.356  -2.755   1.311  1.00  0.00     0.277 HD
ATOM     22  H72 UNL     1       4.639  -3.276   0.605  1.00  0.00     0.277 HD
HETATM   23  C17 UNL     1       2.958  -3.577  -0.516  1.00  0.00     0.259 C 
HETATM   24  C18 UNL     1       1.621  -2.941  -0.798  1.00  0.00     0.259 C 
HETATM   25  N8  UNL     1       0.752  -2.973   0.376  1.00  0.00    -0.072 N 
ATOM     26  H81 UNL     1       0.868  -2.138   0.951  1.00  0.00     0.277 HD
ATOM     27  H82 UNL     1       1.060  -3.673   1.051  1.00  0.00     0.277 HD
HETATM   28  C19 UNL     1      -0.639  -3.172  -0.002  1.00  0.00     0.252 C 
HETATM   29  C20 UNL     1      -1.544  -2.111   0.590  1.00  0.00     0.149 C 
ENDROOT
BRANCH   1  30
HETATM   30  C7  UNL     1      -2.311  -0.956  -1.384  1.00  0.00     0.097 C 
BRANCH  30  31
HETATM   31  C6  UNL     1      -3.702  -0.480  -1.241  1.00  0.00    -0.020 A 
HETATM   32  C5  UNL     1      -4.305  -0.293  -0.021  1.00  0.00     0.026 A 
HETATM   33  C4  UNL     1      -5.603   0.155   0.113  1.00  0.00    -0.009 A 
HETATM   34  C3  UNL     1      -6.182   0.333   1.352  1.00  0.00     0.017 A 
HETATM   35  C23 UNL     1      -6.352   0.436  -0.998  1.00  0.00     0.044 A 
HETATM   36  C2  UNL     1      -7.487   0.785   1.434  1.00  0.00     0.049 A 
HETATM   37  C1  UNL     1      -8.216   1.060   0.297  1.00  0.00     0.099 A 
HETATM   38  N9  UNL     1      -7.631   0.879  -0.896  1.00  0.00    -0.342 N 
ATOM     39  H9  UNL     1      -8.159   1.079  -1.746  1.00  0.00     0.167 HD
HETATM   40  C22 UNL     1      -5.773   0.258  -2.248  1.00  0.00     0.031 A 
HETATM   41  C21 UNL     1      -4.457  -0.197  -2.359  1.00  0.00     0.015 A 
BRANCH  37  42
HETATM   42  N1  UNL     1      -9.452   1.487   0.390  1.00  0.00    -0.385 N 
ATOM     43  H12 UNL     1      -9.897   1.625   1.297  1.00  0.00     0.157 HD
ATOM     44  H11 UNL     1      -9.991   1.691  -0.451  1.00  0.00     0.157 HD
ENDBRANCH  37  42
ENDBRANCH  30  31
ENDBRANCH   1  30
TORSDOF 3
