REMARK  4 active torsions:
REMARK  status: ('A' for Active; 'I' for Inactive)
REMARK    1  A    between atoms: N3_13  and  C7_14 
REMARK    2  A    between atoms: C7_14  and  C8_15 
REMARK    3  A    between atoms: C9_16  and  C10_17 
REMARK    4  A    between atoms: C14_21  and  N4_22 
ROOT
HETATM    1  N1  UNL     1      -5.985   3.476  -0.538  1.00  0.00    -0.389 N 
ATOM      2  H11 UNL     1      -6.993   3.631  -0.550  1.00  0.00     0.157 HD
ATOM      3  H12 UNL     1      -5.259   4.042  -0.977  1.00  0.00     0.157 HD
HETATM    4  C1  UNL     1      -5.593   2.407   0.117  1.00  0.00     0.070 C 
HETATM    5  C2  UNL     1      -4.133   2.182   0.135  1.00  0.00     0.077 C 
HETATM    6  C3  UNL     1      -3.472   2.340  -1.217  1.00  0.00     0.035 C 
HETATM    7  C4  UNL     1      -2.098   2.917  -1.102  1.00  0.00     0.233 C 
HETATM    8  N2  UNL     1      -1.053   2.046  -1.603  1.00  0.00    -0.071 N 
ATOM      9  H21 UNL     1      -0.162   2.539  -1.669  1.00  0.00     0.277 HD
ATOM     10  H22 UNL     1      -1.193   1.831  -2.590  1.00  0.00     0.277 HD
HETATM   11  C5  UNL     1      -0.925   0.836  -0.817  1.00  0.00     0.277 C 
HETATM   12  C6  UNL     1       0.465   0.258  -0.867  1.00  0.00     0.096 C 
HETATM   13  N3  UNL     1       0.556  -0.859  -0.022  1.00  0.00    -0.340 N 
HETATM   14  C17 UNL     1      -0.252  -1.985  -0.258  1.00  0.00     0.096 C 
HETATM   15  C18 UNL     1      -0.884  -2.513   1.031  1.00  0.00     0.277 C 
HETATM   16  N8  UNL     1      -2.139  -3.173   0.779  1.00  0.00    -0.069 N 
ATOM     17  H81 UNL     1      -2.476  -3.659   1.610  1.00  0.00     0.277 HD
ATOM     18  H82 UNL     1      -2.019  -3.976   0.161  1.00  0.00     0.277 HD
HETATM   19  C19 UNL     1      -3.122  -2.268   0.271  1.00  0.00     0.260 C 
HETATM   20  C20 UNL     1      -4.527  -2.595   0.649  1.00  0.00     0.259 C 
HETATM   21  N9  UNL     1      -5.207  -1.418   1.178  1.00  0.00    -0.072 N 
ATOM     22  H91 UNL     1      -4.586  -0.841   1.745  1.00  0.00     0.277 HD
ATOM     23  H92 UNL     1      -5.886  -1.661   1.900  1.00  0.00     0.277 HD
HETATM   24  C21 UNL     1      -5.821  -0.652   0.079  1.00  0.00     0.251 C 
HETATM   25  C22 UNL     1      -6.894   0.239   0.572  1.00  0.00     0.148 C 
HETATM   26  N10 UNL     1      -6.592   1.627   0.722  1.00  0.00    -0.379 N 
ATOM     27  H10 UNL     1      -7.197   2.131   1.370  1.00  0.00     0.160 HD
ENDROOT
BRANCH  13  28
HETATM   28  C7  UNL     1       1.313  -0.783   1.161  1.00  0.00     0.160 C 
BRANCH  28  29
HETATM   29  C8  UNL     1       2.760  -0.670   0.899  1.00  0.00    -0.054 C 
HETATM   30  C9  UNL     1       3.950  -0.576   0.695  1.00  0.00    -0.043 C 
BRANCH  30  31
HETATM   31  C10 UNL     1       5.370  -0.441   0.449  1.00  0.00     0.088 A 
HETATM   32  C11 UNL     1       6.205  -1.534   0.334  1.00  0.00     0.040 A 
HETATM   33  C12 UNL     1       7.556  -1.406   0.098  1.00  0.00     0.022 A 
HETATM   34  C13 UNL     1       8.122  -0.157  -0.034  1.00  0.00     0.052 A 
HETATM   35  C14 UNL     1       9.467   0.028  -0.272  1.00  0.00     0.113 A 
HETATM   36  C16 UNL     1       7.266   0.943   0.084  1.00  0.00     0.121 A 
HETATM   37  N5  UNL     1       9.947   1.304  -0.391  1.00  0.00    -0.338 N 
HETATM   38  C15 UNL     1       9.120   2.356  -0.277  1.00  0.00     0.183 A 
ATOM     39  H5  UNL     1      10.940   1.457  -0.568  1.00  0.00     0.168 HD
HETATM   40  N6  UNL     1       7.823   2.160  -0.047  1.00  0.00    -0.338 N 
ATOM     41  H6  UNL     1       7.219   2.978   0.034  1.00  0.00     0.168 HD
HETATM   42  N7  UNL     1       5.954   0.763   0.315  1.00  0.00    -0.335 N 
ATOM     43  H7  UNL     1       5.364   1.592   0.394  1.00  0.00     0.168 HD
BRANCH  35  44
HETATM   44  N4  UNL     1      10.276  -0.957  -0.384  1.00  0.00    -0.385 N 
ATOM     45  H42 UNL     1       9.918  -1.908  -0.295  1.00  0.00     0.157 HD
ATOM     46  H41 UNL     1      11.271  -0.820  -0.560  1.00  0.00     0.157 HD
ENDBRANCH  35  44
ENDBRANCH  30  31
ENDBRANCH  28  29
ENDBRANCH  13  28
TORSDOF 4
