REMARK  2 active torsions:
REMARK  status: ('A' for Active; 'I' for Inactive)
REMARK       I    between atoms: C1_4  and  N2_5 
REMARK       I    between atoms: C1_4  and  N3_10 
REMARK    1  A    between atoms: N2_5  and  C2_7 
REMARK    2  A    between atoms: N3_10  and  C4_12 
ROOT
HETATM    1  C4  UNL     1      -2.202   0.449  -0.412  1.00  0.00     0.217 C 
HETATM    2  C5  UNL     1      -1.259  -0.274  -1.337  1.00  0.00     0.267 C 
HETATM    3  N4  UNL     1      -1.350  -1.712  -1.202  1.00  0.00    -0.071 N 
ATOM      4  H41 UNL     1      -0.954  -2.186  -2.014  1.00  0.00     0.277 HD
ATOM      5  H42 UNL     1      -2.315  -2.031  -1.285  1.00  0.00     0.277 HD
HETATM    6  C6  UNL     1      -0.745  -2.182   0.027  1.00  0.00     0.259 C 
HETATM    7  C7  UNL     1      -0.070  -3.488  -0.240  1.00  0.00     0.259 C 
HETATM    8  N5  UNL     1       1.348  -3.223  -0.494  1.00  0.00    -0.073 N 
ATOM      9  H51 UNL     1       1.504  -2.450  -1.141  1.00  0.00     0.277 HD
ATOM     10  H52 UNL     1       1.800  -3.948  -1.051  1.00  0.00     0.277 HD
HETATM   11  C8  UNL     1       1.967  -3.023   0.793  1.00  0.00     0.241 C 
HETATM   12  C9  UNL     1       3.465  -3.217   0.741  1.00  0.00     0.130 C 
HETATM   13  C10 UNL     1       4.054  -2.871  -0.557  1.00  0.00     0.219 C 
HETATM   14  O2  UNL     1       4.094  -3.731  -1.482  1.00  0.00    -0.274 OA
HETATM   15  N6  UNL     1       4.600  -1.592  -0.850  1.00  0.00    -0.361 N 
ATOM     16  H6  UNL     1       5.396  -1.542  -1.486  1.00  0.00     0.162 HD
HETATM   17  C11 UNL     1       4.090  -0.359  -0.297  1.00  0.00     0.123 C 
HETATM   18  C12 UNL     1       4.870   0.056   0.940  1.00  0.00     0.030 C 
HETATM   19  C13 UNL     1       5.081   1.537   0.920  1.00  0.00     0.075 C 
HETATM   20  S1  UNL     1       3.599   2.438   1.478  1.00  0.00    -0.167 SA
HETATM   21  C14 UNL     1       2.782   3.096   0.006  1.00  0.00     0.100 C 
HETATM   22  C15 UNL     1       1.912   4.290   0.319  1.00  0.00     0.177 C 
HETATM   23  O3  UNL     1       0.816   3.991   1.087  1.00  0.00    -0.389 OA
HETATM   24  C16 UNL     1       0.086   2.905   0.647  1.00  0.00     0.187 C 
HETATM   25  C17 UNL     1      -0.488   3.091  -0.736  1.00  0.00     0.148 C 
HETATM   26  N7  UNL     1      -1.926   2.968  -0.766  1.00  0.00    -0.357 N 
ATOM     27  H7  UNL     1      -2.476   3.814  -0.613  1.00  0.00     0.162 HD
HETATM   28  C18 UNL     1      -2.626   1.768  -0.991  1.00  0.00     0.242 C 
HETATM   29  O4  UNL     1      -3.663   1.767  -1.707  1.00  0.00    -0.271 OA
ENDROOT
BRANCH   1  30
HETATM   30  N3  UNL     1      -3.329  -0.368  -0.083  1.00  0.00    -0.212 N 
HETATM   31  C1  UNL     1      -4.390   0.029   0.766  1.00  0.00     0.670 C 
HETATM   32  N1  UNL     1      -4.142   0.179   2.017  1.00  0.00    -0.235 N 
HETATM   33  N2  UNL     1      -5.700   0.263   0.281  1.00  0.00    -0.198 N 
ATOM     34  H12 UNL     1      -4.906   0.465   2.629  1.00  0.00     0.174 HD
ATOM     35  H11 UNL     1      -3.199   0.010   2.366  1.00  0.00     0.174 HD
ATOM     36  H2  UNL     1      -5.965   1.216   0.034  1.00  0.00     0.180 HD
ATOM     37  H3  UNL     1      -3.371  -1.303  -0.489  1.00  0.00     0.178 HD
BRANCH  33  38
HETATM   38  C2  UNL     1      -6.682  -0.794   0.120  1.00  0.00     0.261 A 
HETATM   39  C3  UNL     1      -7.996  -0.537  -0.368  1.00  0.00     0.224 A 
HETATM   40  O1  UNL     1      -7.825  -0.482   1.029  1.00  0.00    -0.360 OA
ENDBRANCH  33  38
ENDBRANCH   1  30
TORSDOF 2
