REMARK  4 active torsions:
REMARK  status: ('A' for Active; 'I' for Inactive)
REMARK    1  A    between atoms: C2_2  and  N1_3 
REMARK    2  A    between atoms: N1_3  and  C3_4 
REMARK    3  A    between atoms: N1_3  and  C5_6 
REMARK    4  A    between atoms: C5_6  and  C6_7 
ROOT
HETATM    1  C6  UNL     1       0.642   0.463   0.563  1.00  0.00     0.164 C 
HETATM    2  C7  UNL     1       1.931   1.265   0.323  1.00  0.00     0.077 C 
HETATM    3  C8  UNL     1       2.402  -0.140   0.130  1.00  0.00     0.091 C 
HETATM    4  C9  UNL     1       3.257  -0.716   1.220  1.00  0.00     0.119 C 
HETATM    5  C10 UNL     1       4.419  -0.295   0.399  1.00  0.00     0.147 C 
HETATM    6  O1  UNL     1       5.567  -0.001   0.606  1.00  0.00    -0.296 OA
HETATM    7  C11 UNL     1       3.531  -0.398  -0.785  1.00  0.00     0.162 C 
HETATM    8 BR1  UNL     1       3.562  -2.220  -1.496  1.00  0.00    -0.080 Br
HETATM    9  O2  UNL     1       1.168  -0.636  -0.095  1.00  0.00    -0.367 OA
ENDROOT
BRANCH   1  10
HETATM   10  C5  UNL     1      -0.567   1.130  -0.014  1.00  0.00     0.099 C 
BRANCH  10  11
HETATM   11  N1  UNL     1      -1.656   0.242  -0.078  1.00  0.00    -0.352 N 
BRANCH  11  12
HETATM   12  C2  UNL     1      -1.656  -0.825  -0.984  1.00  0.00     0.064 C 
HETATM   13  C1  UNL     1      -1.948  -2.131  -0.251  1.00  0.00     0.055 C 
ENDBRANCH  11  12
BRANCH  11  14
HETATM   14  C3  UNL     1      -2.863   0.644   0.526  1.00  0.00     0.064 C 
HETATM   15  C4  UNL     1      -3.858   1.272  -0.428  1.00  0.00     0.055 C 
ENDBRANCH  11  14
ENDBRANCH  10  11
ENDBRANCH   1  10
TORSDOF 4
