REMARK  1 active torsions:
REMARK  status: ('A' for Active; 'I' for Inactive)
REMARK    1  A    between atoms: C2_2  and  N1_3 
REMARK       I    between atoms: N1_3  and  C3_5 
REMARK       I    between atoms: C3_5  and  N2_7 
ROOT
HETATM    1  N1  UNL     1       2.594   0.941   0.333  1.00  0.00    -0.343 N 
ATOM      2  H1  UNL     1       1.822   1.588   0.172  1.00  0.00     0.164 HD
HETATM    3  C3  UNL     1       2.284  -0.429   0.554  1.00  0.00     0.318 C 
HETATM    4  O1  UNL     1       3.287  -1.197   0.749  1.00  0.00    -0.247 OA
HETATM    5  N2  UNL     1       0.954  -0.924   0.558  1.00  0.00    -0.329 N 
HETATM    6  C4  UNL     1       0.761  -2.331   0.792  1.00  0.00     0.153 C 
HETATM    7  C5  UNL     1      -0.682  -2.676   0.617  1.00  0.00     0.189 C 
HETATM    8  O2  UNL     1      -1.418  -1.727   1.320  1.00  0.00    -0.377 OA
HETATM    9  C6  UNL     1      -1.493  -0.519   0.581  1.00  0.00     0.077 C 
HETATM   10  C7  UNL     1      -2.246   0.429   1.456  1.00  0.00     0.040 C 
HETATM   11  C8  UNL     1      -2.766   1.648   0.772  1.00  0.00     0.003 C 
HETATM   12  C9  UNL     1      -2.743   1.577  -0.718  1.00  0.00     0.000 C 
HETATM   13  C10 UNL     1      -3.179   0.194  -1.137  1.00  0.00     0.003 C 
HETATM   14  C11 UNL     1      -2.229  -0.879  -0.687  1.00  0.00     0.040 C 
HETATM   15  C12 UNL     1      -0.114  -0.016   0.336  1.00  0.00     0.165 C 
ENDROOT
BRANCH   1  16
HETATM   16  C2  UNL     1       3.925   1.465   0.323  1.00  0.00     0.120 C 
HETATM   17  C1  UNL     1       4.797   0.836  -0.741  1.00  0.00     0.026 C 
ENDBRANCH   1  16
TORSDOF 1
