REMARK  3 active torsions:
REMARK  status: ('A' for Active; 'I' for Inactive)
REMARK    1  A    between atoms: C2_2  and  C3_3 
REMARK    2  A    between atoms: C3_3  and  C4_4 
REMARK    3  A    between atoms: C4_4  and  C5_5 
ROOT
HETATM    1  C5  UNL     1       0.163  -0.227  -0.921  1.00  0.00    -0.016 A 
HETATM    2  C6  UNL     1       0.179  -1.561  -1.243  1.00  0.00     0.086 A 
HETATM    3 BR1  UNL     1       1.420  -2.470  -2.389  1.00  0.00    -0.031 Br
HETATM    4  N1  UNL     1      -0.896  -2.122  -0.626  1.00  0.00    -0.353 N 
ATOM      5  H1  UNL     1      -1.151  -3.108  -0.677  1.00  0.00     0.166 HD
HETATM    6  C7  UNL     1      -1.570  -1.188   0.058  1.00  0.00     0.017 A 
HETATM    7  C8  UNL     1      -0.941   0.023  -0.097  1.00  0.00    -0.026 A 
HETATM    8  C9  UNL     1      -1.525   1.196   0.579  1.00  0.00     0.041 C 
HETATM    9  C10 UNL     1      -3.019   1.242   0.225  1.00  0.00     0.005 C 
HETATM   10  C11 UNL     1      -3.704  -0.067   0.407  1.00  0.00     0.006 C 
HETATM   11  C12 UNL     1      -2.807  -1.177   0.918  1.00  0.00     0.057 C 
ENDROOT
BRANCH   1  12
HETATM   12  C4  UNL     1       1.093   0.851  -1.256  1.00  0.00     0.042 C 
BRANCH  12  13
HETATM   13  C3  UNL     1       2.255   0.990  -0.328  1.00  0.00     0.004 C 
BRANCH  13  14
HETATM   14  C2  UNL     1       3.146  -0.182  -0.209  1.00  0.00    -0.004 C 
HETATM   15  C1  UNL     1       4.302   0.079   0.765  1.00  0.00     0.005 C 
ENDBRANCH  13  14
ENDBRANCH  12  13
ENDBRANCH   1  12
TORSDOF 3
