REMARK  3 active torsions:
REMARK  status: ('A' for Active; 'I' for Inactive)
REMARK    1  A    between atoms: C2_2  and  C3_4 
REMARK       I    between atoms: C3_4  and  N1_6 
REMARK    2  A    between atoms: N1_6  and  C4_8 
REMARK    3  A    between atoms: C4_8  and  C5_9 
ROOT
HETATM    1  C5  UNL     1      -0.333  -0.113  -0.652  1.00  0.00    -0.007 C 
HETATM    2  C6  UNL     1      -1.569  -0.179  -1.579  1.00  0.00     0.019 C 
HETATM    3  C7  UNL     1      -2.796   0.176  -0.827  1.00  0.00    -0.013 C 
HETATM    4  C8  UNL     1      -2.763   1.541  -0.221  1.00  0.00     0.009 C 
HETATM    5  C9  UNL     1      -1.554   1.573   0.706  1.00  0.00    -0.013 C 
HETATM    6  C10 UNL     1      -1.665   0.554   1.794  1.00  0.00     0.009 C 
HETATM    7  C11 UNL     1      -1.840  -0.840   1.172  1.00  0.00    -0.013 C 
HETATM    8  C12 UNL     1      -3.030  -0.836   0.287  1.00  0.00     0.009 C 
HETATM    9  C13 UNL     1      -0.519  -1.082   0.438  1.00  0.00     0.019 C 
HETATM   10  C14 UNL     1      -0.340   1.333  -0.135  1.00  0.00     0.019 C 
ENDROOT
BRANCH   1  11
HETATM   11  C4  UNL     1       0.871  -0.328  -1.485  1.00  0.00     0.073 C 
BRANCH  11  12
HETATM   12  N1  UNL     1       2.159  -0.342  -0.924  1.00  0.00    -0.339 N 
HETATM   13  C3  UNL     1       2.799  -1.255  -0.065  1.00  0.00     0.239 C 
HETATM   14  O1  UNL     1       2.298  -2.305   0.361  1.00  0.00    -0.272 OA
ATOM     15  H1  UNL     1       2.737   0.456  -1.188  1.00  0.00     0.167 HD
BRANCH  13  16
HETATM   16  C2  UNL     1       4.221  -0.981   0.409  1.00  0.00     0.170 C 
HETATM   17  C1  UNL     1       4.187   0.343   1.166  1.00  0.00     0.037 C 
HETATM   18 CL1  UNL     1       5.199  -0.833  -1.063  1.00  0.00    -0.115 Cl
ENDBRANCH  13  16
ENDBRANCH  11  12
ENDBRANCH   1  11
TORSDOF 3
