REMARK  8 active torsions:
REMARK  status: ('A' for Active; 'I' for Inactive)
REMARK    1  A    between atoms: N1_1  and  C1_5 
REMARK    2  A    between atoms: C1_5  and  C2_6 
REMARK    3  A    between atoms: C2_6  and  N2_7 
REMARK    4  A    between atoms: N2_7  and  C3_9 
REMARK    5  A    between atoms: C3_9  and  N3_11 
REMARK    6  A    between atoms: N3_11  and  C4_13 
REMARK    7  A    between atoms: C4_13  and  C5_14 
REMARK    8  A    between atoms: C5_14  and  N4_15 
ROOT
HETATM    1  N3  UNL     1       0.698   1.958  -1.327  1.00  0.00    -0.366 N 
ATOM      2  H3  UNL     1       0.569   2.884  -1.735  1.00  0.00     0.161 HD
ENDROOT
BRANCH   1   3
HETATM    3  C3  UNL     1       1.979   1.575  -0.930  1.00  0.00     0.167 C 
HETATM    4  S1  UNL     1       3.181   2.704  -1.135  1.00  0.00    -0.041 SA
BRANCH   3   5
HETATM    5  N2  UNL     1       2.359   0.332  -0.374  1.00  0.00    -0.366 N 
ATOM      6  H2  UNL     1       1.673  -0.408  -0.226  1.00  0.00     0.161 HD
BRANCH   5   7
HETATM    7  C2  UNL     1       3.762   0.137  -0.017  1.00  0.00     0.149 C 
BRANCH   7   8
HETATM    8  C1  UNL     1       4.032  -1.218   0.548  1.00  0.00     0.249 C 
BRANCH   8   9
HETATM    9  N1  UNL     1       5.472  -1.262   0.853  1.00  0.00    -0.078 N 
ATOM     10  H13 UNL     1       6.062  -1.032   0.053  1.00  0.00     0.274 HD
ATOM     11  H12 UNL     1       5.780  -0.502   1.460  1.00  0.00     0.274 HD
ATOM     12  H11 UNL     1       5.656  -2.188   1.239  1.00  0.00     0.274 HD
ENDBRANCH   8   9
ENDBRANCH   7   8
ENDBRANCH   5   7
ENDBRANCH   3   5
ENDBRANCH   1   3
BRANCH   1  13
HETATM   13  C4  UNL     1      -0.451   1.101  -1.185  1.00  0.00     0.141 C 
BRANCH  13  14
HETATM   14  C5  UNL     1      -0.817   0.999   0.256  1.00  0.00     0.136 C 
BRANCH  14  15
HETATM   15  N4  UNL     1      -1.953   0.155   0.527  1.00  0.00    -0.408 N 
HETATM   16  C6  UNL     1      -1.759  -1.235   0.297  1.00  0.00     0.144 C 
HETATM   17  C7  UNL     1      -3.156  -1.834   0.076  1.00  0.00     0.251 C 
HETATM   18  N5  UNL     1      -4.033  -1.332   1.144  1.00  0.00    -0.072 N 
HETATM   19  C8  UNL     1      -4.311   0.066   0.880  1.00  0.00     0.251 C 
ATOM     20  H52 UNL     1      -4.881  -1.889   1.251  1.00  0.00     0.277 HD
ATOM     21  H51 UNL     1      -3.648  -1.488   2.076  1.00  0.00     0.277 HD
HETATM   22  C9  UNL     1      -3.193   0.692   0.062  1.00  0.00     0.144 C 
ENDBRANCH  14  15
ENDBRANCH  13  14
ENDBRANCH   1  13
TORSDOF 8
