REMARK  6 active torsions:
REMARK  status: ('A' for Active; 'I' for Inactive)
REMARK       I    between atoms: C2_5  and  N4_7 
REMARK    1  A    between atoms: N4_7  and  C3_9 
REMARK    2  A    between atoms: C3_9  and  C4_10 
REMARK    3  A    between atoms: C4_10  and  S1_11 
REMARK    4  A    between atoms: S1_11  and  C5_12 
REMARK    5  A    between atoms: C5_12  and  C6_13 
REMARK    6  A    between atoms: C6_13  and  N5_14 
ROOT
HETATM    1  N1  UNL     1      -6.369  -1.052  -2.103  1.00  0.00    -0.172 NA
HETATM    2  C1  UNL     1      -5.387  -0.507  -1.786  1.00  0.00     0.184 C 
HETATM    3  N2  UNL     1      -4.213   0.162  -1.392  1.00  0.00    -0.268 N 
ATOM      4  H2  UNL     1      -3.630   0.629  -2.087  1.00  0.00     0.180 HD
HETATM    5  C2  UNL     1      -3.878   0.180  -0.143  1.00  0.00     0.197 C 
HETATM    6  N3  UNL     1      -4.672  -0.466   0.855  1.00  0.00    -0.063 NA
HETATM    7  N4  UNL     1      -2.684   0.862   0.252  1.00  0.00    -0.363 N 
ATOM      8  H4  UNL     1      -2.480   1.813  -0.056  1.00  0.00     0.162 HD
ENDROOT
BRANCH   7   9
HETATM    9  C3  UNL     1      -1.788   0.134   1.107  1.00  0.00     0.132 C 
BRANCH   9  10
HETATM   10  C4  UNL     1      -0.557   0.887   1.499  1.00  0.00     0.093 C 
BRANCH  10  11
HETATM   11  S1  UNL     1       0.434   1.369   0.085  1.00  0.00    -0.166 SA
BRANCH  11  12
HETATM   12  C5  UNL     1       1.119  -0.069  -0.737  1.00  0.00     0.093 C 
BRANCH  12  13
HETATM   13  C6  UNL     1       2.121  -0.792   0.138  1.00  0.00     0.132 C 
BRANCH  13  14
HETATM   14  N5  UNL     1       3.193   0.117   0.454  1.00  0.00    -0.366 N 
HETATM   15  C7  UNL     1       4.205   0.188  -0.324  1.00  0.00     0.196 C 
HETATM   16  N6  UNL     1       4.241  -0.633  -1.475  1.00  0.00    -0.067 NA
HETATM   17  N7  UNL     1       5.260   1.086  -0.007  1.00  0.00    -0.067 NA
ATOM     18  H5  UNL     1       3.145   0.699   1.291  1.00  0.00     0.161 HD
ENDBRANCH  13  14
ENDBRANCH  12  13
ENDBRANCH  11  12
ENDBRANCH  10  11
ENDBRANCH   9  10
ENDBRANCH   7   9
TORSDOF 6
