REMARK  8 active torsions:
REMARK  status: ('A' for Active; 'I' for Inactive)
REMARK       I    between atoms: C1_2  and  N1_3 
REMARK    1  A    between atoms: C1_2  and  C10_13 
REMARK    2  A    between atoms: N1_3  and  C2_5 
REMARK    3  A    between atoms: C2_5  and  C3_6 
REMARK    4  A    between atoms: C3_6  and  C4_7 
REMARK    5  A    between atoms: C11_14  and  N2_15 
REMARK    6  A    between atoms: N2_15  and  C12_17 
REMARK    7  A    between atoms: C14_23  and  O2_24 
REMARK    8  A    between atoms: C18_31  and  O3_32 
ROOT
HETATM    1  C10 UNL     1      -2.209  -1.552   0.336  1.00  0.00     0.080 A 
HETATM    2  C11 UNL     1      -3.063  -0.473   0.390  1.00  0.00     0.093 A 
HETATM    3  S1  UNL     1      -4.577  -1.157   0.032  1.00  0.00    -0.070 SA
HETATM    4  C15 UNL     1      -4.107  -2.774  -0.179  1.00  0.00     0.024 A 
HETATM    5  C16 UNL     1      -4.827  -3.929  -0.512  1.00  0.00     0.065 A 
HETATM    6  C17 UNL     1      -4.192  -5.137  -0.644  1.00  0.00     0.153 A 
HETATM    7  F1  UNL     1      -4.824  -6.287  -0.962  1.00  0.00    -0.203 F 
HETATM    8  C18 UNL     1      -2.831  -5.153  -0.436  1.00  0.00     0.144 A 
HETATM    9  C19 UNL     1      -2.145  -4.021  -0.113  1.00  0.00     0.165 A 
HETATM   10  F2  UNL     1      -0.787  -4.196   0.024  1.00  0.00    -0.202 F 
HETATM   11  C20 UNL     1      -2.752  -2.758   0.037  1.00  0.00     0.041 A 
ENDROOT
BRANCH   1  12
HETATM   12  C1  UNL     1      -0.773  -1.271   0.593  1.00  0.00     0.255 C 
HETATM   13  O1  UNL     1      -0.160  -2.086   1.318  1.00  0.00    -0.268 OA
HETATM   14  N1  UNL     1      -0.097  -0.151   0.059  1.00  0.00    -0.356 N 
ATOM     15  H1  UNL     1      -0.583   0.517  -0.539  1.00  0.00     0.162 HD
BRANCH  14  16
HETATM   16  C2  UNL     1       1.300   0.023   0.381  1.00  0.00     0.127 C 
BRANCH  16  17
HETATM   17  C3  UNL     1       1.894   1.245  -0.246  1.00  0.00     0.053 C 
BRANCH  17  18
HETATM   18  C4  UNL     1       3.326   1.352   0.124  1.00  0.00    -0.082 C 
HETATM   19  C5  UNL     1       3.945   0.463   0.899  1.00  0.00    -0.024 C 
HETATM   20  C6  UNL     1       5.405   0.751   1.158  1.00  0.00     0.027 C 
HETATM   21  C7  UNL     1       6.023   0.804  -0.245  1.00  0.00     0.004 C 
HETATM   22  C8  UNL     1       5.480   2.029  -0.938  1.00  0.00     0.005 C 
HETATM   23  C9  UNL     1       4.182   2.488  -0.359  1.00  0.00     0.034 C 
ENDBRANCH  17  18
ENDBRANCH  16  17
ENDBRANCH  14  16
ENDBRANCH   1  12
BRANCH   2  24
HETATM   24  N2  UNL     1      -2.757   0.896   0.697  1.00  0.00    -0.333 N 
ATOM     25  H2  UNL     1      -2.124   1.108   1.468  1.00  0.00     0.168 HD
BRANCH  24  26
HETATM   26  C12 UNL     1      -3.266   1.856   0.018  1.00  0.00     0.156 A 
HETATM   27  N3  UNL     1      -4.106   1.864  -1.022  1.00  0.00    -0.283 N 
HETATM   28  N4  UNL     1      -4.317   3.127  -1.343  1.00  0.00    -0.307 N 
ATOM     29  H3  UNL     1      -4.509   1.047  -1.481  1.00  0.00     0.188 HD
HETATM   30  C13 UNL     1      -3.636   3.956  -0.540  1.00  0.00     0.147 A 
ATOM     31  H4  UNL     1      -4.922   3.433  -2.105  1.00  0.00     0.186 HD
HETATM   32  C14 UNL     1      -2.950   3.183   0.345  1.00  0.00     0.128 A 
BRANCH  32  33
HETATM   33  O2  UNL     1      -2.101   3.598   1.376  1.00  0.00    -0.356 OA
ATOM     34  H2  UNL     1      -1.887   4.497   1.597  1.00  0.00     0.218 HD
ENDBRANCH  32  33
ENDBRANCH  24  26
ENDBRANCH   2  24
BRANCH   8  35
HETATM   35  O3  UNL     1      -2.123  -6.360  -0.558  1.00  0.00    -0.355 OA
ATOM     36  H3  UNL     1      -1.184  -6.371  -0.414  1.00  0.00     0.218 HD
ENDBRANCH   8  35
TORSDOF 8
