REMARK  2 active torsions:
REMARK  status: ('A' for Active; 'I' for Inactive)
REMARK    1  A    between atoms: N1_8  and  N2_9 
REMARK       I    between atoms: N2_9  and  C7_11 
REMARK    2  A    between atoms: C7_11  and  C8_13 
ROOT
HETATM    1  N2  UNL     1       1.088   0.096   0.578  1.00  0.00    -0.271 N 
ATOM      2  H2  UNL     1       0.752  -0.816   0.887  1.00  0.00     0.190 HD
HETATM    3  C7  UNL     1       0.075   0.879   0.026  1.00  0.00     0.244 C 
HETATM    4  O2  UNL     1       0.313   2.025  -0.412  1.00  0.00    -0.271 OA
ENDROOT
BRANCH   3   5
HETATM    5  C8  UNL     1      -1.347   0.431  -0.081  1.00  0.00     0.043 C 
HETATM    6  C9  UNL     1      -1.528  -0.987   0.382  1.00  0.00     0.024 C 
HETATM    7  C10 UNL     1      -3.007  -1.296   0.297  1.00  0.00    -0.013 C 
HETATM    8  C11 UNL     1      -3.836  -0.332   1.125  1.00  0.00     0.009 C 
HETATM    9  C15 UNL     1      -3.508  -1.219  -1.121  1.00  0.00     0.009 C 
HETATM   10  C12 UNL     1      -3.631   1.081   0.603  1.00  0.00    -0.013 C 
HETATM   11  C13 UNL     1      -4.064   1.143  -0.856  1.00  0.00     0.009 C 
HETATM   12  C17 UNL     1      -2.163   1.407   0.741  1.00  0.00     0.024 C 
HETATM   13  C14 UNL     1      -3.236   0.162  -1.657  1.00  0.00    -0.013 C 
HETATM   14  C16 UNL     1      -1.783   0.576  -1.508  1.00  0.00     0.024 C 
ENDBRANCH   3   5
BRANCH   1  15
HETATM   15  N1  UNL     1       2.404   0.261   0.799  1.00  0.00    -0.312 N 
HETATM   16  C2  UNL     1       3.373   0.310  -0.201  1.00  0.00     0.062 C 
HETATM   17  C1  UNL     1       3.128   1.207  -1.364  1.00  0.00     0.042 C 
HETATM   18  C3  UNL     1       4.761   0.723   0.315  1.00  0.00     0.042 C 
HETATM   19  C4  UNL     1       3.605  -1.127  -0.705  1.00  0.00     0.199 C 
HETATM   20  O1  UNL     1       4.167  -1.810   0.385  1.00  0.00    -0.387 OA
HETATM   21  C5  UNL     1       3.196  -1.893   1.400  1.00  0.00     0.189 C 
HETATM   22  C6  UNL     1       2.861  -0.528   1.944  1.00  0.00     0.170 C 
ENDBRANCH   1  15
TORSDOF 2
