REMARK  5 active torsions:
REMARK  status: ('A' for Active; 'I' for Inactive)
REMARK    1  A    between atoms: N1_4  and  C4_5 
REMARK    2  A    between atoms: C4_5  and  S2_7 
REMARK    3  A    between atoms: S2_7  and  C5_8 
REMARK    4  A    between atoms: C5_8  and  C6_9 
REMARK       I    between atoms: C6_9  and  N2_11 
REMARK    5  A    between atoms: N2_11  and  C7_13 
ROOT
HETATM    1  C4  UNL     1      -1.336   0.646  -0.463  1.00  0.00     0.137 C 
HETATM    2  S1  UNL     1      -0.330   1.167   0.725  1.00  0.00    -0.053 SA
ENDROOT
BRANCH   1   3
HETATM    3  N1  UNL     1      -2.479  -0.130  -0.186  1.00  0.00    -0.363 N 
HETATM    4  C3  UNL     1      -2.797  -0.502   1.171  1.00  0.00     0.157 C 
HETATM    5  C2  UNL     1      -4.255  -0.090   1.372  1.00  0.00     0.200 C 
HETATM    6  C1  UNL     1      -4.602  -0.127   2.823  1.00  0.00     0.041 C 
HETATM    7  N3  UNL     1      -5.031  -0.956   0.532  1.00  0.00    -0.064 N 
HETATM    8  C14 UNL     1      -4.802  -0.570  -0.846  1.00  0.00     0.200 C 
ATOM      9  H32 UNL     1      -4.840  -1.944   0.701  1.00  0.00     0.278 HD
ATOM     10  H31 UNL     1      -6.020  -0.963   0.780  1.00  0.00     0.278 HD
HETATM   11  C13 UNL     1      -3.345  -0.565  -1.238  1.00  0.00     0.157 C 
HETATM   12  C15 UNL     1      -5.507  -1.522  -1.804  1.00  0.00     0.041 C 
ENDBRANCH   1   3
BRANCH   1  13
HETATM   13  S2  UNL     1      -0.966   1.092  -2.139  1.00  0.00    -0.091 SA
BRANCH  13  14
HETATM   14  C5  UNL     1       0.567   2.040  -2.194  1.00  0.00     0.184 C 
BRANCH  14  15
HETATM   15  C6  UNL     1       1.690   1.146  -1.825  1.00  0.00     0.227 C 
HETATM   16  O1  UNL     1       1.824   0.108  -2.540  1.00  0.00    -0.273 OA
HETATM   17  N2  UNL     1       2.572   1.394  -0.760  1.00  0.00    -0.356 N 
ATOM     18  H2  UNL     1       2.472   2.226  -0.178  1.00  0.00     0.162 HD
BRANCH  17  19
HETATM   19  C7  UNL     1       3.639   0.423  -0.510  1.00  0.00     0.084 C 
HETATM   20  C8  UNL     1       3.349  -0.239   0.846  1.00  0.00     0.025 C 
HETATM   21  C9  UNL     1       4.377  -1.355   0.936  1.00  0.00     0.002 C 
HETATM   22  C10 UNL     1       5.707  -0.693   1.164  1.00  0.00     0.000 C 
HETATM   23  C11 UNL     1       6.026   0.466   0.310  1.00  0.00     0.002 C 
HETATM   24  C12 UNL     1       4.908   1.179  -0.345  1.00  0.00     0.025 C 
ENDBRANCH  17  19
ENDBRANCH  14  15
ENDBRANCH  13  14
ENDBRANCH   1  13
TORSDOF 5
