REMARK  7 active torsions:
REMARK  status: ('A' for Active; 'I' for Inactive)
REMARK    1  A    between atoms: C2_2  and  N1_3 
REMARK    2  A    between atoms: C2_2  and  C8_13 
REMARK       I    between atoms: N1_3  and  C3_5 
REMARK       I    between atoms: C3_5  and  N2_7 
REMARK       I    between atoms: C8_13  and  N3_15 
REMARK    3  A    between atoms: C11_18  and  O4_19 
REMARK    4  A    between atoms: N4_22  and  C13_23 
REMARK    5  A    between atoms: C17_27  and  C18_28 
REMARK    6  A    between atoms: C18_28  and  C19_30 
REMARK    7  A    between atoms: C19_30  and  C20_31 
ROOT
HETATM    1  C8  UNL     1       3.630   0.771   0.522  1.00  0.00     0.242 C 
HETATM    2  O3  UNL     1       4.160   1.864   0.874  1.00  0.00    -0.271 OA
HETATM    3  N3  UNL     1       2.232   0.669   0.594  1.00  0.00    -0.349 N 
HETATM    4  C9  UNL     1       1.396   1.766   1.090  1.00  0.00     0.129 C 
HETATM    5  C10 UNL     1       0.419   2.070  -0.005  1.00  0.00     0.064 C 
HETATM    6  C11 UNL     1      -0.505   0.899  -0.371  1.00  0.00     0.104 C 
HETATM    7  C12 UNL     1      -1.912   1.298  -0.113  1.00  0.00     0.098 C 
HETATM    8  N4  UNL     1      -2.792   1.830  -1.017  1.00  0.00    -0.369 N 
HETATM    9  C17 UNL     1      -4.025   1.162  -1.284  1.00  0.00     0.178 C 
HETATM   10  C21 UNL     1      -3.856  -0.372  -1.403  1.00  0.00     0.200 C 
HETATM   11  O8  UNL     1      -5.044  -0.831  -1.957  1.00  0.00    -0.389 OA
HETATM   12  C22 UNL     1      -5.532  -1.999  -1.402  1.00  0.00     0.167 C 
HETATM   13  C23 UNL     1      -4.536  -3.088  -1.646  1.00  0.00     0.026 C 
HETATM   14  C24 UNL     1      -4.642  -4.250  -0.725  1.00  0.00     0.002 C 
HETATM   15  C25 UNL     1      -3.304  -4.530  -0.136  1.00  0.00     0.000 C 
HETATM   16  C26 UNL     1      -3.190  -4.390   1.347  1.00  0.00     0.002 C 
HETATM   17  C27 UNL     1      -3.292  -3.035   1.918  1.00  0.00     0.020 C 
HETATM   18  C28 UNL     1      -2.005  -2.276   2.084  1.00  0.00     0.122 C 
HETATM   19  N5  UNL     1      -1.048  -2.490   1.049  1.00  0.00    -0.361 N 
ATOM     20  H5  UNL     1      -0.679  -3.438   0.973  1.00  0.00     0.162 HD
HETATM   21  C29 UNL     1      -0.548  -1.561   0.120  1.00  0.00     0.226 C 
HETATM   22  O9  UNL     1      -0.571  -1.893  -1.110  1.00  0.00    -0.273 OA
HETATM   23  C30 UNL     1      -0.004  -0.232   0.537  1.00  0.00     0.135 C 
HETATM   24  C31 UNL     1       1.461  -0.459   0.190  1.00  0.00     0.143 C 
ENDROOT
BRANCH   1  25
HETATM   25  C2  UNL     1       4.538  -0.314   0.062  1.00  0.00     0.174 C 
HETATM   26  C1  UNL     1       4.185  -0.871  -1.284  1.00  0.00     0.042 C 
BRANCH  25  27
HETATM   27  N1  UNL     1       5.916   0.139   0.050  1.00  0.00    -0.330 N 
HETATM   28  C3  UNL     1       6.804  -0.306   1.051  1.00  0.00     0.319 C 
HETATM   29  O1  UNL     1       6.313  -1.104   1.936  1.00  0.00    -0.247 OA
HETATM   30  N2  UNL     1       8.158   0.069   1.128  1.00  0.00    -0.330 N 
HETATM   31  C4  UNL     1       8.779   0.926   0.163  1.00  0.00     0.153 C 
HETATM   32  C7  UNL     1       8.971  -0.412   2.221  1.00  0.00     0.153 C 
HETATM   33  C5  UNL     1       9.910   0.128  -0.488  1.00  0.00     0.187 C 
HETATM   34  O2  UNL     1      10.490  -0.768   0.391  1.00  0.00    -0.388 OA
HETATM   35  C6  UNL     1      10.415  -0.336   1.711  1.00  0.00     0.187 C 
ATOM     36  H1  UNL     1       6.241   0.775  -0.678  1.00  0.00     0.165 HD
ENDBRANCH  25  27
ENDBRANCH   1  25
BRANCH   6  37
HETATM   37  O4  UNL     1      -0.240   0.394  -1.639  1.00  0.00    -0.383 OA
ATOM     38  H4  UNL     1      -0.812  -0.330  -1.865  1.00  0.00     0.211 HD
ENDBRANCH   6  37
BRANCH   8  39
HETATM   39  C13 UNL     1      -2.710   3.120  -1.562  1.00  0.00     0.022 C 
HETATM   40  C14 UNL     1      -2.780   4.285  -0.578  1.00  0.00     0.037 C 
HETATM   41  C15 UNL     1      -1.562   3.455  -2.484  1.00  0.00     0.037 C 
HETATM   42  C16 UNL     1      -3.937   3.431  -2.470  1.00  0.00     0.037 C 
ENDBRANCH   8  39
BRANCH   9  43
HETATM   43  C18 UNL     1      -5.096   1.217  -0.281  1.00  0.00     0.161 C 
HETATM   44  O5  UNL     1      -6.208   0.907  -0.654  1.00  0.00    -0.295 OA
BRANCH  43  45
HETATM   45  C19 UNL     1      -4.967   1.603   1.128  1.00  0.00     0.193 C 
BRANCH  45  46
HETATM   46  C20 UNL     1      -6.238   1.475   1.886  1.00  0.00     0.179 C 
HETATM   47  O6  UNL     1      -7.280   1.093   1.339  1.00  0.00    -0.648 OA
HETATM   48  O7  UNL     1      -6.286   1.785   3.248  1.00  0.00    -0.648 OA
ENDBRANCH  45  46
ENDBRANCH  43  45
ENDBRANCH   9  43
TORSDOF 7
