REMARK  9 active torsions:
REMARK  status: ('A' for Active; 'I' for Inactive)
REMARK    1  A    between atoms: C7_7  and  C28_43 
REMARK    2  A    between atoms: C10_10  and  C11_11 
REMARK    3  A    between atoms: C13_13  and  C14_14 
REMARK       I    between atoms: C14_14  and  N1_16 
REMARK    4  A    between atoms: N2_19  and  S1_20 
REMARK    5  A    between atoms: C18_24  and  C19_25 
REMARK    6  A    between atoms: C19_25  and  N4_29 
REMARK    7  A    between atoms: N4_29  and  C20_31 
REMARK    8  A    between atoms: C25_36  and  O4_37 
REMARK    9  A    between atoms: C26_39  and  O5_40 
ROOT
HETATM    1  C14 UNL     1      -0.167   0.159  -1.114  1.00  0.00     0.224 C 
HETATM    2  O1  UNL     1      -0.131   1.078  -1.959  1.00  0.00    -0.273 OA
HETATM    3  N1  UNL     1      -1.070  -0.897  -1.329  1.00  0.00    -0.348 N 
HETATM    4  C15 UNL     1      -1.918  -0.999  -2.485  1.00  0.00     0.146 C 
HETATM    5  C16 UNL     1      -2.533  -2.338  -2.683  1.00  0.00     0.156 C 
HETATM    6  N2  UNL     1      -2.995  -3.027  -1.537  1.00  0.00    -0.296 N 
HETATM    7  C18 UNL     1      -2.437  -2.665  -0.279  1.00  0.00     0.180 C 
HETATM    8  C27 UNL     1      -1.159  -1.912  -0.309  1.00  0.00     0.159 C 
ENDROOT
BRANCH   1   9
HETATM    9  C13 UNL     1       0.706   0.204   0.044  1.00  0.00     0.087 C 
HETATM   10  C12 UNL     1       1.658  -0.900   0.315  1.00  0.00     0.020 C 
HETATM   11  C11 UNL     1       2.966  -0.262   0.858  1.00  0.00     0.000 C 
HETATM   12  C30 UNL     1       2.339   0.969   1.381  1.00  0.00    -0.035 C 
HETATM   13  C28 UNL     1       1.729   1.348   0.034  1.00  0.00    -0.021 C 
HETATM   14  C31 UNL     1       2.972   2.015   2.131  1.00  0.00     0.016 C 
HETATM   15  C32 UNL     1       1.271   0.524   2.394  1.00  0.00     0.016 C 
HETATM   16  C29 UNL     1       0.961   2.626   0.261  1.00  0.00     0.017 C 
BRANCH  11  17
HETATM   17  C10 UNL     1       4.117  -0.306  -0.002  1.00  0.00     0.007 C 
HETATM   18  C5  UNL     1       4.930   0.934  -0.323  1.00  0.00     0.032 C 
HETATM   19  C4  UNL     1       6.025   0.593  -1.359  1.00  0.00     0.045 C 
HETATM   20  C6  UNL     1       4.050   1.946  -0.863  1.00  0.00     0.023 C 
HETATM   21  C33 UNL     1       5.996   1.242   0.656  1.00  0.00     0.164 C 
HETATM   22  C3  UNL     1       6.813  -0.415  -0.669  1.00  0.00    -0.015 C 
HETATM   23  C2  UNL     1       6.803  -0.007   0.612  1.00  0.00    -0.019 C 
HETATM   24  C1  UNL     1       7.465  -0.675   1.763  1.00  0.00     0.052 C 
HETATM   25  C7  UNL     1       2.631   1.374  -1.101  1.00  0.00    -0.004 C 
HETATM   26  C8  UNL     1       2.920   0.240  -1.999  1.00  0.00     0.006 C 
HETATM   27  C9  UNL     1       3.799  -0.835  -1.413  1.00  0.00     0.007 C 
HETATM   28  O6  UNL     1       6.284   2.198   1.379  1.00  0.00    -0.292 OA
ENDBRANCH  11  17
ENDBRANCH   1   9
BRANCH   7  29
HETATM   29  C19 UNL     1      -3.417  -1.921   0.555  1.00  0.00     0.096 C 
HETATM   30  N3  UNL     1      -3.499  -2.229   1.807  1.00  0.00    -0.387 N 
ATOM     31  H32 UNL     1      -2.888  -2.972   2.145  1.00  0.00     0.157 HD
ATOM     32  H31 UNL     1      -4.171  -1.718   2.379  1.00  0.00     0.157 HD
BRANCH  29  33
HETATM   33  N4  UNL     1      -4.263  -0.892   0.087  1.00  0.00    -0.371 N 
ATOM     34  H4  UNL     1      -4.726  -1.067  -0.805  1.00  0.00     0.161 HD
BRANCH  33  35
HETATM   35  C20 UNL     1      -4.552   0.360   0.702  1.00  0.00     0.114 C 
HETATM   36  C21 UNL     1      -3.348   1.226   0.911  1.00  0.00     0.028 C 
HETATM   37  C22 UNL     1      -3.491   1.981   2.223  1.00  0.00     0.002 C 
HETATM   38  C23 UNL     1      -4.314   3.230   2.074  1.00  0.00     0.003 C 
HETATM   39  C24 UNL     1      -5.726   2.851   1.677  1.00  0.00     0.034 C 
HETATM   40  C25 UNL     1      -5.796   2.512   0.223  1.00  0.00     0.148 C 
HETATM   41  C26 UNL     1      -5.595   1.077  -0.104  1.00  0.00     0.169 C 
BRANCH  40  42
HETATM   42  O4  UNL     1      -7.044   2.922  -0.251  1.00  0.00    -0.393 OA
ATOM     43  H4  UNL     1      -7.088   2.707  -1.175  1.00  0.00     0.210 HD
ENDBRANCH  40  42
BRANCH  41  44
HETATM   44  O5  UNL     1      -6.782   0.316  -0.003  1.00  0.00    -0.391 OA
ATOM     45  H5  UNL     1      -7.442   0.770  -0.513  1.00  0.00     0.210 HD
ENDBRANCH  41  44
ENDBRANCH  33  35
ENDBRANCH  29  33
ENDBRANCH   7  29
BRANCH   6  46
HETATM   46  S1  UNL     1      -3.142  -4.715  -1.734  1.00  0.00     0.225 S 
HETATM   47  C17 UNL     1      -1.618  -5.505  -2.104  1.00  0.00     0.186 C 
HETATM   48  O2  UNL     1      -3.777  -5.353  -0.512  1.00  0.00    -0.206 OA
HETATM   49  O3  UNL     1      -4.108  -4.992  -2.874  1.00  0.00    -0.206 OA
ENDBRANCH   6  46
TORSDOF 9
