REMARK  8 active torsions:
REMARK  status: ('A' for Active; 'I' for Inactive)
REMARK    1  A    between atoms: C2_2  and  C4_4 
REMARK    2  A    between atoms: C5_5  and  C6_6 
REMARK    3  A    between atoms: C16_16  and  O1_17 
REMARK    4  A    between atoms: C17_19  and  N1_20 
REMARK    5  A    between atoms: N1_20  and  N2_22 
REMARK       I    between atoms: N2_22  and  C19_24 
REMARK       I    between atoms: C19_24  and  N3_26 
REMARK    6  A    between atoms: N3_26  and  C20_28 
REMARK    7  A    between atoms: C20_28  and  C21_29 
REMARK    8  A    between atoms: C29_42  and  N5_43 
REMARK       I    between atoms: N5_43  and  C30_45 
ROOT
HETATM    1  C6  UNL     1      -3.308  -2.839   0.191  1.00  0.00     0.040 A 
HETATM    2  C7  UNL     1      -4.234  -2.063   1.014  1.00  0.00     0.024 C 
HETATM    3  C8  UNL     1      -4.833  -0.819   0.372  1.00  0.00     0.007 C 
HETATM    4  C9  UNL     1      -3.927   0.095  -0.357  1.00  0.00    -0.001 C 
HETATM    5  C10 UNL     1      -3.076  -0.952  -1.146  1.00  0.00    -0.003 C 
HETATM    6  C11 UNL     1      -2.269  -0.135  -2.103  1.00  0.00     0.006 C 
HETATM    7  C12 UNL     1      -1.189   0.432  -1.185  1.00  0.00     0.006 C 
HETATM    8  C13 UNL     1      -1.766   1.383  -0.212  1.00  0.00     0.001 C 
HETATM    9  C14 UNL     1      -0.889   1.770   0.955  1.00  0.00     0.023 C 
HETATM   10  C15 UNL     1       0.475   1.241   0.914  1.00  0.00     0.041 C 
HETATM   11  C16 UNL     1       0.855   0.231   1.977  1.00  0.00     0.150 C 
HETATM   12  C17 UNL     1       0.941  -1.212   1.623  1.00  0.00     0.208 C 
HETATM   13  C25 UNL     1      -0.311  -1.974   2.051  1.00  0.00     0.221 C 
HETATM   14  O3  UNL     1      -0.701  -1.543   3.201  1.00  0.00    -0.287 OA
HETATM   15  C26 UNL     1      -1.013  -3.011   1.370  1.00  0.00     0.203 C 
HETATM   16  O4  UNL     1      -0.983  -4.234   1.793  1.00  0.00    -0.289 OA
HETATM   17  C27 UNL     1      -1.873  -2.931   0.123  1.00  0.00     0.091 A 
HETATM   18  C28 UNL     1      -2.325  -1.674  -0.202  1.00  0.00     0.025 A 
HETATM   19  C29 UNL     1      -1.204   3.213   1.151  1.00  0.00     0.159 C 
HETATM   20  C32 UNL     1      -2.629   3.479   0.791  1.00  0.00     0.154 C 
HETATM   21  O6  UNL     1      -3.002   4.645   0.985  1.00  0.00    -0.295 OA
HETATM   22  C33 UNL     1      -3.689   2.576   0.234  1.00  0.00     0.062 C 
HETATM   23  C34 UNL     1      -4.086   2.969  -1.136  1.00  0.00     0.018 C 
HETATM   24  C35 UNL     1      -3.132   1.125   0.340  1.00  0.00    -0.026 C 
HETATM   25  C36 UNL     1      -3.322   0.986   1.814  1.00  0.00     0.016 C 
ENDROOT
BRANCH  12  26
HETATM   26  N1  UNL     1       2.079  -1.783   2.219  1.00  0.00    -0.313 N 
HETATM   27  C18 UNL     1       2.081  -1.803   3.660  1.00  0.00     0.172 C 
BRANCH  26  28
HETATM   28  N2  UNL     1       3.325  -1.502   1.759  1.00  0.00    -0.253 N 
HETATM   29  C19 UNL     1       3.770  -1.080   0.495  1.00  0.00     0.334 C 
HETATM   30  O2  UNL     1       3.015  -0.880  -0.457  1.00  0.00    -0.246 OA
HETATM   31  N3  UNL     1       5.177  -0.854   0.237  1.00  0.00    -0.340 N 
ATOM     32  H3  UNL     1       5.841  -1.017   0.994  1.00  0.00     0.164 HD
ATOM     33  H2  UNL     1       4.066  -1.617   2.450  1.00  0.00     0.191 HD
BRANCH  31  34
HETATM   34  C20 UNL     1       5.681  -0.413  -1.028  1.00  0.00     0.157 C 
BRANCH  34  35
HETATM   35  C21 UNL     1       7.185  -0.284  -0.955  1.00  0.00     0.203 C 
HETATM   36  C22 UNL     1       7.623   0.713   0.098  1.00  0.00     0.036 C 
HETATM   37  C23 UNL     1       8.882   1.337  -0.491  1.00  0.00     0.029 C 
HETATM   38  C24 UNL     1       9.054   0.742  -1.853  1.00  0.00     0.233 C 
HETATM   39  N4  UNL     1       7.723   0.234  -2.189  1.00  0.00    -0.069 N 
ATOM     40  H42 UNL     1       7.723  -0.443  -2.952  1.00  0.00     0.277 HD
ATOM     41  H41 UNL     1       7.123   0.924  -2.640  1.00  0.00     0.277 HD
ENDBRANCH  34  35
ENDBRANCH  31  34
ENDBRANCH  26  28
ENDBRANCH  12  26
BRANCH  11  42
HETATM   42  O1  UNL     1       2.095   0.666   2.520  1.00  0.00    -0.393 OA
ATOM     43  H1  UNL     1       2.333   0.033   3.187  1.00  0.00     0.210 HD
ENDBRANCH  11  42
BRANCH  19  44
HETATM   44  N5  UNL     1      -0.311   3.989   0.283  1.00  0.00    -0.350 N 
HETATM   45  C30 UNL     1       0.483   5.040   0.781  1.00  0.00     0.214 C 
HETATM   46  C31 UNL     1       1.378   5.810  -0.120  1.00  0.00     0.117 C 
HETATM   47  O5  UNL     1       0.457   5.359   2.012  1.00  0.00    -0.274 OA
ATOM     48  H5  UNL     1      -0.264   3.761  -0.710  1.00  0.00     0.163 HD
ENDBRANCH  19  44
BRANCH   1  49
HETATM   49  C5  UNL     1      -4.015  -3.473  -0.935  1.00  0.00    -0.090 C 
HETATM   50  C4  UNL     1      -4.579  -4.011  -1.878  1.00  0.00    -0.072 C 
BRANCH  50  51
HETATM   51  C2  UNL     1      -5.242  -4.624  -3.004  1.00  0.00    -0.018 C 
HETATM   52  C1  UNL     1      -5.486  -3.921  -4.082  1.00  0.00     0.028 C 
HETATM   53  C3  UNL     1      -5.661  -6.053  -2.973  1.00  0.00     0.057 C 
ENDBRANCH  50  51
ENDBRANCH   1  49
TORSDOF 8
