REMARK  5 active torsions:
REMARK  status: ('A' for Active; 'I' for Inactive)
REMARK       I    between atoms: C2_2  and  N1_4 
REMARK    1  A    between atoms: C11_16  and  C12_17 
REMARK    2  A    between atoms: C12_17  and  O3_18 
REMARK    3  A    between atoms: C12_17  and  N3_20 
REMARK       I    between atoms: N4_23  and  C15_24 
REMARK    4  A    between atoms: C15_24  and  C16_26 
REMARK    5  A    between atoms: C16_26  and  O5_29 
ROOT
HETATM    1  C1  UNL     1      -8.537   2.399   0.979  1.00  0.00     0.117 C 
HETATM    2  C2  UNL     1      -8.053   1.043   0.642  1.00  0.00     0.215 C 
HETATM    3  O1  UNL     1      -8.655   0.086   1.228  1.00  0.00    -0.274 OA
HETATM    4  N1  UNL     1      -7.016   0.717  -0.246  1.00  0.00    -0.352 N 
HETATM    5  C3  UNL     1      -6.253   1.720  -0.917  1.00  0.00     0.126 C 
HETATM    6  C4  UNL     1      -5.524   2.704  -0.086  1.00  0.00     0.021 C 
HETATM    7  C5  UNL     1      -4.943   2.242   1.200  1.00  0.00     0.021 C 
HETATM    8  C6  UNL     1      -3.509   1.817   1.164  1.00  0.00     0.122 C 
HETATM    9  N2  UNL     1      -2.899   1.763  -0.120  1.00  0.00    -0.361 N 
ATOM     10  H2  UNL     1      -3.470   1.809  -0.964  1.00  0.00     0.162 HD
HETATM   11  C7  UNL     1      -1.481   1.644  -0.215  1.00  0.00     0.221 C 
HETATM   12  O2  UNL     1      -0.844   2.095  -1.213  1.00  0.00    -0.273 OA
HETATM   13  C8  UNL     1      -0.696   0.983   0.856  1.00  0.00     0.137 C 
HETATM   14  C9  UNL     1       0.788   0.988   0.491  1.00  0.00    -0.065 C 
HETATM   15  C10 UNL     1       1.476   2.234   0.832  1.00  0.00     0.044 C 
HETATM   16  C11 UNL     1       1.309  -0.030  -0.125  1.00  0.00    -0.005 C 
HETATM   17  C21 UNL     1       0.349  -1.206  -0.451  1.00  0.00     0.043 C 
HETATM   18  C22 UNL     1       0.432  -2.262   0.582  1.00  0.00     0.006 C 
HETATM   19  C23 UNL     1      -0.837  -3.074   0.715  1.00  0.00     0.020 C 
HETATM   20  C24 UNL     1      -1.103  -3.963  -0.479  1.00  0.00     0.122 C 
HETATM   21  N5  UNL     1      -2.147  -3.470  -1.330  1.00  0.00    -0.361 N 
ATOM     22  H5  UNL     1      -2.018  -3.599  -2.334  1.00  0.00     0.162 HD
HETATM   23  C25 UNL     1      -3.333  -2.826  -0.923  1.00  0.00     0.217 C 
HETATM   24  O6  UNL     1      -3.668  -1.739  -1.509  1.00  0.00    -0.274 OA
HETATM   25  C26 UNL     1      -4.251  -3.294   0.141  1.00  0.00     0.103 C 
HETATM   26  C27 UNL     1      -5.680  -2.822  -0.078  1.00  0.00     0.011 C 
HETATM   27  C28 UNL     1      -5.826  -1.370   0.396  1.00  0.00     0.020 C 
HETATM   28  C29 UNL     1      -6.746  -0.672  -0.535  1.00  0.00     0.125 C 
ENDROOT
BRANCH  16  29
HETATM   29  C12 UNL     1       2.643  -0.231  -0.542  1.00  0.00     0.144 C 
BRANCH  29  30
HETATM   30  O3  UNL     1       2.655  -1.428  -1.239  1.00  0.00    -0.346 OA
ATOM     31  H3  UNL     1       3.552  -1.563  -1.520  1.00  0.00     0.219 HD
ENDBRANCH  29  30
BRANCH  29  32
HETATM   32  N3  UNL     1       3.921   0.271  -0.537  1.00  0.00    -0.355 N 
HETATM   33  C13 UNL     1       4.926  -0.492  -1.403  1.00  0.00     0.145 C 
HETATM   34  C14 UNL     1       5.839  -1.102  -0.360  1.00  0.00     0.151 C 
HETATM   35  N4  UNL     1       6.696   0.015   0.053  1.00  0.00    -0.326 N 
HETATM   36  C15 UNL     1       8.046  -0.243   0.205  1.00  0.00     0.257 C 
HETATM   37  C19 UNL     1       6.079   1.257   0.262  1.00  0.00     0.086 C 
HETATM   38  O4  UNL     1       8.471  -1.442   0.011  1.00  0.00    -0.270 OA
HETATM   39  C20 UNL     1       4.565   1.319   0.155  1.00  0.00     0.169 C 
BRANCH  36  40
HETATM   40  C16 UNL     1       9.058   0.741   0.572  1.00  0.00     0.131 C 
HETATM   41  C17 UNL     1      10.229   0.752  -0.408  1.00  0.00     0.056 C 
HETATM   42  C18 UNL     1       9.642   0.318   1.919  1.00  0.00     0.056 C 
BRANCH  40  43
HETATM   43  O5  UNL     1       8.605   2.035   0.683  1.00  0.00    -0.381 OA
ATOM     44  H5  UNL     1       9.264   2.676   0.922  1.00  0.00     0.211 HD
ENDBRANCH  40  43
ENDBRANCH  36  40
ENDBRANCH  29  32
ENDBRANCH  16  29
TORSDOF 5
