REMARK  5 active torsions:
REMARK  status: ('A' for Active; 'I' for Inactive)
REMARK    1  A    between atoms: C2_2  and  C5_5 
REMARK    2  A    between atoms: C16_19  and  O1_20 
REMARK    3  A    between atoms: C16_19  and  N4_22 
REMARK    4  A    between atoms: N4_22  and  C17_24 
REMARK    5  A    between atoms: C22_29  and  O2_30 
ROOT
HETATM    1  C5  UNL     1      -4.819   0.615  -0.014  1.00  0.00    -0.007 C 
HETATM    2  C6  UNL     1      -3.707   1.345   0.649  1.00  0.00     0.007 C 
HETATM    3  C7  UNL     1      -2.425   1.336  -0.132  1.00  0.00     0.027 C 
HETATM    4  C8  UNL     1      -1.883  -0.089  -0.336  1.00  0.00     0.086 C 
HETATM    5  C9  UNL     1      -3.073  -0.936  -0.728  1.00  0.00     0.027 C 
HETATM    6  C10 UNL     1      -4.250  -0.098  -1.217  1.00  0.00     0.007 C 
HETATM    7  C11 UNL     1      -0.789  -0.097  -1.332  1.00  0.00     0.153 C 
HETATM    8  C12 UNL     1      -0.886  -1.108  -2.376  1.00  0.00     0.069 C 
HETATM    9  N1  UNL     1      -0.947  -1.929  -3.197  1.00  0.00    -0.197 NA
HETATM   10  C13 UNL     1       0.605   0.122  -0.799  1.00  0.00     0.214 C 
HETATM   11  C14 UNL     1       1.399   0.320  -2.035  1.00  0.00     0.086 C 
HETATM   12  N2  UNL     1       2.048   0.480  -3.002  1.00  0.00    -0.195 NA
HETATM   13  N3  UNL     1       1.160  -0.840   0.035  1.00  0.00    -0.326 N 
HETATM   14  C15 UNL     1       2.439  -0.753   0.564  1.00  0.00     0.096 C 
HETATM   15  C16 UNL     1       3.287   0.390   0.640  1.00  0.00     0.162 C 
HETATM   16  C22 UNL     1       3.185  -2.066   0.211  1.00  0.00     0.104 C 
HETATM   17  C23 UNL     1       2.589  -2.789  -0.952  1.00  0.00     0.045 C 
HETATM   18  C24 UNL     1       2.656  -4.299  -0.759  1.00  0.00     0.009 C 
HETATM   19  C25 UNL     1       1.376  -4.709  -0.109  1.00  0.00     0.052 C 
HETATM   20  C26 UNL     1       0.981  -3.866   1.100  1.00  0.00    -0.015 C 
HETATM   21  C27 UNL     1       2.103  -3.541   1.983  1.00  0.00     0.055 C 
HETATM   22  C28 UNL     1       3.330  -2.944   1.438  1.00  0.00     0.050 C 
HETATM   23  N5  UNL     1      -0.008  -2.869   0.804  1.00  0.00    -0.363 N 
ATOM     24  H5  UNL     1      -0.931  -3.157   0.479  1.00  0.00     0.162 HD
HETATM   25  C29 UNL     1       0.277  -1.505   0.955  1.00  0.00     0.312 C 
HETATM   26  S1  UNL     1      -1.244  -0.584   1.226  1.00  0.00     0.194 S 
HETATM   27  O3  UNL     1      -1.058   0.546   2.175  1.00  0.00    -0.223 OA
HETATM   28  O4  UNL     1      -2.227  -1.556   1.848  1.00  0.00    -0.223 OA
ENDROOT
BRANCH   1  29
HETATM   29  C2  UNL     1      -6.008   1.466  -0.362  1.00  0.00    -0.048 C 
HETATM   30  C1  UNL     1      -5.695   2.593  -1.297  1.00  0.00     0.015 C 
HETATM   31  C3  UNL     1      -7.057   0.591  -1.043  1.00  0.00     0.015 C 
HETATM   32  C4  UNL     1      -6.655   2.046   0.874  1.00  0.00     0.015 C 
ENDBRANCH   1  29
BRANCH  15  33
HETATM   33  O1  UNL     1       4.497   0.081   1.103  1.00  0.00    -0.345 OA
ATOM     34  H1  UNL     1       5.062   0.843   1.154  1.00  0.00     0.219 HD
ENDBRANCH  15  33
BRANCH  15  35
HETATM   35  N4  UNL     1       3.258   1.747   0.386  1.00  0.00    -0.365 N 
ATOM     36  H4  UNL     1       2.385   2.138   0.030  1.00  0.00     0.162 HD
BRANCH  35  37
HETATM   37  C17 UNL     1       4.367   2.665   0.583  1.00  0.00     0.083 C 
HETATM   38  C18 UNL     1       4.858   3.276  -0.694  1.00  0.00     0.025 C 
HETATM   39  C19 UNL     1       5.876   4.277  -0.138  1.00  0.00     0.002 C 
HETATM   40  C20 UNL     1       5.310   4.697   1.213  1.00  0.00     0.002 C 
HETATM   41  C21 UNL     1       4.081   3.838   1.441  1.00  0.00     0.025 C 
ENDBRANCH  35  37
ENDBRANCH  15  35
BRANCH  16  42
HETATM   42  O2  UNL     1       4.500  -1.807  -0.191  1.00  0.00    -0.383 OA
ATOM     43  H2  UNL     1       4.957  -2.611  -0.407  1.00  0.00     0.211 HD
ENDBRANCH  16  42
TORSDOF 5
