REMARK  4 active torsions:
REMARK  status: ('A' for Active; 'I' for Inactive)
REMARK    1  A    between atoms: N1_1  and  N2_4 
REMARK    2  A    between atoms: N2_4  and  N3_6 
REMARK    3  A    between atoms: C1_8  and  C2_9 
REMARK    4  A    between atoms: C2_9  and  N4_10 
ROOT
HETATM    1  N3  UNL     1       1.904  -0.215  -0.083  1.00  0.00    -0.300 N 
ATOM      2  H3  UNL     1       1.811  -0.709  -0.970  1.00  0.00     0.187 HD
HETATM    3  C1  UNL     1       0.904  -0.226   0.696  1.00  0.00     0.104 C 
ENDROOT
BRANCH   1   4
HETATM    4  N2  UNL     1       3.111   0.411   0.170  1.00  0.00    -0.250 N 
ATOM      5  H2  UNL     1       3.895  -0.149   0.505  1.00  0.00     0.207 HD
BRANCH   4   6
HETATM    6  N1  UNL     1       3.280   1.677  -0.003  1.00  0.00    -0.331 N 
ATOM      7  H12 UNL     1       2.486   2.222  -0.339  1.00  0.00     0.178 HD
ATOM      8  H11 UNL     1       4.170   2.139   0.184  1.00  0.00     0.178 HD
ENDBRANCH   4   6
ENDBRANCH   1   4
BRANCH   3   9
HETATM    9  C2  UNL     1      -0.340  -0.932   0.316  1.00  0.00     0.212 C 
BRANCH   9  10
HETATM   10  N4  UNL     1      -1.504  -0.049   0.415  1.00  0.00    -0.182 N 
HETATM   11  N5  UNL     1      -2.372   0.255   1.364  1.00  0.00     0.061 NA
HETATM   12  O1  UNL     1      -2.989   1.068   0.561  1.00  0.00    -0.125 OA
HETATM   13  N6  UNL     1      -2.151   0.785  -0.381  1.00  0.00     0.061 NA
ENDBRANCH   9  10
ENDBRANCH   3   9
TORSDOF 4
