REMARK  2 active torsions:
REMARK  status: ('A' for Active; 'I' for Inactive)
REMARK    1  A    between atoms: N1_1  and  C1_5 
REMARK    2  A    between atoms: C4_8  and  N2_9 
ROOT
HETATM    1  C1  UNL     1      -2.624   0.265   0.360  1.00  0.00     0.185 C 
HETATM    2  C2  UNL     1      -2.441  -1.198   0.029  1.00  0.00     0.035 C 
HETATM    3  C3  UNL     1      -0.956  -1.433  -0.079  1.00  0.00     0.038 C 
HETATM    4  C4  UNL     1      -0.333  -0.134   0.347  1.00  0.00     0.225 C 
HETATM    5  C9  UNL     1      -1.314   0.876  -0.160  1.00  0.00     0.068 C 
ENDROOT
BRANCH   4   6
HETATM    6  N2  UNL     1       1.011   0.038  -0.191  1.00  0.00     0.094 N 
HETATM    7  C5  UNL     1       1.805  -1.026   0.359  1.00  0.00     0.283 C 
HETATM    8  C6  UNL     1       3.187  -1.122  -0.296  1.00  0.00     0.104 C 
HETATM    9  S1  UNL     1       4.025   0.443   0.166  1.00  0.00    -0.166 SA
HETATM   10  C7  UNL     1       2.812   1.746  -0.182  1.00  0.00     0.104 C 
HETATM   11  C8  UNL     1       1.427   1.357   0.184  1.00  0.00     0.283 C 
ENDBRANCH   4   6
BRANCH   1  12
HETATM   12  N1  UNL     1      -3.687   0.865  -0.419  1.00  0.00    -0.075 N 
ATOM     13  H13 UNL     1      -3.538   0.727  -1.419  1.00  0.00     0.274 HD
ATOM     14  H12 UNL     1      -4.560   0.349  -0.314  1.00  0.00     0.274 HD
ATOM     15  H11 UNL     1      -3.811   1.853  -0.196  1.00  0.00     0.274 HD
ENDBRANCH   1  12
TORSDOF 2
