REMARK  4 active torsions:
REMARK  status: ('A' for Active; 'I' for Inactive)
REMARK    1  A    between atoms: C3_3  and  C4_4 
REMARK    2  A    between atoms: C4_4  and  C5_5 
REMARK    3  A    between atoms: N4_12  and  N5_13 
REMARK    4  A    between atoms: N5_13  and  C6_15 
ROOT
HETATM    1  C5  UNL     1       1.475   1.448   0.196  1.00  0.00     0.139 A 
HETATM    2  N1  UNL     1       1.861   2.752   0.132  1.00  0.00    -0.270 N 
ATOM      3  H1  UNL     1       2.700   3.126  -0.311  1.00  0.00     0.190 HD
HETATM    4  N2  UNL     1       0.919   3.431   0.765  1.00  0.00    -0.225 N 
ATOM      5  H2  UNL     1       0.918   4.443   0.892  1.00  0.00     0.210 HD
HETATM    6  N3  UNL     1      -0.012   2.623   1.206  1.00  0.00    -0.205 N 
ATOM      7  H3  UNL     1      -0.845   2.901   1.724  1.00  0.00     0.212 HD
HETATM    8  N4  UNL     1       0.309   1.386   0.867  1.00  0.00    -0.167 N 
ENDROOT
BRANCH   8   9
HETATM    9  N5  UNL     1      -0.366   0.188   1.112  1.00  0.00    -0.285 N 
ATOM     10  H5  UNL     1      -0.096  -0.379   1.916  1.00  0.00     0.188 HD
BRANCH   9  11
HETATM   11  C6  UNL     1      -1.317  -0.217   0.351  1.00  0.00     0.009 C 
HETATM   12  C7  UNL     1      -1.710   0.609  -0.818  1.00  0.00     0.087 C 
HETATM   13  C8  UNL     1      -3.150   0.259  -1.183  1.00  0.00     0.193 C 
HETATM   14  C9  UNL     1      -3.951   0.087   0.091  1.00  0.00     0.066 C 
HETATM   15  N6  UNL     1      -3.323  -1.146  -1.430  1.00  0.00    -0.066 N 
HETATM   16  C10 UNL     1      -3.450  -1.333   0.011  1.00  0.00     0.193 C 
HETATM   17  C11 UNL     1      -2.058  -1.481   0.576  1.00  0.00     0.087 C 
ATOM     18  H62 UNL     1      -4.047  -1.480  -2.067  1.00  0.00     0.278 HD
ATOM     19  H61 UNL     1      -2.633  -1.672  -1.967  1.00  0.00     0.278 HD
ENDBRANCH   9  11
ENDBRANCH   8   9
BRANCH   1  20
HETATM   20  C4  UNL     1       2.227   0.305  -0.382  1.00  0.00     0.086 C 
BRANCH  20  21
HETATM   21  C3  UNL     1       3.205  -0.261   0.618  1.00  0.00    -0.007 A 
HETATM   22  C1  UNL     1       4.059  -1.408   0.250  1.00  0.00     0.005 A 
HETATM   23  C2  UNL     1       4.632   0.026   0.430  1.00  0.00     0.005 A 
ENDBRANCH  20  21
ENDBRANCH   1  20
TORSDOF 4
