REMARK  3 active torsions:
REMARK  status: ('A' for Active; 'I' for Inactive)
REMARK    1  A    between atoms: N1_4  and  C4_5 
REMARK    2  A    between atoms: C4_5  and  C5_6 
REMARK       I    between atoms: C5_6  and  N2_8 
REMARK    3  A    between atoms: N2_8  and  N3_10 
ROOT
HETATM    1  C5  UNL     1       0.805   1.075  -0.178  1.00  0.00     0.255 C 
HETATM    2  O1  UNL     1       0.883   0.114   0.639  1.00  0.00    -0.270 OA
HETATM    3  N2  UNL     1      -0.346   1.874  -0.153  1.00  0.00    -0.269 N 
ATOM      4  H2  UNL     1      -0.416   2.651  -0.810  1.00  0.00     0.190 HD
ENDROOT
BRANCH   1   5
HETATM    5  C4  UNL     1       1.902   1.352  -1.140  1.00  0.00     0.254 C 
BRANCH   5   6
HETATM    6  N1  UNL     1       2.951   0.382  -0.944  1.00  0.00    -0.278 N 
HETATM    7  C3  UNL     1       4.009   0.483  -0.114  1.00  0.00     0.138 A 
HETATM    8  C2  UNL     1       4.786  -0.651  -0.212  1.00  0.00     0.040 A 
HETATM    9  C1  UNL     1       6.044  -0.999   0.501  1.00  0.00     0.071 C 
HETATM   10  N5  UNL     1       4.148  -1.428  -1.130  1.00  0.00    -0.289 N 
HETATM   11  N4  UNL     1       3.070  -0.800  -1.548  1.00  0.00    -0.240 N 
ATOM     12  H5  UNL     1       4.456  -2.349  -1.443  1.00  0.00     0.188 HD
ATOM     13  H4  UNL     1       2.416  -1.167  -2.239  1.00  0.00     0.208 HD
ENDBRANCH   5   6
ENDBRANCH   1   5
BRANCH   3  14
HETATM   14  N3  UNL     1      -1.400   1.652   0.732  1.00  0.00    -0.306 N 
HETATM   15  C6  UNL     1      -2.371   0.855   0.448  1.00  0.00     0.004 C 
HETATM   16  C7  UNL     1      -3.474   0.628   1.383  1.00  0.00     0.054 C 
HETATM   17  C11 UNL     1      -2.357   0.160  -0.862  1.00  0.00     0.054 C 
HETATM   18  C8  UNL     1      -4.099  -0.721   1.303  1.00  0.00     0.006 C 
HETATM   19  C9  UNL     1      -4.103  -1.331  -0.059  1.00  0.00     0.001 C 
HETATM   20  C10 UNL     1      -2.663  -1.310  -0.570  1.00  0.00     0.006 C 
ATOM     21  H3  UNL     1      -1.402   2.135   1.631  1.00  0.00     0.186 HD
ENDBRANCH   3  14
TORSDOF 3
