REMARK  3 active torsions:
REMARK  status: ('A' for Active; 'I' for Inactive)
REMARK    1  A    between atoms: N1_2  and  O1_3 
REMARK    2  A    between atoms: N1_2  and  C2_5 
REMARK    3  A    between atoms: C3_6  and  C4_7 
ROOT
HETATM    1  C2  UNL     1       1.311   0.228   0.313  1.00  0.00     0.122 C 
HETATM    2  C3  UNL     1       1.411  -1.109  -0.317  1.00  0.00     0.072 C 
HETATM    3  C5  UNL     1       0.209  -1.905   0.112  1.00  0.00     0.014 C 
HETATM    4  C6  UNL     1      -1.044  -1.719  -0.612  1.00  0.00     0.006 C 
HETATM    5  C7  UNL     1      -1.455  -0.395  -1.066  1.00  0.00    -0.006 C 
HETATM    6  C8  UNL     1      -0.394   0.547  -1.523  1.00  0.00     0.012 C 
HETATM    7  C9  UNL     1       0.171   1.057  -0.248  1.00  0.00     0.012 C 
HETATM    8  C10 UNL     1      -1.031   1.088   0.695  1.00  0.00     0.015 C 
HETATM    9  C11 UNL     1      -2.178   0.467  -0.044  1.00  0.00    -0.044 C 
HETATM   10  C12 UNL     1      -2.939   1.524  -0.855  1.00  0.00     0.015 C 
HETATM   11  C13 UNL     1      -3.134  -0.273   0.807  1.00  0.00     0.015 C 
ENDROOT
BRANCH   1  12
HETATM   12  N1  UNL     1       2.448   1.052   0.364  1.00  0.00    -0.295 N 
HETATM   13  C1  UNL     1       3.579   0.683   1.113  1.00  0.00     0.178 C 
BRANCH  12  14
HETATM   14  O1  UNL     1       2.733   1.637  -0.820  1.00  0.00    -0.292 OA
ATOM     15  H1  UNL     1       1.969   1.886  -1.326  1.00  0.00     0.244 HD
ENDBRANCH  12  14
ENDBRANCH   1  12
BRANCH   2  16
HETATM   16  C4  UNL     1       2.591  -1.836   0.201  1.00  0.00     0.237 C 
HETATM   17  O2  UNL     1       2.530  -2.694   1.093  1.00  0.00    -0.306 OA
ENDBRANCH   2  16
TORSDOF 3
