REMARK  7 active torsions:
REMARK  status: ('A' for Active; 'I' for Inactive)
REMARK    1  A    between atoms: O1_1  and  C1_3 
REMARK    2  A    between atoms: C1_3  and  C2_4 
REMARK    3  A    between atoms: C4_6  and  O2_7 
REMARK    4  A    between atoms: O2_7  and  C5_8 
REMARK    5  A    between atoms: C7_10  and  O3_11 
REMARK    6  A    between atoms: C10_15  and  O4_16 
REMARK    7  A    between atoms: C11_19  and  O6_20 
ROOT
HETATM    1  O2  UNL     1      -0.400  -0.584  -0.951  1.00  0.00    -0.353 OA
ENDROOT
BRANCH   1   2
HETATM    2  C4  UNL     1       0.777  -0.298  -0.265  1.00  0.00     0.264 C 
HETATM    3  C3  UNL     1       1.708   0.584  -1.046  1.00  0.00     0.072 C 
HETATM    4  C2  UNL     1       3.069   0.084  -0.612  1.00  0.00     0.069 C 
HETATM    5  C11 UNL     1       2.716  -1.081   0.289  1.00  0.00     0.266 C 
HETATM    6  O5  UNL     1       1.510  -1.502  -0.233  1.00  0.00    -0.331 OA
BRANCH   4   7
HETATM    7  C1  UNL     1       3.799   1.098   0.251  1.00  0.00     0.173 C 
BRANCH   7   8
HETATM    8  O1  UNL     1       5.032   0.508   0.578  1.00  0.00    -0.400 OA
ATOM      9  H1  UNL     1       5.489   1.142   1.118  1.00  0.00     0.209 HD
ENDBRANCH   7   8
ENDBRANCH   4   7
BRANCH   5  10
HETATM   10  O6  UNL     1       3.644  -2.112   0.196  1.00  0.00    -0.371 OA
ATOM     11  H6  UNL     1       3.423  -2.843   0.761  1.00  0.00     0.212 HD
ENDBRANCH   5  10
ENDBRANCH   1   2
BRANCH   1  12
HETATM   12  C5  UNL     1      -1.534  -0.266  -0.219  1.00  0.00     0.159 C 
HETATM   13  C6  UNL     1      -2.287   0.835  -0.977  1.00  0.00     0.070 C 
HETATM   14  C7  UNL     1      -3.309   1.422  -0.039  1.00  0.00     0.143 C 
HETATM   15  C8  UNL     1      -4.001   0.350   0.753  1.00  0.00     0.003 C 
HETATM   16  C9  UNL     1      -3.642  -0.920   0.752  1.00  0.00     0.005 C 
HETATM   17  C10 UNL     1      -2.488  -1.400  -0.058  1.00  0.00     0.170 C 
BRANCH  14  18
HETATM   18  O3  UNL     1      -2.634   2.307   0.820  1.00  0.00    -0.392 OA
ATOM     19  H3  UNL     1      -3.279   2.677   1.412  1.00  0.00     0.210 HD
ENDBRANCH  14  18
BRANCH  17  20
HETATM   20  O4  UNL     1      -1.931  -2.480   0.621  1.00  0.00    -0.389 OA
ATOM     21  H4  UNL     1      -2.539  -3.203   0.724  1.00  0.00     0.210 HD
ENDBRANCH  17  20
ENDBRANCH   1  12
TORSDOF 7
