REMARK  8 active torsions:
REMARK  status: ('A' for Active; 'I' for Inactive)
REMARK    1  A    between atoms: C2_2  and  C3_3 
REMARK    2  A    between atoms: C5_6  and  C6_7 
REMARK    3  A    between atoms: C6_7  and  C7_8 
REMARK    4  A    between atoms: C7_8  and  N1_10 
REMARK    5  A    between atoms: N1_10  and  C9_12 
REMARK    6  A    between atoms: C9_12  and  N2_14 
REMARK    7  A    between atoms: N2_14  and  N3_16 
REMARK       I    between atoms: N3_16  and  C10_18 
REMARK       I    between atoms: C10_18  and  N4_20 
REMARK    8  A    between atoms: N4_20  and  O3_22 
ROOT
HETATM    1  N1  UNL     1       1.368  -0.831  -0.390  1.00  0.00    -0.362 N 
ATOM      2  H1  UNL     1       1.944  -0.465  -1.148  1.00  0.00     0.162 HD
ENDROOT
BRANCH   1   3
HETATM    3  C7  UNL     1      -0.000  -1.267  -0.681  1.00  0.00     0.082 C 
HETATM    4  C8  UNL     1      -0.314  -2.628  -0.207  1.00  0.00     0.032 C 
BRANCH   3   5
HETATM    5  C6  UNL     1      -0.903  -0.198  -0.174  1.00  0.00     0.062 C 
BRANCH   5   6
HETATM    6  C5  UNL     1      -2.351  -0.269  -0.503  1.00  0.00     0.186 C 
HETATM    7  C4  UNL     1      -3.120  -1.450   0.002  1.00  0.00     0.206 C 
HETATM    8  O1  UNL     1      -4.498  -1.083  -0.057  1.00  0.00    -0.356 OA
HETATM    9  C3  UNL     1      -4.692  -0.158   0.966  1.00  0.00     0.296 C 
HETATM   10  O5  UNL     1      -3.470   0.467   1.223  1.00  0.00    -0.208 OA
HETATM   11  O4  UNL     1      -2.959   0.884   0.064  1.00  0.00    -0.231 OA
BRANCH   9  12
HETATM   12  C2  UNL     1      -5.779   0.832   0.700  1.00  0.00     0.059 C 
HETATM   13  C1  UNL     1      -5.582   1.682  -0.514  1.00  0.00     0.010 C 
ENDBRANCH   9  12
ENDBRANCH   5   6
ENDBRANCH   3   5
ENDBRANCH   1   3
BRANCH   1  14
HETATM   14  C9  UNL     1       1.905  -0.902   0.896  1.00  0.00     0.186 C 
HETATM   15  S1  UNL     1       1.010  -1.561   2.128  1.00  0.00    -0.040 SA
BRANCH  14  16
HETATM   16  N2  UNL     1       3.221  -0.441   1.159  1.00  0.00    -0.272 N 
ATOM     17  H2  UNL     1       3.599  -0.508   2.104  1.00  0.00     0.189 HD
BRANCH  16  18
HETATM   18  N3  UNL     1       3.999   0.100   0.145  1.00  0.00    -0.248 N 
HETATM   19  C10 UNL     1       5.236   0.738   0.516  1.00  0.00     0.360 C 
HETATM   20  O2  UNL     1       5.570   0.780   1.702  1.00  0.00    -0.243 OA
HETATM   21  N4  UNL     1       6.062   1.311  -0.482  1.00  0.00    -0.214 N 
HETATM   22  C11 UNL     1       7.300   1.945  -0.096  1.00  0.00     0.190 C 
ATOM     23  H3  UNL     1       3.705   0.048  -0.830  1.00  0.00     0.192 HD
BRANCH  21  24
HETATM   24  O3  UNL     1       5.742   1.302  -1.804  1.00  0.00    -0.284 OA
ATOM     25  H3  UNL     1       6.296   1.686  -2.473  1.00  0.00     0.245 HD
ENDBRANCH  21  24
ENDBRANCH  16  18
ENDBRANCH  14  16
ENDBRANCH   1  14
TORSDOF 8
