REMARK  5 active torsions:
REMARK  status: ('A' for Active; 'I' for Inactive)
REMARK    1  A    between atoms: C5_5  and  C6_7 
REMARK    2  A    between atoms: C6_7  and  N1_8 
REMARK       I    between atoms: N1_8  and  C7_10 
REMARK    3  A    between atoms: C7_10  and  C8_12 
REMARK    4  A    between atoms: C10_14  and  O2_15 
REMARK    5  A    between atoms: N2_17  and  O3_18 
ROOT
HETATM    1  N1  UNL     1       0.242  -1.181   0.131  1.00  0.00    -0.355 N 
ATOM      2  H1  UNL     1       0.175  -0.179  -0.046  1.00  0.00     0.162 HD
HETATM    3  C7  UNL     1       1.517  -1.784   0.117  1.00  0.00     0.253 C 
HETATM    4  O1  UNL     1       1.618  -3.008   0.330  1.00  0.00    -0.268 OA
ENDROOT
BRANCH   1   5
HETATM    5  C6  UNL     1      -0.978  -1.922   0.386  1.00  0.00     0.150 C 
BRANCH   5   6
HETATM    6  C5  UNL     1      -2.182  -1.046   0.343  1.00  0.00     0.074 C 
HETATM    7  C4  UNL     1      -2.038   0.029   1.402  1.00  0.00     0.032 C 
HETATM    8  C3  UNL     1      -3.333   0.845   1.346  1.00  0.00     0.033 C 
HETATM    9  C2  UNL     1      -3.396   1.436  -0.048  1.00  0.00     0.117 C 
HETATM   10  C1  UNL     1      -2.316   2.481  -0.174  1.00  0.00     0.039 C 
HETATM   11  O4  UNL     1      -3.390   0.501  -1.045  1.00  0.00    -0.384 OA
HETATM   12  C12 UNL     1      -2.350  -0.396  -1.001  1.00  0.00     0.195 C 
HETATM   13 CL1  UNL     1      -3.662  -1.965   0.684  1.00  0.00    -0.115 Cl
ENDBRANCH   5   6
ENDBRANCH   1   5
BRANCH   3  14
HETATM   14  C8  UNL     1       2.699  -0.976  -0.146  1.00  0.00     0.054 A 
HETATM   15  C9  UNL     1       4.007  -1.410  -0.194  1.00  0.00     0.076 A 
HETATM   16  C10 UNL     1       4.829  -0.343  -0.469  1.00  0.00     0.167 A 
HETATM   17  N2  UNL     1       4.033   0.732  -0.588  1.00  0.00    -0.212 N 
HETATM   18  C11 UNL     1       2.752   0.387  -0.400  1.00  0.00     0.142 A 
BRANCH  16  19
HETATM   19  O2  UNL     1       6.234  -0.377  -0.599  1.00  0.00    -0.344 OA
ATOM     20  H2  UNL     1       6.802   0.360  -0.789  1.00  0.00     0.219 HD
ENDBRANCH  16  19
BRANCH  17  21
HETATM   21  O3  UNL     1       4.510   1.996  -0.866  1.00  0.00    -0.281 OA
ATOM     22  H3  UNL     1       3.947   2.756  -0.950  1.00  0.00     0.245 HD
ENDBRANCH  17  21
ENDBRANCH   3  14
TORSDOF 5
