REMARK  5 active torsions:
REMARK  status: ('A' for Active; 'I' for Inactive)
REMARK    1  A    between atoms: C7_7  and  N1_8 
REMARK    2  A    between atoms: N1_8  and  C8_10 
REMARK    3  A    between atoms: C10_12  and  C11_13 
REMARK    4  A    between atoms: C11_13  and  O1_14 
REMARK    5  A    between atoms: N2_16  and  O2_18 
ROOT
HETATM    1  C8  UNL     1       1.159  -0.075  -0.309  1.00  0.00     0.102 A 
HETATM    2  C9  UNL     1       2.284  -0.864  -0.213  1.00  0.00     0.064 A 
HETATM    3  C10 UNL     1       3.578  -0.358  -0.015  1.00  0.00     0.021 A 
HETATM    4  C12 UNL     1       3.710   0.985   0.086  1.00  0.00     0.033 A 
HETATM    5  C13 UNL     1       2.574   1.784  -0.012  1.00  0.00     0.090 A 
HETATM    6  N3  UNL     1       1.384   1.248  -0.198  1.00  0.00    -0.353 N 
ATOM      7  H3  UNL     1       0.582   1.876  -0.262  1.00  0.00     0.166 HD
ENDROOT
BRANCH   1   8
HETATM    8  N1  UNL     1      -0.131  -0.626  -0.521  1.00  0.00    -0.371 N 
ATOM      9  H1  UNL     1      -0.207  -1.639  -0.618  1.00  0.00     0.161 HD
BRANCH   8  10
HETATM   10  C7  UNL     1      -1.324   0.141  -0.607  1.00  0.00     0.086 C 
HETATM   11  C2  UNL     1      -2.500  -0.752  -0.977  1.00  0.00     0.004 C 
HETATM   12  C1  UNL     1      -3.036  -1.530   0.180  1.00  0.00     0.012 C 
HETATM   13  C3  UNL     1      -3.599   0.162  -1.475  1.00  0.00     0.006 C 
HETATM   14  C4  UNL     1      -4.036   1.001  -0.298  1.00  0.00     0.001 C 
HETATM   15  C5  UNL     1      -2.916   1.719   0.364  1.00  0.00     0.002 C 
HETATM   16  C6  UNL     1      -1.688   0.911   0.639  1.00  0.00     0.025 C 
ENDBRANCH   8  10
ENDBRANCH   1   8
BRANCH   3  17
HETATM   17  C11 UNL     1       4.695  -1.286   0.072  1.00  0.00     0.170 C 
HETATM   18  N2  UNL     1       5.874  -0.963   0.244  1.00  0.00    -0.247 N 
ATOM     19  H2  UNL     1       6.493  -1.773   0.274  1.00  0.00     0.196 HD
BRANCH  17  20
HETATM   20  O1  UNL     1       4.444  -2.681  -0.047  1.00  0.00    -0.344 OA
ATOM     21  H1  UNL     1       5.173  -3.287   0.010  1.00  0.00     0.219 HD
ENDBRANCH  17  20
BRANCH  18  22
HETATM   22  O2  UNL     1       6.536   0.176   0.400  1.00  0.00    -0.288 OA
ATOM     23  H2  UNL     1       7.443   0.425   0.532  1.00  0.00     0.244 HD
ENDBRANCH  18  22
ENDBRANCH   3  17
TORSDOF 5
