REMARK  8 active torsions:
REMARK  status: ('A' for Active; 'I' for Inactive)
REMARK    1  A    between atoms: C2_2  and  C3_3 
REMARK    2  A    between atoms: C3_3  and  O2_5 
REMARK    3  A    between atoms: O2_5  and  C4_6 
REMARK    4  A    between atoms: C5_7  and  C6_8 
REMARK    5  A    between atoms: N1_9  and  O3_11 
REMARK    6  A    between atoms: C15_21  and  O4_22 
REMARK    7  A    between atoms: N2_24  and  C16_25 
REMARK    8  A    between atoms: C18_27  and  O5_28 
ROOT
HETATM    1  C4  UNL     1       0.639  -0.680   1.267  1.00  0.00     0.103 A 
HETATM    2  C5  UNL     1       0.810   0.618   1.178  1.00  0.00     0.008 A 
HETATM    3  C7  UNL     1      -0.205   1.167   0.215  1.00  0.00     0.023 A 
HETATM    4  C8  UNL     1      -1.049   2.184   0.880  1.00  0.00     0.019 C 
HETATM    5  C9  UNL     1      -1.048   3.567   0.404  1.00  0.00     0.001 C 
HETATM    6  C10 UNL     1      -0.407   3.864  -0.893  1.00  0.00     0.000 C 
HETATM    7  C11 UNL     1       0.701   2.992  -1.291  1.00  0.00     0.001 C 
HETATM    8  C12 UNL     1       0.546   1.568  -1.006  1.00  0.00     0.019 C 
HETATM    9  C13 UNL     1      -1.007  -0.063  -0.147  1.00  0.00     0.024 A 
HETATM   10  C14 UNL     1      -0.463  -1.145   0.472  1.00  0.00     0.061 A 
HETATM   11  C15 UNL     1      -1.191  -2.288   0.118  1.00  0.00     0.158 A 
HETATM   12  N2  UNL     1      -2.163  -1.879  -0.707  1.00  0.00    -0.307 N 
HETATM   13  C18 UNL     1      -2.083  -0.518  -0.894  1.00  0.00     0.154 A 
ENDROOT
BRANCH   1  14
HETATM   14  O2  UNL     1       1.457  -1.521   2.071  1.00  0.00    -0.277 OA
BRANCH  14  15
HETATM   15  C3  UNL     1       2.592  -2.072   1.495  1.00  0.00     0.263 C 
HETATM   16  O1  UNL     1       2.841  -1.805   0.305  1.00  0.00    -0.265 OA
BRANCH  15  17
HETATM   17  C2  UNL     1       3.518  -2.962   2.238  1.00  0.00     0.107 C 
HETATM   18  C1  UNL     1       4.656  -3.401   1.345  1.00  0.00     0.015 C 
ENDBRANCH  15  17
ENDBRANCH  14  15
ENDBRANCH   1  14
BRANCH   2  19
HETATM   19  C6  UNL     1       1.864   1.352   1.907  1.00  0.00     0.124 C 
HETATM   20  N1  UNL     1       1.967   2.600   1.801  1.00  0.00    -0.280 N 
ATOM     21  H1  UNL     1       1.290   3.060   1.192  1.00  0.00     0.193 HD
BRANCH  20  22
HETATM   22  O3  UNL     1       2.873   3.400   2.402  1.00  0.00    -0.290 OA
ATOM     23  H3  UNL     1       2.951   4.343   2.322  1.00  0.00     0.244 HD
ENDBRANCH  20  22
ENDBRANCH   2  19
BRANCH  11  24
HETATM   24  O4  UNL     1      -0.918  -3.557   0.560  1.00  0.00    -0.345 OA
ATOM     25  H4  UNL     1      -1.412  -4.332   0.320  1.00  0.00     0.219 HD
ENDBRANCH  11  24
BRANCH  13  26
HETATM   26  O5  UNL     1      -2.957   0.143  -1.691  1.00  0.00    -0.340 OA
HETATM   27  C19 UNL     1      -3.142   1.425  -2.075  1.00  0.00     0.211 C 
ENDBRANCH  13  26
BRANCH  12  28
HETATM   28  C16 UNL     1      -3.175  -2.702  -1.339  1.00  0.00     0.129 C 
HETATM   29  C17 UNL     1      -2.761  -3.235  -2.670  1.00  0.00     0.027 C 
ENDBRANCH  12  28
TORSDOF 8
