REMARK  7 active torsions:
REMARK  status: ('A' for Active; 'I' for Inactive)
REMARK    1  A    between atoms: O1_2  and  C2_3 
REMARK    2  A    between atoms: C3_4  and  C4_5 
REMARK    3  A    between atoms: C10_12  and  N1_13 
REMARK       I    between atoms: N1_13  and  C11_15 
REMARK    4  A    between atoms: C11_15  and  O4_17 
REMARK    5  A    between atoms: O4_17  and  C12_18 
REMARK    6  A    between atoms: C22_28  and  O5_29 
REMARK    7  A    between atoms: O5_29  and  C23_30 
ROOT
HETATM    1  C4  UNL     1       1.582   0.641  -0.436  1.00  0.00    -0.009 C 
HETATM    2  C5  UNL     1       2.041   2.081  -0.575  1.00  0.00     0.015 C 
HETATM    3  C6  UNL     1       1.420   2.626  -1.884  1.00  0.00     0.011 C 
HETATM    4  C7  UNL     1       0.219   1.766  -1.853  1.00  0.00    -0.032 C 
HETATM    5  C8  UNL     1      -0.720   1.504  -2.895  1.00  0.00     0.090 C 
HETATM    6  C9  UNL     1      -1.738   0.578  -2.259  1.00  0.00     0.150 C 
HETATM    7  O2  UNL     1      -2.529   0.066  -3.030  1.00  0.00    -0.296 OA
HETATM    8  C10 UNL     1      -1.821   0.269  -0.787  1.00  0.00     0.160 C 
HETATM    9  C16 UNL     1      -0.900   1.015   0.081  1.00  0.00     0.017 C 
HETATM   10  C17 UNL     1      -0.525   2.241  -0.673  1.00  0.00     0.017 C 
HETATM   11  C18 UNL     1       0.394   0.453   0.521  1.00  0.00     0.021 C 
HETATM   12  C19 UNL     1       1.011   0.433  -1.735  1.00  0.00     0.024 C 
ENDROOT
BRANCH   1  13
HETATM   13  C3  UNL     1       2.692  -0.116   0.119  1.00  0.00    -0.014 A 
HETATM   14  C2  UNL     1       3.925  -0.299  -0.435  1.00  0.00     0.099 A 
HETATM   15  C25 UNL     1       4.985  -0.954   0.229  1.00  0.00     0.101 A 
HETATM   16  C22 UNL     1       4.829  -1.457   1.492  1.00  0.00     0.103 A 
HETATM   17 CL1  UNL     1       6.504  -1.115  -0.589  1.00  0.00    -0.078 Cl
HETATM   18  C21 UNL     1       3.604  -1.291   2.069  1.00  0.00     0.040 A 
HETATM   19  C20 UNL     1       2.555  -0.641   1.413  1.00  0.00     0.013 A 
BRANCH  14  20
HETATM   20  O1  UNL     1       4.171   0.159  -1.710  1.00  0.00    -0.354 OA
HETATM   21  C1  UNL     1       4.092  -0.828  -2.754  1.00  0.00     0.210 C 
ENDBRANCH  14  20
BRANCH  16  22
HETATM   22  O5  UNL     1       5.891  -2.102   2.134  1.00  0.00    -0.277 OA
BRANCH  22  23
HETATM   23  C23 UNL     1       6.822  -1.368   2.885  1.00  0.00     0.260 C 
HETATM   24  C24 UNL     1       7.965  -1.998   3.584  1.00  0.00     0.126 C 
HETATM   25  O6  UNL     1       6.696  -0.119   2.979  1.00  0.00    -0.265 OA
ENDBRANCH  22  23
ENDBRANCH  16  22
ENDBRANCH   1  13
BRANCH   8  26
HETATM   26  N1  UNL     1      -3.191   0.701  -0.443  1.00  0.00    -0.325 N 
HETATM   27  C11 UNL     1      -4.193  -0.175   0.000  1.00  0.00     0.362 C 
HETATM   28  O3  UNL     1      -3.948  -1.391   0.121  1.00  0.00    -0.238 OA
ATOM     29  H1  UNL     1      -3.421   1.691  -0.533  1.00  0.00     0.165 HD
BRANCH  27  30
HETATM   30  O4  UNL     1      -5.447   0.282   0.306  1.00  0.00    -0.294 OA
BRANCH  30  31
HETATM   31  C12 UNL     1      -6.498  -0.551   0.759  1.00  0.00     0.061 C 
HETATM   32  C13 UNL     1      -7.757   0.224   1.017  1.00  0.00     0.046 C 
HETATM   33  C14 UNL     1      -6.060  -1.194   2.051  1.00  0.00     0.046 C 
HETATM   34  C15 UNL     1      -6.805  -1.654  -0.228  1.00  0.00     0.046 C 
ENDBRANCH  30  31
ENDBRANCH  27  30
ENDBRANCH   8  26
TORSDOF 7
