REMARK  7 active torsions:
REMARK  status: ('A' for Active; 'I' for Inactive)
REMARK    1  A    between atoms: C2_2  and  N1_5 
REMARK    2  A    between atoms: C6_7  and  C7_8 
REMARK    3  A    between atoms: N2_9  and  N3_11 
REMARK    4  A    between atoms: N3_11  and  C8_13 
REMARK    5  A    between atoms: C8_13  and  C9_14 
REMARK    6  A    between atoms: C9_14  and  C10_15 
REMARK    7  A    between atoms: C10_15  and  O1_16 
ROOT
HETATM    1  C7  UNL     1      -0.301  -1.882  -0.906  1.00  0.00     0.120 C 
HETATM    2  N2  UNL     1       0.824  -1.373  -0.692  1.00  0.00    -0.315 N 
ATOM      3  H2  UNL     1       1.634  -1.944  -0.933  1.00  0.00     0.185 HD
ENDROOT
BRANCH   1   4
HETATM    4  C6  UNL     1      -1.571  -1.246  -0.636  1.00  0.00     0.009 A 
HETATM    5  C5  UNL     1      -1.911  -0.022  -0.120  1.00  0.00     0.106 A 
HETATM    6  N1  UNL     1      -3.271   0.121  -0.058  1.00  0.00    -0.346 N 
HETATM    7  C21 UNL     1      -3.814  -1.009  -0.534  1.00  0.00     0.046 A 
HETATM    8  C16 UNL     1      -2.809  -1.877  -0.901  1.00  0.00     0.007 A 
HETATM    9  C20 UNL     1      -5.150  -1.389  -0.693  1.00  0.00     0.033 A 
HETATM   10  C17 UNL     1      -3.114  -3.116  -1.424  1.00  0.00     0.057 A 
HETATM   11  C18 UNL     1      -4.422  -3.489  -1.580  1.00  0.00     0.117 A 
HETATM   12  F1  UNL     1      -4.706  -4.727  -2.102  1.00  0.00    -0.206 F 
HETATM   13  C19 UNL     1      -5.413  -2.614  -1.210  1.00  0.00     0.044 A 
BRANCH   6  14
HETATM   14  C2  UNL     1      -4.008   1.257   0.422  1.00  0.00     0.026 C 
HETATM   15  C1  UNL     1      -3.030   2.300   0.980  1.00  0.00     0.038 C 
HETATM   16  C3  UNL     1      -4.944   0.902   1.555  1.00  0.00     0.038 C 
HETATM   17  C4  UNL     1      -4.797   1.926  -0.667  1.00  0.00     0.038 C 
ENDBRANCH   6  14
ENDBRANCH   1   4
BRANCH   2  18
HETATM   18  N3  UNL     1       1.085  -0.142  -0.173  1.00  0.00    -0.337 N 
ATOM     19  H3  UNL     1       0.933   0.709  -0.714  1.00  0.00     0.180 HD
BRANCH  18  20
HETATM   20  C8  UNL     1       1.596  -0.097   1.206  1.00  0.00     0.142 C 
BRANCH  20  21
HETATM   21  C9  UNL     1       2.945  -0.754   1.212  1.00  0.00     0.059 C 
BRANCH  21  22
HETATM   22  C10 UNL     1       3.892  -0.015   0.328  1.00  0.00     0.059 C 
HETATM   23  C11 UNL     1       5.254  -0.733   0.274  1.00  0.00     0.038 C 
HETATM   24  C12 UNL     1       6.090   0.013  -0.734  1.00  0.00     0.003 C 
HETATM   25  C13 UNL     1       6.364   1.381  -0.148  1.00  0.00     0.000 C 
HETATM   26  C14 UNL     1       5.049   2.107  -0.051  1.00  0.00     0.003 C 
HETATM   27  C15 UNL     1       4.120   1.366   0.895  1.00  0.00     0.038 C 
BRANCH  22  28
HETATM   28  O1  UNL     1       3.426   0.009  -0.966  1.00  0.00    -0.390 OA
ATOM     29  H1  UNL     1       4.029   0.480  -1.529  1.00  0.00     0.210 HD
ENDBRANCH  22  28
ENDBRANCH  21  22
ENDBRANCH  20  21
ENDBRANCH  18  20
ENDBRANCH   2  18
TORSDOF 7
