REMARK  5 active torsions:
REMARK  status: ('A' for Active; 'I' for Inactive)
REMARK    1  A    between atoms: C6_6  and  C7_7 
REMARK    2  A    between atoms: C7_7  and  N1_8 
REMARK    3  A    between atoms: N1_8  and  C8_10 
REMARK    4  A    between atoms: C10_12  and  N2_13 
REMARK    5  A    between atoms: C16_21  and  N4_22 
ROOT
HETATM    1  C1  UNL     1      -6.721   2.402  -0.080  1.00  0.00     0.012 C 
HETATM    2  C2  UNL     1      -6.117   1.421  -0.473  1.00  0.00    -0.113 C 
HETATM    3  C3  UNL     1      -5.372   0.237  -0.940  1.00  0.00     0.064 C 
HETATM    4  C4  UNL     1      -4.062   0.601  -1.559  1.00  0.00     0.017 C 
HETATM    5  C5  UNL     1      -2.869  -0.009  -0.846  1.00  0.00     0.007 C 
HETATM    6  C6  UNL     1      -3.045  -1.465  -0.591  1.00  0.00     0.003 C 
HETATM    7  C17 UNL     1      -4.372  -1.866  -0.039  1.00  0.00     0.007 C 
HETATM    8  C18 UNL     1      -5.277  -0.697   0.229  1.00  0.00     0.017 C 
ENDROOT
BRANCH   6   9
HETATM    9  C7  UNL     1      -1.981  -1.910   0.425  1.00  0.00     0.126 C 
BRANCH   9  10
HETATM   10  N1  UNL     1      -0.656  -1.710  -0.013  1.00  0.00    -0.375 N 
ATOM     11  H1  UNL     1      -0.336  -2.277  -0.798  1.00  0.00     0.161 HD
BRANCH  10  12
HETATM   12  C8  UNL     1       0.174  -0.887   0.483  1.00  0.00     0.120 A 
HETATM   13  C9  UNL     1       1.436  -0.887  -0.141  1.00  0.00     0.097 A 
HETATM   14  C10 UNL     1       2.397  -0.027   0.327  1.00  0.00     0.122 A 
HETATM   15  N3  UNL     1       2.097   0.774   1.354  1.00  0.00    -0.177 N 
HETATM   16  C16 UNL     1       0.881   0.762   1.942  1.00  0.00     0.679 A 
ATOM     17  H3  UNL     1       2.809   1.415   1.705  1.00  0.00     0.185 HD
HETATM   18  N5  UNL     1      -0.090  -0.069   1.509  1.00  0.00    -0.177 N 
ATOM     19  H5  UNL     1      -1.007  -0.074   1.955  1.00  0.00     0.185 HD
BRANCH  14  20
HETATM   20  N2  UNL     1       3.688  -0.002  -0.262  1.00  0.00    -0.367 N 
HETATM   21  C11 UNL     1       4.799  -0.767   0.246  1.00  0.00     0.124 C 
HETATM   22  C12 UNL     1       6.104  -0.060   0.287  1.00  0.00     0.020 C 
HETATM   23  C13 UNL     1       6.338   0.870  -0.864  1.00  0.00     0.003 C 
HETATM   24  C14 UNL     1       5.115   1.636  -1.269  1.00  0.00     0.020 C 
HETATM   25  C15 UNL     1       3.885   0.817  -1.430  1.00  0.00     0.124 C 
ENDBRANCH  14  20
BRANCH  16  26
HETATM   26  N4  UNL     1       0.613   1.553   2.941  1.00  0.00    -0.234 N 
ATOM     27  H42 UNL     1       1.347   2.181   3.268  1.00  0.00     0.174 HD
ATOM     28  H41 UNL     1      -0.305   1.544   3.385  1.00  0.00     0.174 HD
ENDBRANCH  16  26
ENDBRANCH  10  12
ENDBRANCH   9  10
ENDBRANCH   6   9
TORSDOF 5
