REMARK  4 active torsions:
REMARK  status: ('A' for Active; 'I' for Inactive)
REMARK    1  A    between atoms: C2_2  and  C3_3 
REMARK    2  A    between atoms: C3_3  and  C4_4 
REMARK    3  A    between atoms: C4_4  and  N1_5 
REMARK    4  A    between atoms: N1_5  and  C5_7 
ROOT
HETATM    1  C5  UNL     1       1.120  -1.057  -0.204  1.00  0.00     0.130 A 
HETATM    2  N2  UNL     1       0.781  -1.658   0.953  1.00  0.00    -0.283 N 
ATOM      3  H2  UNL     1       1.483  -2.200   1.458  1.00  0.00     0.188 HD
HETATM    4  N3  UNL     1      -0.445  -1.561   1.451  1.00  0.00    -0.283 N 
ATOM      5  H3  UNL     1      -0.651  -2.035   2.330  1.00  0.00     0.188 HD
HETATM    6  C6  UNL     1      -1.425  -0.870   0.854  1.00  0.00     0.132 A 
HETATM    7  N4  UNL     1      -2.671  -0.758   1.337  1.00  0.00    -0.344 N 
ATOM      8  H4  UNL     1      -2.902  -1.223   2.215  1.00  0.00     0.167 HD
HETATM    9  C7  UNL     1      -3.622  -0.057   0.707  1.00  0.00     0.018 A 
HETATM   10  C8  UNL     1      -3.370   0.596  -0.487  1.00  0.00    -0.019 A 
HETATM   11  C9  UNL     1      -2.089   0.486  -0.994  1.00  0.00     0.055 A 
HETATM   12  C10 UNL     1      -1.726   1.095  -2.177  1.00  0.00     0.258 A 
HETATM   13  O1  UNL     1      -2.562   1.764  -2.816  1.00  0.00    -0.267 OA
HETATM   14  N5  UNL     1      -0.486   1.002  -2.689  1.00  0.00    -0.312 N 
ATOM     15  H5  UNL     1      -0.276   1.474  -3.568  1.00  0.00     0.170 HD
HETATM   16  C11 UNL     1       0.488   0.302  -2.073  1.00  0.00     0.121 A 
HETATM   17 CL1  UNL     1       2.103   0.189  -2.753  1.00  0.00    -0.063 Cl
HETATM   18  C12 UNL     1       0.167  -0.325  -0.883  1.00  0.00     0.063 A 
HETATM   19  C13 UNL     1      -1.116  -0.237  -0.340  1.00  0.00     0.043 A 
HETATM   20  C14 UNL     1      -4.579   1.292  -0.971  1.00  0.00     0.042 C 
HETATM   21  C15 UNL     1      -5.524   1.282   0.224  1.00  0.00     0.011 C 
HETATM   22  C16 UNL     1      -5.043   0.160   1.115  1.00  0.00     0.058 C 
ENDROOT
BRANCH   1  23
HETATM   23  N1  UNL     1       2.286  -1.133  -0.704  1.00  0.00    -0.374 N 
ATOM     24  H1  UNL     1       2.445  -0.643  -1.584  1.00  0.00     0.161 HD
BRANCH  23  25
HETATM   25  C4  UNL     1       3.397  -1.842  -0.147  1.00  0.00     0.121 C 
BRANCH  25  26
HETATM   26  C3  UNL     1       4.252  -1.027   0.760  1.00  0.00     0.019 C 
BRANCH  26  27
HETATM   27  C2  UNL     1       4.856   0.180   0.061  1.00  0.00    -0.003 C 
HETATM   28  C1  UNL     1       5.715   0.977   1.019  1.00  0.00     0.005 C 
ENDBRANCH  26  27
ENDBRANCH  25  26
ENDBRANCH  23  25
ENDBRANCH   1  23
TORSDOF 4
