REMARK  3 active torsions:
REMARK  status: ('A' for Active; 'I' for Inactive)
REMARK    1  A    between atoms: C6_7  and  C7_8 
REMARK       I    between atoms: C7_8  and  N1_10 
REMARK    2  A    between atoms: N1_10  and  C8_12 
REMARK    3  A    between atoms: C8_12  and  C9_13 
ROOT
HETATM    1  C8  UNL     1      -0.082   1.391  -1.614  1.00  0.00     0.068 C 
ENDROOT
BRANCH   1   2
HETATM    2  N1  UNL     1      -1.274   1.229  -0.900  1.00  0.00    -0.339 N 
HETATM    3  C7  UNL     1      -2.065   0.113  -0.719  1.00  0.00     0.243 C 
HETATM    4  O1  UNL     1      -1.842  -0.998  -1.207  1.00  0.00    -0.271 OA
ATOM      5  H1  UNL     1      -1.614   2.073  -0.438  1.00  0.00     0.167 HD
BRANCH   3   6
HETATM    6  C6  UNL     1      -3.311   0.203   0.133  1.00  0.00     0.172 C 
HETATM    7  C5  UNL     1      -4.180   1.348  -0.327  1.00  0.00     0.071 C 
HETATM    8  C4  UNL     1      -5.369   1.426   0.608  1.00  0.00     0.174 C 
HETATM    9  C3  UNL     1      -6.116   0.134   0.496  1.00  0.00     0.061 C 
HETATM   10  F1  UNL     1      -6.218   2.450   0.241  1.00  0.00    -0.249 F 
HETATM   11  C2  UNL     1      -5.247  -1.059   0.827  1.00  0.00     0.076 C 
HETATM   12  C1  UNL     1      -5.968  -2.363   0.561  1.00  0.00     0.032 C 
HETATM   13  N3  UNL     1      -3.981  -1.038   0.211  1.00  0.00    -0.405 N 
ATOM     14  H3  UNL     1      -3.563  -1.889  -0.165  1.00  0.00     0.154 HD
ENDBRANCH   3   6
ENDBRANCH   1   2
BRANCH   1  15
HETATM   15  C9  UNL     1       1.181   0.749  -1.231  1.00  0.00     0.024 C 
HETATM   16  C10 UNL     1       1.229  -0.716  -1.188  1.00  0.00     0.010 C 
HETATM   17  C11 UNL     1       2.683  -1.222  -1.162  1.00  0.00     0.010 C 
HETATM   18  C12 UNL     1       3.531  -0.398  -0.242  1.00  0.00    -0.037 C 
HETATM   19  C13 UNL     1       4.633   0.298  -1.006  1.00  0.00     0.037 C 
HETATM   20  C16 UNL     1       4.264  -1.405   0.667  1.00  0.00     0.037 C 
HETATM   21  C17 UNL     1       2.784   0.506   0.683  1.00  0.00     0.010 C 
HETATM   22  C14 UNL     1       5.689   0.868  -0.096  1.00  0.00     0.233 C 
HETATM   23  N2  UNL     1       6.320  -0.125   0.737  1.00  0.00    -0.075 N 
HETATM   24  C15 UNL     1       5.257  -0.721   1.554  1.00  0.00     0.233 C 
ATOM     25  H22 UNL     1       6.857  -0.813   0.209  1.00  0.00     0.277 HD
ATOM     26  H21 UNL     1       7.094   0.244   1.289  1.00  0.00     0.277 HD
HETATM   27  C18 UNL     1       1.695   1.328   0.083  1.00  0.00     0.010 C 
ENDBRANCH   1  15
TORSDOF 3
