REMARK  12 active torsions:
REMARK  status: ('A' for Active; 'I' for Inactive)
REMARK    1  A    between atoms: N1_1  and  N2_4 
REMARK    2  A    between atoms: N2_4  and  N3_5 
REMARK    3  A    between atoms: N3_5  and  C1_7 
REMARK    4  A    between atoms: C3_9  and  C4_10 
REMARK    5  A    between atoms: C4_10  and  O1_11 
REMARK    6  A    between atoms: C9_18  and  O3_19 
REMARK    7  A    between atoms: C10_21  and  O4_22 
REMARK    8  A    between atoms: O4_22  and  C11_23 
REMARK    9  A    between atoms: C12_25  and  C13_26 
REMARK   10  A    between atoms: C13_26  and  O6_27 
REMARK   11  A    between atoms: C14_29  and  O7_30 
REMARK   12  A    between atoms: C15_32  and  O8_33 
ROOT
HETATM    1  C1  UNL     1      -0.810  -1.249   1.180  1.00  0.00     0.146 C 
HETATM    2  C2  UNL     1      -2.278  -1.189   1.377  1.00  0.00     0.040 C 
HETATM    3  C3  UNL     1      -3.048  -0.703   0.186  1.00  0.00     0.049 C 
HETATM    4  C5  UNL     1      -2.484   0.644  -0.143  1.00  0.00     0.095 C 
HETATM    5  C6  UNL     1      -3.319   1.296  -1.208  1.00  0.00     0.043 C 
HETATM    6  C7  UNL     1      -3.363   2.740  -0.682  1.00  0.00     0.029 C 
HETATM    7  C8  UNL     1      -3.463   2.436   0.812  1.00  0.00     0.169 C 
HETATM    8  O2  UNL     1      -2.565   1.427   1.000  1.00  0.00    -0.377 OA
HETATM    9  C9  UNL     1      -1.036   0.593  -0.545  1.00  0.00     0.184 C 
HETATM   10  C10 UNL     1      -0.216  -0.436   0.112  1.00  0.00     0.181 C 
ENDROOT
BRANCH  10  11
HETATM   11  O4  UNL     1       0.965   0.158   0.596  1.00  0.00    -0.348 OA
BRANCH  11  12
HETATM   12  C11 UNL     1       2.105  -0.277  -0.035  1.00  0.00     0.292 C 
HETATM   13  O5  UNL     1       2.777   0.741  -0.701  1.00  0.00    -0.348 OA
HETATM   14  C12 UNL     1       4.125   0.397  -0.715  1.00  0.00     0.179 C 
HETATM   15  C14 UNL     1       4.337  -0.066   0.710  1.00  0.00     0.182 C 
HETATM   16  C15 UNL     1       3.079  -0.870   0.959  1.00  0.00     0.204 C 
BRANCH  14  17
HETATM   17  C13 UNL     1       4.993   1.604  -0.964  1.00  0.00     0.198 C 
BRANCH  17  18
HETATM   18  O6  UNL     1       4.701   2.204  -2.189  1.00  0.00    -0.398 OA
ATOM     19  H6  UNL     1       5.248   2.965  -2.346  1.00  0.00     0.209 HD
ENDBRANCH  17  18
ENDBRANCH  14  17
BRANCH  15  20
HETATM   20  O7  UNL     1       5.488  -0.845   0.839  1.00  0.00    -0.390 OA
ATOM     21  H7  UNL     1       5.621  -1.136   1.734  1.00  0.00     0.210 HD
ENDBRANCH  15  20
BRANCH  16  22
HETATM   22  O8  UNL     1       2.683  -0.647   2.273  1.00  0.00    -0.388 OA
ATOM     23  H8  UNL     1       3.295  -1.019   2.897  1.00  0.00     0.210 HD
ENDBRANCH  16  22
ENDBRANCH  11  12
ENDBRANCH  10  11
BRANCH   1  24
HETATM   24  N3  UNL     1      -0.465  -2.674   1.011  1.00  0.00    -0.245 N 
ATOM     25  H3  UNL     1      -0.108  -2.994   0.111  1.00  0.00     0.197 HD
BRANCH  24  26
HETATM   26  N2  UNL     1      -0.596  -3.482   1.921  1.00  0.00    -0.248 NA
BRANCH  26  27
HETATM   27  N1  UNL     1      -0.352  -4.200   2.886  1.00  0.00    -0.261 N 
ATOM     28  H12 UNL     1       0.625  -3.920   2.975  1.00  0.00     0.193 HD
ATOM     29  H11 UNL     1      -0.461  -4.873   3.644  1.00  0.00     0.193 HD
ENDBRANCH  26  27
ENDBRANCH  24  26
ENDBRANCH   1  24
BRANCH   9  30
HETATM   30  O3  UNL     1      -1.024   0.486  -1.958  1.00  0.00    -0.390 OA
ATOM     31  H3  UNL     1      -0.109   0.454  -2.212  1.00  0.00     0.210 HD
ENDBRANCH   9  30
BRANCH   3  32
HETATM   32  C4  UNL     1      -3.008  -1.690  -0.932  1.00  0.00     0.172 C 
BRANCH  32  33
HETATM   33  O1  UNL     1      -3.722  -1.239  -2.038  1.00  0.00    -0.400 OA
ATOM     34  H1  UNL     1      -3.697  -1.868  -2.750  1.00  0.00     0.209 HD
ENDBRANCH  32  33
ENDBRANCH   3  32
TORSDOF 12
