REMARK  9 active torsions:
REMARK  status: ('A' for Active; 'I' for Inactive)
REMARK    1  A    between atoms: C2_2  and  C3_3 
REMARK    2  A    between atoms: C3_3  and  C10_10 
REMARK    3  A    between atoms: C4_4  and  C5_5 
REMARK    4  A    between atoms: C5_5  and  C6_6 
REMARK    5  A    between atoms: C13_13  and  O1_14 
REMARK    6  A    between atoms: C17_19  and  C18_20 
REMARK    7  A    between atoms: C19_21  and  C20_22 
REMARK    8  A    between atoms: C21_23  and  C23_25 
REMARK    9  A    between atoms: C24_26  and  C25_27 
ROOT
HETATM    1  C10 UNL     1      -1.857  -1.535   0.745  1.00  0.00     0.027 C 
HETATM    2  C11 UNL     1      -2.733  -2.748   0.894  1.00  0.00     0.017 C 
HETATM    3  C12 UNL     1      -1.913  -3.907   0.376  1.00  0.00     0.020 C 
HETATM    4  C13 UNL     1      -2.436  -4.668  -0.789  1.00  0.00     0.126 C 
HETATM    5  C14 UNL     1      -1.466  -3.941  -1.726  1.00  0.00     0.016 C 
HETATM    6  C15 UNL     1      -0.576  -4.946  -2.435  1.00  0.00     0.013 C 
HETATM    7  C16 UNL     1      -0.851  -3.313  -0.525  1.00  0.00     0.006 C 
HETATM    8  C17 UNL     1      -0.939  -1.807  -0.396  1.00  0.00     0.021 C 
ENDROOT
BRANCH   8   9
HETATM    9  C18 UNL     1       0.458  -1.351  -0.040  1.00  0.00    -0.021 C 
HETATM   10  C19 UNL     1       1.139  -0.522  -0.795  1.00  0.00    -0.003 C 
BRANCH  10  11
HETATM   11  C20 UNL     1       2.460  -0.117  -0.419  1.00  0.00     0.006 C 
HETATM   12  C21 UNL     1       3.270   0.714  -1.083  1.00  0.00    -0.062 C 
HETATM   13  C22 UNL     1       2.812   1.314  -2.349  1.00  0.00     0.048 C 
BRANCH  12  14
HETATM   14  C23 UNL     1       4.583   0.978  -0.518  1.00  0.00     0.003 C 
HETATM   15  C24 UNL     1       5.547   1.721  -0.922  1.00  0.00    -0.022 C 
BRANCH  15  16
HETATM   16  C25 UNL     1       5.751   2.591  -2.066  1.00  0.00    -0.000 C 
HETATM   17  C26 UNL     1       6.288   3.945  -1.515  1.00  0.00     0.013 C 
HETATM   18  C27 UNL     1       6.953   2.049  -2.863  1.00  0.00     0.013 C 
ENDBRANCH  15  16
ENDBRANCH  12  14
ENDBRANCH  10  11
ENDBRANCH   8   9
BRANCH   1  19
HETATM   19  C3  UNL     1      -2.600  -0.245   0.686  1.00  0.00    -0.058 C 
HETATM   20  C4  UNL     1      -2.378   0.615   1.652  1.00  0.00    -0.015 C 
BRANCH  19  21
HETATM   21  C2  UNL     1      -3.536   0.078  -0.363  1.00  0.00    -0.003 C 
HETATM   22  C1  UNL     1      -3.883  -0.651  -1.388  1.00  0.00     0.012 C 
ENDBRANCH  19  21
BRANCH  20  23
HETATM   23  C5  UNL     1      -2.991   1.915   1.797  1.00  0.00     0.055 C 
BRANCH  23  24
HETATM   24  C6  UNL     1      -3.759   2.030   3.087  1.00  0.00    -0.021 C 
HETATM   25  C7  UNL     1      -3.423   2.949   3.950  1.00  0.00    -0.091 C 
HETATM   26  C8  UNL     1      -2.306   3.872   3.676  1.00  0.00     0.042 C 
HETATM   27  C9  UNL     1      -4.166   3.085   5.239  1.00  0.00     0.042 C 
ENDBRANCH  23  24
ENDBRANCH  20  23
ENDBRANCH   1  19
BRANCH   4  28
HETATM   28  O1  UNL     1      -3.731  -4.466  -1.191  1.00  0.00    -0.395 OA
ATOM     29  H1  UNL     1      -4.065  -4.952  -1.936  1.00  0.00     0.210 HD
ENDBRANCH   4  28
TORSDOF 9
