REMARK  8 active torsions:
REMARK  status: ('A' for Active; 'I' for Inactive)
REMARK    1  A    between atoms: N1_1  and  C1_5 
REMARK    2  A    between atoms: N2_12  and  C8_13 
REMARK    3  A    between atoms: C8_13  and  S2_15 
REMARK    4  A    between atoms: S2_15  and  S3_16 
REMARK    5  A    between atoms: S3_16  and  C9_17 
REMARK    6  A    between atoms: C9_17  and  C10_19 
REMARK    7  A    between atoms: C10_19  and  S5_20 
REMARK    8  A    between atoms: S5_20  and  C11_21 
ROOT
HETATM    1  C1  UNL     1      -2.979   0.433  -1.730  1.00  0.00     0.188 C 
HETATM    2  C2  UNL     1      -4.385  -0.038  -1.629  1.00  0.00     0.033 C 
HETATM    3  C3  UNL     1      -5.298   0.489  -0.594  1.00  0.00     0.002 C 
HETATM    4  C4  UNL     1      -5.538  -0.418   0.647  1.00  0.00     0.000 C 
HETATM    5  C5  UNL     1      -4.282  -1.078   0.835  1.00  0.00     0.002 C 
HETATM    6  C6  UNL     1      -3.649  -1.845   1.890  1.00  0.00     0.020 C 
HETATM    7  C7  UNL     1      -2.324  -2.272   1.193  1.00  0.00     0.129 C 
HETATM    8  N2  UNL     1      -1.393  -1.156   1.008  1.00  0.00    -0.346 N 
HETATM    9  C17 UNL     1      -1.155  -0.404  -0.148  1.00  0.00     0.067 C 
HETATM   10  C18 UNL     1      -1.870  -0.531  -1.431  1.00  0.00     0.077 C 
ENDROOT
BRANCH   8  11
HETATM   11  C8  UNL     1      -0.663  -0.874   2.189  1.00  0.00     0.151 C 
HETATM   12  S1  UNL     1      -0.879  -1.790   3.563  1.00  0.00    -0.052 SA
BRANCH  11  13
HETATM   13  S2  UNL     1       0.527   0.385   2.350  1.00  0.00    -0.022 SA
BRANCH  13  14
HETATM   14  S3  UNL     1       1.222   1.398   0.700  1.00  0.00    -0.042 SA
BRANCH  14  15
HETATM   15  C9  UNL     1       2.676   0.640  -0.023  1.00  0.00     0.066 C 
HETATM   16  S4  UNL     1       3.206  -0.548   0.568  1.00  0.00    -0.076 SA
BRANCH  15  17
HETATM   17  C10 UNL     1       3.312   1.229  -1.226  1.00  0.00     0.138 C 
BRANCH  17  18
HETATM   18  S5  UNL     1       4.834   0.347  -1.578  1.00  0.00    -0.124 SA
BRANCH  18  19
HETATM   19  C11 UNL     1       6.099   0.631  -0.369  1.00  0.00     0.000 A 
HETATM   20  C12 UNL     1       7.298  -0.036  -0.462  1.00  0.00     0.018 A 
HETATM   21  C13 UNL     1       8.325   0.150   0.438  1.00  0.00     0.001 A 
HETATM   22  C14 UNL     1       8.110   1.052   1.468  1.00  0.00     0.000 A 
HETATM   23  C15 UNL     1       6.914   1.728   1.576  1.00  0.00     0.001 A 
HETATM   24  C16 UNL     1       5.888   1.521   0.648  1.00  0.00     0.018 A 
ENDBRANCH  18  19
ENDBRANCH  17  18
ENDBRANCH  15  17
ENDBRANCH  14  15
ENDBRANCH  13  14
ENDBRANCH  11  13
ENDBRANCH   8  11
BRANCH   1  25
HETATM   25  N1  UNL     1      -2.744   1.777  -1.237  1.00  0.00    -0.075 N 
ATOM     26  H13 UNL     1      -3.370   2.436  -1.700  1.00  0.00     0.274 HD
ATOM     27  H12 UNL     1      -3.075   1.862  -0.276  1.00  0.00     0.274 HD
ATOM     28  H11 UNL     1      -1.779   2.100  -1.306  1.00  0.00     0.274 HD
ENDBRANCH   1  25
TORSDOF 8
