REMARK  5 active torsions:
REMARK  status: ('A' for Active; 'I' for Inactive)
REMARK    1  A    between atoms: C4_5  and  O2_7 
REMARK    2  A    between atoms: C8_12  and  O3_13 
REMARK    3  A    between atoms: C8_12  and  C9_15 
REMARK    4  A    between atoms: C10_16  and  C11_17 
REMARK    5  A    between atoms: C12_18  and  C13_19 
ROOT
HETATM    1  C9  UNL     1       1.207  -0.729   0.563  1.00  0.00     0.009 C 
HETATM    2  C10 UNL     1       0.426  -0.897  -0.467  1.00  0.00    -0.018 C 
ENDROOT
BRANCH   2   3
HETATM    3  C11 UNL     1      -1.044  -1.187  -0.321  1.00  0.00     0.052 C 
HETATM    4  C12 UNL     1      -1.298  -1.466   1.087  1.00  0.00    -0.016 C 
HETATM    5  C14 UNL     1      -1.810  -0.553   1.871  1.00  0.00    -0.015 C 
HETATM    6  C15 UNL     1      -2.134   0.772   1.332  1.00  0.00     0.034 C 
HETATM    7  C16 UNL     1      -2.718   0.682  -0.079  1.00  0.00     0.006 C 
HETATM    8  C17 UNL     1      -4.165   0.414  -0.008  1.00  0.00    -0.043 C 
HETATM    9  C23 UNL     1      -1.870  -0.141  -0.977  1.00  0.00    -0.028 C 
HETATM   10  C18 UNL     1      -4.988   1.722   0.043  1.00  0.00     0.015 C 
HETATM   11  C19 UNL     1      -4.636  -0.344   1.224  1.00  0.00     0.015 C 
HETATM   12  C20 UNL     1      -4.747  -0.357  -1.166  1.00  0.00     0.009 C 
HETATM   13  C21 UNL     1      -3.903  -0.031  -2.386  1.00  0.00     0.002 C 
HETATM   14  C22 UNL     1      -2.631  -0.826  -2.095  1.00  0.00     0.010 C 
HETATM   15  C24 UNL     1      -0.888   0.761  -1.761  1.00  0.00     0.016 C 
BRANCH   4  16
HETATM   16  C13 UNL     1      -0.956  -2.814   1.596  1.00  0.00     0.266 C 
HETATM   17  O4  UNL     1      -0.471  -3.633   0.786  1.00  0.00    -0.302 OA
ENDBRANCH   4  16
ENDBRANCH   2   3
BRANCH   1  18
HETATM   18  C8  UNL     1       2.656  -0.442   0.494  1.00  0.00     0.102 C 
HETATM   19  C2  UNL     1       2.879   0.993   0.874  1.00  0.00     0.094 C 
HETATM   20  C1  UNL     1       2.734   1.107   2.377  1.00  0.00     0.021 C 
HETATM   21  C3  UNL     1       4.203   1.423   0.388  1.00  0.00     0.167 C 
HETATM   22  O1  UNL     1       4.372   2.629   0.199  1.00  0.00    -0.294 OA
HETATM   23  C4  UNL     1       5.273   0.416   0.145  1.00  0.00     0.116 C 
HETATM   24  C5  UNL     1       6.384   1.147  -0.621  1.00  0.00     0.054 C 
HETATM   25  C6  UNL     1       4.792  -0.784  -0.613  1.00  0.00     0.069 C 
HETATM   26  C7  UNL     1       3.273  -0.729  -0.836  1.00  0.00     0.124 C 
HETATM   27 CL1  UNL     1       3.022   0.622  -1.997  1.00  0.00    -0.121 Cl
BRANCH  23  28
HETATM   28  O2  UNL     1       5.868   0.051   1.375  1.00  0.00    -0.382 OA
ATOM     29  H2  UNL     1       6.551  -0.591   1.220  1.00  0.00     0.211 HD
ENDBRANCH  23  28
BRANCH  18  30
HETATM   30  O3  UNL     1       3.275  -1.274   1.434  1.00  0.00    -0.383 OA
ATOM     31  H3  UNL     1       3.134  -2.182   1.194  1.00  0.00     0.211 HD
ENDBRANCH  18  30
ENDBRANCH   1  18
TORSDOF 5
