REMARK  19 active torsions:
REMARK  status: ('A' for Active; 'I' for Inactive)
REMARK    1  A    between atoms: C2_2  and  C3_3 
REMARK    2  A    between atoms: C3_3  and  C4_4 
REMARK    3  A    between atoms: C4_4  and  N1_5 
REMARK       I    between atoms: N1_5  and  C5_7 
REMARK    4  A    between atoms: C5_7  and  C6_9 
REMARK    5  A    between atoms: N2_11  and  C8_12 
REMARK    6  A    between atoms: N3_21  and  C17_22 
REMARK    7  A    between atoms: C17_22  and  O2_23 
REMARK    8  A    between atoms: C17_22  and  C18_25 
REMARK    9  A    between atoms: C18_25  and  C19_26 
REMARK   10  A    between atoms: C18_25  and  N4_33 
REMARK   11  A    between atoms: C19_26  and  C20_27 
REMARK   12  A    between atoms: C20_27  and  C21_28 
REMARK   13  A    between atoms: C21_28  and  O4_30 
REMARK   14  A    between atoms: O4_30  and  C22_31 
REMARK       I    between atoms: N4_33  and  C24_35 
REMARK   15  A    between atoms: C24_35  and  C25_37 
REMARK   16  A    between atoms: C25_37  and  N5_38 
REMARK   17  A    between atoms: C25_37  and  C33_49 
REMARK       I    between atoms: N5_38  and  C26_40 
REMARK   18  A    between atoms: C26_40  and  O7_42 
REMARK   19  A    between atoms: O7_42  and  C27_43 
ROOT
HETATM    1  C18 UNL     1       0.415   1.200  -0.534  1.00  0.00     0.159 C 
ENDROOT
BRANCH   1   2
HETATM    2  C17 UNL     1      -0.627   0.691   0.351  1.00  0.00     0.137 C 
BRANCH   2   3
HETATM    3  N3  UNL     1      -1.980   0.398   0.081  1.00  0.00    -0.347 N 
HETATM    4  C6  UNL     1      -2.883  -0.107   1.115  1.00  0.00     0.206 C 
HETATM    5  C7  UNL     1      -3.594  -1.347   0.671  1.00  0.00     0.308 C 
HETATM    6  N2  UNL     1      -3.644  -1.476  -0.771  1.00  0.00     0.101 N 
HETATM    7  C15 UNL     1      -3.754  -0.241  -1.453  1.00  0.00     0.293 C 
HETATM    8  C16 UNL     1      -2.505   0.585  -1.248  1.00  0.00     0.156 C 
BRANCH   4   9
HETATM    9  C5  UNL     1      -3.794   0.953   1.596  1.00  0.00     0.242 C 
HETATM   10  N1  UNL     1      -4.828   0.691   2.531  1.00  0.00    -0.359 N 
ATOM     11  H1  UNL     1      -4.929  -0.266   2.869  1.00  0.00     0.162 HD
HETATM   12  O1  UNL     1      -3.674   2.131   1.179  1.00  0.00    -0.271 OA
BRANCH  10  13
HETATM   13  C4  UNL     1      -5.734   1.665   3.031  1.00  0.00     0.122 C 
BRANCH  13  14
HETATM   14  C3  UNL     1      -5.160   2.801   3.798  1.00  0.00     0.019 C 
BRANCH  14  15
HETATM   15  C2  UNL     1      -4.453   2.465   5.058  1.00  0.00    -0.003 C 
HETATM   16  C1  UNL     1      -3.266   1.571   4.931  1.00  0.00     0.005 C 
ENDBRANCH  14  15
ENDBRANCH  13  14
ENDBRANCH  10  13
ENDBRANCH   4   9
BRANCH   6  17
HETATM   17  C8  UNL     1      -4.657  -2.446  -1.168  1.00  0.00     0.156 C 
HETATM   18  C9  UNL     1      -6.043  -1.993  -0.734  1.00  0.00     0.049 C 
HETATM   19  C10 UNL     1      -4.686  -2.603  -2.649  1.00  0.00     0.041 C 
HETATM   20  C11 UNL     1      -5.471  -3.821  -3.093  1.00  0.00     0.002 C 
HETATM   21  C12 UNL     1      -5.089  -5.071  -2.377  1.00  0.00     0.000 C 
HETATM   22  C13 UNL     1      -5.201  -4.876  -0.893  1.00  0.00     0.002 C 
HETATM   23  C14 UNL     1      -4.354  -3.720  -0.413  1.00  0.00     0.041 C 
ENDBRANCH   6  17
ENDBRANCH   2   3
BRANCH   2  24
HETATM   24  O2  UNL     1      -0.296   0.456   1.592  1.00  0.00    -0.348 OA
ATOM     25  H2  UNL     1       0.615   0.653   1.774  1.00  0.00     0.219 HD
ENDBRANCH   2  24
ENDBRANCH   1   2
BRANCH   1  26
HETATM   26  C19 UNL     1       0.132   2.499  -1.219  1.00  0.00     0.043 C 
BRANCH  26  27
HETATM   27  C20 UNL     1      -0.138   3.661  -0.333  1.00  0.00     0.113 C 
BRANCH  27  28
HETATM   28  C21 UNL     1      -0.374   4.845  -1.235  1.00  0.00     0.258 C 
HETATM   29  O3  UNL     1      -0.611   5.988  -0.746  1.00  0.00    -0.265 OA
BRANCH  28  30
HETATM   30  O4  UNL     1      -0.346   4.752  -2.608  1.00  0.00    -0.322 OA
BRANCH  30  31
HETATM   31  C22 UNL     1      -0.557   5.835  -3.477  1.00  0.00     0.174 C 
HETATM   32  C23 UNL     1      -1.892   6.501  -3.330  1.00  0.00     0.034 C 
ENDBRANCH  30  31
ENDBRANCH  28  30
ENDBRANCH  27  28
ENDBRANCH  26  27
ENDBRANCH   1  26
BRANCH   1  33
HETATM   33  N4  UNL     1       1.673   1.251   0.206  1.00  0.00    -0.347 N 
HETATM   34  C24 UNL     1       2.855   0.635  -0.180  1.00  0.00     0.241 C 
HETATM   35  O5  UNL     1       2.874  -0.036  -1.258  1.00  0.00    -0.271 OA
ATOM     36  H4  UNL     1       1.684   1.782   1.077  1.00  0.00     0.163 HD
BRANCH  34  37
HETATM   37  C25 UNL     1       4.114   0.702   0.580  1.00  0.00     0.182 C 
BRANCH  37  38
HETATM   38  N5  UNL     1       5.173  -0.068  -0.053  1.00  0.00    -0.323 N 
HETATM   39  C26 UNL     1       5.730  -1.218   0.557  1.00  0.00     0.361 C 
HETATM   40  O6  UNL     1       5.306  -1.605   1.684  1.00  0.00    -0.238 OA
ATOM     41  H5  UNL     1       5.525   0.229  -0.963  1.00  0.00     0.165 HD
BRANCH  39  42
HETATM   42  O7  UNL     1       6.736  -1.963  -0.024  1.00  0.00    -0.299 OA
BRANCH  42  43
HETATM   43  C27 UNL     1       7.307  -3.126   0.563  1.00  0.00     0.133 C 
HETATM   44  C28 UNL     1       7.074  -4.318  -0.319  1.00  0.00     0.032 C 
HETATM   45  C29 UNL     1       7.965  -4.389  -1.520  1.00  0.00     0.002 C 
HETATM   46  C30 UNL     1       9.372  -3.933  -1.284  1.00  0.00     0.000 C 
HETATM   47  C31 UNL     1       9.684  -3.843   0.184  1.00  0.00     0.002 C 
HETATM   48  C32 UNL     1       8.761  -2.924   0.915  1.00  0.00     0.032 C 
ENDBRANCH  42  43
ENDBRANCH  39  42
ENDBRANCH  37  38
BRANCH  37  49
HETATM   49  C33 UNL     1       4.608   2.101   0.868  1.00  0.00     0.009 C 
HETATM   50  C34 UNL     1       4.863   2.915  -0.358  1.00  0.00     0.012 C 
HETATM   51  C35 UNL     1       3.854   2.821   1.946  1.00  0.00     0.012 C 
ENDBRANCH  37  49
ENDBRANCH  34  37
ENDBRANCH   1  33
TORSDOF 19
