REMARK  7 active torsions:
REMARK  status: ('A' for Active; 'I' for Inactive)
REMARK    1  A    between atoms: C4_4  and  S1_5 
REMARK    2  A    between atoms: S1_5  and  C5_6 
REMARK    3  A    between atoms: C5_6  and  C6_7 
REMARK    4  A    between atoms: C6_7  and  C7_8 
REMARK    5  A    between atoms: C7_8  and  C8_9 
REMARK    6  A    between atoms: C8_9  and  C9_10 
REMARK    7  A    between atoms: C9_10  and  N1_11 
ROOT
HETATM    1  C6  UNL     1      -1.374  -0.770  -0.229  1.00  0.00     0.010 C 
ENDROOT
BRANCH   1   2
HETATM    2  C5  UNL     1      -1.508   0.615  -0.787  1.00  0.00     0.081 C 
BRANCH   2   3
HETATM    3  S1  UNL     1      -2.633   1.601   0.215  1.00  0.00    -0.112 SA
BRANCH   3   4
HETATM    4  C4  UNL     1      -4.274   0.903   0.039  1.00  0.00     0.069 A 
HETATM    5  C3  UNL     1      -5.114   1.345  -0.987  1.00  0.00     0.037 A 
HETATM    6  C2  UNL     1      -6.371   0.850  -1.164  1.00  0.00     0.004 A 
HETATM    7  C1  UNL     1      -6.859  -0.121  -0.314  1.00  0.00     0.017 A 
HETATM    8  C15 UNL     1      -6.010  -0.540   0.692  1.00  0.00     0.089 A 
HETATM    9  N2  UNL     1      -4.761  -0.041   0.859  1.00  0.00    -0.361 N 
ATOM     10  H2  UNL     1      -4.181  -0.389   1.622  1.00  0.00     0.165 HD
ENDBRANCH   3   4
ENDBRANCH   2   3
ENDBRANCH   1   2
BRANCH   1  11
HETATM   11  C7  UNL     1      -0.829  -0.799   1.165  1.00  0.00     0.002 C 
BRANCH  11  12
HETATM   12  C8  UNL     1       0.547  -0.182   1.289  1.00  0.00     0.030 C 
BRANCH  12  13
HETATM   13  C9  UNL     1       1.511  -0.937   0.406  1.00  0.00     0.272 C 
BRANCH  13  14
HETATM   14  N1  UNL     1       2.861  -0.390   0.476  1.00  0.00     0.088 N 
HETATM   15  C10 UNL     1       2.836   0.919  -0.142  1.00  0.00     0.272 C 
HETATM   16  C11 UNL     1       4.214   1.407  -0.508  1.00  0.00     0.030 C 
HETATM   17  C12 UNL     1       5.317   0.569   0.104  1.00  0.00     0.003 C 
HETATM   18  C13 UNL     1       5.155  -0.882  -0.253  1.00  0.00     0.030 C 
HETATM   19  C14 UNL     1       3.710  -1.318  -0.245  1.00  0.00     0.272 C 
ENDBRANCH  13  14
ENDBRANCH  12  13
ENDBRANCH  11  12
ENDBRANCH   1  11
TORSDOF 7
