REMARK  7 active torsions:
REMARK  status: ('A' for Active; 'I' for Inactive)
REMARK    1  A    between atoms: C5_6  and  C6_7 
REMARK    2  A    between atoms: C6_7  and  C7_8 
REMARK    3  A    between atoms: C7_8  and  C8_9 
REMARK    4  A    between atoms: C8_9  and  C9_10 
REMARK    5  A    between atoms: C9_10  and  C10_11 
REMARK    6  A    between atoms: C10_11  and  C11_12 
REMARK    7  A    between atoms: C11_12  and  C12_13 
ROOT
HETATM    1  N1  UNL     1       9.131  -0.106   0.701  1.00  0.00    -0.190 NA
HETATM    2  C1  UNL     1       7.976  -0.181   0.662  1.00  0.00     0.117 C 
HETATM    3  C2  UNL     1       6.525  -0.264   0.636  1.00  0.00     0.113 A 
HETATM    4  C3  UNL     1       5.836  -0.600  -0.512  1.00  0.00     0.041 A 
HETATM    5  C4  UNL     1       4.456  -0.686  -0.563  1.00  0.00     0.011 A 
HETATM    6  C5  UNL     1       3.735  -0.425   0.584  1.00  0.00    -0.043 A 
HETATM    7  C18 UNL     1       4.446  -0.092   1.719  1.00  0.00     0.096 A 
HETATM    8  N2  UNL     1       5.790  -0.016   1.735  1.00  0.00    -0.357 N 
ATOM      9  H2  UNL     1       6.263   0.236   2.603  1.00  0.00     0.166 HD
ENDROOT
BRANCH   6  10
HETATM   10  C6  UNL     1       2.228  -0.500   0.604  1.00  0.00     0.040 C 
BRANCH  10  11
HETATM   11  C7  UNL     1       1.739   0.879   0.244  1.00  0.00     0.005 C 
BRANCH  11  12
HETATM   12  C8  UNL     1       0.232   0.967   0.221  1.00  0.00     0.000 C 
BRANCH  12  13
HETATM   13  C9  UNL     1      -0.336   0.004  -0.795  1.00  0.00     0.000 C 
BRANCH  13  14
HETATM   14  C10 UNL     1      -1.831   0.087  -0.827  1.00  0.00     0.005 C 
BRANCH  14  15
HETATM   15  C11 UNL     1      -2.495  -0.242   0.482  1.00  0.00     0.038 C 
BRANCH  15  16
HETATM   16  C12 UNL     1      -3.957  -0.116   0.279  1.00  0.00    -0.058 A 
HETATM   17  C13 UNL     1      -4.553   1.102   0.509  1.00  0.00     0.007 A 
HETATM   18  C14 UNL     1      -5.917   1.215   0.318  1.00  0.00     0.001 A 
HETATM   19  C15 UNL     1      -6.669   0.137  -0.093  1.00  0.00     0.000 A 
HETATM   20  C16 UNL     1      -6.089  -1.082  -0.325  1.00  0.00     0.001 A 
HETATM   21  C17 UNL     1      -4.712  -1.175  -0.127  1.00  0.00     0.007 A 
ENDBRANCH  15  16
ENDBRANCH  14  15
ENDBRANCH  13  14
ENDBRANCH  12  13
ENDBRANCH  11  12
ENDBRANCH  10  11
ENDBRANCH   6  10
TORSDOF 7
