REMARK  2 active torsions:
REMARK  status: ('A' for Active; 'I' for Inactive)
REMARK    1  A    between atoms: C2_2  and  O1_3 
REMARK    2  A    between atoms: O1_3  and  C3_4 
ROOT
HETATM    1  C3  UNL     1       1.130  -0.460  -0.094  1.00  0.00     0.145 C 
HETATM    2  C4  UNL     1       0.471  -1.106  -1.261  1.00  0.00     0.038 C 
HETATM    3  C5  UNL     1      -0.956  -1.467  -1.069  1.00  0.00     0.064 C 
HETATM    4  C6  UNL     1      -1.673  -0.606  -0.084  1.00  0.00     0.158 C 
HETATM    5  O2  UNL     1      -0.920  -0.284   1.036  1.00  0.00    -0.357 OA
HETATM    6  C7  UNL     1       0.149   0.476   0.624  1.00  0.00     0.202 C 
HETATM    7  S1  UNL     1      -2.344   0.911  -0.860  1.00  0.00    -0.119 SA
HETATM    8  C8  UNL     1      -3.591   1.336   0.375  1.00  0.00     0.088 C 
HETATM    9  C9  UNL     1      -4.243   0.094   0.839  1.00  0.00     0.088 C 
HETATM   10  S2  UNL     1      -3.219  -1.318   0.492  1.00  0.00    -0.119 SA
ENDROOT
BRANCH   1  11
HETATM   11  O1  UNL     1       2.217   0.322  -0.431  1.00  0.00    -0.384 OA
BRANCH  11  12
HETATM   12  C2  UNL     1       3.383  -0.010   0.206  1.00  0.00     0.163 C 
HETATM   13  C1  UNL     1       4.458   0.945  -0.282  1.00  0.00     0.033 C 
ENDBRANCH  11  12
ENDBRANCH   1  11
TORSDOF 2
