REMARK  5 active torsions:
REMARK  status: ('A' for Active; 'I' for Inactive)
REMARK    1  A    between atoms: C4_4  and  C5_5 
REMARK    2  A    between atoms: C7_8  and  C8_9 
REMARK    3  A    between atoms: C8_9  and  C9_10 
REMARK    4  A    between atoms: C9_10  and  C10_11 
REMARK       I    between atoms: N3_17  and  C12_19 
REMARK       I    between atoms: C12_19  and  N4_21 
REMARK       I    between atoms: N4_21  and  C13_23 
REMARK       I    between atoms: C13_23  and  N5_25 
REMARK    5  A    between atoms: N5_25  and  C14_27 
ROOT
HETATM    1  C10 UNL     1       0.749   2.081   0.309  1.00  0.00     0.142 A 
HETATM    2  N1  UNL     1       1.495   2.382   1.382  1.00  0.00    -0.280 N 
ATOM      3  H1  UNL     1       2.363   2.918   1.368  1.00  0.00     0.189 HD
HETATM    4  N2  UNL     1       0.927   1.874   2.459  1.00  0.00    -0.263 N 
ATOM      5  H2  UNL     1       1.270   1.944   3.417  1.00  0.00     0.190 HD
HETATM    6  C11 UNL     1      -0.207   1.237   2.046  1.00  0.00     0.248 A 
HETATM    7  N3  UNL     1      -1.039   0.614   2.796  1.00  0.00    -0.273 N 
ATOM      8  H3  UNL     1      -0.902   0.549   3.805  1.00  0.00     0.174 HD
HETATM    9  C12 UNL     1      -2.182   0.006   2.148  1.00  0.00     0.331 C 
HETATM   10  O1  UNL     1      -2.445  -1.186   2.359  1.00  0.00    -0.246 OA
HETATM   11  N4  UNL     1      -2.938   0.816   1.305  1.00  0.00    -0.261 N 
ATOM     12  H4  UNL     1      -2.625   1.782   1.209  1.00  0.00     0.175 HD
HETATM   13  C13 UNL     1      -4.080   0.460   0.572  1.00  0.00     0.324 C 
HETATM   14  O2  UNL     1      -4.665   1.337  -0.165  1.00  0.00    -0.247 OA
HETATM   15  N5  UNL     1      -4.652  -0.803   0.575  1.00  0.00    -0.335 N 
ATOM     16  H5  UNL     1      -4.233  -1.540   1.142  1.00  0.00     0.165 HD
HETATM   17  O3  UNL     1      -0.264   1.389   0.774  1.00  0.00    -0.264 OA
ENDROOT
BRANCH   1  18
HETATM   18  C9  UNL     1       0.927   2.402  -1.125  1.00  0.00     0.091 C 
BRANCH  18  19
HETATM   19  C8  UNL     1       2.191   3.131  -1.383  1.00  0.00     0.054 C 
BRANCH  19  20
HETATM   20  C7  UNL     1       3.369   2.278  -1.036  1.00  0.00    -0.016 A 
HETATM   21  S1  UNL     1       5.026   2.772  -1.038  1.00  0.00    -0.106 SA
HETATM   22  C6  UNL     1       5.747   1.295  -0.594  1.00  0.00     0.061 A 
HETATM   23  C5  UNL     1       4.683   0.453  -0.455  1.00  0.00    -0.029 A 
HETATM   24  C18 UNL     1       3.460   0.966  -0.685  1.00  0.00     0.026 A 
BRANCH  23  25
HETATM   25  C4  UNL     1       4.869  -0.979  -0.074  1.00  0.00     0.014 C 
HETATM   26  C2  UNL     1       5.808  -1.746  -0.551  1.00  0.00    -0.087 C 
HETATM   27  C1  UNL     1       6.843  -1.360  -1.535  1.00  0.00     0.043 C 
HETATM   28  C3  UNL     1       5.884  -3.169  -0.081  1.00  0.00     0.043 C 
ENDBRANCH  23  25
ENDBRANCH  19  20
ENDBRANCH  18  19
ENDBRANCH   1  18
BRANCH  15  29
HETATM   29  C14 UNL     1      -5.846  -1.100  -0.219  1.00  0.00     0.023 C 
HETATM   30  C15 UNL     1      -6.980  -0.214   0.197  1.00  0.00     0.037 C 
HETATM   31  C16 UNL     1      -5.490  -0.892  -1.670  1.00  0.00     0.037 C 
HETATM   32  C17 UNL     1      -6.277  -2.545  -0.050  1.00  0.00     0.037 C 
ENDBRANCH  15  29
TORSDOF 5
