REMARK  6 active torsions:
REMARK  status: ('A' for Active; 'I' for Inactive)
REMARK    1  A    between atoms: C1_2  and  C2_4 
REMARK    2  A    between atoms: N1_9  and  C6_10 
REMARK    3  A    between atoms: C6_10  and  C7_11 
REMARK       I    between atoms: C7_11  and  N2_13 
REMARK    4  A    between atoms: C12_18  and  C13_19 
REMARK    5  A    between atoms: C13_19  and  O4_20 
REMARK    6  A    between atoms: N3_22  and  O5_24 
ROOT
HETATM    1  C7  UNL     1      -0.102  -0.355  -1.023  1.00  0.00     0.249 C 
HETATM    2  O3  UNL     1       0.305  -0.610  -2.183  1.00  0.00    -0.271 OA
HETATM    3  N2  UNL     1      -1.468  -0.061  -0.833  1.00  0.00    -0.338 N 
HETATM    4  C8  UNL     1      -2.324  -0.110  -2.031  1.00  0.00     0.127 C 
HETATM    5  C9  UNL     1      -2.788   1.317  -2.343  1.00  0.00     0.020 C 
HETATM    6  C10 UNL     1      -3.058   2.057  -1.039  1.00  0.00     0.004 C 
HETATM    7  C11 UNL     1      -3.427   1.031   0.004  1.00  0.00     0.034 C 
HETATM    8  C12 UNL     1      -2.128   0.299   0.387  1.00  0.00     0.163 C 
ENDROOT
BRANCH   1   9
HETATM    9  C6  UNL     1       0.824  -0.365   0.099  1.00  0.00     0.376 C 
BRANCH   9  10
HETATM   10  N1  UNL     1       2.216  -0.644  -0.243  1.00  0.00     0.113 N 
HETATM   11  C2  UNL     1       2.992  -0.844   0.969  1.00  0.00     0.332 C 
HETATM   12  C3  UNL     1       3.931   0.238   1.333  1.00  0.00     0.121 C 
HETATM   13  S1  UNL     1       3.192   1.900   1.073  1.00  0.00    -0.165 SA
HETATM   14  C4  UNL     1       2.454   1.778  -0.610  1.00  0.00     0.104 C 
HETATM   15  C5  UNL     1       2.788   0.398  -1.063  1.00  0.00     0.284 C 
BRANCH  11  16
HETATM   16  C1  UNL     1       3.741  -2.118   0.833  1.00  0.00     0.208 C 
HETATM   17  O1  UNL     1       3.673  -2.841  -0.191  1.00  0.00    -0.646 OA
HETATM   18  O2  UNL     1       4.576  -2.585   1.863  1.00  0.00    -0.646 OA
ENDBRANCH  11  16
ENDBRANCH   9  10
ENDBRANCH   1   9
BRANCH   8  19
HETATM   19  C13 UNL     1      -2.397  -0.779   1.332  1.00  0.00     0.159 C 
HETATM   20  N3  UNL     1      -3.257  -1.707   1.091  1.00  0.00    -0.249 N 
ATOM     21  H3  UNL     1      -3.774  -1.697   0.212  1.00  0.00     0.196 HD
BRANCH  19  22
HETATM   22  O4  UNL     1      -1.714  -0.824   2.533  1.00  0.00    -0.347 OA
ATOM     23  H4  UNL     1      -1.889  -1.526   3.148  1.00  0.00     0.219 HD
ENDBRANCH  19  22
BRANCH  20  24
HETATM   24  O5  UNL     1      -3.488  -2.708   1.999  1.00  0.00    -0.288 OA
ATOM     25  H5  UNL     1      -4.122  -3.392   1.821  1.00  0.00     0.244 HD
ENDBRANCH  20  24
ENDBRANCH   8  19
TORSDOF 6
