REMARK  6 active torsions:
REMARK  status: ('A' for Active; 'I' for Inactive)
REMARK    1  A    between atoms: O1_1  and  C1_3 
REMARK    2  A    between atoms: C1_3  and  C2_4 
REMARK    3  A    between atoms: C4_8  and  C5_9 
REMARK    4  A    between atoms: C5_9  and  C6_10 
REMARK    5  A    between atoms: C11_16  and  O5_17 
REMARK    6  A    between atoms: C12_19  and  O6_20 
ROOT
HETATM    1  C2  UNL     1      -2.705   0.248  -0.601  1.00  0.00     0.179 C 
HETATM    2  O2  UNL     1      -1.482   0.766  -0.988  1.00  0.00    -0.350 OA
HETATM    3  C3  UNL     1      -0.412   0.221  -0.312  1.00  0.00     0.271 C 
HETATM    4  O3  UNL     1       0.738   0.314  -1.133  1.00  0.00    -0.351 OA
HETATM    5  C4  UNL     1       1.889   0.249  -0.296  1.00  0.00     0.149 C 
HETATM    6  C8  UNL     1       1.791  -1.010   0.509  1.00  0.00     0.001 C 
HETATM    7  C9  UNL     1       0.673  -1.711   0.660  1.00  0.00    -0.016 C 
HETATM    8  C10 UNL     1      -0.563  -1.231  -0.005  1.00  0.00     0.095 C 
HETATM    9  C11 UNL     1      -1.806  -1.536   0.800  1.00  0.00     0.162 C 
HETATM   10  C12 UNL     1      -2.697  -0.329   0.786  1.00  0.00     0.178 C 
ENDROOT
BRANCH   5  11
HETATM   11  C5  UNL     1       3.064   0.154  -1.211  1.00  0.00     0.070 C 
BRANCH  11  12
HETATM   12  C6  UNL     1       4.402   0.096  -0.567  1.00  0.00     0.148 A 
HETATM   13  C7  UNL     1       4.768   1.299   0.294  1.00  0.00     0.200 A 
HETATM   14  O4  UNL     1       4.592   0.025   0.789  1.00  0.00    -0.381 OA
ENDBRANCH  11  12
ENDBRANCH   5  11
BRANCH   1  15
HETATM   15  C1  UNL     1      -3.815   1.289  -0.662  1.00  0.00     0.198 C 
BRANCH  15  16
HETATM   16  O1  UNL     1      -3.979   1.793  -1.942  1.00  0.00    -0.398 OA
ATOM     17  H1  UNL     1      -4.671   2.442  -1.980  1.00  0.00     0.209 HD
ENDBRANCH  15  16
ENDBRANCH   1  15
BRANCH   9  18
HETATM   18  O5  UNL     1      -1.473  -1.905   2.102  1.00  0.00    -0.392 OA
ATOM     19  H5  UNL     1      -2.254  -2.097   2.608  1.00  0.00     0.210 HD
ENDBRANCH   9  18
BRANCH  10  20
HETATM   20  O6  UNL     1      -2.317   0.587   1.750  1.00  0.00    -0.390 OA
ATOM     21  H6  UNL     1      -2.312   0.222   2.627  1.00  0.00     0.210 HD
ENDBRANCH  10  20
TORSDOF 6
