REMARK  4 active torsions:
REMARK  status: ('A' for Active; 'I' for Inactive)
REMARK    1  A    between atoms: C2_2  and  C13_25 
REMARK    2  A    between atoms: N1_3  and  N2_5 
REMARK       I    between atoms: N2_5  and  C3_7 
REMARK    3  A    between atoms: C3_7  and  C4_9 
REMARK    4  A    between atoms: C7_13  and  S1_14 
ROOT
HETATM    1  C4  UNL     1       0.895  -0.803  -0.282  1.00  0.00     0.059 C 
HETATM    2  C5  UNL     1       1.818  -0.872   0.737  1.00  0.00     0.075 C 
HETATM    3  C6  UNL     1       3.210  -0.844   0.849  1.00  0.00     0.196 C 
HETATM    4  O2  UNL     1       3.620  -0.998   2.018  1.00  0.00    -0.287 OA
HETATM    5  C7  UNL     1       4.267  -0.688  -0.023  1.00  0.00     0.134 C 
HETATM    6  C9  UNL     1       4.383  -0.418  -1.372  1.00  0.00     0.109 C 
HETATM    7 CL1  UNL     1       6.047  -0.355  -1.920  1.00  0.00    -0.078 Cl
HETATM    8  C10 UNL     1       3.451  -0.190  -2.369  1.00  0.00     0.196 C 
HETATM    9  O5  UNL     1       4.028   0.040  -3.463  1.00  0.00    -0.287 OA
HETATM   10  C11 UNL     1       2.074  -0.145  -2.492  1.00  0.00     0.081 C 
HETATM   11  C12 UNL     1       1.072  -0.529  -1.639  1.00  0.00     0.053 C 
HETATM   12 CL2  UNL     1      -0.469  -0.753  -2.466  1.00  0.00    -0.083 Cl
ENDROOT
BRANCH   1  13
HETATM   13  C3  UNL     1      -0.470  -1.050   0.097  1.00  0.00     0.271 C 
HETATM   14  N2  UNL     1      -1.370  -0.034   0.519  1.00  0.00    -0.266 N 
ATOM     15  H2  UNL     1      -1.040   0.930   0.559  1.00  0.00     0.190 HD
HETATM   16  O1  UNL     1      -0.908  -2.224   0.059  1.00  0.00    -0.266 OA
BRANCH  14  17
HETATM   17  N1  UNL     1      -2.676  -0.307   0.877  1.00  0.00    -0.303 N 
HETATM   18  C2  UNL     1      -3.705   0.256   0.357  1.00  0.00     0.038 C 
HETATM   19  C1  UNL     1      -3.576   1.287  -0.713  1.00  0.00     0.068 C 
ATOM     20  H1  UNL     1      -2.833  -1.004   1.605  1.00  0.00     0.186 HD
BRANCH  18  21
HETATM   21  C13 UNL     1      -5.044  -0.119   0.819  1.00  0.00     0.135 C 
HETATM   22  C14 UNL     1      -5.909  -0.682  -0.286  1.00  0.00     0.058 C 
HETATM   23  C15 UNL     1      -5.684   1.136   1.416  1.00  0.00     0.058 C 
HETATM   24  F1  UNL     1      -4.942  -1.025   1.839  1.00  0.00    -0.237 F 
ENDBRANCH  18  21
ENDBRANCH  14  17
ENDBRANCH   1  13
BRANCH   5  25
HETATM   25  S1  UNL     1       5.802  -0.880   0.792  1.00  0.00     0.177 S 
HETATM   26  C8  UNL     1       6.395   0.678   1.419  1.00  0.00     0.167 C 
HETATM   27  O3  UNL     1       5.678  -1.804   1.988  1.00  0.00    -0.223 OA
HETATM   28  O4  UNL     1       6.829  -1.424  -0.153  1.00  0.00    -0.223 OA
ENDBRANCH   5  25
TORSDOF 4
