REMARK  12 active torsions:
REMARK  status: ('A' for Active; 'I' for Inactive)
REMARK    1  A    between atoms: C2_2  and  C3_3 
REMARK    2  A    between atoms: C2_2  and  C18_21 
REMARK    3  A    between atoms: C3_3  and  C4_4 
REMARK    4  A    between atoms: C4_4  and  C5_5 
REMARK    5  A    between atoms: C10_11  and  C12_13 
REMARK    6  A    between atoms: C18_21  and  C19_22 
REMARK    7  A    between atoms: C19_22  and  C20_24 
REMARK    8  A    between atoms: C20_24  and  C21_25 
REMARK    9  A    between atoms: C21_25  and  C22_26 
REMARK   10  A    between atoms: C23_27  and  C24_28 
REMARK   11  A    between atoms: C26_30  and  C27_31 
REMARK   12  A    between atoms: C29_35  and  C30_36 
ROOT
HETATM    1  C1  UNL     1       0.354  -0.837  -1.513  1.00  0.00     0.019 C 
HETATM    2  C2  UNL     1       0.001  -1.414  -0.375  1.00  0.00    -0.060 C 
ENDROOT
BRANCH   2   3
HETATM    3  C3  UNL     1      -1.335  -2.032  -0.275  1.00  0.00     0.007 C 
BRANCH   3   4
HETATM    4  C4  UNL     1      -2.324  -1.627   0.677  1.00  0.00     0.012 C 
BRANCH   4   5
HETATM    5  C5  UNL     1      -3.024  -0.370   0.796  1.00  0.00    -0.004 C 
HETATM    6  C6  UNL     1      -2.358   0.896   1.036  1.00  0.00     0.156 C 
HETATM    7  O1  UNL     1      -1.220   1.236   0.915  1.00  0.00    -0.293 OA
HETATM    8  C7  UNL     1      -3.273   2.012   1.540  1.00  0.00     0.084 C 
HETATM    9  C8  UNL     1      -4.689   1.464   1.586  1.00  0.00     0.014 C 
HETATM   10  C9  UNL     1      -5.073   0.880   0.245  1.00  0.00     0.016 C 
HETATM   11  C10 UNL     1      -6.529   0.682   0.045  1.00  0.00     0.039 C 
HETATM   12  C16 UNL     1      -4.160  -0.187  -0.245  1.00  0.00    -0.009 C 
HETATM   13  C11 UNL     1      -7.076   1.530  -1.121  1.00  0.00     0.025 C 
HETATM   14  C13 UNL     1      -7.003  -0.717  -0.222  1.00  0.00     0.019 C 
HETATM   15  C14 UNL     1      -6.091  -1.402  -1.222  1.00  0.00     0.002 C 
HETATM   16  C15 UNL     1      -4.781  -1.520  -0.433  1.00  0.00     0.014 C 
HETATM   17  C17 UNL     1      -3.567   0.191  -1.604  1.00  0.00     0.021 C 
BRANCH  11  18
HETATM   18  C12 UNL     1      -7.314   1.150   1.228  1.00  0.00     0.239 C 
HETATM   19  N1  UNL     1      -7.363   0.444   2.461  1.00  0.00    -0.061 NA
HETATM   20  O2  UNL     1      -7.995   2.223   1.208  1.00  0.00    -0.276 OA
ENDBRANCH  11  18
ENDBRANCH   4   5
ENDBRANCH   3   4
ENDBRANCH   2   3
BRANCH   2  21
HETATM   21  C18 UNL     1       0.976  -1.523   0.777  1.00  0.00     0.121 C 
BRANCH  21  22
HETATM   22  C19 UNL     1       2.321  -1.235   0.365  1.00  0.00     0.161 C 
HETATM   23  O3  UNL     1       3.077  -2.145  -0.037  1.00  0.00    -0.292 OA
BRANCH  22  24
HETATM   24  C20 UNL     1       2.889   0.149   0.392  1.00  0.00     0.106 C 
BRANCH  24  25
HETATM   25  C21 UNL     1       4.071   0.346   0.024  1.00  0.00    -0.125 C 
BRANCH  25  26
HETATM   26  C22 UNL     1       5.369   0.593  -0.376  1.00  0.00     0.052 C 
HETATM   27  C23 UNL     1       6.134  -0.446  -0.800  1.00  0.00    -0.010 C 
BRANCH  27  28
HETATM   28  C24 UNL     1       7.526  -0.237  -1.235  1.00  0.00     0.039 C 
HETATM   29  C25 UNL     1       8.434  -0.966  -0.246  1.00  0.00     0.032 C 
HETATM   30  C26 UNL     1       8.649   0.083   0.823  1.00  0.00     0.110 C 
HETATM   31  C28 UNL     1       8.632   1.349   0.027  1.00  0.00    -0.007 C 
HETATM   32  C29 UNL     1       7.992   1.156  -1.140  1.00  0.00    -0.061 C 
BRANCH  30  33
HETATM   33  C27 UNL     1       9.985  -0.102   1.473  1.00  0.00     0.180 C 
HETATM   34  O4  UNL     1      10.817   0.820   1.471  1.00  0.00    -0.647 OA
HETATM   35  O5  UNL     1      10.271  -1.322   2.077  1.00  0.00    -0.647 OA
ENDBRANCH  30  33
BRANCH  32  36
HETATM   36  C30 UNL     1       7.826   2.213  -2.160  1.00  0.00     0.149 C 
HETATM   37 CL1  UNL     1       8.596   3.742  -1.641  1.00  0.00    -0.126 Cl
ENDBRANCH  32  36
ENDBRANCH  27  28
ENDBRANCH  25  26
ENDBRANCH  24  25
ENDBRANCH  22  24
ENDBRANCH  21  22
ENDBRANCH   2  21
TORSDOF 12
