REMARK  7 active torsions:
REMARK  status: ('A' for Active; 'I' for Inactive)
REMARK    1  A    between atoms: C2_2  and  O1_3 
REMARK    2  A    between atoms: O1_3  and  C3_4 
REMARK    3  A    between atoms: C3_4  and  C4_6 
REMARK    4  A    between atoms: C11_13  and  C12_14 
REMARK    5  A    between atoms: C12_14  and  C13_15 
REMARK    6  A    between atoms: C13_15  and  C14_16 
REMARK    7  A    between atoms: C14_16  and  C15_17 
ROOT
HETATM    1  C4  UNL     1      -3.007   0.795   0.353  1.00  0.00     0.072 C 
HETATM    2  C5  UNL     1      -3.626   1.062   1.668  1.00  0.00     0.024 C 
HETATM    3  C6  UNL     1      -3.396   2.489   2.215  1.00  0.00     0.002 C 
HETATM    4  C7  UNL     1      -1.884   2.845   2.347  1.00  0.00     0.005 C 
HETATM    5  C8  UNL     1      -1.280   1.813   1.551  1.00  0.00    -0.009 C 
HETATM    6  C9  UNL     1       0.060   1.385   1.244  1.00  0.00     0.043 C 
HETATM    7  C10 UNL     1       0.077  -0.139   1.477  1.00  0.00    -0.054 C 
HETATM    8  C11 UNL     1       1.389  -0.693   1.634  1.00  0.00    -0.019 C 
HETATM    9  C20 UNL     1      -1.146  -0.841   1.039  1.00  0.00    -0.042 C 
HETATM   10  C21 UNL     1      -0.860  -2.309   0.778  1.00  0.00     0.038 C 
HETATM   11  C22 UNL     1      -2.076  -3.202   1.085  1.00  0.00     0.016 C 
HETATM   12  C23 UNL     1      -2.369  -4.190   0.010  1.00  0.00     0.045 C 
HETATM   13  C24 UNL     1      -2.637  -3.497  -1.310  1.00  0.00     0.063 C 
HETATM   14  N1  UNL     1      -1.578  -2.617  -1.550  1.00  0.00    -0.373 N 
HETATM   15  C25 UNL     1      -1.779  -1.415  -2.243  1.00  0.00     0.067 C 
HETATM   16  C26 UNL     1      -1.632  -0.193  -1.367  1.00  0.00     0.081 C 
HETATM   17  C27 UNL     1      -2.121  -0.352   0.054  1.00  0.00    -0.050 C 
HETATM   18  C28 UNL     1      -0.482  -2.628  -0.631  1.00  0.00     0.136 C 
HETATM   19  C29 UNL     1      -2.001   1.950   0.231  1.00  0.00     0.029 C 
ENDROOT
BRANCH   8  20
HETATM   20  C12 UNL     1       2.519  -0.692   0.679  1.00  0.00     0.028 C 
BRANCH  20  21
HETATM   21  C13 UNL     1       3.122   0.604   0.260  1.00  0.00     0.005 C 
BRANCH  21  22
HETATM   22  C14 UNL     1       4.233   0.580  -0.707  1.00  0.00     0.020 C 
BRANCH  22  23
HETATM   23  C15 UNL     1       5.507  -0.090  -0.448  1.00  0.00     0.004 C 
HETATM   24  C16 UNL     1       5.524  -1.562  -0.232  1.00  0.00     0.027 C 
HETATM   25  C17 UNL     1       6.526   0.231  -1.554  1.00  0.00     0.021 C 
HETATM   26  C18 UNL     1       7.890   0.010  -0.990  1.00  0.00     0.012 C 
HETATM   27  C19 UNL     1       8.014   0.932   0.218  1.00  0.00     0.075 C 
HETATM   28  S1  UNL     1       6.393   0.663   0.983  1.00  0.00    -0.159 SA
ENDBRANCH  22  23
ENDBRANCH  21  22
ENDBRANCH  20  21
ENDBRANCH   8  20
BRANCH   1  29
HETATM   29  C3  UNL     1      -4.076   0.922  -0.660  1.00  0.00     0.272 C 
HETATM   30  O2  UNL     1      -4.499  -0.105  -1.225  1.00  0.00    -0.264 OA
BRANCH  29  31
HETATM   31  O1  UNL     1      -4.636   2.140  -1.011  1.00  0.00    -0.321 OA
BRANCH  31  32
HETATM   32  C2  UNL     1      -5.648   2.301  -1.959  1.00  0.00     0.174 C 
HETATM   33  C1  UNL     1      -5.970   3.795  -2.039  1.00  0.00     0.034 C 
ENDBRANCH  31  32
ENDBRANCH  29  31
ENDBRANCH   1  29
TORSDOF 7
