REMARK  11 active torsions:
REMARK  status: ('A' for Active; 'I' for Inactive)
REMARK       I    between atoms: C1_2  and  N1_3 
REMARK    1  A    between atoms: C1_2  and  O7_33 
REMARK    2  A    between atoms: N1_3  and  C2_5 
REMARK    3  A    between atoms: C2_5  and  C3_6 
REMARK    4  A    between atoms: C3_6  and  C4_9 
REMARK    5  A    between atoms: C4_9  and  C5_11 
REMARK    6  A    between atoms: C5_11  and  N2_12 
REMARK    7  A    between atoms: C5_11  and  C19_30 
REMARK       I    between atoms: N2_12  and  C6_14 
REMARK    8  A    between atoms: C6_14  and  C7_16 
REMARK       I    between atoms: N3_20  and  C11_21 
REMARK    9  A    between atoms: C11_21  and  C12_23 
REMARK   10  A    between atoms: O7_33  and  C20_34 
REMARK   11  A    between atoms: C20_34  and  C21_35 
ROOT
HETATM    1  C5  UNL     1       1.180  -1.251  -0.666  1.00  0.00     0.262 C 
ENDROOT
BRANCH   1   2
HETATM    2  C4  UNL     1       2.254  -0.783   0.219  1.00  0.00     0.232 C 
HETATM    3  O2  UNL     1       2.114   0.432   0.562  1.00  0.00    -0.288 OA
BRANCH   2   4
HETATM    4  C3  UNL     1       3.417  -1.437   0.763  1.00  0.00     0.321 C 
HETATM    5  F1  UNL     1       3.011  -2.605   1.497  1.00  0.00    -0.196 F 
HETATM    6  F2  UNL     1       3.995  -0.618   1.760  1.00  0.00    -0.196 F 
BRANCH   4   7
HETATM    7  C2  UNL     1       4.492  -1.918  -0.119  1.00  0.00     0.212 C 
BRANCH   7   8
HETATM    8  N1  UNL     1       5.123  -1.028  -1.021  1.00  0.00    -0.331 N 
HETATM    9  C1  UNL     1       5.879   0.121  -0.794  1.00  0.00     0.360 C 
HETATM   10  O1  UNL     1       6.107   0.527   0.360  1.00  0.00    -0.239 OA
ATOM     11  H1  UNL     1       5.004  -1.269  -2.005  1.00  0.00     0.164 HD
BRANCH   9  12
HETATM   12  O7  UNL     1       6.404   0.848  -1.850  1.00  0.00    -0.299 OA
BRANCH  12  13
HETATM   13  C20 UNL     1       7.174   2.005  -1.514  1.00  0.00     0.219 C 
BRANCH  13  14
HETATM   14  C21 UNL     1       8.339   1.544  -0.674  1.00  0.00    -0.034 A 
HETATM   15  C22 UNL     1       8.843   2.272   0.364  1.00  0.00     0.009 A 
HETATM   16  C23 UNL     1       9.911   1.776   1.094  1.00  0.00     0.001 A 
HETATM   17  C24 UNL     1      10.465   0.561   0.781  1.00  0.00     0.000 A 
HETATM   18  C25 UNL     1       9.946  -0.177  -0.280  1.00  0.00     0.001 A 
HETATM   19  C26 UNL     1       8.881   0.308  -1.013  1.00  0.00     0.009 A 
ENDBRANCH  13  14
ENDBRANCH  12  13
ENDBRANCH   9  12
ENDBRANCH   7   8
ENDBRANCH   4   7
ENDBRANCH   2   4
ENDBRANCH   1   2
BRANCH   1  20
HETATM   20  N2  UNL     1       0.143  -0.226  -0.835  1.00  0.00    -0.339 N 
HETATM   21  C6  UNL     1      -1.139  -0.384  -0.280  1.00  0.00     0.241 C 
HETATM   22  O3  UNL     1      -1.350  -1.454   0.387  1.00  0.00    -0.271 OA
ATOM     23  H2  UNL     1       0.357   0.618  -1.366  1.00  0.00     0.163 HD
BRANCH  21  24
HETATM   24  C7  UNL     1      -2.232   0.618  -0.435  1.00  0.00     0.179 C 
HETATM   25  C8  UNL     1      -1.782   1.910   0.168  1.00  0.00     0.037 C 
HETATM   26  C9  UNL     1      -2.444   1.950   1.521  1.00  0.00     0.022 C 
HETATM   27  C10 UNL     1      -3.091   0.589   1.702  1.00  0.00     0.127 C 
HETATM   28  N3  UNL     1      -3.395   0.260   0.337  1.00  0.00    -0.338 N 
HETATM   29  C11 UNL     1      -4.598  -0.333  -0.119  1.00  0.00     0.229 C 
HETATM   30  O4  UNL     1      -4.640  -0.607  -1.361  1.00  0.00    -0.273 OA
BRANCH  29  31
HETATM   31  C12 UNL     1      -5.771  -0.652   0.684  1.00  0.00     0.110 C 
HETATM   32  C13 UNL     1      -6.716   0.478   0.970  1.00  0.00    -0.016 C 
HETATM   33  C14 UNL     1      -7.701   1.007   0.073  1.00  0.00    -0.029 C 
HETATM   34  C15 UNL     1      -9.099   0.445  -0.104  1.00  0.00     0.038 C 
HETATM   35  C16 UNL     1      -9.072  -1.068  -0.530  1.00  0.00     0.083 C 
HETATM   36  C17 UNL     1      -7.788  -1.522  -0.194  1.00  0.00    -0.182 C 
HETATM   37  C18 UNL     1      -6.491  -1.933   0.139  1.00  0.00     0.097 C 
ENDBRANCH  29  31
ENDBRANCH  21  24
ENDBRANCH   1  20
BRANCH   1  38
HETATM   38  C19 UNL     1       1.693  -1.524  -2.023  1.00  0.00     0.204 C 
HETATM   39  O5  UNL     1       1.636  -0.618  -2.893  1.00  0.00    -0.646 OA
HETATM   40  O6  UNL     1       2.228  -2.737  -2.374  1.00  0.00    -0.646 OA
ENDBRANCH   1  38
TORSDOF 11
