REMARK  11 active torsions:
REMARK  status: ('A' for Active; 'I' for Inactive)
REMARK    1  A    between atoms: C2_2  and  O1_5 
REMARK    2  A    between atoms: O1_5  and  C5_6 
REMARK    3  A    between atoms: C8_10  and  C9_11 
REMARK    4  A    between atoms: C10_12  and  C11_13 
REMARK    5  A    between atoms: C11_13  and  C12_14 
REMARK    6  A    between atoms: C12_14  and  C13_15 
REMARK    7  A    between atoms: C18_22  and  C19_23 
REMARK    8  A    between atoms: C19_23  and  C20_24 
REMARK    9  A    between atoms: C21_27  and  C22_28 
REMARK   10  A    between atoms: C22_28  and  O5_29 
REMARK   11  A    between atoms: C23_31  and  C24_32 
ROOT
HETATM    1  C5  UNL     1      -2.515  -0.517  -0.094  1.00  0.00     0.275 C 
HETATM    2  O2  UNL     1      -2.214  -0.307   1.209  1.00  0.00    -0.355 OA
HETATM    3  C6  UNL     1      -1.216   0.463   1.610  1.00  0.00     0.132 C 
HETATM    4  C7  UNL     1       0.036  -0.349   1.857  1.00  0.00     0.041 C 
HETATM    5  C8  UNL     1       0.628  -0.712   0.518  1.00  0.00     0.016 C 
HETATM    6  C17 UNL     1      -0.095  -0.038  -0.582  1.00  0.00     0.017 C 
HETATM    7  C18 UNL     1      -0.206   1.449  -0.388  1.00  0.00     0.010 C 
HETATM    8  C21 UNL     1      -0.903   1.743   0.887  1.00  0.00     0.043 C 
HETATM    9  C23 UNL     1      -1.363  -0.728  -0.999  1.00  0.00     0.147 C 
ENDROOT
BRANCH   5  10
HETATM   10  C9  UNL     1       2.054  -0.268   0.515  1.00  0.00    -0.024 C 
HETATM   11  C10 UNL     1       3.060  -1.108   0.358  1.00  0.00    -0.013 C 
BRANCH  11  12
HETATM   12  C11 UNL     1       4.461  -0.650   0.358  1.00  0.00     0.036 A 
HETATM   13  C14 UNL     1       4.780   0.425  -0.654  1.00  0.00     0.050 A 
HETATM   14  C15 UNL     1       5.067   1.405   0.424  1.00  0.00     0.013 A 
HETATM   15  C16 UNL     1       4.780   0.443   1.312  1.00  0.00     0.103 A 
HETATM   16  F2  UNL     1       4.787   0.477   2.672  1.00  0.00    -0.210 F 
BRANCH  12  17
HETATM   17  C12 UNL     1       5.440  -1.772   0.321  1.00  0.00     0.052 C 
BRANCH  17  18
HETATM   18  C13 UNL     1       6.874  -1.345   0.330  1.00  0.00     0.223 C 
HETATM   19  F1  UNL     1       7.628  -2.529   0.298  1.00  0.00    -0.255 F 
ENDBRANCH  17  18
ENDBRANCH  12  17
ENDBRANCH  11  12
ENDBRANCH   5  10
BRANCH   7  20
HETATM   20  C19 UNL     1      -0.851   2.050  -1.623  1.00  0.00     0.118 C 
BRANCH  20  21
HETATM   21  C20 UNL     1      -0.988   3.502  -1.542  1.00  0.00     0.172 C 
HETATM   22  O3  UNL     1      -0.048   4.247  -1.989  1.00  0.00    -0.648 OA
HETATM   23  O4  UNL     1      -2.086   4.157  -1.007  1.00  0.00    -0.648 OA
ENDBRANCH  20  21
ENDBRANCH   7  20
BRANCH   9  24
HETATM   24  C24 UNL     1      -0.978  -2.159  -1.162  1.00  0.00     0.182 C 
HETATM   25  O6  UNL     1      -1.507  -3.132  -0.632  1.00  0.00    -0.648 OA
HETATM   26  O7  UNL     1       0.106  -2.393  -2.015  1.00  0.00    -0.648 OA
ENDBRANCH   9  24
BRANCH   8  27
HETATM   27  C22 UNL     1      -0.016   2.613   1.779  1.00  0.00     0.171 C 
BRANCH  27  28
HETATM   28  O5  UNL     1       0.345   3.815   1.229  1.00  0.00    -0.400 OA
ATOM     29  H5  UNL     1       0.896   4.355   1.783  1.00  0.00     0.209 HD
ENDBRANCH  27  28
ENDBRANCH   8  27
BRANCH   1  30
HETATM   30  O1  UNL     1      -3.301  -1.668  -0.129  1.00  0.00    -0.351 OA
BRANCH  30  31
HETATM   31  C2  UNL     1      -4.587  -1.526  -0.522  1.00  0.00     0.053 C 
HETATM   32  C1  UNL     1      -4.727  -0.983  -1.929  1.00  0.00     0.045 C 
HETATM   33  C3  UNL     1      -5.473  -0.775   0.442  1.00  0.00     0.045 C 
HETATM   34  C4  UNL     1      -5.173  -2.950  -0.574  1.00  0.00     0.045 C 
ENDBRANCH  30  31
ENDBRANCH   1  30
TORSDOF 11
