REMARK  11 active torsions:
REMARK  status: ('A' for Active; 'I' for Inactive)
REMARK    1  A    between atoms: C4_4  and  O1_5 
REMARK    2  A    between atoms: O1_5  and  C5_6 
REMARK    3  A    between atoms: C8_10  and  O3_11 
REMARK    4  A    between atoms: O3_11  and  C9_12 
REMARK    5  A    between atoms: C9_12  and  C10_14 
REMARK    6  A    between atoms: C12_16  and  O5_18 
REMARK    7  A    between atoms: C15_21  and  O6_22 
REMARK    8  A    between atoms: C18_26  and  O7_27 
REMARK    9  A    between atoms: N1_34  and  C23_35 
REMARK   10  A    between atoms: C23_35  and  C24_36 
REMARK   11  A    between atoms: C24_36  and  C25_37 
ROOT
HETATM    1  C5  UNL     1       0.162  -0.083  -0.817  1.00  0.00     0.295 C 
HETATM    2  O2  UNL     1       1.033  -0.690  -1.713  1.00  0.00    -0.351 OA
HETATM    3  C6  UNL     1       2.188  -1.173  -1.181  1.00  0.00     0.151 C 
HETATM    4  C7  UNL     1       3.096  -1.563  -2.349  1.00  0.00     0.042 C 
HETATM    5  C8  UNL     1       2.970  -0.156  -0.371  1.00  0.00     0.170 C 
HETATM    6  C14 UNL     1       1.991   0.285   0.721  1.00  0.00     0.086 C 
HETATM    7  C15 UNL     1       2.499   1.429   1.521  1.00  0.00     0.128 C 
HETATM    8  C16 UNL     1       1.235   2.123   1.974  1.00  0.00     0.035 C 
HETATM    9  C17 UNL     1       0.125   1.597   1.055  1.00  0.00     0.046 C 
HETATM   10  C18 UNL     1       0.869   0.992  -0.086  1.00  0.00     0.116 C 
ENDROOT
BRANCH   1  11
HETATM   11  O1  UNL     1      -0.852   0.471  -1.598  1.00  0.00    -0.348 OA
BRANCH  11  12
HETATM   12  C4  UNL     1      -2.087   0.066  -1.313  1.00  0.00     0.160 C 
HETATM   13  C3  UNL     1      -3.032   1.176  -1.065  1.00  0.00     0.003 C 
HETATM   14  C2  UNL     1      -2.932   2.430  -1.381  1.00  0.00    -0.021 C 
HETATM   15  C22 UNL     1      -4.332   0.743  -0.397  1.00  0.00     0.392 C 
HETATM   16  C1  UNL     1      -1.785   3.034  -2.095  1.00  0.00     0.036 C 
HETATM   17  O8  UNL     1      -5.393   0.967  -1.286  1.00  0.00    -0.352 OA
HETATM   18  N1  UNL     1      -4.278  -0.705  -0.414  1.00  0.00     0.128 N 
HETATM   19  C21 UNL     1      -5.079   0.156  -2.399  1.00  0.00     0.207 C 
HETATM   20  C20 UNL     1      -4.234  -0.977  -1.864  1.00  0.00     0.253 C 
HETATM   21  C19 UNL     1      -2.801  -0.789  -2.368  1.00  0.00     0.074 C 
BRANCH  18  22
HETATM   22  C23 UNL     1      -5.507  -1.215   0.098  1.00  0.00     0.277 C 
BRANCH  22  23
HETATM   23  C24 UNL     1      -5.610  -0.973   1.581  1.00  0.00     0.030 C 
BRANCH  23  24
HETATM   24  C25 UNL     1      -6.912  -1.511   2.142  1.00  0.00    -0.003 C 
HETATM   25  C26 UNL     1      -6.923  -1.221   3.633  1.00  0.00     0.005 C 
ENDBRANCH  23  24
ENDBRANCH  22  23
ENDBRANCH  18  22
ENDBRANCH  11  12
ENDBRANCH   1  11
BRANCH  10  26
HETATM   26  O7  UNL     1       1.524   1.909  -0.896  1.00  0.00    -0.384 OA
ATOM     27  H7  UNL     1       1.978   2.599  -0.427  1.00  0.00     0.210 HD
ENDBRANCH  10  26
BRANCH   5  28
HETATM   28  O3  UNL     1       4.085  -0.812   0.185  1.00  0.00    -0.312 OA
BRANCH  28  29
HETATM   29  C9  UNL     1       5.393  -0.387   0.058  1.00  0.00     0.266 C 
HETATM   30  O4  UNL     1       5.600   0.653  -0.596  1.00  0.00    -0.265 OA
BRANCH  29  31
HETATM   31  C10 UNL     1       6.469  -1.180   0.699  1.00  0.00     0.122 A 
HETATM   32  C11 UNL     1       7.732  -1.303  -0.112  1.00  0.00     0.056 A 
HETATM   33  C12 UNL     1       7.709  -0.525   1.180  1.00  0.00     0.068 A 
HETATM   34  C13 UNL     1       7.906   0.961   1.036  1.00  0.00     0.047 C 
BRANCH  33  35
HETATM   35  O5  UNL     1       8.390  -1.118   2.244  1.00  0.00    -0.389 OA
ATOM     36  H5  UNL     1       9.185  -0.698   2.552  1.00  0.00     0.210 HD
ENDBRANCH  33  35
ENDBRANCH  29  31
ENDBRANCH  28  29
ENDBRANCH   5  28
BRANCH   7  37
HETATM   37  O6  UNL     1       3.292   1.037   2.598  1.00  0.00    -0.395 OA
ATOM     38  H6  UNL     1       3.617   1.769   3.110  1.00  0.00     0.210 HD
ENDBRANCH   7  37
TORSDOF 11
