REMARK  9 active torsions:
REMARK  status: ('A' for Active; 'I' for Inactive)
REMARK    1  A    between atoms: O1_2  and  C2_3 
REMARK    2  A    between atoms: C7_11  and  N2_12 
REMARK    3  A    between atoms: C8_15  and  N3_16 
REMARK    4  A    between atoms: N3_16  and  N4_18 
REMARK    5  A    between atoms: C9_20  and  C11_22 
REMARK    6  A    between atoms: N5_24  and  C12_25 
REMARK    7  A    between atoms: C12_25  and  C13_26 
REMARK    8  A    between atoms: C13_26  and  O2_27 
REMARK    9  A    between atoms: C13_26  and  C14_29 
ROOT
HETATM    1  C2  UNL     1      -1.290   2.787   0.024  1.00  0.00     0.097 A 
HETATM    2  C3  UNL     1      -1.546   4.126  -0.226  1.00  0.00     0.041 A 
HETATM    3  C4  UNL     1      -0.548   5.029  -0.502  1.00  0.00     0.029 A 
HETATM    4  C5  UNL     1       0.739   4.552  -0.521  1.00  0.00     0.063 A 
HETATM    5 CL1  UNL     1       2.090   5.636  -0.865  1.00  0.00    -0.082 Cl
HETATM    6  C6  UNL     1       1.055   3.221  -0.279  1.00  0.00     0.086 A 
HETATM    7  N1  UNL     1       2.340   2.837  -0.294  1.00  0.00    -0.336 N 
ATOM      8  H1  UNL     1       3.074   3.515  -0.499  1.00  0.00     0.168 HD
HETATM    9  C7  UNL     1       2.656   1.559  -0.039  1.00  0.00     0.146 A 
HETATM   10  C8  UNL     1       1.677   0.666   0.229  1.00  0.00     0.167 A 
HETATM   11  N5  UNL     1       0.356   1.047   0.246  1.00  0.00    -0.322 N 
HETATM   12  C20 UNL     1      -0.004   2.318   0.000  1.00  0.00     0.098 A 
ENDROOT
BRANCH  11  13
HETATM   13  C12 UNL     1      -0.592   0.021   0.541  1.00  0.00     0.167 C 
BRANCH  13  14
HETATM   14  C13 UNL     1      -0.952  -0.862  -0.642  1.00  0.00     0.169 C 
BRANCH  14  15
HETATM   15  O2  UNL     1      -1.486  -0.262  -1.729  1.00  0.00    -0.389 OA
ATOM     16  H2  UNL     1      -1.711  -0.814  -2.469  1.00  0.00     0.210 HD
ENDBRANCH  14  15
BRANCH  14  17
HETATM   17  C14 UNL     1      -1.938  -1.876  -0.103  1.00  0.00    -0.026 A 
HETATM   18  C15 UNL     1      -3.281  -1.604  -0.006  1.00  0.00     0.010 A 
HETATM   19  C16 UNL     1      -4.180  -2.549   0.498  1.00  0.00     0.002 A 
HETATM   20  C17 UNL     1      -3.729  -3.783   0.910  1.00  0.00     0.024 A 
HETATM   21  C18 UNL     1      -2.399  -4.060   0.816  1.00  0.00     0.034 A 
HETATM   22 CL3  UNL     1      -1.876  -5.652   1.357  1.00  0.00    -0.084 Cl
HETATM   23  C19 UNL     1      -1.537  -3.130   0.324  1.00  0.00     0.033 A 
ENDBRANCH  14  17
ENDBRANCH  13  14
ENDBRANCH  11  13
BRANCH  10  24
HETATM   24  N3  UNL     1       1.949  -0.550   0.478  1.00  0.00    -0.282 N 
ATOM     25  H3  UNL     1       1.165  -1.173   0.671  1.00  0.00     0.188 HD
BRANCH  24  26
HETATM   26  N4  UNL     1       3.209  -1.098   0.509  1.00  0.00    -0.306 N 
HETATM   27  C9  UNL     1       3.697  -2.011  -0.225  1.00  0.00     0.013 C 
HETATM   28  C10 UNL     1       5.123  -2.409   0.048  1.00  0.00     0.066 C 
ATOM     29  H4  UNL     1       3.837  -0.720   1.218  1.00  0.00     0.186 HD
BRANCH  27  30
HETATM   30  C11 UNL     1       3.020  -2.730  -1.324  1.00  0.00     0.168 C 
HETATM   31 CL2  UNL     1       2.929  -4.478  -1.019  1.00  0.00    -0.124 Cl
ENDBRANCH  27  30
ENDBRANCH  24  26
ENDBRANCH  10  24
BRANCH   9  32
HETATM   32  N2  UNL     1       3.921   1.193  -0.054  1.00  0.00    -0.382 N 
ATOM     33  H22 UNL     1       4.660   1.867  -0.256  1.00  0.00     0.157 HD
ATOM     34  H21 UNL     1       4.161   0.221   0.140  1.00  0.00     0.157 HD
ENDBRANCH   9  32
BRANCH   1  35
HETATM   35  O1  UNL     1      -2.335   1.940   0.299  1.00  0.00    -0.354 OA
HETATM   36  C1  UNL     1      -3.680   2.392   0.332  1.00  0.00     0.210 C 
ENDBRANCH   1  35
TORSDOF 9
