REMARK  6 active torsions:
REMARK  status: ('A' for Active; 'I' for Inactive)
REMARK    1  A    between atoms: N2_3  and  C2_5 
REMARK    2  A    between atoms: C2_5  and  C4_8 
REMARK    3  A    between atoms: N4_11  and  C7_12 
REMARK    4  A    between atoms: C7_12  and  C8_13 
REMARK    5  A    between atoms: C13_18  and  O1_19 
REMARK    6  A    between atoms: C14_21  and  O2_22 
ROOT
HETATM    1  N1  UNL     1      -4.048   3.526   1.525  1.00  0.00    -0.172 NA
HETATM    2  C1  UNL     1      -3.385   2.794   0.922  1.00  0.00     0.178 C 
HETATM    3  N2  UNL     1      -2.592   1.912   0.212  1.00  0.00    -0.310 N 
ATOM      4  H2  UNL     1      -1.862   2.260  -0.410  1.00  0.00     0.173 HD
ENDROOT
BRANCH   3   5
HETATM    5  C2  UNL     1      -2.807   0.503   0.359  1.00  0.00     0.212 C 
HETATM    6  C3  UNL     1      -4.179   0.206  -0.056  1.00  0.00     0.086 C 
HETATM    7  N3  UNL     1      -5.269  -0.011  -0.380  1.00  0.00    -0.195 NA
BRANCH   5   8
HETATM    8  C4  UNL     1      -1.803  -0.344  -0.371  1.00  0.00     0.057 A 
HETATM    9  C5  UNL     1      -1.714  -0.177  -1.841  1.00  0.00     0.048 C 
HETATM   10  C6  UNL     1      -0.302   0.288  -2.140  1.00  0.00     0.274 C 
HETATM   11  N4  UNL     1       0.475  -0.072  -0.985  1.00  0.00     0.097 N 
HETATM   12  C12 UNL     1      -0.401  -0.278   0.112  1.00  0.00     0.268 A 
HETATM   13  C13 UNL     1      -0.424  -1.753   0.498  1.00  0.00     0.182 A 
HETATM   14  C14 UNL     1      -1.889  -1.772   0.120  1.00  0.00     0.162 A 
BRANCH  11  15
HETATM   15  C7  UNL     1       1.553   0.848  -0.716  1.00  0.00     0.277 C 
BRANCH  15  16
HETATM   16  C8  UNL     1       2.296   0.375   0.510  1.00  0.00     0.014 C 
HETATM   17  C9  UNL     1       3.453   1.319   0.840  1.00  0.00     0.006 C 
HETATM   18  C10 UNL     1       4.327   0.437  -0.045  1.00  0.00     0.001 C 
HETATM   19  C11 UNL     1       3.353  -0.686   0.219  1.00  0.00     0.006 C 
ENDBRANCH  15  16
ENDBRANCH  11  15
BRANCH  13  20
HETATM   20  O1  UNL     1       0.289  -2.586  -0.346  1.00  0.00    -0.391 OA
ATOM     21  H1  UNL     1       0.275  -3.505  -0.106  1.00  0.00     0.210 HD
ENDBRANCH  13  20
BRANCH  14  22
HETATM   22  O2  UNL     1      -2.231  -2.699  -0.859  1.00  0.00    -0.392 OA
ATOM     23  H2  UNL     1      -2.285  -3.596  -0.551  1.00  0.00     0.210 HD
ENDBRANCH  14  22
ENDBRANCH   5   8
ENDBRANCH   3   5
TORSDOF 6
