REMARK  3 active torsions:
REMARK  status: ('A' for Active; 'I' for Inactive)
REMARK    1  A    between atoms: C2_2  and  C3_3 
REMARK    2  A    between atoms: C6_8  and  C7_9 
REMARK    3  A    between atoms: C11_13  and  C12_14 
ROOT
HETATM    1  C7  UNL     1      -0.248  -0.309   0.107  1.00  0.00     0.026 A 
HETATM    2  C8  UNL     1      -0.478  -1.556   0.654  1.00  0.00    -0.046 A 
HETATM    3  C9  UNL     1       0.631  -2.520   0.807  1.00  0.00     0.049 C 
HETATM    4  C10 UNL     1      -1.736  -1.993   1.060  1.00  0.00     0.025 A 
HETATM    5  C11 UNL     1      -2.818  -1.167   0.923  1.00  0.00     0.060 A 
HETATM    6  C13 UNL     1      -2.637   0.096   0.381  1.00  0.00     0.008 A 
HETATM    7  C14 UNL     1      -3.550   1.111   0.179  1.00  0.00     0.039 A 
HETATM    8  C15 UNL     1      -2.822   2.146  -0.341  1.00  0.00     0.006 A 
HETATM    9  C16 UNL     1      -3.363   3.487  -0.733  1.00  0.00     0.068 C 
HETATM   10  N2  UNL     1      -1.531   1.769  -0.448  1.00  0.00    -0.358 N 
ATOM     11  H2  UNL     1      -0.785   2.364  -0.808  1.00  0.00     0.166 HD
HETATM   12  C17 UNL     1      -1.358   0.513  -0.020  1.00  0.00     0.056 A 
ENDROOT
BRANCH   1  13
HETATM   13  C6  UNL     1       1.110   0.118  -0.220  1.00  0.00     0.069 A 
HETATM   14  C4  UNL     1       1.630   0.673  -1.363  1.00  0.00     0.034 A 
HETATM   15  N1  UNL     1       2.988   0.780  -1.219  1.00  0.00    -0.348 N 
HETATM   16  C5  UNL     1       0.884   1.034  -2.605  1.00  0.00     0.070 C 
HETATM   17  C3  UNL     1       3.337   0.306  -0.020  1.00  0.00     0.081 A 
ATOM     18  H1  UNL     1       3.629   1.160  -1.915  1.00  0.00     0.167 HD
HETATM   19  N3  UNL     1       2.211  -0.088   0.570  1.00  0.00    -0.344 N 
ATOM     20  H3  UNL     1       2.172  -0.497   1.504  1.00  0.00     0.167 HD
BRANCH  17  21
HETATM   21  C2  UNL     1       4.737   0.234   0.546  1.00  0.00     0.072 C 
HETATM   22  C1  UNL     1       5.323  -1.101   0.150  1.00  0.00     0.013 C 
ENDBRANCH  17  21
ENDBRANCH   1  13
BRANCH   5  23
HETATM   23  C12 UNL     1      -4.164  -1.618   1.349  1.00  0.00     0.418 C 
HETATM   24  F1  UNL     1      -4.100  -2.902   1.855  1.00  0.00    -0.166 F 
HETATM   25  F2  UNL     1      -5.075  -1.624   0.315  1.00  0.00    -0.166 F 
HETATM   26  F3  UNL     1      -4.645  -0.824   2.398  1.00  0.00    -0.166 F 
ENDBRANCH   5  23
TORSDOF 3
