REMARK  4 active torsions:
REMARK  status: ('A' for Active; 'I' for Inactive)
REMARK    1  A    between atoms: C2_2  and  C4_4 
REMARK    2  A    between atoms: C7_7  and  C8_8 
REMARK    3  A    between atoms: C10_10  and  C11_11 
REMARK    4  A    between atoms: C16_16  and  C17_17 
ROOT
HETATM    1  C8  UNL     1      -0.028  -0.647  -0.659  1.00  0.00    -0.026 A 
HETATM    2  C9  UNL     1      -0.924   0.404  -0.524  1.00  0.00     0.017 A 
HETATM    3  C10 UNL     1      -2.217   0.179  -0.084  1.00  0.00    -0.049 A 
HETATM    4  C15 UNL     1      -2.569  -1.119   0.215  1.00  0.00     0.024 A 
HETATM    5  C16 UNL     1      -1.673  -2.161   0.077  1.00  0.00     0.049 A 
HETATM    6  C18 UNL     1      -0.381  -1.942  -0.363  1.00  0.00     0.025 A 
ENDROOT
BRANCH   1   7
HETATM    7  C7  UNL     1       1.326  -0.336  -1.113  1.00  0.00     0.219 C 
HETATM    8  C6  UNL     1       2.217  -1.541  -1.134  1.00  0.00     0.040 C 
HETATM    9  C5  UNL     1       3.584  -0.842  -0.889  1.00  0.00     0.040 C 
HETATM   10  C4  UNL     1       3.072  -0.056   0.343  1.00  0.00     0.214 C 
HETATM   11  N1  UNL     1       2.004   0.684  -0.317  1.00  0.00    -0.059 N 
ATOM     12  H12 UNL     1       1.394   1.201   0.316  1.00  0.00     0.278 HD
ATOM     13  H11 UNL     1       2.318   1.496  -0.849  1.00  0.00     0.278 HD
BRANCH  10  14
HETATM   14  C2  UNL     1       4.138   0.762   0.921  1.00  0.00    -0.063 C 
HETATM   15  C1  UNL     1       4.647   0.356   2.090  1.00  0.00     0.016 C 
HETATM   16  C3  UNL     1       4.702   1.954   0.292  1.00  0.00     0.044 C 
ENDBRANCH  10  14
ENDBRANCH   1   7
BRANCH   3  17
HETATM   17  C11 UNL     1      -3.254   1.216   0.064  1.00  0.00    -0.024 C 
HETATM   18  C12 UNL     1      -2.745   2.613  -0.107  1.00  0.00     0.019 C 
HETATM   19  C13 UNL     1      -3.986   1.073   1.372  1.00  0.00     0.019 C 
HETATM   20  C14 UNL     1      -4.273   0.995  -1.063  1.00  0.00     0.019 C 
ENDBRANCH   3  17
BRANCH   5  21
HETATM   21  C17 UNL     1      -2.053  -3.572   0.412  1.00  0.00     0.417 C 
HETATM   22  F1  UNL     1      -1.071  -4.173   1.166  1.00  0.00    -0.166 F 
HETATM   23  F2  UNL     1      -2.132  -4.254  -0.817  1.00  0.00    -0.166 F 
HETATM   24  F3  UNL     1      -3.272  -3.566   1.048  1.00  0.00    -0.166 F 
ENDBRANCH   5  21
TORSDOF 4
