REMARK  12 active torsions:
REMARK  status: ('A' for Active; 'I' for Inactive)
REMARK    1  A    between atoms: N1_1  and  C1_5 
REMARK    2  A    between atoms: C1_5  and  C2_6 
REMARK    3  A    between atoms: C3_7  and  N2_8 
REMARK       I    between atoms: N3_14  and  C6_16 
REMARK    4  A    between atoms: C6_16  and  C7_18 
REMARK    5  A    between atoms: C7_18  and  C8_19 
REMARK    6  A    between atoms: C8_19  and  C9_20 
REMARK    7  A    between atoms: C9_20  and  N4_21 
REMARK       I    between atoms: N4_21  and  C10_24 
REMARK       I    between atoms: C10_24  and  N5_25 
REMARK       I    between atoms: C10_24  and  N6_29 
REMARK    8  A    between atoms: C11_33  and  N7_34 
REMARK    9  A    between atoms: C12_38  and  N8_39 
REMARK   10  A    between atoms: C14_44  and  N11_45 
REMARK   11  A    between atoms: C14_44  and  C15_50 
REMARK   12  A    between atoms: N11_45  and  N12_47 
ROOT
HETATM    1  C2  UNL     1      -2.351  -0.686  -1.413  1.00  0.00     0.088 C 
HETATM    2  C3  UNL     1      -1.281   0.333  -1.552  1.00  0.00     0.198 C 
HETATM    3  C4  UNL     1      -0.101   0.059  -0.716  1.00  0.00     0.088 C 
HETATM    4  C5  UNL     1      -0.403   0.287   0.705  1.00  0.00     0.027 C 
HETATM    5  N3  UNL     1       0.666   0.330   1.429  1.00  0.00    -0.332 N 
ATOM      6  H3  UNL     1       0.530   0.485   2.428  1.00  0.00     0.168 HD
HETATM    7  C6  UNL     1       1.983   0.188   0.999  1.00  0.00     0.221 C 
HETATM    8  O1  UNL     1       2.590   1.159   0.507  1.00  0.00    -0.273 OA
HETATM    9  C11 UNL     1      -1.603   0.471   1.505  1.00  0.00     0.277 C 
HETATM   10  C12 UNL     1      -2.910   0.391   0.831  1.00  0.00     0.066 C 
HETATM   11  C14 UNL     1      -3.131  -0.694  -0.183  1.00  0.00     0.180 C 
ENDROOT
BRANCH   9  12
HETATM   12  N7  UNL     1      -1.491   1.783   2.128  1.00  0.00    -0.065 N 
ATOM     13  H73 UNL     1      -0.629   1.904   2.660  1.00  0.00     0.275 HD
ATOM     14  H72 UNL     1      -1.334   2.536   1.458  1.00  0.00     0.275 HD
ATOM     15  H71 UNL     1      -2.333   1.912   2.689  1.00  0.00     0.275 HD
ENDBRANCH   9  12
BRANCH   2  16
HETATM   16  N2  UNL     1      -0.831   0.301  -2.958  1.00  0.00    -0.074 N 
ATOM     17  H23 UNL     1      -0.541  -0.628  -3.264  1.00  0.00     0.274 HD
ATOM     18  H22 UNL     1      -1.593   0.427  -3.625  1.00  0.00     0.274 HD
ATOM     19  H21 UNL     1      -0.096   1.001  -3.054  1.00  0.00     0.274 HD
ENDBRANCH   2  16
BRANCH   7  20
HETATM   20  C7  UNL     1       2.662  -1.111   1.126  1.00  0.00     0.105 C 
BRANCH  20  21
HETATM   21  C8  UNL     1       4.087  -1.152   0.719  1.00  0.00     0.037 C 
BRANCH  21  22
HETATM   22  C9  UNL     1       5.014  -0.266   1.487  1.00  0.00     0.237 C 
BRANCH  22  23
HETATM   23  N4  UNL     1       6.385  -0.364   1.029  1.00  0.00    -0.022 N 
HETATM   24  C10 UNL     1       6.608   0.166  -0.281  1.00  0.00     0.575 C 
HETATM   25  N5  UNL     1       6.300   1.555  -0.441  1.00  0.00    -0.026 N 
HETATM   26  N6  UNL     1       8.030  -0.048  -0.581  1.00  0.00    -0.026 N 
ATOM     27  H53 UNL     1       5.340   1.736  -0.149  1.00  0.00     0.278 HD
ATOM     28  H52 UNL     1       6.806   2.108   0.251  1.00  0.00     0.278 HD
ATOM     29  H51 UNL     1       6.459   1.933  -1.375  1.00  0.00     0.278 HD
ATOM     30  H63 UNL     1       8.655   0.342   0.124  1.00  0.00     0.278 HD
ATOM     31  H62 UNL     1       8.321  -1.021  -0.484  1.00  0.00     0.278 HD
ATOM     32  H61 UNL     1       8.189   0.330  -1.515  1.00  0.00     0.278 HD
ATOM     33  H42 UNL     1       7.017   0.071   1.701  1.00  0.00     0.281 HD
ATOM     34  H41 UNL     1       6.710  -1.329   1.083  1.00  0.00     0.281 HD
ENDBRANCH  22  23
ENDBRANCH  21  22
ENDBRANCH  20  21
ENDBRANCH   7  20
BRANCH  10  35
HETATM   35  N8  UNL     1      -3.382   1.697   0.424  1.00  0.00    -0.335 N 
HETATM   36  C13 UNL     1      -4.100   2.498   1.091  1.00  0.00     0.201 C 
HETATM   37  N9  UNL     1      -4.457   3.736   0.511  1.00  0.00    -0.067 NA
HETATM   38  N10 UNL     1      -4.576   2.219   2.398  1.00  0.00    -0.067 NA
ATOM     39  H8  UNL     1      -3.104   2.008  -0.507  1.00  0.00     0.168 HD
ENDBRANCH  10  35
BRANCH   1  40
HETATM   40  C1  UNL     1      -1.816  -2.020  -1.887  1.00  0.00     0.239 C 
BRANCH  40  41
HETATM   41  N1  UNL     1      -2.802  -3.058  -1.815  1.00  0.00    -0.079 N 
ATOM     42  H13 UNL     1      -3.193  -3.131  -0.876  1.00  0.00     0.274 HD
ATOM     43  H12 UNL     1      -3.648  -2.799  -2.323  1.00  0.00     0.274 HD
ATOM     44  H11 UNL     1      -2.441  -3.957  -2.134  1.00  0.00     0.274 HD
ENDBRANCH  40  41
ENDBRANCH   1  40
BRANCH  11  45
HETATM   45  N11 UNL     1      -4.574  -0.661  -0.419  1.00  0.00    -0.316 N 
ATOM     46  H11 UNL     1      -5.187  -1.403  -0.082  1.00  0.00     0.181 HD
BRANCH  45  47
HETATM   47  N12 UNL     1      -5.058   0.398  -1.104  1.00  0.00    -0.348 N 
ATOM     48 2H12 UNL     1      -4.432   1.133  -1.435  1.00  0.00     0.176 HD
ATOM     49 1H12 UNL     1      -6.064   0.421  -1.269  1.00  0.00     0.176 HD
ENDBRANCH  45  47
ENDBRANCH  11  45
BRANCH  11  50
HETATM   50  C15 UNL     1      -2.920  -1.980   0.570  1.00  0.00     0.210 C 
HETATM   51  O2  UNL     1      -3.898  -2.735   0.909  1.00  0.00    -0.646 OA
HETATM   52  O3  UNL     1      -1.681  -2.452   0.956  1.00  0.00    -0.646 OA
ENDBRANCH  11  50
TORSDOF 12
