REMARK  8 active torsions:
REMARK  status: ('A' for Active; 'I' for Inactive)
REMARK    1  A    between atoms: C2_2  and  C4_4 
REMARK    2  A    between atoms: C4_4  and  N2_7 
REMARK    3  A    between atoms: N2_7  and  N3_9 
REMARK    4  A    between atoms: C6_11  and  C8_14 
REMARK    5  A    between atoms: C8_14  and  N5_15 
REMARK    6  A    between atoms: C8_14  and  C14_24 
REMARK       I    between atoms: N5_15  and  C9_17 
REMARK    7  A    between atoms: C9_17  and  O2_19 
REMARK    8  A    between atoms: O2_19  and  C10_20 
ROOT
HETATM    1  C4  UNL     1       3.772   0.693  -1.689  1.00  0.00     0.233 C 
HETATM    2  C5  UNL     1       3.820   2.144  -1.869  1.00  0.00     0.090 C 
HETATM    3  N1  UNL     1       3.841   3.292  -2.022  1.00  0.00    -0.195 NA
ENDROOT
BRANCH   1   4
HETATM    4  C2  UNL     1       4.760   0.056  -2.595  1.00  0.00    -0.056 C 
HETATM    5  C1  UNL     1       5.752  -0.685  -2.135  1.00  0.00     0.017 C 
HETATM    6  C3  UNL     1       4.621   0.263  -4.050  1.00  0.00     0.046 C 
ENDBRANCH   1   4
BRANCH   1   7
HETATM    7  N2  UNL     1       2.466   0.157  -2.014  1.00  0.00    -0.313 N 
ATOM      8  H2  UNL     1       2.356  -0.535  -2.755  1.00  0.00     0.182 HD
BRANCH   7   9
HETATM    9  N3  UNL     1       1.361   0.609  -1.290  1.00  0.00    -0.295 N 
HETATM   10  C6  UNL     1       1.062   0.138  -0.144  1.00  0.00     0.133 C 
HETATM   11  C7  UNL     1       1.870  -0.881   0.429  1.00  0.00     0.117 C 
HETATM   12  N4  UNL     1       2.548  -1.726   0.883  1.00  0.00    -0.190 NA
ATOM     13  H3  UNL     1       0.774   1.340  -1.691  1.00  0.00     0.187 HD
BRANCH  10  14
HETATM   14  C8  UNL     1      -0.111   0.649   0.576  1.00  0.00     0.182 C 
BRANCH  14  15
HETATM   15  N5  UNL     1      -1.061  -0.444   0.694  1.00  0.00    -0.322 N 
HETATM   16  C9  UNL     1      -2.337  -0.427   0.087  1.00  0.00     0.362 C 
HETATM   17  O1  UNL     1      -2.727   0.552  -0.601  1.00  0.00    -0.238 OA
ATOM     18  H5  UNL     1      -0.794  -1.263   1.241  1.00  0.00     0.165 HD
BRANCH  16  19
HETATM   19  O2  UNL     1      -3.192  -1.487   0.232  1.00  0.00    -0.294 OA
BRANCH  19  20
HETATM   20  C10 UNL     1      -4.472  -1.603  -0.308  1.00  0.00     0.061 C 
HETATM   21  C11 UNL     1      -5.413  -0.492   0.174  1.00  0.00     0.046 C 
HETATM   22  C12 UNL     1      -4.484  -1.680  -1.821  1.00  0.00     0.046 C 
HETATM   23  C13 UNL     1      -5.069  -2.906   0.213  1.00  0.00     0.046 C 
ENDBRANCH  19  20
ENDBRANCH  16  19
ENDBRANCH  14  15
BRANCH  14  24
HETATM   24  C14 UNL     1       0.258   1.230   1.862  1.00  0.00    -0.029 A 
HETATM   25  C15 UNL     1       0.535   0.411   2.928  1.00  0.00     0.011 A 
HETATM   26  C16 UNL     1       0.892   0.893   4.171  1.00  0.00     0.024 A 
HETATM   27  C17 UNL     1       0.976   2.257   4.352  1.00  0.00     0.034 A 
HETATM   28 CL1  UNL     1       1.428   2.848   5.928  1.00  0.00    -0.084 Cl
HETATM   29  C18 UNL     1       0.699   3.084   3.284  1.00  0.00     0.024 A 
HETATM   30  C19 UNL     1       0.342   2.590   2.043  1.00  0.00     0.011 A 
ENDBRANCH  14  24
ENDBRANCH  10  14
ENDBRANCH   7   9
ENDBRANCH   1   7
TORSDOF 8
