REMARK  2 active torsions:
REMARK  status: ('A' for Active; 'I' for Inactive)
REMARK    1  A    between atoms: C2_2  and  O1_3 
REMARK    2  A    between atoms: O1_3  and  C3_4 
REMARK       I    between atoms: C3_4  and  N1_6 
ROOT
HETATM    1  C3  UNL     1       1.961  -0.916  -0.514  1.00  0.00     0.364 C 
HETATM    2  O2  UNL     1       2.105  -1.941   0.234  1.00  0.00    -0.238 OA
HETATM    3  N1  UNL     1       0.807  -0.827  -1.322  1.00  0.00    -0.305 N 
ATOM      4  H1  UNL     1       0.919  -0.892  -2.334  1.00  0.00     0.171 HD
HETATM    5  C4  UNL     1      -0.366  -0.670  -0.855  1.00  0.00     0.044 C 
HETATM    6  C5  UNL     1      -1.548  -0.582  -1.736  1.00  0.00     0.226 C 
HETATM    7  O3  UNL     1      -2.662  -0.414  -0.919  1.00  0.00    -0.350 OA
HETATM    8  C6  UNL     1      -2.508   0.574   0.016  1.00  0.00     0.158 C 
HETATM    9  C7  UNL     1      -3.839   0.736   0.738  1.00  0.00     0.078 C 
HETATM   10  C8  UNL     1      -2.292   1.891  -0.742  1.00  0.00     0.078 C 
HETATM   11  O4  UNL     1      -1.534   0.362   0.952  1.00  0.00    -0.345 OA
HETATM   12  C9  UNL     1      -0.579  -0.570   0.604  1.00  0.00     0.168 C 
HETATM   13  C10 UNL     1      -0.853  -1.935   1.178  1.00  0.00     0.046 C 
ENDROOT
BRANCH   1  14
HETATM   14  O1  UNL     1       2.961   0.023  -0.464  1.00  0.00    -0.304 OA
BRANCH  14  15
HETATM   15  C2  UNL     1       4.107  -0.136   0.383  1.00  0.00     0.176 C 
HETATM   16  C1  UNL     1       5.017   1.057   0.214  1.00  0.00     0.034 C 
ENDBRANCH  14  15
ENDBRANCH   1  14
TORSDOF 2
