REMARK  13 active torsions:
REMARK  status: ('A' for Active; 'I' for Inactive)
REMARK    1  A    between atoms: N1_4  and  C4_5 
REMARK    2  A    between atoms: C4_5  and  O1_6 
REMARK    3  A    between atoms: C4_5  and  N2_8 
REMARK    4  A    between atoms: C7_11  and  C8_12 
REMARK    5  A    between atoms: C7_11  and  C10_15 
REMARK    6  A    between atoms: C10_15  and  N4_16 
REMARK       I    between atoms: N4_16  and  C11_18 
REMARK       I    between atoms: C11_18  and  N5_20 
REMARK    7  A    between atoms: N5_20  and  C12_22 
REMARK    8  A    between atoms: C15_25  and  C16_26 
REMARK    9  A    between atoms: C16_26  and  C17_27 
REMARK   10  A    between atoms: C17_27  and  C18_28 
REMARK   11  A    between atoms: C18_28  and  C19_29 
REMARK   12  A    between atoms: C19_29  and  C20_30 
REMARK   13  A    between atoms: N9_37  and  C21_38 
ROOT
HETATM    1  C8  UNL     1      -1.732  -0.575  -2.277  1.00  0.00     0.136 C 
HETATM    2  C9  UNL     1      -2.573   0.306  -3.078  1.00  0.00     0.060 C 
HETATM    3  N3  UNL     1      -3.237   0.997  -3.736  1.00  0.00    -0.197 NA
ENDROOT
BRANCH   1   4
HETATM    4  C7  UNL     1      -2.479  -1.133  -1.072  1.00  0.00    -0.002 C 
HETATM    5  C6  UNL     1      -3.665  -1.898  -1.688  1.00  0.00     0.033 C 
HETATM    6  C5  UNL     1      -4.589  -2.260  -0.559  1.00  0.00     0.127 C 
HETATM    7  N2  UNL     1      -5.229  -0.997  -0.125  1.00  0.00    -0.347 N 
HETATM    8  C28 UNL     1      -4.444   0.173  -0.181  1.00  0.00     0.136 C 
HETATM    9  C25 UNL     1      -2.932  -0.108  -0.098  1.00  0.00    -0.021 C 
HETATM   10  C26 UNL     1      -2.297   1.258  -0.317  1.00  0.00     0.017 C 
HETATM   11  C27 UNL     1      -2.650  -0.493   1.342  1.00  0.00     0.017 C 
BRANCH   7  12
HETATM   12  C4  UNL     1      -6.551  -1.051   0.332  1.00  0.00     0.217 C 
BRANCH  12  13
HETATM   13  N1  UNL     1      -7.421  -0.043   0.756  1.00  0.00    -0.342 N 
HETATM   14  C3  UNL     1      -8.739  -0.502   1.244  1.00  0.00     0.158 C 
HETATM   15  C2  UNL     1      -9.780   0.341   0.554  1.00  0.00     0.136 C 
HETATM   16  C1  UNL     1     -11.136  -0.149   1.025  1.00  0.00     0.041 C 
HETATM   17  O3  UNL     1      -9.620   1.630   1.077  1.00  0.00    -0.373 OA
HETATM   18  C30 UNL     1      -8.457   2.215   0.665  1.00  0.00     0.070 C 
HETATM   19  C29 UNL     1      -7.216   1.370   0.770  1.00  0.00     0.163 C 
HETATM   20  C31 UNL     1      -8.581   2.775  -0.749  1.00  0.00     0.047 C 
HETATM   21  C32 UNL     1      -8.244   3.449   1.554  1.00  0.00     0.047 C 
ENDBRANCH  12  13
BRANCH  12  22
HETATM   22  O1  UNL     1      -7.050  -2.256   0.366  1.00  0.00    -0.333 OA
ATOM     23  H1  UNL     1      -6.459  -2.941   0.078  1.00  0.00     0.220 HD
ENDBRANCH  12  22
ENDBRANCH   7  12
BRANCH   4  24
HETATM   24  C10 UNL     1      -1.585  -2.208  -0.499  1.00  0.00     0.135 C 
BRANCH  24  25
HETATM   25  N4  UNL     1      -0.392  -1.714   0.134  1.00  0.00    -0.342 N 
HETATM   26  C11 UNL     1       0.503  -2.640   0.697  1.00  0.00     0.321 C 
HETATM   27  O2  UNL     1       0.278  -3.888   0.654  1.00  0.00    -0.247 OA
HETATM   28  N5  UNL     1       1.702  -2.258   1.347  1.00  0.00    -0.294 N 
ATOM     29  H5  UNL     1       1.701  -2.077   2.351  1.00  0.00     0.172 HD
ATOM     30  H4  UNL     1      -0.199  -0.713   0.174  1.00  0.00     0.164 HD
BRANCH  28  31
HETATM   31  C12 UNL     1       2.797  -2.138   0.673  1.00  0.00     0.123 A 
HETATM   32  C13 UNL     1       3.983  -1.762   1.310  1.00  0.00     0.052 A 
HETATM   33  C14 UNL     1       5.126  -1.646   0.556  1.00  0.00     0.030 A 
HETATM   34  C15 UNL     1       5.051  -1.903  -0.785  1.00  0.00     0.026 A 
HETATM   35  N10 UNL     1       3.866  -2.267  -1.360  1.00  0.00    -0.303 N 
HETATM   36  N11 UNL     1       2.770  -2.382  -0.649  1.00  0.00    -0.285 N 
ATOM     37  H10 UNL     1       3.833  -2.453  -2.362  1.00  0.00     0.186 HD
ATOM     38  H11 UNL     1       1.897  -2.657  -1.099  1.00  0.00     0.188 HD
BRANCH  34  39
HETATM   39  C16 UNL     1       6.201  -1.814  -1.705  1.00  0.00     0.058 C 
BRANCH  39  40
HETATM   40  C17 UNL     1       6.306  -0.451  -2.292  1.00  0.00     0.006 C 
BRANCH  40  41
HETATM   41  C18 UNL     1       6.562   0.669  -1.352  1.00  0.00     0.008 C 
BRANCH  41  42
HETATM   42  C19 UNL     1       7.919   0.531  -0.641  1.00  0.00     0.080 C 
BRANCH  42  43
HETATM   43  C20 UNL     1       8.060   1.673   0.266  1.00  0.00     0.116 A 
HETATM   44  N6  UNL     1       7.179   2.690   0.492  1.00  0.00    -0.272 N 
HETATM   45  N7  UNL     1       7.748   3.473   1.381  1.00  0.00    -0.227 N 
ATOM     46  H6  UNL     1       6.264   2.817   0.059  1.00  0.00     0.190 HD
HETATM   47  N8  UNL     1       8.916   3.002   1.711  1.00  0.00    -0.224 N 
ATOM     48  H7  UNL     1       7.335   4.326   1.758  1.00  0.00     0.210 HD
HETATM   49  N9  UNL     1       9.149   1.880   1.039  1.00  0.00    -0.255 N 
ATOM     50  H8  UNL     1       9.554   3.429   2.382  1.00  0.00     0.210 HD
BRANCH  49  51
HETATM   51  C21 UNL     1      10.332   1.113   1.160  1.00  0.00     0.046 C 
HETATM   52  C22 UNL     1      11.061   1.532   2.422  1.00  0.00     0.040 C 
HETATM   53  C23 UNL     1      11.313   1.391   0.010  1.00  0.00     0.040 C 
HETATM   54  C24 UNL     1      10.167  -0.368   1.226  1.00  0.00     0.040 C 
ENDBRANCH  49  51
ENDBRANCH  42  43
ENDBRANCH  41  42
ENDBRANCH  40  41
ENDBRANCH  39  40
ENDBRANCH  34  39
ENDBRANCH  28  31
ENDBRANCH  24  25
ENDBRANCH   4  24
ENDBRANCH   1   4
TORSDOF 13
