REMARK  10 active torsions:
REMARK  status: ('A' for Active; 'I' for Inactive)
REMARK    1  A    between atoms: C3_5  and  C4_6 
REMARK    2  A    between atoms: N2_7  and  N3_9 
REMARK       I    between atoms: N3_9  and  C6_11 
REMARK    3  A    between atoms: C6_11  and  O2_13 
REMARK    4  A    between atoms: O2_13  and  C7_14 
REMARK    5  A    between atoms: C7_14  and  C8_15 
REMARK       I    between atoms: C8_15  and  N4_17 
REMARK    6  A    between atoms: N4_17  and  C9_19 
REMARK    7  A    between atoms: C9_19  and  C10_20 
REMARK    8  A    between atoms: C10_20  and  O4_21 
REMARK    9  A    between atoms: O4_21  and  N5_22 
REMARK   10  A    between atoms: C13_30  and  N7_31 
ROOT
HETATM    1  C1  UNL     1      -2.910   2.676  -1.286  1.00  0.00     0.089 C 
HETATM    2  C2  UNL     1      -2.711   1.236  -0.881  1.00  0.00     0.079 A 
HETATM    3  N1  UNL     1      -2.099   0.927   0.255  1.00  0.00    -0.344 N 
ATOM      4  H1  UNL     1      -1.772   1.700   0.835  1.00  0.00     0.167 HD
HETATM    5  C3  UNL     1      -1.870  -0.338   0.712  1.00  0.00     0.070 A 
HETATM    6  C11 UNL     1      -2.343  -1.332  -0.133  1.00  0.00     0.105 A 
HETATM    7  C12 UNL     1      -2.197  -2.650   0.172  1.00  0.00     0.276 A 
HETATM    8  O5  UNL     1      -1.630  -2.991   1.227  1.00  0.00    -0.267 OA
HETATM    9  N6  UNL     1      -2.675  -3.589  -0.683  1.00  0.00    -0.155 N 
ATOM     10  H6  UNL     1      -2.552  -4.569  -0.428  1.00  0.00     0.187 HD
HETATM   11  C13 UNL     1      -3.294  -3.321  -1.833  1.00  0.00     0.680 A 
HETATM   12  N8  UNL     1      -3.451  -2.033  -2.156  1.00  0.00    -0.176 N 
ATOM     13  H8  UNL     1      -3.920  -1.784  -3.027  1.00  0.00     0.186 HD
HETATM   14  C14 UNL     1      -2.991  -1.054  -1.335  1.00  0.00     0.140 A 
HETATM   15  N9  UNL     1      -3.150   0.240  -1.664  1.00  0.00    -0.331 N 
ATOM     16  H9  UNL     1      -3.620   0.472  -2.539  1.00  0.00     0.168 HD
ENDROOT
BRANCH   5  17
HETATM   17  C4  UNL     1      -1.193  -0.554   1.966  1.00  0.00     0.138 C 
HETATM   18  N2  UNL     1      -0.793   0.413   2.679  1.00  0.00    -0.304 N 
ATOM     19  H2  UNL     1      -0.328   0.146   3.547  1.00  0.00     0.186 HD
BRANCH  18  20
HETATM   20  N3  UNL     1      -0.888   1.741   2.467  1.00  0.00    -0.241 N 
HETATM   21  C5  UNL     1      -2.038   2.529   2.947  1.00  0.00     0.183 C 
HETATM   22  C6  UNL     1       0.126   2.505   1.789  1.00  0.00     0.381 C 
HETATM   23  O1  UNL     1       0.050   3.735   1.586  1.00  0.00    -0.236 OA
BRANCH  22  24
HETATM   24  O2  UNL     1       1.246   1.846   1.335  1.00  0.00    -0.293 OA
BRANCH  24  25
HETATM   25  C7  UNL     1       2.295   2.489   0.662  1.00  0.00     0.283 C 
BRANCH  25  26
HETATM   26  C8  UNL     1       3.344   1.457   0.319  1.00  0.00     0.242 C 
HETATM   27  O3  UNL     1       4.340   1.858  -0.279  1.00  0.00    -0.271 OA
HETATM   28  N4  UNL     1       3.137   0.123   0.689  1.00  0.00    -0.357 N 
ATOM     29  H4  UNL     1       2.270  -0.072   1.190  1.00  0.00     0.162 HD
BRANCH  28  30
HETATM   30  C9  UNL     1       3.984  -0.992   0.454  1.00  0.00     0.151 C 
BRANCH  30  31
HETATM   31  C10 UNL     1       4.204  -1.361  -0.983  1.00  0.00     0.220 C 
BRANCH  31  32
HETATM   32  O4  UNL     1       4.782  -0.375  -1.728  1.00  0.00    -0.286 OA
BRANCH  32  33
HETATM   33  N5  UNL     1       4.961  -0.742  -2.998  1.00  0.00    -0.311 N 
ATOM     34  H52 UNL     1       4.691  -1.658  -3.356  1.00  0.00     0.184 HD
ATOM     35  H51 UNL     1       5.393  -0.005  -3.555  1.00  0.00     0.184 HD
ENDBRANCH  32  33
ENDBRANCH  31  32
ENDBRANCH  30  31
ENDBRANCH  28  30
ENDBRANCH  25  26
ENDBRANCH  24  25
ENDBRANCH  22  24
ENDBRANCH  18  20
ENDBRANCH   5  17
BRANCH  11  36
HETATM   36  N7  UNL     1      -3.734  -4.271  -2.619  1.00  0.00    -0.234 N 
ATOM     37  H72 UNL     1      -3.614  -5.254  -2.373  1.00  0.00     0.174 HD
ATOM     38  H71 UNL     1      -4.208  -4.066  -3.499  1.00  0.00     0.174 HD
ENDBRANCH  11  36
TORSDOF 10
