REMARK  2 active torsions:
REMARK  status: ('A' for Active; 'I' for Inactive)
REMARK    1  A    between atoms: N2_10  and  C7_11 
REMARK    2  A    between atoms: C11_15  and  O1_16 
ROOT
HETATM    1  C1  UNL     1       2.244   1.877   1.631  1.00  0.00     0.019 C 
HETATM    2  C2  UNL     1       2.196   0.973   0.827  1.00  0.00    -0.057 C 
HETATM    3  C3  UNL     1       2.167  -0.098  -0.120  1.00  0.00     0.113 A 
HETATM    4  C4  UNL     1       3.249  -0.776  -0.643  1.00  0.00     0.043 A 
HETATM    5  C5  UNL     1       4.660  -0.484  -0.291  1.00  0.00     0.071 C 
HETATM    6  N1  UNL     1       2.759  -1.709  -1.496  1.00  0.00    -0.334 N 
ATOM      7  H1  UNL     1       3.315  -2.369  -2.039  1.00  0.00     0.168 HD
HETATM    8  C6  UNL     1       1.419  -1.619  -1.507  1.00  0.00     0.179 A 
HETATM    9  S1  UNL     1       0.435  -2.564  -2.405  1.00  0.00    -0.040 SA
HETATM   10  N2  UNL     1       1.061  -0.614  -0.647  1.00  0.00    -0.310 N 
ENDROOT
BRANCH  10  11
HETATM   11  C7  UNL     1      -0.292  -0.250  -0.416  1.00  0.00     0.093 C 
HETATM   12  C8  UNL     1      -0.569   1.198  -0.262  1.00  0.00     0.026 C 
HETATM   13  C9  UNL     1      -1.871   1.517  -0.976  1.00  0.00     0.004 C 
HETATM   14  C10 UNL     1      -3.046   1.303  -0.024  1.00  0.00     0.032 C 
HETATM   15  C11 UNL     1      -3.102  -0.174   0.282  1.00  0.00     0.118 C 
HETATM   16  C12 UNL     1      -2.076  -0.510   1.341  1.00  0.00     0.034 C 
HETATM   17  C13 UNL     1      -0.804  -1.065   0.779  1.00  0.00     0.028 C 
BRANCH  15  18
HETATM   18  O1  UNL     1      -4.368  -0.438   0.789  1.00  0.00    -0.396 OA
ATOM     19  H1  UNL     1      -4.403  -1.368   0.982  1.00  0.00     0.210 HD
ENDBRANCH  15  18
ENDBRANCH  10  11
TORSDOF 2
