REMARK  1 active torsions:
REMARK  status: ('A' for Active; 'I' for Inactive)
REMARK    1  A    between atoms: C1_2  and  C2_3 
ROOT
HETATM    1  C2  UNL     1       0.810  -0.211  -0.225  1.00  0.00     0.196 C 
HETATM    2  C3  UNL     1      -0.332  -1.164  -0.415  1.00  0.00     0.034 C 
HETATM    3  C4  UNL     1      -1.456  -0.338  -1.055  1.00  0.00     0.004 C 
HETATM    4  C5  UNL     1      -1.957   0.601  -0.007  1.00  0.00     0.027 C 
HETATM    5  C6  UNL     1      -0.927   0.790   1.110  1.00  0.00     0.232 C 
HETATM    6  N1  UNL     1       0.405   0.923   0.581  1.00  0.00    -0.070 N 
ATOM      7  H11 UNL     1       0.504   1.794   0.060  1.00  0.00     0.277 HD
ATOM      8  H12 UNL     1       1.078   1.098   1.328  1.00  0.00     0.277 HD
ENDROOT
BRANCH   1   9
HETATM    9  C1  UNL     1       2.015  -0.825   0.408  1.00  0.00     0.119 C 
HETATM   10  S1  UNL     1       3.280   0.498   0.547  1.00  0.00    -0.096 SA
ENDBRANCH   1   9
TORSDOF 1
