REMARK  3 active torsions:
REMARK  status: ('A' for Active; 'I' for Inactive)
REMARK    1  A    between atoms: N1_1  and  C1_4 
REMARK    2  A    between atoms: N4_11  and  C3_12 
REMARK    3  A    between atoms: C3_12  and  C4_13 
ROOT
HETATM    1  C1  UNL     1      -2.713   0.565  -0.247  1.00  0.00     0.183 A 
HETATM    2  N2  UNL     1      -3.085  -0.464   0.534  1.00  0.00    -0.277 N 
ATOM      3  H2  UNL     1      -4.030  -0.533   0.913  1.00  0.00     0.189 HD
HETATM    4  N3  UNL     1      -2.171  -1.381   0.788  1.00  0.00    -0.249 N 
ATOM      5  H3  UNL     1      -2.408  -2.180   1.377  1.00  0.00     0.192 HD
HETATM    6  C2  UNL     1      -0.919  -1.274   0.275  1.00  0.00     0.344 A 
HETATM    7  O1  UNL     1      -0.097  -2.192   0.561  1.00  0.00    -0.245 OA
HETATM    8  N4  UNL     1      -0.549  -0.247  -0.505  1.00  0.00    -0.258 N 
HETATM    9  C6  UNL     1      -1.448   0.697  -0.781  1.00  0.00     0.296 A 
HETATM   10  O3  UNL     1      -1.184   1.705  -1.512  1.00  0.00    -0.264 OA
ENDROOT
BRANCH   8  11
HETATM   11  C3  UNL     1       0.779  -0.184  -1.013  1.00  0.00     0.184 C 
BRANCH  11  12
HETATM   12  C4  UNL     1       1.776   0.541  -0.176  1.00  0.00     0.208 C 
HETATM   13  N5  UNL     1       3.078   0.505  -0.851  1.00  0.00    -0.320 N 
HETATM   14  C5  UNL     1       3.696   0.160   0.378  1.00  0.00     0.319 C 
ATOM     15  H5  UNL     1       3.403   0.662  -1.805  1.00  0.00     0.166 HD
HETATM   16  O2  UNL     1       4.879   0.146   0.852  1.00  0.00    -0.247 OA
HETATM   17  N6  UNL     1       2.418  -0.179   0.891  1.00  0.00    -0.320 N 
ATOM     18  H6  UNL     1       2.088  -0.716   1.693  1.00  0.00     0.166 HD
ENDBRANCH  11  12
ENDBRANCH   8  11
BRANCH   1  19
HETATM   19  N1  UNL     1      -3.619   1.467  -0.494  1.00  0.00    -0.380 N 
ATOM     20  H12 UNL     1      -4.554   1.369  -0.099  1.00  0.00     0.158 HD
ATOM     21  H11 UNL     1      -3.337   2.248  -1.087  1.00  0.00     0.158 HD
ENDBRANCH   1  19
TORSDOF 3
