REMARK  4 active torsions:
REMARK  status: ('A' for Active; 'I' for Inactive)
REMARK    1  A    between atoms: C3_3  and  O1_4 
REMARK    2  A    between atoms: N1_7  and  N2_8 
REMARK    3  A    between atoms: N3_10  and  N4_12 
REMARK    4  A    between atoms: N4_12  and  N5_14 
ROOT
HETATM    1  C1  UNL     1      -3.947   2.215   0.678  1.00  0.00     0.016 C 
HETATM    2  C2  UNL     1      -3.206   1.310   0.371  1.00  0.00    -0.058 C 
HETATM    3  C3  UNL     1      -2.311   0.209   0.000  1.00  0.00     0.231 C 
HETATM    4  C4  UNL     1      -0.975   0.409   0.668  1.00  0.00     0.228 C 
HETATM    5  N1  UNL     1      -0.120  -0.686   0.311  1.00  0.00    -0.221 N 
HETATM    6  C6  UNL     1      -0.692  -1.949   0.040  1.00  0.00     0.354 C 
HETATM    7  O2  UNL     1       0.010  -2.980  -0.157  1.00  0.00    -0.244 OA
HETATM    8  N6  UNL     1      -2.119  -2.115  -0.022  1.00  0.00    -0.250 N 
ATOM      9  H6  UNL     1      -2.528  -2.995  -0.337  1.00  0.00     0.187 HD
HETATM   10  N7  UNL     1      -2.932  -1.046   0.358  1.00  0.00    -0.083 NA
ENDROOT
BRANCH   3  11
HETATM   11  O1  UNL     1      -2.074   0.185  -1.381  1.00  0.00    -0.361 OA
ATOM     12  H1  UNL     1      -1.494  -0.528  -1.621  1.00  0.00     0.213 HD
ENDBRANCH   3  11
BRANCH   5  13
HETATM   13  N2  UNL     1       1.246  -0.534   0.227  1.00  0.00    -0.221 N 
HETATM   14  N3  UNL     1       1.810   0.445  -0.383  1.00  0.00    -0.212 N 
ATOM     15  H3  UNL     1       1.273   1.177  -0.848  1.00  0.00     0.211 HD
ATOM     16  H2  UNL     1       1.840  -1.234   0.672  1.00  0.00     0.210 HD
BRANCH  14  17
HETATM   17  N4  UNL     1       3.203   0.441  -0.368  1.00  0.00    -0.230 N 
HETATM   18  C5  UNL     1       3.883   0.683   0.881  1.00  0.00     0.201 C 
BRANCH  17  19
HETATM   19  N5  UNL     1       3.894   0.206  -1.544  1.00  0.00    -0.328 N 
ATOM     20  H52 UNL     1       3.413   0.035  -2.427  1.00  0.00     0.178 HD
ATOM     21  H51 UNL     1       4.914   0.203  -1.533  1.00  0.00     0.178 HD
ENDBRANCH  17  19
ENDBRANCH  14  17
ENDBRANCH   5  13
TORSDOF 4
