REMARK  3 active torsions:
REMARK  status: ('A' for Active; 'I' for Inactive)
REMARK    1  A    between atoms: C2_2  and  N1_3 
REMARK    2  A    between atoms: N1_3  and  C3_5 
REMARK    3  A    between atoms: C3_5  and  C4_6 
ROOT
HETATM    1  C4  UNL     1       0.644  -1.074   0.330  1.00  0.00     0.085 C 
HETATM    2  C5  UNL     1       1.209  -0.588   1.631  1.00  0.00     0.245 C 
HETATM    3  N2  UNL     1      -0.148  -0.481   2.160  1.00  0.00    -0.065 N 
ATOM      4  H21 UNL     1      -0.390   0.218   2.862  1.00  0.00     0.278 HD
ATOM      5  H22 UNL     1      -0.535  -1.195   2.778  1.00  0.00     0.278 HD
HETATM    6  C6  UNL     1      -0.590  -0.353   0.783  1.00  0.00     0.135 C 
HETATM    7  C7  UNL     1      -0.815   1.049   0.350  1.00  0.00     0.040 C 
HETATM    8  C8  UNL     1      -1.524   1.120  -0.979  1.00  0.00     0.002 C 
HETATM    9  C9  UNL     1      -3.002   0.931  -0.902  1.00  0.00     0.000 C 
HETATM   10  C10 UNL     1      -3.550   0.635   0.449  1.00  0.00     0.000 C 
HETATM   11  C11 UNL     1      -3.043  -0.601   1.104  1.00  0.00     0.002 C 
HETATM   12  C12 UNL     1      -1.824  -1.196   0.483  1.00  0.00     0.040 C 
ENDROOT
BRANCH   1  13
HETATM   13  C3  UNL     1       1.363  -0.582  -0.866  1.00  0.00     0.069 C 
BRANCH  13  14
HETATM   14  N1  UNL     1       2.696  -0.961  -0.928  1.00  0.00    -0.382 N 
ATOM     15  H1  UNL     1       2.946  -1.649  -1.639  1.00  0.00     0.163 HD
BRANCH  14  16
HETATM   16  C2  UNL     1       3.715  -0.499  -0.123  1.00  0.00     0.056 C 
HETATM   17  C1  UNL     1       4.087   0.964  -0.294  1.00  0.00     0.054 C 
ENDBRANCH  14  16
ENDBRANCH  13  14
ENDBRANCH   1  13
TORSDOF 3
