REMARK  12 active torsions:
REMARK  status: ('A' for Active; 'I' for Inactive)
REMARK    1  A    between atoms: C3_3  and  C4_4 
REMARK    2  A    between atoms: C8_8  and  C9_9 
REMARK    3  A    between atoms: C9_9  and  S2_11 
REMARK    4  A    between atoms: S2_11  and  C10_12 
REMARK    5  A    between atoms: C10_12  and  C11_13 
REMARK    6  A    between atoms: C11_13  and  C12_14 
REMARK    7  A    between atoms: C12_14  and  N1_15 
REMARK    8  A    between atoms: C12_14  and  C17_24 
REMARK    9  A    between atoms: N1_15  and  S3_17 
REMARK   10  A    between atoms: S3_17  and  C13_20 
REMARK   11  A    between atoms: C13_20  and  C14_21 
REMARK   12  A    between atoms: C14_21  and  C15_22 
ROOT
HETATM    1  C1  UNL     1       5.479   3.602   0.854  1.00  0.00     0.112 C 
HETATM    2  C2  UNL     1       5.716   2.148   0.796  1.00  0.00    -0.111 C 
HETATM    3  C3  UNL     1       5.899   0.980   0.731  1.00  0.00    -0.101 C 
ENDROOT
BRANCH   3   4
HETATM    4  C4  UNL     1       6.141  -0.456   0.629  1.00  0.00     0.082 C 
HETATM    5  C5  UNL     1       6.340  -0.894  -0.799  1.00  0.00     0.045 C 
HETATM    6  C6  UNL     1       5.881  -2.307  -0.758  1.00  0.00    -0.029 C 
HETATM    7  C7  UNL     1       5.115  -2.518   0.300  1.00  0.00    -0.019 C 
HETATM    8  C8  UNL     1       4.977  -1.260   1.086  1.00  0.00     0.075 C 
BRANCH   8   9
HETATM    9  C9  UNL     1       3.667  -0.682   0.717  1.00  0.00     0.054 C 
HETATM   10  S1  UNL     1       2.781  -0.330   1.785  1.00  0.00    -0.077 SA
BRANCH   9  11
HETATM   11  S2  UNL     1       3.150  -0.390  -0.949  1.00  0.00    -0.122 SA
BRANCH  11  12
HETATM   12  C10 UNL     1       1.458   0.260  -1.075  1.00  0.00     0.082 C 
BRANCH  12  13
HETATM   13  C11 UNL     1       0.465  -0.763  -0.677  1.00  0.00     0.036 C 
BRANCH  13  14
HETATM   14  C12 UNL     1      -1.005  -0.282  -0.773  1.00  0.00     0.097 C 
BRANCH  14  15
HETATM   15  N1  UNL     1      -1.106   0.826   0.091  1.00  0.00    -0.314 N 
ATOM     16  H1  UNL     1      -0.933   0.716   1.090  1.00  0.00     0.172 HD
BRANCH  15  17
HETATM   17  S3  UNL     1      -1.514   2.330  -0.538  1.00  0.00     0.226 S 
HETATM   18  O1  UNL     1      -1.355   3.374   0.557  1.00  0.00    -0.206 OA
HETATM   19  O2  UNL     1      -0.482   2.766  -1.581  1.00  0.00    -0.206 OA
BRANCH  17  20
HETATM   20  C13 UNL     1      -3.066   2.514  -1.290  1.00  0.00     0.163 C 
BRANCH  20  21
HETATM   21  C14 UNL     1      -4.256   2.281  -0.420  1.00  0.00     0.016 C 
BRANCH  21  22
HETATM   22  C15 UNL     1      -4.300   3.250   0.751  1.00  0.00    -0.004 C 
HETATM   23  C16 UNL     1      -5.578   2.968   1.575  1.00  0.00     0.005 C 
ENDBRANCH  21  22
ENDBRANCH  20  21
ENDBRANCH  17  20
ENDBRANCH  15  17
ENDBRANCH  14  15
BRANCH  14  24
HETATM   24  C17 UNL     1      -1.793  -1.514  -0.407  1.00  0.00     0.009 C 
HETATM   25  C18 UNL     1      -1.507  -2.029   0.979  1.00  0.00     0.007 C 
HETATM   26  C19 UNL     1      -2.655  -2.923   1.466  1.00  0.00     0.000 C 
HETATM   27  C20 UNL     1      -3.136  -3.819   0.348  1.00  0.00     0.000 C 
HETATM   28  C21 UNL     1      -3.695  -2.976  -0.746  1.00  0.00     0.000 C 
HETATM   29  C22 UNL     1      -3.237  -1.512  -0.674  1.00  0.00     0.007 C 
ENDBRANCH  14  24
ENDBRANCH  13  14
ENDBRANCH  12  13
ENDBRANCH  11  12
ENDBRANCH   9  11
ENDBRANCH   8   9
ENDBRANCH   3   4
TORSDOF 12
