REMARK  4 active torsions:
REMARK  status: ('A' for Active; 'I' for Inactive)
REMARK    1  A    between atoms: C3_3  and  C5_5 
REMARK    2  A    between atoms: C5_5  and  N1_6 
REMARK    3  A    between atoms: C5_5  and  C9_16 
REMARK    4  A    between atoms: C6_8  and  C7_9 
ROOT
HETATM    1  C1  UNL     1      -0.790   4.046   1.364  1.00  0.00     0.097 C 
HETATM    2  C2  UNL     1      -0.067   3.174   0.867  1.00  0.00    -0.181 C 
HETATM    3  C3  UNL     1       0.836   2.202   0.282  1.00  0.00     0.070 C 
HETATM    4  C4  UNL     1       0.736   2.441  -1.235  1.00  0.00     0.024 C 
ENDROOT
BRANCH   3   5
HETATM    5  C5  UNL     1       0.599   0.828   0.680  1.00  0.00     0.099 C 
BRANCH   5   6
HETATM    6  N1  UNL     1       1.526  -0.154   0.198  1.00  0.00    -0.390 N 
HETATM    7  C6  UNL     1       1.719  -0.452  -1.121  1.00  0.00     0.134 C 
ATOM      8  H1  UNL     1       2.079  -0.665   0.887  1.00  0.00     0.159 HD
BRANCH   7   9
HETATM    9  C7  UNL     1       2.744  -1.575  -1.187  1.00  0.00     0.142 A 
HETATM   10  N2  UNL     1       3.365  -2.185  -0.165  1.00  0.00    -0.329 N 
HETATM   11  C8  UNL     1       4.205  -3.133  -0.639  1.00  0.00     0.261 A 
ATOM     12  H2  UNL     1       3.224  -1.966   0.821  1.00  0.00     0.168 HD
HETATM   13  O1  UNL     1       4.088  -3.090  -1.928  1.00  0.00    -0.231 OA
HETATM   14  N3  UNL     1       3.221  -2.168  -2.296  1.00  0.00    -0.243 N 
ATOM     15  H3  UNL     1       2.957  -1.943  -3.255  1.00  0.00     0.196 HD
ENDBRANCH   7   9
ENDBRANCH   5   6
BRANCH   5  16
HETATM   16  C9  UNL     1      -0.757   0.272   0.279  1.00  0.00     0.009 C 
HETATM   17  C10 UNL     1      -0.807  -1.214   0.755  1.00  0.00     0.007 C 
HETATM   18  C11 UNL     1      -1.818  -1.884  -0.148  1.00  0.00     0.000 C 
HETATM   19  C12 UNL     1      -3.134  -1.187   0.083  1.00  0.00     0.000 C 
HETATM   20  C13 UNL     1      -3.071  -0.130   1.131  1.00  0.00     0.000 C 
HETATM   21  C14 UNL     1      -1.955   0.894   0.894  1.00  0.00     0.007 C 
ENDBRANCH   5  16
ENDBRANCH   3   5
TORSDOF 4
