REMARK  5 active torsions:
REMARK  status: ('A' for Active; 'I' for Inactive)
REMARK    1  A    between atoms: O1_1  and  C1_3 
REMARK    2  A    between atoms: N1_9  and  C7_10 
REMARK    3  A    between atoms: C7_10  and  C8_11 
REMARK    4  A    between atoms: N2_16  and  C13_17 
REMARK    5  A    between atoms: C13_17  and  C14_18 
ROOT
HETATM    1  C1  UNL     1      -1.174  -2.828   0.742  1.00  0.00     0.156 C 
HETATM    2  C2  UNL     1       0.317  -2.885   0.913  1.00  0.00     0.039 C 
HETATM    3  C3  UNL     1       0.944  -1.512   0.955  1.00  0.00     0.034 C 
HETATM    4  C4  UNL     1       0.214  -0.506   0.100  1.00  0.00     0.039 C 
HETATM    5  C5  UNL     1       0.516  -0.796  -1.342  1.00  0.00     0.061 C 
HETATM    6  C6  UNL     1       1.956  -0.682  -1.662  1.00  0.00     0.275 C 
HETATM    7  N1  UNL     1       2.614   0.479  -1.143  1.00  0.00     0.088 N 
HETATM    8  C11 UNL     1       2.272   0.820   0.194  1.00  0.00     0.275 C 
HETATM    9  C12 UNL     1       0.779   0.861   0.446  1.00  0.00     0.061 C 
HETATM   10  N2  UNL     1      -1.177  -0.476   0.409  1.00  0.00    -0.361 N 
HETATM   11  C19 UNL     1      -1.635  -1.485   1.274  1.00  0.00     0.095 C 
ENDROOT
BRANCH  10  12
HETATM   12  C13 UNL     1      -1.802   0.778   0.378  1.00  0.00     0.069 C 
BRANCH  12  13
HETATM   13  C14 UNL     1      -3.280   0.812   0.688  1.00  0.00     0.028 C 
HETATM   14  C15 UNL     1      -4.096  -0.013  -0.257  1.00  0.00     0.036 C 
HETATM   15  C16 UNL     1      -4.811   0.706  -1.325  1.00  0.00     0.168 C 
HETATM   16  O2  UNL     1      -4.739   2.075  -1.304  1.00  0.00    -0.391 OA
HETATM   17  C17 UNL     1      -5.034   2.478   0.018  1.00  0.00     0.168 C 
HETATM   18  C18 UNL     1      -3.779   2.240   0.803  1.00  0.00     0.036 C 
ENDBRANCH  12  13
ENDBRANCH  10  12
BRANCH   1  19
HETATM   19  O1  UNL     1      -1.757  -3.835   1.533  1.00  0.00    -0.390 OA
ATOM     20  H1  UNL     1      -2.700  -3.799   1.425  1.00  0.00     0.210 HD
ENDBRANCH   1  19
BRANCH   7  21
HETATM   21  C7  UNL     1       4.043   0.210  -1.184  1.00  0.00     0.277 C 
BRANCH  21  22
HETATM   22  C8  UNL     1       4.865   1.335  -0.670  1.00  0.00     0.014 A 
HETATM   23  C9  UNL     1       6.389   1.152  -0.670  1.00  0.00     0.007 A 
HETATM   24  C10 UNL     1       5.632   1.056   0.606  1.00  0.00     0.007 A 
ENDBRANCH  21  22
ENDBRANCH   7  21
TORSDOF 5
