REMARK  4 active torsions:
REMARK  status: ('A' for Active; 'I' for Inactive)
REMARK    1  A    between atoms: C2_3  and  C3_4 
REMARK    2  A    between atoms: C3_4  and  N2_5 
REMARK    3  A    between atoms: C3_4  and  C14_17 
REMARK    4  A    between atoms: N2_5  and  C4_7 
REMARK       I    between atoms: C14_17  and  N3_19 
ROOT
HETATM    1  N1  UNL     1       0.514  -3.388  -2.152  1.00  0.00    -0.197 NA
HETATM    2  C1  UNL     1       0.606  -2.858  -1.131  1.00  0.00     0.061 C 
HETATM    3  C2  UNL     1       0.701  -2.166   0.188  1.00  0.00     0.158 C 
ENDROOT
BRANCH   3   4
HETATM    4  C3  UNL     1       0.956  -0.681  -0.052  1.00  0.00     0.183 C 
BRANCH   4   5
HETATM    5  N2  UNL     1      -0.075  -0.067  -0.783  1.00  0.00    -0.400 N 
ATOM      6  H2  UNL     1       0.124   0.248  -1.733  1.00  0.00     0.154 HD
BRANCH   5   7
HETATM    7  C4  UNL     1      -1.365   0.134  -0.269  1.00  0.00     0.027 C 
HETATM    8  C5  UNL     1      -1.716   1.590  -0.722  1.00  0.00     0.035 C 
HETATM    9  C6  UNL     1      -3.101   1.938  -0.326  1.00  0.00    -0.012 C 
HETATM   10  C7  UNL     1      -4.088   1.013  -1.042  1.00  0.00     0.009 C 
HETATM   11  C11 UNL     1      -3.372   1.802   1.149  1.00  0.00     0.009 C 
HETATM   12  C8  UNL     1      -3.816  -0.383  -0.591  1.00  0.00    -0.012 C 
HETATM   13  C9  UNL     1      -3.901  -0.573   0.902  1.00  0.00     0.009 C 
HETATM   14  C13 UNL     1      -2.370  -0.739  -0.961  1.00  0.00     0.035 C 
HETATM   15  C10 UNL     1      -2.980   0.391   1.571  1.00  0.00    -0.012 C 
HETATM   16  C12 UNL     1      -1.517   0.195   1.223  1.00  0.00     0.035 C 
ENDBRANCH   5   7
ENDBRANCH   4   5
BRANCH   4  17
HETATM   17  C14 UNL     1       2.217  -0.536  -0.832  1.00  0.00     0.243 C 
HETATM   18  O1  UNL     1       2.090  -0.321  -2.083  1.00  0.00    -0.271 OA
HETATM   19  N3  UNL     1       3.522  -0.611  -0.335  1.00  0.00    -0.349 N 
HETATM   20  C15 UNL     1       4.682  -0.535  -1.204  1.00  0.00     0.136 C 
HETATM   21  C18 UNL     1       3.765  -0.728   1.077  1.00  0.00     0.136 C 
HETATM   22  C16 UNL     1       5.549   0.654  -1.002  1.00  0.00     0.093 C 
HETATM   23  S1  UNL     1       5.523   1.268   0.702  1.00  0.00    -0.166 SA
HETATM   24  C17 UNL     1       4.046   0.703   1.583  1.00  0.00     0.093 C 
ENDBRANCH   4  17
ENDBRANCH   3   4
TORSDOF 4
