REMARK  4 active torsions:
REMARK  status: ('A' for Active; 'I' for Inactive)
REMARK    1  A    between atoms: C2_2  and  C3_3 
REMARK    2  A    between atoms: C5_5  and  C6_6 
REMARK    3  A    between atoms: C6_6  and  C8_8 
REMARK    4  A    between atoms: N3_14  and  S1_16 
ROOT
HETATM    1  C8  UNL     1       1.144   1.290   0.430  1.00  0.00     0.078 A 
HETATM    2  N1  UNL     1       1.634   0.885  -0.714  1.00  0.00    -0.295 N 
ATOM      3  H1  UNL     1       1.070   0.979  -1.559  1.00  0.00     0.187 HD
HETATM    4  N2  UNL     1       2.793   0.378  -0.796  1.00  0.00    -0.278 N 
ATOM      5  H2  UNL     1       3.161   0.066  -1.695  1.00  0.00     0.189 HD
HETATM    6  C9  UNL     1       3.524   0.259   0.315  1.00  0.00     0.174 A 
HETATM    7  N3  UNL     1       4.729  -0.227   0.467  1.00  0.00    -0.263 N 
ATOM      8  H3  UNL     1       5.158  -0.250   1.392  1.00  0.00     0.180 HD
HETATM    9  S2  UNL     1       2.460   0.914   1.492  1.00  0.00    -0.037 SA
ENDROOT
BRANCH   1  10
HETATM   10  C6  UNL     1      -0.152   1.907   0.808  1.00  0.00     0.073 C 
HETATM   11  C7  UNL     1      -0.620   2.734  -0.371  1.00  0.00     0.022 C 
BRANCH  10  12
HETATM   12  C5  UNL     1      -1.192   0.922   1.126  1.00  0.00    -0.048 A 
HETATM   13  C4  UNL     1      -2.002   0.478   0.099  1.00  0.00     0.015 A 
HETATM   14  C3  UNL     1      -3.003  -0.454   0.339  1.00  0.00    -0.052 A 
HETATM   15  C13 UNL     1      -3.157  -0.916   1.629  1.00  0.00    -0.056 A 
HETATM   16  C12 UNL     1      -2.345  -0.473   2.664  1.00  0.00     0.008 A 
HETATM   17  C14 UNL     1      -4.206  -1.906   1.930  1.00  0.00     0.049 C 
HETATM   18  C11 UNL     1      -1.348   0.457   2.420  1.00  0.00     0.008 A 
BRANCH  14  19
HETATM   19  C2  UNL     1      -3.898  -0.970  -0.704  1.00  0.00     0.034 C 
HETATM   20  C1  UNL     1      -3.652  -0.320  -2.053  1.00  0.00     0.010 C 
ENDBRANCH  14  19
ENDBRANCH  10  12
ENDBRANCH   1  10
BRANCH   7  21
HETATM   21  S1  UNL     1       5.583  -0.823  -0.887  1.00  0.00     0.228 S 
HETATM   22  C10 UNL     1       7.277  -1.101  -0.353  1.00  0.00     0.186 C 
HETATM   23  O1  UNL     1       5.057  -2.133  -1.391  1.00  0.00    -0.206 OA
HETATM   24  O2  UNL     1       5.642   0.155  -2.032  1.00  0.00    -0.206 OA
ENDBRANCH   7  21
TORSDOF 4
