REMARK  8 active torsions:
REMARK  status: ('A' for Active; 'I' for Inactive)
REMARK    1  A    between atoms: C2_2  and  C4_4 
REMARK    2  A    between atoms: C4_4  and  N1_5 
REMARK    3  A    between atoms: C4_4  and  C13_19 
REMARK       I    between atoms: N1_5  and  C5_7 
REMARK    4  A    between atoms: C5_7  and  C6_9 
REMARK    5  A    between atoms: C8_11  and  C9_12 
REMARK    6  A    between atoms: C9_12  and  C10_13 
REMARK       I    between atoms: C13_19  and  N3_21 
REMARK    7  A    between atoms: N3_21  and  C14_23 
REMARK    8  A    between atoms: C14_23  and  C15_24 
ROOT
HETATM    1  C4  UNL     1       0.451  -0.390  -0.565  1.00  0.00     0.180 C 
ENDROOT
BRANCH   1   2
HETATM    2  C2  UNL     1       0.924   0.634  -1.548  1.00  0.00     0.009 C 
HETATM    3  C1  UNL     1       0.594   2.037  -1.210  1.00  0.00     0.012 C 
HETATM    4  C3  UNL     1       0.405   0.233  -2.923  1.00  0.00     0.012 C 
ENDBRANCH   1   2
BRANCH   1   5
HETATM    5  N1  UNL     1      -0.975  -0.409  -0.379  1.00  0.00    -0.342 N 
HETATM    6  C5  UNL     1      -1.847  -1.442  -0.699  1.00  0.00     0.278 C 
HETATM    7  O1  UNL     1      -1.426  -2.497  -1.204  1.00  0.00    -0.265 OA
ATOM      8  H1  UNL     1      -1.391   0.426   0.032  1.00  0.00     0.163 HD
BRANCH   6   9
HETATM    9  C6  UNL     1      -3.263  -1.315  -0.452  1.00  0.00     0.168 A 
HETATM   10  C7  UNL     1      -3.892  -0.196   0.107  1.00  0.00     0.072 A 
HETATM   11  C8  UNL     1      -5.260  -0.454   0.185  1.00  0.00     0.036 A 
HETATM   12  N2  UNL     1      -5.386  -1.692  -0.322  1.00  0.00    -0.265 N 
HETATM   13  O2  UNL     1      -4.238  -2.163  -0.678  1.00  0.00    -0.232 OA
ATOM     14  H2  UNL     1      -6.270  -2.192  -0.413  1.00  0.00     0.194 HD
BRANCH  11  15
HETATM   15  C9  UNL     1      -6.290   0.466   0.715  1.00  0.00     0.064 C 
BRANCH  15  16
HETATM   16  C10 UNL     1      -6.853   1.321  -0.381  1.00  0.00    -0.009 A 
HETATM   17  C11 UNL     1      -7.514   0.578  -1.491  1.00  0.00     0.005 A 
HETATM   18  C12 UNL     1      -6.201   1.279  -1.717  1.00  0.00     0.005 A 
ENDBRANCH  15  16
ENDBRANCH  11  15
ENDBRANCH   6   9
ENDBRANCH   1   5
BRANCH   1  19
HETATM   19  C13 UNL     1       1.128  -0.349   0.723  1.00  0.00     0.244 C 
HETATM   20  O3  UNL     1       0.453  -0.337   1.780  1.00  0.00    -0.271 OA
HETATM   21  N3  UNL     1       2.563  -0.320   0.888  1.00  0.00    -0.339 N 
ATOM     22  H3  UNL     1       3.154  -0.328   0.057  1.00  0.00     0.167 HD
BRANCH  21  23
HETATM   23  C14 UNL     1       3.173  -0.281   2.156  1.00  0.00     0.069 C 
BRANCH  23  24
HETATM   24  C15 UNL     1       4.599  -0.270   2.368  1.00  0.00     0.033 A 
HETATM   25  C16 UNL     1       5.530   0.751   1.835  1.00  0.00     0.020 A 
HETATM   26  C17 UNL     1       5.652  -0.687   1.410  1.00  0.00    -0.039 A 
HETATM   27  C18 UNL     1       5.509  -0.946  -0.033  1.00  0.00     0.015 C 
HETATM   28  C19 UNL     1       6.789  -1.507   2.054  1.00  0.00     0.015 C 
ENDBRANCH  23  24
ENDBRANCH  21  23
ENDBRANCH   1  19
TORSDOF 8
