REMARK  3 active torsions:
REMARK  status: ('A' for Active; 'I' for Inactive)
REMARK    1  A    between atoms: C9_11  and  N2_12 
REMARK    2  A    between atoms: C14_23  and  O2_24 
REMARK    3  A    between atoms: O2_24  and  C15_25 
ROOT
HETATM    1  C1  UNL     1       2.901   1.308   1.667  1.00  0.00     0.048 C 
HETATM    2  C2  UNL     1       1.994   0.615   0.676  1.00  0.00    -0.027 C 
HETATM    3  C3  UNL     1       0.699   0.561   0.882  1.00  0.00     0.061 C 
HETATM    4  C4  UNL     1       0.192   1.191   2.092  1.00  0.00     0.098 C 
HETATM    5  N1  UNL     1      -0.226   1.699   3.044  1.00  0.00    -0.192 NA
HETATM    6  C5  UNL     1      -0.305  -0.087  -0.019  1.00  0.00     0.119 C 
HETATM    7  C6  UNL     1      -0.439  -1.522   0.305  1.00  0.00     0.059 C 
HETATM    8  C7  UNL     1      -1.689  -2.196  -0.155  1.00  0.00     0.054 C 
HETATM    9  C8  UNL     1      -1.700  -3.620   0.344  1.00  0.00     0.022 C 
HETATM   10  S1  UNL     1      -3.077  -1.256   0.562  1.00  0.00    -0.090 SA
HETATM   11  C9  UNL     1      -2.677   0.449   0.238  1.00  0.00     0.139 C 
HETATM   12  N3  UNL     1      -1.462   0.724   0.020  1.00  0.00    -0.351 N 
ATOM     13  H3  UNL     1      -1.284   1.712  -0.161  1.00  0.00     0.163 HD
HETATM   14  C12 UNL     1       0.231   0.002  -1.422  1.00  0.00     0.119 C 
HETATM   15  N4  UNL     1      -0.570  -0.156  -2.406  1.00  0.00    -0.222 N 
ATOM     16  H4  UNL     1      -1.560  -0.340  -2.245  1.00  0.00     0.199 HD
HETATM   17  F1  UNL     1      -0.084  -0.075  -3.658  1.00  0.00    -0.101 F 
HETATM   18  C13 UNL     1       1.641   0.265  -1.659  1.00  0.00     0.210 C 
HETATM   19  O1  UNL     1       2.046   0.707  -2.753  1.00  0.00    -0.288 OA
HETATM   20  C14 UNL     1       2.566  -0.016  -0.541  1.00  0.00     0.239 C 
ENDROOT
BRANCH  20  21
HETATM   21  O2  UNL     1       3.876   0.433  -0.801  1.00  0.00    -0.288 OA
BRANCH  21  22
HETATM   22  C15 UNL     1       4.925  -0.467  -0.892  1.00  0.00     0.373 C 
HETATM   23  N5  UNL     1       6.255  -0.061  -1.150  1.00  0.00    -0.032 NA
HETATM   24  O3  UNL     1       4.716  -1.699  -0.742  1.00  0.00    -0.242 OA
ENDBRANCH  21  22
ENDBRANCH  20  21
BRANCH  11  25
HETATM   25  N2  UNL     1      -3.715   1.427   0.235  1.00  0.00    -0.371 N 
HETATM   26  C10 UNL     1      -3.983   2.167   1.438  1.00  0.00     0.151 C 
HETATM   27  C11 UNL     1      -4.470   1.656  -0.962  1.00  0.00     0.151 C 
ENDBRANCH  11  25
TORSDOF 3
