REMARK  7 active torsions:
REMARK  status: ('A' for Active; 'I' for Inactive)
REMARK    1  A    between atoms: N1_2  and  C1_4 
REMARK    2  A    between atoms: C1_4  and  C2_5 
REMARK    3  A    between atoms: C1_4  and  N6_28 
REMARK    4  A    between atoms: C2_5  and  N4_16 
REMARK    5  A    between atoms: N2_6  and  N3_8 
REMARK    6  A    between atoms: N3_8  and  C3_10 
REMARK    7  A    between atoms: N4_16  and  C9_17 
ROOT
HETATM    1  C2  UNL     1      -0.506   0.085  -0.518  1.00  0.00     0.232 C 
HETATM    2  N2  UNL     1      -1.370  -0.767   0.067  1.00  0.00    -0.274 N 
ATOM      3  H2  UNL     1      -2.368  -0.698  -0.134  1.00  0.00     0.189 HD
ENDROOT
BRANCH   1   4
HETATM    4  C1  UNL     1      -1.209   1.069  -1.438  1.00  0.00     0.472 C 
BRANCH   4   5
HETATM    5  N1  UNL     1      -2.111   0.285  -2.253  1.00  0.00    -0.111 N 
HETATM    6  O1  UNL     1      -1.966   0.273  -3.479  1.00  0.00    -0.534 OA
HETATM    7  O2  UNL     1      -3.105  -0.429  -1.668  1.00  0.00    -0.534 OA
ENDBRANCH   4   5
BRANCH   4   8
HETATM    8  N6  UNL     1      -2.036   1.883  -0.586  1.00  0.00     0.126 N 
HETATM    9  C16 UNL     1      -3.012   2.673  -1.300  1.00  0.00     0.276 C 
HETATM   10  C17 UNL     1      -4.173   2.868  -0.313  1.00  0.00     0.030 C 
HETATM   11  C18 UNL     1      -3.643   3.610   0.867  1.00  0.00     0.003 C 
HETATM   12  C19 UNL     1      -2.172   3.828   0.891  1.00  0.00     0.030 C 
HETATM   13  C20 UNL     1      -1.360   2.645   0.408  1.00  0.00     0.276 C 
ENDBRANCH   4   8
ENDBRANCH   1   4
BRANCH   1  14
HETATM   14  N4  UNL     1       0.748   0.001  -0.264  1.00  0.00    -0.361 NA
BRANCH  14  15
HETATM   15  C9  UNL     1       1.958   0.215  -0.207  1.00  0.00     0.225 A 
HETATM   16  N5  UNL     1       2.888  -0.548   0.427  1.00  0.00    -0.324 N 
HETATM   17  C10 UNL     1       4.134  -0.186   0.397  1.00  0.00     0.052 A 
ATOM     18  H5  UNL     1       2.609  -1.396   0.921  1.00  0.00     0.169 HD
HETATM   19  C11 UNL     1       5.205  -0.884   1.013  1.00  0.00     0.034 A 
HETATM   20  C15 UNL     1       4.466   0.956  -0.274  1.00  0.00     0.039 A 
HETATM   21  C12 UNL     1       6.469  -0.412   0.916  1.00  0.00     0.044 A 
HETATM   22  C13 UNL     1       6.823   0.731   0.247  1.00  0.00     0.117 A 
HETATM   23  F1  UNL     1       8.107   1.132   0.199  1.00  0.00    -0.206 F 
HETATM   24  C14 UNL     1       5.792   1.414  -0.354  1.00  0.00     0.063 A 
HETATM   25  S1  UNL     1       2.955   1.483  -0.851  1.00  0.00    -0.037 SA
ENDBRANCH  14  15
ENDBRANCH   1  14
BRANCH   2  26
HETATM   26  N3  UNL     1      -0.908  -1.734   0.939  1.00  0.00    -0.299 N 
ATOM     27  H3  UNL     1      -0.474  -1.468   1.823  1.00  0.00     0.187 HD
BRANCH  26  28
HETATM   28  C3  UNL     1      -1.046  -3.105   0.588  1.00  0.00     0.048 A 
HETATM   29  C4  UNL     1      -2.290  -3.691   0.612  1.00  0.00     0.031 A 
HETATM   30  C5  UNL     1      -2.382  -5.026   0.294  1.00  0.00     0.002 A 
HETATM   31  C6  UNL     1      -1.294  -5.798  -0.044  1.00  0.00     0.000 A 
HETATM   32  C7  UNL     1      -0.044  -5.186  -0.062  1.00  0.00     0.002 A 
HETATM   33  C8  UNL     1       0.086  -3.850   0.250  1.00  0.00     0.031 A 
ENDBRANCH  26  28
ENDBRANCH   2  26
TORSDOF 7
