REMARK  3 active torsions:
REMARK  status: ('A' for Active; 'I' for Inactive)
REMARK    1  A    between atoms: C2_2  and  O1_3 
REMARK    2  A    between atoms: O1_3  and  C3_4 
REMARK    3  A    between atoms: C11_13  and  O3_14 
REMARK       I    between atoms: N1_16  and  C12_17 
ROOT
HETATM    1  C3  UNL     1       0.506  -0.059  -0.574  1.00  0.00     0.172 C 
HETATM    2  C4  UNL     1       0.067  -0.485  -1.980  1.00  0.00     0.051 A 
HETATM    3  C5  UNL     1      -0.903   0.269  -2.752  1.00  0.00     0.017 A 
HETATM    4  C6  UNL     1      -1.451  -0.744  -1.868  1.00  0.00     0.021 A 
HETATM    5  C7  UNL     1      -1.697  -0.647  -0.432  1.00  0.00     0.127 C 
HETATM    6  C8  UNL     1      -2.191   0.574   0.181  1.00  0.00     0.183 A 
HETATM    7  O2  UNL     1      -2.266   1.795  -0.461  1.00  0.00    -0.364 OA
HETATM    8  C9  UNL     1      -1.189   1.583   0.368  1.00  0.00     0.116 A 
HETATM    9  C10 UNL     1      -1.296   2.416   1.661  1.00  0.00     0.052 C 
HETATM   10  C11 UNL     1       0.161   1.334  -0.205  1.00  0.00     0.211 C 
HETATM   11  N1  UNL     1      -0.368  -0.976   0.166  1.00  0.00    -0.310 N 
HETATM   12  C12 UNL     1      -0.153  -1.972   1.125  1.00  0.00     0.218 C 
HETATM   13  C13 UNL     1      -1.358  -2.668   1.686  1.00  0.00     0.117 C 
HETATM   14  O4  UNL     1       0.924  -2.348   1.566  1.00  0.00    -0.274 OA
ENDROOT
BRANCH   1  15
HETATM   15  O1  UNL     1       1.834  -0.340  -0.534  1.00  0.00    -0.358 OA
BRANCH  15  16
HETATM   16  C2  UNL     1       2.663   0.087   0.402  1.00  0.00     0.166 C 
HETATM   17  C1  UNL     1       4.047  -0.543   0.105  1.00  0.00     0.033 C 
ENDBRANCH  15  16
ENDBRANCH   1  15
BRANCH  10  18
HETATM   18  O3  UNL     1       0.549   2.293  -1.173  1.00  0.00    -0.387 OA
ATOM     19  H3  UNL     1       0.328   3.186  -0.936  1.00  0.00     0.210 HD
ENDBRANCH  10  18
TORSDOF 3
