REMARK  2 active torsions:
REMARK  status: ('A' for Active; 'I' for Inactive)
REMARK    1  A    between atoms: C2_2  and  C3_3 
REMARK    2  A    between atoms: C5_6  and  N1_7 
ROOT
HETATM    1  N1  UNL     1      -0.366  -0.389  -0.136  1.00  0.00     0.101 N 
HETATM    2  C6  UNL     1      -1.614  -0.814   0.528  1.00  0.00     0.300 C 
HETATM    3  C7  UNL     1      -2.806  -0.500  -0.322  1.00  0.00     0.262 C 
HETATM    4  N2  UNL     1      -3.036   0.939  -0.313  1.00  0.00    -0.072 N 
ATOM      5  H21 UNL     1      -3.795   1.209   0.312  1.00  0.00     0.277 HD
ATOM      6  H22 UNL     1      -3.446   1.274  -1.185  1.00  0.00     0.277 HD
HETATM    7  C8  UNL     1      -1.798   1.604   0.005  1.00  0.00     0.262 C 
HETATM    8  C9  UNL     1      -0.617   0.888  -0.666  1.00  0.00     0.300 C 
ENDROOT
BRANCH   1   9
HETATM    9  C5  UNL     1       0.671  -0.587   0.791  1.00  0.00     0.279 C 
HETATM   10  C3  UNL     1       2.091  -0.400   0.481  1.00  0.00     0.179 C 
HETATM   11  O1  UNL     1       2.023  -1.511  -0.358  1.00  0.00    -0.378 OA
HETATM   12  C4  UNL     1       1.164  -2.043   0.639  1.00  0.00     0.207 C 
BRANCH  10  13
HETATM   13  C2  UNL     1       2.628   0.823  -0.056  1.00  0.00    -0.003 C 
HETATM   14  C1  UNL     1       3.504   0.812  -1.048  1.00  0.00     0.009 C 
ENDBRANCH  10  13
ENDBRANCH   1   9
TORSDOF 2
