REMARK  4 active torsions:
REMARK  status: ('A' for Active; 'I' for Inactive)
REMARK    1  A    between atoms: N1_1  and  N2_4 
REMARK    2  A    between atoms: N3_6  and  C1_8 
REMARK    3  A    between atoms: C1_8  and  C2_9 
REMARK    4  A    between atoms: C2_9  and  O1_10 
ROOT
HETATM    1  C2  UNL     1      -0.057  -0.540  -0.221  1.00  0.00     0.087 C 
HETATM    2  C3  UNL     1      -0.744   0.759  -0.414  1.00  0.00     0.068 C 
HETATM    3  C4  UNL     1      -2.218   0.747  -0.171  1.00  0.00     0.188 C 
HETATM    4  O2  UNL     1      -2.612   0.307   1.052  1.00  0.00    -0.320 OA
HETATM    5  S1  UNL     1      -1.892  -1.126   1.584  1.00  0.00    -0.009 SA
HETATM    6  C5  UNL     1      -0.095  -0.939   1.262  1.00  0.00     0.144 C 
ENDROOT
BRANCH   1   7
HETATM    7  C1  UNL     1       1.407  -0.366  -0.556  1.00  0.00     0.179 C 
BRANCH   7   8
HETATM    8  N3  UNL     1       1.881   0.708   0.290  1.00  0.00    -0.320 N 
HETATM    9  N2  UNL     1       2.952   1.241   0.015  1.00  0.00    -0.254 N 
ATOM     10  H2  UNL     1       2.878   1.367  -0.994  1.00  0.00     0.207 HD
ATOM     11  H3  UNL     1       1.337   1.015   1.097  1.00  0.00     0.181 HD
BRANCH   9  12
HETATM   12  N1  UNL     1       4.078   1.717   0.259  1.00  0.00    -0.331 N 
ATOM     13  H12 UNL     1       4.110   1.572   1.268  1.00  0.00     0.178 HD
ATOM     14  H11 UNL     1       4.968   2.160   0.030  1.00  0.00     0.178 HD
ENDBRANCH   9  12
ENDBRANCH   7   8
ENDBRANCH   1   7
BRANCH   1  15
HETATM   15  O1  UNL     1      -0.617  -1.545  -0.975  1.00  0.00    -0.387 OA
ATOM     16  H1  UNL     1      -1.537  -1.654  -0.765  1.00  0.00     0.210 HD
ENDBRANCH   1  15
TORSDOF 4
