REMARK  16 active torsions:
REMARK  status: ('A' for Active; 'I' for Inactive)
REMARK    1  A    between atoms: C2_2  and  C4_4 
REMARK    2  A    between atoms: C2_2  and  O2_7 
REMARK    3  A    between atoms: C4_4  and  O1_5 
REMARK    4  A    between atoms: O2_7  and  N1_8 
REMARK    5  A    between atoms: N1_8  and  C5_9 
REMARK    6  A    between atoms: C5_9  and  C6_10 
REMARK    7  A    between atoms: C5_9  and  C23_51 
REMARK       I    between atoms: C6_10  and  N2_12 
REMARK    8  A    between atoms: C7_14  and  C8_15 
REMARK    9  A    between atoms: C8_15  and  O5_17 
REMARK   10  A    between atoms: O5_17  and  C9_18 
REMARK   11  A    between atoms: C9_18  and  C10_19 
REMARK   12  A    between atoms: C11_21  and  N3_22 
REMARK   13  A    between atoms: C13_26  and  N5_27 
REMARK   14  A    between atoms: C16_35  and  O8_36 
REMARK   15  A    between atoms: C21_48  and  C22_49 
REMARK   16  A    between atoms: C25_54  and  N10_55 
ROOT
HETATM    1  N3  UNL     1       5.502   0.456  -0.102  1.00  0.00    -0.265 N 
HETATM    2  C12 UNL     1       6.126  -0.683  -0.415  1.00  0.00     0.147 A 
HETATM    3  N4  UNL     1       5.456  -1.837  -0.468  1.00  0.00    -0.175 N 
ATOM      4  H4  UNL     1       4.456  -1.869  -0.271  1.00  0.00     0.186 HD
HETATM    5  C13 UNL     1       6.130  -2.954  -0.787  1.00  0.00     0.680 A 
HETATM    6  N6  UNL     1       7.442  -2.959  -1.052  1.00  0.00    -0.155 N 
ATOM      7  H6  UNL     1       7.891  -3.844  -1.287  1.00  0.00     0.187 HD
HETATM    8  C14 UNL     1       8.195  -1.836  -1.020  1.00  0.00     0.276 A 
HETATM    9  O7  UNL     1       9.423  -1.879  -1.274  1.00  0.00    -0.267 OA
HETATM   10  C15 UNL     1       7.553  -0.653  -0.698  1.00  0.00     0.113 A 
HETATM   11  C16 UNL     1       8.263   0.551  -0.644  1.00  0.00     0.116 A 
HETATM   12  C17 UNL     1       7.487   1.676  -0.303  1.00  0.00     0.114 A 
HETATM   13  N7  UNL     1       7.899   2.951  -0.177  1.00  0.00    -0.328 N 
ATOM     14  H7  UNL     1       8.849   3.298  -0.311  1.00  0.00     0.168 HD
HETATM   15  C18 UNL     1       6.825   3.676   0.158  1.00  0.00     0.190 A 
HETATM   16  C19 UNL     1       6.773   5.103   0.401  1.00  0.00     0.137 C 
HETATM   17  N8  UNL     1       6.726   6.241   0.613  1.00  0.00    -0.188 NA
HETATM   18  N9  UNL     1       5.743   2.888   0.247  1.00  0.00    -0.317 N 
ATOM     19  H9  UNL     1       4.795   3.178   0.485  1.00  0.00     0.169 HD
HETATM   20  C20 UNL     1       6.160   1.621  -0.044  1.00  0.00     0.145 A 
ENDROOT
BRANCH  11  21
HETATM   21  O8  UNL     1       9.574   0.689  -0.886  1.00  0.00    -0.357 OA
ATOM     22  H8  UNL     1      10.056   1.507  -0.849  1.00  0.00     0.217 HD
ENDBRANCH  11  21
BRANCH   1  23
HETATM   23  C11 UNL     1       4.085   0.461   0.186  1.00  0.00     0.381 C 
HETATM   24  O6  UNL     1       3.705  -0.586   1.030  1.00  0.00    -0.333 OA
HETATM   25  C10 UNL     1       2.368  -0.846   0.730  1.00  0.00     0.186 C 
HETATM   26  C21 UNL     1       2.137  -0.120  -0.561  1.00  0.00     0.218 C 
HETATM   27  O9  UNL     1       3.404   0.232  -0.996  1.00  0.00    -0.329 OA
BRANCH  25  28
HETATM   28  C9  UNL     1       1.566  -0.338   1.885  1.00  0.00     0.214 C 
BRANCH  28  29
HETATM   29  O5  UNL     1       0.193  -0.504   1.803  1.00  0.00    -0.314 OA
BRANCH  29  30
HETATM   30  C8  UNL     1      -0.505  -1.672   1.699  1.00  0.00     0.298 C 
HETATM   31  O4  UNL     1       0.109  -2.744   1.674  1.00  0.00    -0.259 OA
BRANCH  30  32
HETATM   32  C7  UNL     1      -1.986  -1.715   1.616  1.00  0.00     0.173 C 
HETATM   33  N2  UNL     1      -2.552  -0.563   1.648  1.00  0.00    -0.329 N 
HETATM   34  C6  UNL     1      -3.953  -0.460   1.577  1.00  0.00     0.249 C 
ATOM     35  H2  UNL     1      -1.984   0.280   1.725  1.00  0.00     0.168 HD
HETATM   36  O3  UNL     1      -4.653  -0.579   2.636  1.00  0.00    -0.271 OA
BRANCH  34  37
HETATM   37  C5  UNL     1      -4.573  -0.211   0.252  1.00  0.00     0.248 C 
BRANCH  37  38
HETATM   38  N1  UNL     1      -6.003  -0.107   0.455  1.00  0.00    -0.079 NA
BRANCH  38  39
HETATM   39  O2  UNL     1      -6.679   0.141  -0.676  1.00  0.00    -0.273 OA
BRANCH  39  40
HETATM   40  C2  UNL     1      -7.306   1.395  -0.488  1.00  0.00     0.098 C 
HETATM   41  C1  UNL     1      -8.244   1.405   0.673  1.00  0.00     0.050 C 
HETATM   42  C3  UNL     1      -8.053   1.790  -1.740  1.00  0.00     0.050 C 
BRANCH  40  43
HETATM   43  C4  UNL     1      -6.251   2.482  -0.245  1.00  0.00     0.203 C 
BRANCH  43  44
HETATM   44  O1  UNL     1      -6.987   3.670  -0.077  1.00  0.00    -0.398 OA
ATOM     45  H1  UNL     1      -6.334   4.343   0.073  1.00  0.00     0.209 HD
ENDBRANCH  43  44
ENDBRANCH  40  43
ENDBRANCH  39  40
ENDBRANCH  38  39
ENDBRANCH  37  38
BRANCH  37  46
HETATM   46  C23 UNL     1      -4.261  -1.439  -0.591  1.00  0.00     0.049 A 
HETATM   47  C24 UNL     1      -3.351  -1.344  -1.607  1.00  0.00     0.080 A 
HETATM   48  S1  UNL     1      -3.355  -2.933  -2.236  1.00  0.00    -0.064 SA
HETATM   49  C25 UNL     1      -4.502  -3.614  -1.178  1.00  0.00     0.142 A 
HETATM   50  N11 UNL     1      -4.834  -2.596  -0.388  1.00  0.00    -0.338 N 
ATOM     51  H11 UNL     1      -5.519  -2.716   0.358  1.00  0.00     0.168 HD
BRANCH  49  52
HETATM   52  N10 UNL     1      -4.951  -4.849  -1.149  1.00  0.00    -0.380 N 
ATOM     53 2H10 UNL     1      -4.697  -5.629  -1.755  1.00  0.00     0.158 HD
ATOM     54 1H10 UNL     1      -5.638  -5.257  -0.515  1.00  0.00     0.158 HD
ENDBRANCH  49  52
ENDBRANCH  37  46
ENDBRANCH  34  37
ENDBRANCH  30  32
ENDBRANCH  29  30
ENDBRANCH  28  29
ENDBRANCH  25  28
BRANCH  26  55
HETATM   55  C22 UNL     1       1.277   1.088  -0.398  1.00  0.00     0.265 C 
HETATM   56  O10 UNL     1       1.771   2.192  -0.607  1.00  0.00    -0.304 OA
ENDBRANCH  26  55
ENDBRANCH   1  23
BRANCH   5  57
HETATM   57  N5  UNL     1       5.505  -4.101  -0.848  1.00  0.00    -0.234 N 
ATOM     58  H52 UNL     1       4.505  -4.097  -0.646  1.00  0.00     0.174 HD
ATOM     59  H51 UNL     1       6.017  -4.949  -1.090  1.00  0.00     0.174 HD
ENDBRANCH   5  57
TORSDOF 16
