REMARK  7 active torsions:
REMARK  status: ('A' for Active; 'I' for Inactive)
REMARK    1  A    between atoms: C2_4  and  N2_5 
REMARK    2  A    between atoms: C2_4  and  C7_24 
REMARK    3  A    between atoms: N2_5  and  N3_7 
REMARK    4  A    between atoms: N4_9  and  C3_11 
REMARK    5  A    between atoms: N7_18  and  N8_19 
REMARK    6  A    between atoms: C8_27  and  N10_28 
REMARK    7  A    between atoms: C11_33  and  O3_34 
ROOT
HETATM    1  N2  UNL     1       0.008  -1.639  -0.218  1.00  0.00    -0.269 N 
ATOM      2  H2  UNL     1      -0.429  -2.474  -0.609  1.00  0.00     0.190 HD
ENDROOT
BRANCH   1   3
HETATM    3  C2  UNL     1      -0.736  -0.838   0.688  1.00  0.00     0.148 C 
HETATM    4  N1  UNL     1      -0.215  -0.563   1.835  1.00  0.00    -0.378 N 
HETATM    5  C1  UNL     1      -0.825   0.226   2.859  1.00  0.00     0.148 C 
ATOM      6  H1  UNL     1       0.712  -0.941   2.028  1.00  0.00     0.160 HD
BRANCH   3   7
HETATM    7  C7  UNL     1      -2.044  -0.350   0.323  1.00  0.00     0.145 A 
HETATM    8  N9  UNL     1      -2.894   0.419   1.046  1.00  0.00    -0.184 N 
HETATM    9  C8  UNL     1      -4.009   0.648   0.335  1.00  0.00     0.682 A 
ATOM     10  H9  UNL     1      -2.714   0.770   1.987  1.00  0.00     0.184 HD
HETATM   11  N11 UNL     1      -3.864   0.021  -0.844  1.00  0.00    -0.164 N 
HETATM   12  C10 UNL     1      -4.851   0.027  -1.892  1.00  0.00     0.177 C 
HETATM   13  C11 UNL     1      -2.675  -0.593  -0.873  1.00  0.00     0.189 A 
BRANCH   9  14
HETATM   14  N10 UNL     1      -5.121   1.413   0.770  1.00  0.00    -0.230 N 
HETATM   15  C9  UNL     1      -5.126   2.030   2.079  1.00  0.00     0.165 C 
ATOM     16  H10 UNL     1      -5.926   1.530   0.154  1.00  0.00     0.177 HD
ENDBRANCH   9  14
BRANCH  13  17
HETATM   17  O3  UNL     1      -2.197  -1.340  -1.950  1.00  0.00    -0.344 OA
ATOM     18  H3  UNL     1      -2.633  -1.508  -2.777  1.00  0.00     0.219 HD
ENDBRANCH  13  17
ENDBRANCH   3   7
ENDBRANCH   1   3
BRANCH   1  19
HETATM   19  N3  UNL     1       1.296  -1.330  -0.587  1.00  0.00    -0.240 N 
HETATM   20  N4  UNL     1       2.142  -0.757   0.166  1.00  0.00    -0.278 N 
ATOM     21  H4  UNL     1       1.850  -0.507   1.111  1.00  0.00     0.189 HD
ATOM     22  H3  UNL     1       1.592  -1.578  -1.531  1.00  0.00     0.208 HD
BRANCH  20  23
HETATM   23  C3  UNL     1       3.454  -0.446  -0.221  1.00  0.00     0.161 A 
HETATM   24  C4  UNL     1       4.483  -1.282   0.177  1.00  0.00     0.154 A 
HETATM   25  N5  UNL     1       4.175  -2.417   0.957  1.00  0.00    -0.080 NA
HETATM   26  N6  UNL     1       5.772  -1.008  -0.183  1.00  0.00    -0.293 N 
HETATM   27  C5  UNL     1       5.994   0.092  -0.929  1.00  0.00     0.349 A 
ATOM     28  H6  UNL     1       6.540  -1.615   0.103  1.00  0.00     0.172 HD
HETATM   29  O1  UNL     1       7.187   0.358  -1.270  1.00  0.00    -0.244 OA
HETATM   30  N7  UNL     1       5.012   0.921  -1.329  1.00  0.00    -0.173 N 
HETATM   31  C6  UNL     1       3.732   0.654  -0.975  1.00  0.00     0.301 A 
HETATM   32  O2  UNL     1       2.819   1.435  -1.354  1.00  0.00    -0.263 OA
BRANCH  30  33
HETATM   33  N8  UNL     1       5.335   2.039  -2.101  1.00  0.00    -0.332 N 
ATOM     34  H82 UNL     1       6.299   2.240  -2.368  1.00  0.00     0.177 HD
ATOM     35  H81 UNL     1       4.591   2.667  -2.404  1.00  0.00     0.177 HD
ENDBRANCH  30  33
ENDBRANCH  20  23
ENDBRANCH   1  19
TORSDOF 7
