REMARK  0 active torsions:
REMARK  status: ('A' for Active; 'I' for Inactive)
ROOT
HETATM    1  C1  UNL     1       5.454   0.031  -1.560  1.00  0.00     0.076 C 
HETATM    2  C2  UNL     1       4.117  -0.011  -0.859  1.00  0.00     0.049 A 
HETATM    3  N1  UNL     1       3.209   0.951  -0.820  1.00  0.00    -0.339 N 
ATOM      4  H1  UNL     1       3.380   1.836  -1.297  1.00  0.00     0.168 HD
HETATM    5  C3  UNL     1       2.101   0.765  -0.173  1.00  0.00     0.123 A 
HETATM    6  C4  UNL     1       1.926  -0.447   0.451  1.00  0.00     0.056 A 
HETATM    7  S1  UNL     1       3.384  -1.248   0.060  1.00  0.00    -0.075 SA
HETATM    8  C5  UNL     1       0.812  -1.008   1.272  1.00  0.00     0.170 A 
HETATM    9  C6  UNL     1       0.474  -2.412   1.073  1.00  0.00    -0.003 A 
HETATM   10  C7  UNL     1       0.890  -3.731   1.274  1.00  0.00     0.012 A 
HETATM   11  C8  UNL     1       0.056  -4.724   0.846  1.00  0.00     0.001 A 
HETATM   12  C9  UNL     1      -1.146  -4.459   0.240  1.00  0.00     0.002 A 
HETATM   13  C10 UNL     1      -1.547  -3.153   0.047  1.00  0.00     0.030 A 
HETATM   14  C11 UNL     1      -0.730  -2.127   0.466  1.00  0.00     0.044 A 
HETATM   15  N2  UNL     1      -0.446  -0.759   0.605  1.00  0.00    -0.327 N 
HETATM   16  C12 UNL     1      -1.024   0.510   0.287  1.00  0.00     0.107 A 
HETATM   17  C13 UNL     1      -2.351   0.811   0.247  1.00  0.00     0.099 A 
HETATM   18  N3  UNL     1      -3.379  -0.124   0.524  1.00  0.00    -0.098 NA
HETATM   19  C14 UNL     1      -2.456   2.144  -0.102  1.00  0.00     0.035 A 
HETATM   20  C15 UNL     1      -3.716   2.910  -0.266  1.00  0.00     0.070 C 
HETATM   21  N4  UNL     1      -1.225   2.664  -0.276  1.00  0.00    -0.338 N 
HETATM   22  C16 UNL     1      -0.846   4.018  -0.645  1.00  0.00     0.158 C 
HETATM   23  C17 UNL     1      -0.333   1.677  -0.042  1.00  0.00     0.138 A 
HETATM   24  N5  UNL     1       1.097   1.818  -0.129  1.00  0.00    -0.326 N 
ATOM     25  H5  UNL     1       1.450   2.774  -0.164  1.00  0.00     0.169 HD
ENDROOT
TORSDOF 0
