REMARK  9 active torsions:
REMARK  status: ('A' for Active; 'I' for Inactive)
REMARK    1  A    between atoms: N1_1  and  C1_4 
REMARK    2  A    between atoms: N4_14  and  C5_15 
REMARK    3  A    between atoms: C5_15  and  O3_16 
REMARK    4  A    between atoms: O3_16  and  C6_17 
REMARK    5  A    between atoms: C6_17  and  C7_18 
REMARK    6  A    between atoms: C6_17  and  C8_21 
REMARK    7  A    between atoms: C8_21  and  N6_22 
REMARK    8  A    between atoms: C8_21  and  C9_26 
REMARK    9  A    between atoms: C9_26  and  N7_27 
ROOT
HETATM    1  C1  UNL     1       3.449  -0.123  -2.161  1.00  0.00     0.680 A 
HETATM    2  N2  UNL     1       3.456  -0.538  -3.438  1.00  0.00    -0.154 N 
ATOM      3  H2  UNL     1       4.266  -0.340  -4.026  1.00  0.00     0.187 HD
HETATM    4  C2  UNL     1       2.412  -1.210  -3.953  1.00  0.00     0.290 A 
HETATM    5  O1  UNL     1       2.396  -1.610  -5.153  1.00  0.00    -0.265 OA
HETATM    6  C3  UNL     1       1.297  -1.494  -3.176  1.00  0.00     0.151 A 
HETATM    7  N3  UNL     1       0.134  -2.129  -3.406  1.00  0.00    -0.300 N 
ATOM      8  H3  UNL     1      -0.155  -2.556  -4.286  1.00  0.00     0.171 HD
HETATM    9  C4  UNL     1      -0.578  -2.100  -2.267  1.00  0.00     0.330 A 
HETATM   10  O2  UNL     1      -1.744  -2.620  -2.137  1.00  0.00    -0.246 OA
HETATM   11  N4  UNL     1       0.128  -1.454  -1.331  1.00  0.00    -0.260 N 
HETATM   12  C10 UNL     1       1.288  -1.068  -1.861  1.00  0.00     0.161 A 
HETATM   13  N8  UNL     1       2.374  -0.388  -1.384  1.00  0.00    -0.174 N 
ATOM     14  H8  UNL     1       2.374  -0.071  -0.414  1.00  0.00     0.186 HD
ENDROOT
BRANCH  11  15
HETATM   15  C5  UNL     1      -0.342  -1.238   0.019  1.00  0.00     0.306 C 
BRANCH  15  16
HETATM   16  O3  UNL     1      -1.042  -0.069   0.162  1.00  0.00    -0.355 OA
BRANCH  16  17
HETATM   17  C6  UNL     1      -1.447   0.031   1.518  1.00  0.00     0.244 C 
BRANCH  17  18
HETATM   18  C7  UNL     1      -2.913   0.067   1.605  1.00  0.00     0.262 C 
HETATM   19  N5  UNL     1      -3.642   0.108   2.808  1.00  0.00    -0.060 NA
HETATM   20  O4  UNL     1      -3.594   0.061   0.531  1.00  0.00    -0.274 OA
ENDBRANCH  17  18
BRANCH  17  21
HETATM   21  C8  UNL     1      -0.745   1.210   2.134  1.00  0.00     0.246 C 
BRANCH  21  22
HETATM   22  N6  UNL     1      -1.065   2.469   1.490  1.00  0.00    -0.070 N 
ATOM     23  H63 UNL     1      -0.880   2.421   0.488  1.00  0.00     0.274 HD
ATOM     24  H62 UNL     1      -2.074   2.619   1.468  1.00  0.00     0.274 HD
ATOM     25  H61 UNL     1      -0.589   3.269   1.908  1.00  0.00     0.274 HD
ENDBRANCH  21  22
BRANCH  21  26
HETATM   26  C9  UNL     1      -0.887   1.340   3.607  1.00  0.00     0.265 C 
BRANCH  26  27
HETATM   27  N7  UNL     1      -0.150   2.522   4.104  1.00  0.00    -0.077 N 
ATOM     28  H73 UNL     1       0.829   2.503   3.820  1.00  0.00     0.274 HD
ATOM     29  H72 UNL     1      -0.434   3.374   3.621  1.00  0.00     0.274 HD
ATOM     30  H71 UNL     1      -0.248   2.611   5.115  1.00  0.00     0.274 HD
ENDBRANCH  26  27
ENDBRANCH  21  26
ENDBRANCH  17  21
ENDBRANCH  16  17
ENDBRANCH  15  16
ENDBRANCH  11  15
BRANCH   1  31
HETATM   31  N1  UNL     1       4.472   0.515  -1.716  1.00  0.00    -0.234 N 
ATOM     32  H12 UNL     1       5.283   0.715  -2.302  1.00  0.00     0.174 HD
ATOM     33  H11 UNL     1       4.467   0.830  -0.746  1.00  0.00     0.174 HD
ENDBRANCH   1  31
TORSDOF 9
