REMARK  6 active torsions:
REMARK  status: ('A' for Active; 'I' for Inactive)
REMARK    1  A    between atoms: C3_3  and  O1_4 
REMARK    2  A    between atoms: C9_11  and  O2_12 
REMARK    3  A    between atoms: C10_14  and  O3_15 
REMARK    4  A    between atoms: C12_17  and  O4_18 
REMARK    5  A    between atoms: C13_20  and  N1_21 
REMARK    6  A    between atoms: N1_21  and  S1_23 
ROOT
HETATM    1  C1  UNL     1       0.929   0.271   2.292  1.00  0.00     0.017 C 
HETATM    2  C2  UNL     1       1.437   0.569   1.114  1.00  0.00    -0.054 C 
HETATM    3  C3  UNL     1       2.912   0.769   1.024  1.00  0.00     0.146 C 
HETATM    4  C4  UNL     1       3.404  -0.292   0.049  1.00  0.00     0.037 C 
HETATM    5  C5  UNL     1       2.716   0.006  -1.246  1.00  0.00     0.013 C 
HETATM    6  C6  UNL     1       1.190  -0.215  -1.167  1.00  0.00    -0.032 C 
HETATM    7  C7  UNL     1       0.764   0.129  -2.583  1.00  0.00     0.016 C 
HETATM    8  C8  UNL     1       1.024  -1.661  -0.841  1.00  0.00     0.044 C 
HETATM    9  C9  UNL     1      -0.373  -2.127  -1.173  1.00  0.00     0.150 C 
HETATM   10  C10 UNL     1      -1.267  -1.648  -0.045  1.00  0.00     0.180 C 
HETATM   11  C12 UNL     1      -1.687  -0.247  -0.243  1.00  0.00     0.173 C 
HETATM   12  C13 UNL     1      -0.798   0.865   0.018  1.00  0.00     0.133 C 
HETATM   13  C15 UNL     1       0.669   0.732  -0.152  1.00  0.00     0.050 C 
ENDROOT
BRANCH  12  14
HETATM   14  N1  UNL     1      -1.244   2.005  -0.808  1.00  0.00    -0.312 N 
ATOM     15  H1  UNL     1      -1.293   1.970  -1.826  1.00  0.00     0.172 HD
BRANCH  14  16
HETATM   16  S1  UNL     1      -1.667   3.377   0.094  1.00  0.00     0.223 S 
HETATM   17  C14 UNL     1      -3.014   3.028   1.166  1.00  0.00     0.185 C 
HETATM   18  O5  UNL     1      -0.485   3.916   0.876  1.00  0.00    -0.206 OA
HETATM   19  O6  UNL     1      -2.098   4.455  -0.881  1.00  0.00    -0.206 OA
ENDBRANCH  14  16
ENDBRANCH  12  14
BRANCH  11  20
HETATM   20  O4  UNL     1      -2.861  -0.099   0.552  1.00  0.00    -0.391 OA
ATOM     21  H4  UNL     1      -3.131   0.803   0.425  1.00  0.00     0.210 HD
ENDBRANCH  11  20
BRANCH  10  22
HETATM   22  O3  UNL     1      -2.461  -2.422  -0.039  1.00  0.00    -0.385 OA
HETATM   23  C11 UNL     1      -2.567  -3.203   1.095  1.00  0.00     0.202 C 
ENDBRANCH  10  22
BRANCH   9  24
HETATM   24  O2  UNL     1      -0.415  -3.522  -1.204  1.00  0.00    -0.393 OA
ATOM     25  H2  UNL     1      -1.294  -3.815  -1.413  1.00  0.00     0.210 HD
ENDBRANCH   9  24
BRANCH   3  26
HETATM   26  O1  UNL     1       3.531   0.651   2.262  1.00  0.00    -0.391 OA
ATOM     27  H1  UNL     1       4.471   0.778   2.205  1.00  0.00     0.210 HD
ENDBRANCH   3  26
TORSDOF 6
