REMARK  6 active torsions:
REMARK  status: ('A' for Active; 'I' for Inactive)
REMARK    1  A    between atoms: C4_4  and  C5_5 
REMARK    2  A    between atoms: C5_5  and  O1_6 
REMARK    3  A    between atoms: C12_15  and  O3_16 
REMARK    4  A    between atoms: C13_18  and  O4_19 
REMARK    5  A    between atoms: C14_21  and  O5_22 
REMARK    6  A    between atoms: C15_24  and  S1_25 
ROOT
HETATM    1  C1  UNL     1      -1.104   0.380   2.633  1.00  0.00     0.036 C 
HETATM    2  C2  UNL     1      -0.632   1.047   1.429  1.00  0.00    -0.022 C 
HETATM    3  C3  UNL     1      -0.499   0.426   0.130  1.00  0.00    -0.033 C 
HETATM    4  C4  UNL     1       0.383  -0.726  -0.133  1.00  0.00     0.001 C 
HETATM    5  C12 UNL     1      -0.235  -1.980   0.427  1.00  0.00     0.182 C 
HETATM    6  C13 UNL     1      -1.512  -2.262  -0.378  1.00  0.00     0.181 C 
HETATM    7  C14 UNL     1      -2.470  -1.138  -0.243  1.00  0.00     0.172 C 
HETATM    8  C15 UNL     1      -1.823   0.148  -0.588  1.00  0.00     0.172 C 
ENDROOT
BRANCH   4   9
HETATM    9  C5  UNL     1       1.832  -0.608  -0.082  1.00  0.00     0.152 C 
HETATM   10  C6  UNL     1       2.571  -0.232   1.096  1.00  0.00     0.173 C 
HETATM   11  O2  UNL     1       2.368  -0.513   2.250  1.00  0.00    -0.293 OA
HETATM   12  C7  UNL     1       3.714   0.618   0.656  1.00  0.00     0.082 C 
HETATM   13  C8  UNL     1       3.211   1.922   0.223  1.00  0.00    -0.018 C 
HETATM   14  C11 UNL     1       3.946  -0.018  -0.736  1.00  0.00     0.028 C 
HETATM   15  C9  UNL     1       2.473   1.702  -0.858  1.00  0.00    -0.021 C 
HETATM   16  C10 UNL     1       2.476   0.243  -1.158  1.00  0.00     0.055 C 
BRANCH   9  17
HETATM   17  O1  UNL     1       2.351  -1.898  -0.422  1.00  0.00    -0.377 OA
ATOM     18  H1  UNL     1       3.297  -1.821  -0.389  1.00  0.00     0.211 HD
ENDBRANCH   9  17
ENDBRANCH   4   9
BRANCH   5  19
HETATM   19  O3  UNL     1       0.511  -3.133   0.285  1.00  0.00    -0.388 OA
ATOM     20  H3  UNL     1       0.121  -3.924   0.638  1.00  0.00     0.210 HD
ENDBRANCH   5  19
BRANCH   8  21
HETATM   21  S1  UNL     1      -2.981   1.459  -0.470  1.00  0.00     0.151 S 
HETATM   22  C16 UNL     1      -2.351   3.007  -1.036  1.00  0.00     0.162 C 
HETATM   23  O6  UNL     1      -4.107   1.095  -1.441  1.00  0.00    -0.227 OA
HETATM   24  O7  UNL     1      -3.662   1.546   0.867  1.00  0.00    -0.227 OA
ENDBRANCH   8  21
BRANCH   6  25
HETATM   25  O4  UNL     1      -2.033  -3.505  -0.089  1.00  0.00    -0.390 OA
ATOM     26  H4  UNL     1      -2.823  -3.679  -0.587  1.00  0.00     0.210 HD
ENDBRANCH   6  25
BRANCH   7  27
HETATM   27  O5  UNL     1      -3.450  -1.347  -1.254  1.00  0.00    -0.391 OA
ATOM     28  H5  UNL     1      -4.064  -0.627  -1.168  1.00  0.00     0.210 HD
ENDBRANCH   7  27
TORSDOF 6
