REMARK  6 active torsions:
REMARK  status: ('A' for Active; 'I' for Inactive)
REMARK    1  A    between atoms: C2_2  and  O1_3 
REMARK    2  A    between atoms: O1_3  and  C3_4 
REMARK    3  A    between atoms: C3_4  and  C4_6 
REMARK    4  A    between atoms: C4_6  and  C5_7 
REMARK    5  A    between atoms: C16_18  and  C17_19 
REMARK    6  A    between atoms: C17_19  and  O3_20 
ROOT
HETATM    1  C4  UNL     1       0.855  -0.280   0.494  1.00  0.00     0.086 C 
HETATM    2  C15 UNL     1       1.493  -0.441  -0.889  1.00  0.00     0.033 C 
HETATM    3  C16 UNL     1       1.920  -1.655  -1.066  1.00  0.00     0.015 C 
HETATM    4  C18 UNL     1       1.649  -2.516   0.111  1.00  0.00     0.050 C 
HETATM    5  C19 UNL     1       1.415  -1.465   1.143  1.00  0.00    -0.014 C 
HETATM    6 BR1  UNL     1       0.723  -2.056   2.793  1.00  0.00    -0.059 Br
ENDROOT
BRANCH   1   7
HETATM    7  C3  UNL     1       1.576   0.940   0.997  1.00  0.00     0.273 C 
HETATM    8  O2  UNL     1       2.134   0.845   2.118  1.00  0.00    -0.264 OA
BRANCH   7   9
HETATM    9  O1  UNL     1       1.707   2.138   0.403  1.00  0.00    -0.321 OA
BRANCH   9  10
HETATM   10  C2  UNL     1       2.360   3.275   0.836  1.00  0.00     0.174 C 
HETATM   11  C1  UNL     1       3.832   3.104   1.080  1.00  0.00     0.034 C 
ENDBRANCH   9  10
ENDBRANCH   7   9
ENDBRANCH   1   7
BRANCH   1  12
HETATM   12  C5  UNL     1      -0.582  -0.086   0.279  1.00  0.00    -0.018 C 
HETATM   13  C6  UNL     1      -1.351   0.404   1.480  1.00  0.00     0.015 C 
HETATM   14  C7  UNL     1      -2.842   0.461   1.229  1.00  0.00    -0.013 C 
HETATM   15  C8  UNL     1      -3.089   1.512   0.201  1.00  0.00     0.009 C 
HETATM   16  C12 UNL     1      -3.403  -0.881   0.822  1.00  0.00     0.009 C 
HETATM   17  C9  UNL     1      -2.378   1.069  -1.047  1.00  0.00    -0.013 C 
HETATM   18  C10 UNL     1      -2.985  -0.244  -1.519  1.00  0.00     0.009 C 
HETATM   19  C14 UNL     1      -0.905   0.866  -0.859  1.00  0.00     0.015 C 
HETATM   20  C11 UNL     1      -2.685  -1.260  -0.468  1.00  0.00    -0.013 C 
HETATM   21  C13 UNL     1      -1.227  -1.393  -0.135  1.00  0.00     0.015 C 
ENDBRANCH   1  12
BRANCH   3  22
HETATM   22  C17 UNL     1       2.592  -2.148  -2.301  1.00  0.00     0.169 C 
BRANCH  22  23
HETATM   23  O3  UNL     1       1.839  -3.172  -2.823  1.00  0.00    -0.400 OA
ATOM     24  H3  UNL     1       2.267  -3.486  -3.610  1.00  0.00     0.209 HD
ENDBRANCH  22  23
ENDBRANCH   3  22
TORSDOF 6
