REMARK  3 active torsions:
REMARK  status: ('A' for Active; 'I' for Inactive)
REMARK    1  A    between atoms: C3_4  and  C4_5 
REMARK    2  A    between atoms: C4_5  and  C5_6 
REMARK    3  A    between atoms: C12_13  and  O2_14 
ROOT
HETATM    1  C5  UNL     1       1.552  -0.236   1.169  1.00  0.00    -0.003 C 
HETATM    2  C6  UNL     1       1.195  -1.572   1.406  1.00  0.00     0.011 C 
HETATM    3  C7  UNL     1       0.155  -2.286   0.827  1.00  0.00     0.002 C 
HETATM    4  C8  UNL     1      -0.907  -1.760   0.078  1.00  0.00     0.013 C 
HETATM    5  C9  UNL     1      -1.432  -0.493   0.208  1.00  0.00    -0.011 A 
HETATM    6  C10 UNL     1      -0.704   0.658   0.524  1.00  0.00     0.028 A 
HETATM    7  C11 UNL     1      -1.368   1.858   0.565  1.00  0.00     0.053 A 
HETATM    8  C12 UNL     1      -2.726   1.884   0.296  1.00  0.00     0.077 A 
HETATM    9  C13 UNL     1      -3.419   0.734  -0.011  1.00  0.00     0.008 A 
HETATM   10  C14 UNL     1      -4.782   0.800  -0.267  1.00  0.00     0.015 A 
HETATM   11  C15 UNL     1      -5.480  -0.350  -0.566  1.00  0.00     0.001 A 
HETATM   12  C16 UNL     1      -4.834  -1.576  -0.612  1.00  0.00     0.001 A 
HETATM   13  C17 UNL     1      -3.471  -1.652  -0.358  1.00  0.00     0.013 A 
HETATM   14  C18 UNL     1      -2.782  -0.501  -0.063  1.00  0.00    -0.012 A 
HETATM   15  C19 UNL     1       0.664   0.760   0.835  1.00  0.00     0.189 C 
HETATM   16  O3  UNL     1       1.102   1.924   0.797  1.00  0.00    -0.287 OA
ENDROOT
BRANCH   1  17
HETATM   17  C4  UNL     1       2.975   0.086   1.284  1.00  0.00     0.081 C 
BRANCH  17  18
HETATM   18  C3  UNL     1       3.724   0.217   0.045  1.00  0.00    -0.046 A 
HETATM   19  C2  UNL     1       4.036   1.426  -0.525  1.00  0.00     0.090 A 
HETATM   20  C1  UNL     1       4.756   1.471  -1.732  1.00  0.00     0.287 A 
HETATM   21  O1  UNL     1       5.022   2.594  -2.222  1.00  0.00    -0.260 OA
HETATM   22  O4  UNL     1       5.134   0.364  -2.319  1.00  0.00    -0.288 OA
HETATM   23  C21 UNL     1       4.861  -0.817  -1.816  1.00  0.00     0.146 A 
HETATM   24  C20 UNL     1       4.152  -0.910  -0.625  1.00  0.00     0.032 A 
ENDBRANCH  17  18
ENDBRANCH   1  17
BRANCH   8  25
HETATM   25  O2  UNL     1      -3.418   3.075   0.329  1.00  0.00    -0.360 OA
ATOM     26  H2  UNL     1      -4.350   3.093   0.144  1.00  0.00     0.217 HD
ENDBRANCH   8  25
TORSDOF 3
