REMARK  5 active torsions:
REMARK  status: ('A' for Active; 'I' for Inactive)
REMARK    1  A    between atoms: O1_2  and  C2_3 
REMARK    2  A    between atoms: C2_3  and  C3_4 
REMARK    3  A    between atoms: C3_4  and  N1_5 
REMARK    4  A    between atoms: N1_5  and  C4_7 
REMARK    5  A    between atoms: C5_12  and  C6_13 
ROOT
HETATM    1  C4  UNL     1       0.896  -0.527  -0.422  1.00  0.00     0.147 A 
HETATM    2  N2  UNL     1       1.475   0.343   0.439  1.00  0.00    -0.283 N 
ATOM      3  H2  UNL     1       0.892   0.942   1.023  1.00  0.00     0.188 HD
HETATM    4  N3  UNL     1       2.800   0.421   0.528  1.00  0.00    -0.292 N 
ATOM      5  H3  UNL     1       3.192   1.090   1.190  1.00  0.00     0.187 HD
HETATM    6  C5  UNL     1       3.656  -0.318  -0.191  1.00  0.00     0.143 A 
HETATM    7  C7  UNL     1       3.100  -1.211  -1.073  1.00  0.00     0.111 A 
HETATM    8  N5  UNL     1       3.671  -2.080  -1.923  1.00  0.00    -0.279 N 
ATOM      9  H5  UNL     1       4.670  -2.230  -2.062  1.00  0.00     0.184 HD
HETATM   10  N6  UNL     1       2.668  -2.713  -2.554  1.00  0.00    -0.021 NA
HETATM   11  N7  UNL     1       1.497  -2.256  -2.116  1.00  0.00    -0.278 N 
ATOM     12  H7  UNL     1       0.577  -2.566  -2.429  1.00  0.00     0.184 HD
HETATM   13  C8  UNL     1       1.738  -1.324  -1.197  1.00  0.00     0.121 A 
ENDROOT
BRANCH   1  14
HETATM   14  N1  UNL     1      -0.358  -0.648  -0.552  1.00  0.00    -0.362 N 
ATOM     15  H1  UNL     1      -0.628  -1.348  -1.242  1.00  0.00     0.162 HD
BRANCH  14  16
HETATM   16  C3  UNL     1      -1.462  -0.010   0.065  1.00  0.00     0.056 C 
HETATM   17  C9  UNL     1      -1.336   1.487  -0.082  1.00  0.00     0.060 C 
HETATM   18  C10 UNL     1      -2.544   2.105  -0.735  1.00  0.00     0.235 C 
HETATM   19  N8  UNL     1      -2.881   1.533  -2.003  1.00  0.00    -0.075 N 
HETATM   20  C11 UNL     1      -2.692   0.118  -2.089  1.00  0.00     0.235 C 
ATOM     21  H82 UNL     1      -3.837   1.779  -2.259  1.00  0.00     0.277 HD
ATOM     22  H81 UNL     1      -2.372   2.004  -2.751  1.00  0.00     0.277 HD
HETATM   23  C12 UNL     1      -2.744  -0.436  -0.670  1.00  0.00     0.060 C 
BRANCH  16  24
HETATM   24  C2  UNL     1      -1.622  -0.482   1.475  1.00  0.00     0.198 C 
BRANCH  24  25
HETATM   25  O1  UNL     1      -2.704   0.134   2.120  1.00  0.00    -0.393 OA
HETATM   26  C1  UNL     1      -2.817  -0.333   3.427  1.00  0.00     0.201 C 
ENDBRANCH  24  25
ENDBRANCH  16  24
ENDBRANCH  14  16
ENDBRANCH   1  14
BRANCH   6  27
HETATM   27  C6  UNL     1       5.069  -0.115   0.022  1.00  0.00     0.285 C 
HETATM   28  N4  UNL     1       5.566   0.829   0.955  1.00  0.00    -0.056 NA
HETATM   29  O2  UNL     1       5.901  -0.781  -0.626  1.00  0.00    -0.269 OA
ENDBRANCH   6  27
TORSDOF 5
