REMARK  4 active torsions:
REMARK  status: ('A' for Active; 'I' for Inactive)
REMARK    1  A    between atoms: C5_9  and  N2_10 
REMARK    2  A    between atoms: N2_10  and  C6_12 
REMARK    3  A    between atoms: C6_12  and  N3_14 
REMARK    4  A    between atoms: N3_14  and  C7_16 
ROOT
HETATM    1  C1  UNL     1       5.103   1.813  -0.401  1.00  0.00     0.163 C 
HETATM    2  N1  UNL     1       4.280   0.629  -0.181  1.00  0.00    -0.284 N 
HETATM    3  C2  UNL     1       4.700  -0.535   0.466  1.00  0.00     0.268 A 
HETATM    4  O1  UNL     1       5.854  -0.748   0.962  1.00  0.00    -0.266 OA
HETATM    5  C3  UNL     1       3.558  -1.453   0.460  1.00  0.00     0.092 A 
HETATM    6  S1  UNL     1       3.012  -2.997   0.931  1.00  0.00    -0.074 SA
HETATM    7  C4  UNL     1       1.414  -2.922   0.339  1.00  0.00     0.080 A 
HETATM    8 BR1  UNL     1       0.026  -4.261   0.427  1.00  0.00    -0.041 Br
HETATM    9  C5  UNL     1       1.355  -1.671  -0.219  1.00  0.00     0.076 A 
HETATM   10  C11 UNL     1       2.464  -0.915  -0.154  1.00  0.00     0.083 A 
HETATM   11  C12 UNL     1       2.927   0.432  -0.571  1.00  0.00     0.264 A 
HETATM   12  O2  UNL     1       2.292   1.332  -1.179  1.00  0.00    -0.267 OA
ENDROOT
BRANCH   9  13
HETATM   13  N2  UNL     1       0.101  -1.258  -0.836  1.00  0.00    -0.331 N 
ATOM     14  H2  UNL     1      -0.057  -1.449  -1.825  1.00  0.00     0.168 HD
BRANCH  13  15
HETATM   15  C6  UNL     1      -0.903  -0.596  -0.088  1.00  0.00     0.172 C 
HETATM   16  S2  UNL     1      -0.610  -0.308   1.491  1.00  0.00    -0.041 SA
BRANCH  15  17
HETATM   17  N3  UNL     1      -2.121  -0.199  -0.705  1.00  0.00    -0.359 N 
ATOM     18  H3  UNL     1      -2.247  -0.405  -1.696  1.00  0.00     0.162 HD
BRANCH  17  19
HETATM   19  C7  UNL     1      -3.181   0.473  -0.017  1.00  0.00     0.021 C 
HETATM   20  C8  UNL     1      -3.634  -0.454   1.108  1.00  0.00     0.037 C 
HETATM   21  C9  UNL     1      -4.325   0.710  -0.974  1.00  0.00     0.037 C 
HETATM   22  C10 UNL     1      -2.738   1.762   0.633  1.00  0.00     0.037 C 
ENDBRANCH  17  19
ENDBRANCH  15  17
ENDBRANCH  13  15
ENDBRANCH   9  13
TORSDOF 4
