REMARK  10 active torsions:
REMARK  status: ('A' for Active; 'I' for Inactive)
REMARK       I    between atoms: C1_2  and  N1_3 
REMARK    1  A    between atoms: C1_2  and  C13_23 
REMARK    2  A    between atoms: N1_3  and  C2_5 
REMARK    3  A    between atoms: C2_5  and  C3_6 
REMARK    4  A    between atoms: C2_5  and  C9_12 
REMARK    5  A    between atoms: C9_12  and  O2_13 
REMARK    6  A    between atoms: C9_12  and  C10_15 
REMARK    7  A    between atoms: C10_15  and  O3_16 
REMARK    8  A    between atoms: C10_15  and  C11_18 
REMARK    9  A    between atoms: C11_18  and  C12_20 
REMARK   10  A    between atoms: C12_20  and  O5_21 
ROOT
HETATM    1  C2  UNL     1      -0.227  -0.126  -0.509  1.00  0.00     0.149 C 
ENDROOT
BRANCH   1   2
HETATM    2  N1  UNL     1       1.051  -0.066   0.196  1.00  0.00    -0.346 N 
HETATM    3  C1  UNL     1       2.136  -0.907  -0.170  1.00  0.00     0.252 C 
HETATM    4  O1  UNL     1       1.940  -1.713  -1.139  1.00  0.00    -0.268 OA
ATOM      5  H1  UNL     1       1.167   0.593   0.966  1.00  0.00     0.163 HD
BRANCH   3   6
HETATM    6  C13 UNL     1       3.416  -0.888   0.492  1.00  0.00     0.032 A 
HETATM    7  C14 UNL     1       4.414  -1.748   0.061  1.00  0.00     0.017 A 
HETATM    8  C15 UNL     1       5.656  -1.778   0.651  1.00  0.00     0.001 A 
HETATM    9  C16 UNL     1       5.919  -0.923   1.707  1.00  0.00     0.000 A 
HETATM   10  C17 UNL     1       4.935  -0.062   2.146  1.00  0.00     0.001 A 
HETATM   11  C18 UNL     1       3.678  -0.037   1.544  1.00  0.00     0.017 A 
ENDBRANCH   3   6
ENDBRANCH   1   2
BRANCH   1  12
HETATM   12  C3  UNL     1      -0.542   1.180  -1.137  1.00  0.00    -0.033 A 
HETATM   13  C4  UNL     1      -0.936   1.297  -2.468  1.00  0.00     0.009 A 
HETATM   14  C5  UNL     1      -1.229   2.488  -3.062  1.00  0.00     0.001 A 
HETATM   15  C6  UNL     1      -1.135   3.634  -2.320  1.00  0.00     0.000 A 
HETATM   16  C7  UNL     1      -0.753   3.589  -1.004  1.00  0.00     0.001 A 
HETATM   17  C8  UNL     1      -0.463   2.368  -0.432  1.00  0.00     0.009 A 
ENDBRANCH   1  12
BRANCH   1  18
HETATM   18  C9  UNL     1      -1.315  -0.605   0.442  1.00  0.00     0.181 C 
BRANCH  18  19
HETATM   19  O2  UNL     1      -0.904  -1.895   0.878  1.00  0.00    -0.390 OA
ATOM     20  H2  UNL     1      -1.583  -2.194   1.471  1.00  0.00     0.210 HD
ENDBRANCH  18  19
BRANCH  18  21
HETATM   21  C10 UNL     1      -2.634  -0.846  -0.256  1.00  0.00     0.220 C 
BRANCH  21  22
HETATM   22  O3  UNL     1      -3.234   0.289  -0.741  1.00  0.00    -0.385 OA
ATOM     23  H3  UNL     1      -4.063   0.138  -1.180  1.00  0.00     0.210 HD
ENDBRANCH  21  22
BRANCH  21  24
HETATM   24  C11 UNL     1      -3.582  -1.564   0.624  1.00  0.00     0.181 C 
HETATM   25  O4  UNL     1      -3.247  -2.594   1.154  1.00  0.00    -0.293 OA
BRANCH  24  26
HETATM   26  C12 UNL     1      -4.932  -1.019   0.848  1.00  0.00     0.245 C 
BRANCH  26  27
HETATM   27  O5  UNL     1      -5.698  -1.797   1.687  1.00  0.00    -0.393 OA
ATOM     28  H5  UNL     1      -6.569  -1.446   1.831  1.00  0.00     0.209 HD
ENDBRANCH  26  27
ENDBRANCH  24  26
ENDBRANCH  21  24
ENDBRANCH  18  21
ENDBRANCH   1  18
TORSDOF 10
