REMARK  4 active torsions:
REMARK  status: ('A' for Active; 'I' for Inactive)
REMARK    1  A    between atoms: C2_2  and  O1_3 
REMARK    2  A    between atoms: O1_3  and  C3_4 
REMARK    3  A    between atoms: C3_4  and  O3_6 
REMARK    4  A    between atoms: O3_6  and  N1_7 
REMARK       I    between atoms: C4_9  and  N3_11 
ROOT
HETATM    1  N1  UNL     1       1.643   1.049   0.412  1.00  0.00    -0.225 N 
ATOM      2  H1  UNL     1       1.649   1.490  -0.508  1.00  0.00     0.198 HD
HETATM    3  C4  UNL     1       0.514   0.729   0.950  1.00  0.00     0.240 C 
HETATM    4  N2  UNL     1       0.525   0.117   2.232  1.00  0.00    -0.059 NA
HETATM    5  N3  UNL     1      -0.719   0.998   0.243  1.00  0.00    -0.190 N 
HETATM    6  O4  UNL     1      -0.969   2.169  -0.309  1.00  0.00    -0.265 OA
HETATM    7  C5  UNL     1      -2.248   2.547  -0.541  1.00  0.00     0.153 C 
HETATM    8  C6  UNL     1      -2.417   3.957   0.049  1.00  0.00     0.042 C 
HETATM    9  C7  UNL     1      -3.339   1.713   0.043  1.00  0.00     0.075 C 
HETATM   10  C8  UNL     1      -3.005   0.280   0.054  1.00  0.00    -0.024 A 
HETATM   11  C9  UNL     1      -3.954  -0.692  -0.030  1.00  0.00     0.049 A 
HETATM   12  C10 UNL     1      -3.587  -2.034  -0.016  1.00  0.00     0.105 A 
HETATM   13  C11 UNL     1      -2.250  -2.345   0.085  1.00  0.00     0.107 A 
HETATM   14  C12 UNL     1      -1.249  -1.371   0.173  1.00  0.00     0.072 A 
HETATM   15  C13 UNL     1      -1.677  -0.056   0.154  1.00  0.00     0.075 A 
HETATM   16  O5  UNL     1      -2.142  -3.721   0.079  1.00  0.00    -0.323 OA
HETATM   17  C14 UNL     1      -3.356  -4.257  -0.409  1.00  0.00     0.352 C 
HETATM   18  O6  UNL     1      -4.294  -3.226  -0.084  1.00  0.00    -0.323 OA
ENDROOT
BRANCH   1  19
HETATM   19  O3  UNL     1       2.835   0.810   1.049  1.00  0.00    -0.172 OA
BRANCH  19  20
HETATM   20  C3  UNL     1       3.875   0.119   0.425  1.00  0.00     0.428 C 
HETATM   21  O2  UNL     1       3.649  -0.269  -0.753  1.00  0.00    -0.227 OA
BRANCH  20  22
HETATM   22  O1  UNL     1       5.084  -0.144   1.020  1.00  0.00    -0.297 OA
BRANCH  22  23
HETATM   23  C2  UNL     1       6.109  -0.841   0.368  1.00  0.00     0.177 C 
HETATM   24  C1  UNL     1       6.582  -0.169  -0.893  1.00  0.00     0.034 C 
ENDBRANCH  22  23
ENDBRANCH  20  22
ENDBRANCH  19  20
ENDBRANCH   1  19
TORSDOF 4
