REMARK  1 active torsions:
REMARK  status: ('A' for Active; 'I' for Inactive)
REMARK    1  A    between atoms: O1_1  and  C1_3 
ROOT
HETATM    1  C1  UNL     1      -1.537  -0.975   0.518  1.00  0.00     0.122 C 
HETATM    2  C2  UNL     1      -2.436   0.147   0.015  1.00  0.00     0.032 C 
HETATM    3  C3  UNL     1      -1.502   1.327  -0.249  1.00  0.00     0.007 C 
HETATM    4  C4  UNL     1      -0.221   0.628  -0.466  1.00  0.00    -0.008 C 
HETATM    5  C5  UNL     1       1.014   1.420  -0.491  1.00  0.00     0.005 C 
HETATM    6  C6  UNL     1       2.143   0.413  -0.722  1.00  0.00     0.000 C 
HETATM    7  C7  UNL     1       2.249  -0.555   0.405  1.00  0.00     0.000 C 
HETATM    8  C8  UNL     1       0.952  -1.181   0.816  1.00  0.00     0.007 C 
HETATM    9  C9  UNL     1      -0.218  -0.276   0.775  1.00  0.00     0.018 C 
ENDROOT
BRANCH   1  10
HETATM   10  O1  UNL     1      -1.297  -1.877  -0.542  1.00  0.00    -0.395 OA
ATOM     11  H1  UNL     1      -0.736  -2.577  -0.228  1.00  0.00     0.210 HD
ENDBRANCH   1  10
TORSDOF 1
