REMARK  2 active torsions:
REMARK  status: ('A' for Active; 'I' for Inactive)
REMARK    1  A    between atoms: O1_1  and  C1_3 
REMARK    2  A    between atoms: C5_7  and  C6_8 
ROOT
HETATM    1  C1  UNL     1      -1.748   0.868   0.053  1.00  0.00     0.122 C 
HETATM    2  C2  UNL     1      -2.992  -0.022  -0.177  1.00  0.00     0.032 C 
HETATM    3  C3  UNL     1      -2.464  -1.364  -0.608  1.00  0.00     0.003 C 
HETATM    4  C4  UNL     1      -0.982  -1.297  -0.225  1.00  0.00     0.007 C 
HETATM    5  C5  UNL     1      -0.662   0.123  -0.687  1.00  0.00     0.018 C 
ENDROOT
BRANCH   5   6
HETATM    6  C6  UNL     1       0.719   0.565  -0.362  1.00  0.00    -0.008 C 
HETATM    7  C7  UNL     1       1.146   0.440   1.056  1.00  0.00     0.005 C 
HETATM    8  C8  UNL     1       2.676   0.312   1.003  1.00  0.00     0.000 C 
HETATM    9  C9  UNL     1       3.038   0.271  -0.455  1.00  0.00     0.000 C 
HETATM   10  C10 UNL     1       1.762  -0.299  -1.086  1.00  0.00     0.005 C 
ENDBRANCH   5   6
BRANCH   1  11
HETATM   11  O1  UNL     1      -1.442   0.793   1.425  1.00  0.00    -0.395 OA
ATOM     12  H1  UNL     1      -0.678   1.340   1.566  1.00  0.00     0.210 HD
ENDBRANCH   1  11
TORSDOF 2
