REMARK  9 active torsions:
REMARK  status: ('A' for Active; 'I' for Inactive)
REMARK    1  A    between atoms: O1_2  and  C2_3 
REMARK    2  A    between atoms: C4_7  and  O3_8 
REMARK    3  A    between atoms: O3_8  and  C5_9 
REMARK    4  A    between atoms: C11_15  and  O4_16 
REMARK    5  A    between atoms: C13_19  and  O5_20 
REMARK    6  A    between atoms: C14_22  and  O6_23 
REMARK    7  A    between atoms: C24_35  and  O8_36 
REMARK    8  A    between atoms: C25_39  and  O10_40 
REMARK    9  A    between atoms: C27_43  and  O11_44 
ROOT
HETATM    1  C2  UNL     1       5.862   0.094  -1.714  1.00  0.00     0.286 C 
HETATM    2  C3  UNL     1       5.814  -0.084  -3.185  1.00  0.00     0.131 C 
HETATM    3  N1  UNL     1       5.763  -0.237  -4.331  1.00  0.00    -0.191 NA
HETATM    4  O2  UNL     1       4.660   0.656  -1.346  1.00  0.00    -0.308 OA
HETATM    5  C4  UNL     1       4.590   0.970  -0.001  1.00  0.00     0.296 C 
HETATM    6  C25 UNL     1       5.665   1.996   0.316  1.00  0.00     0.176 C 
HETATM    7  C26 UNL     1       6.471   2.326  -0.940  1.00  0.00     0.075 C 
HETATM    8  C27 UNL     1       7.047   1.010  -1.437  1.00  0.00     0.199 C 
ENDROOT
BRANCH   1   9
HETATM    9  O1  UNL     1       6.127  -1.109  -1.098  1.00  0.00    -0.346 OA
HETATM   10  C1  UNL     1       5.182  -2.082  -1.364  1.00  0.00     0.206 C 
ENDBRANCH   1   9
BRANCH   8  11
HETATM   11  O11 UNL     1       7.853   0.519  -0.412  1.00  0.00    -0.389 OA
ATOM     12  H11 UNL     1       8.592   1.090  -0.239  1.00  0.00     0.210 HD
ENDBRANCH   8  11
BRANCH   5  13
HETATM   13  O3  UNL     1       3.372   1.558   0.265  1.00  0.00    -0.329 OA
BRANCH  13  14
HETATM   14  C5  UNL     1       2.633   0.903   1.239  1.00  0.00     0.264 C 
HETATM   15  C6  UNL     1       2.309   1.797   2.415  1.00  0.00     0.064 C 
HETATM   16  C7  UNL     1       0.988   1.199   2.877  1.00  0.00     0.043 C 
HETATM   17  C8  UNL     1       0.559   0.260   1.741  1.00  0.00     0.073 C 
HETATM   18  C9  UNL     1       0.795  -1.198   2.191  1.00  0.00     0.042 C 
HETATM   19  C12 UNL     1      -0.861   0.227   1.499  1.00  0.00     0.087 C 
HETATM   20  O9  UNL     1       1.390   0.630   0.724  1.00  0.00    -0.350 OA
HETATM   21  C10 UNL     1      -0.469  -1.964   1.735  1.00  0.00     0.042 C 
HETATM   22  C11 UNL     1      -0.950  -1.087   0.676  1.00  0.00     0.074 C 
HETATM   23  C15 UNL     1      -2.257  -1.061   0.123  1.00  0.00     0.067 C 
HETATM   24  C14 UNL     1      -2.875   0.282   0.543  1.00  0.00     0.147 C 
HETATM   25  C16 UNL     1      -3.231  -2.159   0.316  1.00  0.00    -0.008 C 
HETATM   26  C13 UNL     1      -1.591   1.131   0.632  1.00  0.00     0.168 C 
HETATM   27  C24 UNL     1      -3.825   0.753  -0.494  1.00  0.00     0.200 C 
HETATM   28  C20 UNL     1      -5.113  -0.019  -0.259  1.00  0.00     0.057 C 
HETATM   29  O7  UNL     1      -4.209   2.060  -0.267  1.00  0.00    -0.352 OA
HETATM   30  C19 UNL     1      -5.203  -1.276  -1.020  1.00  0.00     0.011 C 
HETATM   31  C21 UNL     1      -6.177   0.950  -0.674  1.00  0.00     0.015 C 
HETATM   32  C18 UNL     1      -4.160  -2.282  -0.883  1.00  0.00     0.005 C 
HETATM   33  C22 UNL     1      -6.894   0.548  -1.935  1.00  0.00     0.012 C 
HETATM   34  C23 UNL     1      -5.435   2.243  -0.900  1.00  0.00     0.176 C 
HETATM   35  C17 UNL     1      -2.566  -3.530   0.429  1.00  0.00     0.010 C 
BRANCH  22  36
HETATM   36  O4  UNL     1       0.064  -1.045  -0.316  1.00  0.00    -0.389 OA
ATOM     37  H4  UNL     1      -0.250  -0.473  -1.007  1.00  0.00     0.210 HD
ENDBRANCH  22  36
BRANCH  24  38
HETATM   38  O6  UNL     1      -3.485   0.260   1.754  1.00  0.00    -0.381 OA
ATOM     39  H6  UNL     1      -4.276  -0.263   1.699  1.00  0.00     0.211 HD
ENDBRANCH  24  38
BRANCH  26  40
HETATM   40  O5  UNL     1      -1.019   1.286  -0.620  1.00  0.00    -0.392 OA
ATOM     41  H5  UNL     1      -1.497   1.878  -1.188  1.00  0.00     0.210 HD
ENDBRANCH  26  40
BRANCH  27  42
HETATM   42  O8  UNL     1      -3.363   0.571  -1.792  1.00  0.00    -0.363 OA
ATOM     43  H8  UNL     1      -3.972   0.873  -2.456  1.00  0.00     0.213 HD
ENDBRANCH  27  42
ENDBRANCH  13  14
ENDBRANCH   5  13
BRANCH   6  44
HETATM   44  O10 UNL     1       5.119   3.202   0.753  1.00  0.00    -0.391 OA
ATOM     45  H10 UNL     1       5.791   3.843   0.951  1.00  0.00     0.210 HD
ENDBRANCH   6  44
TORSDOF 9
