REMARK  16 active torsions:
REMARK  status: ('A' for Active; 'I' for Inactive)
REMARK    1  A    between atoms: C3_3  and  C4_4 
REMARK    2  A    between atoms: C3_3  and  C27_40 
REMARK    3  A    between atoms: C4_4  and  C5_5 
REMARK    4  A    between atoms: C5_5  and  O1_6 
REMARK    5  A    between atoms: C5_5  and  C6_8 
REMARK    6  A    between atoms: C6_8  and  C7_9 
REMARK    7  A    between atoms: C7_9  and  O2_10 
REMARK    8  A    between atoms: C7_9  and  C8_12 
REMARK    9  A    between atoms: C8_12  and  C9_13 
REMARK   10  A    between atoms: C10_14  and  C11_15 
REMARK   11  A    between atoms: C17_22  and  C18_23 
REMARK   12  A    between atoms: C21_27  and  O4_28 
REMARK   13  A    between atoms: O4_28  and  C22_29 
REMARK   14  A    between atoms: C22_29  and  O6_31 
REMARK   15  A    between atoms: C25_34  and  O7_35 
REMARK   16  A    between atoms: C26_37  and  O8_38 
ROOT
HETATM    1  C1  UNL     1       6.592  -2.365   0.781  1.00  0.00     0.012 C 
HETATM    2  C2  UNL     1       6.846  -1.243   0.406  1.00  0.00    -0.112 C 
HETATM    3  C3  UNL     1       7.183   0.078  -0.023  1.00  0.00     0.071 C 
ENDROOT
BRANCH   3   4
HETATM    4  C4  UNL     1       6.237   1.179   0.316  1.00  0.00     0.049 C 
BRANCH   4   5
HETATM    5  C5  UNL     1       4.864   1.192  -0.225  1.00  0.00     0.121 C 
BRANCH   5   6
HETATM    6  O1  UNL     1       4.203   2.328   0.285  1.00  0.00    -0.395 OA
ATOM      7  H1  UNL     1       3.319   2.336  -0.063  1.00  0.00     0.210 HD
ENDBRANCH   5   6
BRANCH   5   8
HETATM    8  C6  UNL     1       4.125  -0.072  -0.163  1.00  0.00     0.063 C 
BRANCH   8   9
HETATM    9  C7  UNL     1       2.696  -0.028  -0.689  1.00  0.00     0.124 C 
BRANCH   9  10
HETATM   10  O2  UNL     1       2.606   0.374  -1.997  1.00  0.00    -0.395 OA
ATOM     11  H2  UNL     1       1.715   0.401  -2.325  1.00  0.00     0.210 HD
ENDBRANCH   9  10
BRANCH   9  12
HETATM   12  C8  UNL     1       1.767   0.635   0.252  1.00  0.00     0.058 C 
BRANCH  12  13
HETATM   13  C9  UNL     1       0.385   0.600  -0.369  1.00  0.00    -0.027 C 
HETATM   14  C10 UNL     1      -0.604  -0.007   0.248  1.00  0.00    -0.016 C 
BRANCH  14  15
HETATM   15  C11 UNL     1      -1.986  -0.075  -0.313  1.00  0.00     0.109 C 
HETATM   16  C12 UNL     1      -2.048   0.548  -1.649  1.00  0.00     0.144 C 
HETATM   17  O3  UNL     1      -1.636  -0.132  -2.583  1.00  0.00    -0.296 OA
HETATM   18  C13 UNL     1      -2.560   1.898  -1.921  1.00  0.00     0.074 C 
HETATM   19  C14 UNL     1      -3.572   1.903  -3.046  1.00  0.00     0.022 C 
HETATM   20  C15 UNL     1      -2.899   2.716  -0.767  1.00  0.00    -0.014 C 
HETATM   21  C16 UNL     1      -4.069   3.010  -0.240  1.00  0.00     0.005 C 
HETATM   22  C17 UNL     1      -5.404   2.605  -0.638  1.00  0.00    -0.048 C 
HETATM   23  C19 UNL     1      -5.944   1.397  -0.451  1.00  0.00    -0.011 C 
HETATM   24  C20 UNL     1      -5.316   0.250   0.190  1.00  0.00     0.048 A 
HETATM   25  C21 UNL     1      -6.175  -1.057   0.092  1.00  0.00     0.149 A 
HETATM   26  C24 UNL     1      -4.836  -0.859  -0.617  1.00  0.00     0.057 A 
HETATM   27  C25 UNL     1      -3.769  -1.710   0.037  1.00  0.00     0.155 C 
HETATM   28  C26 UNL     1      -2.402  -1.533  -0.519  1.00  0.00     0.162 C 
BRANCH  22  29
HETATM   29  C18 UNL     1      -6.321   3.649  -1.218  1.00  0.00     0.152 C 
HETATM   30 CL1  UNL     1      -6.452   5.046  -0.132  1.00  0.00    -0.126 Cl
ENDBRANCH  22  29
BRANCH  25  31
HETATM   31  O4  UNL     1      -6.256  -1.819   1.255  1.00  0.00    -0.291 OA
BRANCH  31  32
HETATM   32  C22 UNL     1      -7.379  -2.544   1.548  1.00  0.00     0.406 C 
HETATM   33  O5  UNL     1      -8.379  -2.552   0.782  1.00  0.00    -0.230 OA
BRANCH  32  34
HETATM   34  O6  UNL     1      -7.469  -3.317   2.720  1.00  0.00    -0.303 OA
HETATM   35  C23 UNL     1      -8.609  -4.071   3.046  1.00  0.00     0.215 C 
ENDBRANCH  32  34
ENDBRANCH  31  32
ENDBRANCH  25  31
BRANCH  27  36
HETATM   36  O7  UNL     1      -3.751  -1.575   1.420  1.00  0.00    -0.392 OA
ATOM     37  H7  UNL     1      -3.081  -2.109   1.831  1.00  0.00     0.210 HD
ENDBRANCH  27  36
BRANCH  28  38
HETATM   38  O8  UNL     1      -1.506  -2.314   0.198  1.00  0.00    -0.392 OA
ATOM     39  H8  UNL     1      -1.764  -3.219   0.070  1.00  0.00     0.210 HD
ENDBRANCH  28  38
ENDBRANCH  14  15
ENDBRANCH  12  13
ENDBRANCH   9  12
ENDBRANCH   8   9
ENDBRANCH   5   8
ENDBRANCH   4   5
ENDBRANCH   3   4
BRANCH   3  40
HETATM   40  C27 UNL     1       8.544   0.501   0.397  1.00  0.00     0.005 A 
HETATM   41  C28 UNL     1       9.648  -0.422  -0.155  1.00  0.00     0.011 A 
HETATM   42  C29 UNL     1       9.482  -0.018   1.328  1.00  0.00    -0.013 A 
HETATM   43  C30 UNL     1       9.392  -1.174   2.245  1.00  0.00     0.010 C 
ENDBRANCH   3  40
TORSDOF 16
