REMARK  6 active torsions:
REMARK  status: ('A' for Active; 'I' for Inactive)
REMARK    1  A    between atoms: C2_2  and  C4_4 
REMARK    2  A    between atoms: C9_12  and  C10_13 
REMARK    3  A    between atoms: C10_13  and  N2_14 
REMARK    4  A    between atoms: C14_19  and  C15_20 
REMARK    5  A    between atoms: C15_20  and  O4_22 
REMARK    6  A    between atoms: O4_22  and  C16_23 
ROOT
HETATM    1  C4  UNL     1      -3.437  -0.853   0.453  1.00  0.00    -0.005 C 
HETATM    2  N1  UNL     1      -3.504  -1.330  -0.772  1.00  0.00    -0.343 N 
ATOM      3  H1  UNL     1      -4.389  -1.349  -1.279  1.00  0.00     0.167 HD
HETATM    4  C5  UNL     1      -2.280  -1.830  -1.385  1.00  0.00     0.157 A 
HETATM    5  O1  UNL     1      -1.797  -2.394  -2.441  1.00  0.00    -0.304 OA
HETATM    6  C6  UNL     1      -0.467  -2.642  -2.329  1.00  0.00     0.155 A 
HETATM    7  C7  UNL     1      -0.055  -2.191  -1.075  1.00  0.00     0.016 A 
HETATM    8  C8  UNL     1      -1.211  -1.707  -0.592  1.00  0.00     0.041 A 
HETATM    9  C9  UNL     1      -0.976  -0.955   0.622  1.00  0.00     0.125 C 
HETATM   10  C13 UNL     1      -2.251  -0.859   1.369  1.00  0.00     0.098 C 
HETATM   11  O2  UNL     1       0.148  -1.548   1.160  1.00  0.00    -0.353 OA
HETATM   12  C14 UNL     1       0.902  -2.038   0.060  1.00  0.00     0.258 C 
ENDROOT
BRANCH  12  13
HETATM   13  C15 UNL     1       2.086  -1.355  -0.283  1.00  0.00     0.293 C 
HETATM   14  O3  UNL     1       2.681  -1.723  -1.362  1.00  0.00    -0.262 OA
BRANCH  13  15
HETATM   15  O4  UNL     1       2.737  -0.324   0.374  1.00  0.00    -0.314 OA
BRANCH  15  16
HETATM   16  C16 UNL     1       3.917   0.277  -0.061  1.00  0.00     0.136 C 
HETATM   17  C17 UNL     1       3.771   1.748  -0.352  1.00  0.00     0.059 C 
HETATM   18  C18 UNL     1       5.111   2.244  -0.874  1.00  0.00     0.170 C 
HETATM   19  O5  UNL     1       6.046   2.045   0.138  1.00  0.00    -0.391 OA
HETATM   20  C19 UNL     1       6.303   0.694   0.338  1.00  0.00     0.170 C 
HETATM   21  C20 UNL     1       5.073   0.030   0.909  1.00  0.00     0.059 C 
ENDBRANCH  15  16
ENDBRANCH  13  15
ENDBRANCH  12  13
BRANCH   9  22
HETATM   22  C10 UNL     1      -0.511   0.469   0.296  1.00  0.00     0.315 C 
BRANCH  22  23
HETATM   23  N2  UNL     1      -1.497   1.370  -0.248  1.00  0.00     0.083 N 
HETATM   24  C11 UNL     1      -0.962   2.750   0.137  1.00  0.00     0.309 C 
HETATM   25  C12 UNL     1      -1.414   1.422  -1.732  1.00  0.00     0.309 C 
ENDBRANCH  22  23
ENDBRANCH   9  22
BRANCH   1  26
HETATM   26  C2  UNL     1      -4.694  -0.336   1.061  1.00  0.00     0.023 C 
HETATM   27  C1  UNL     1      -4.989  -1.256   2.252  1.00  0.00     0.016 C 
HETATM   28  C3  UNL     1      -5.850  -0.441   0.117  1.00  0.00     0.016 C 
ENDBRANCH   1  26
TORSDOF 6
