REMARK  4 active torsions:
REMARK  status: ('A' for Active; 'I' for Inactive)
REMARK    1  A    between atoms: C2_2  and  C3_3 
REMARK    2  A    between atoms: C5_10  and  N4_11 
REMARK       I    between atoms: N4_11  and  C6_12 
REMARK       I    between atoms: C6_12  and  N5_13 
REMARK       I    between atoms: C6_12  and  N8_20 
REMARK    3  A    between atoms: N5_13  and  N6_15 
REMARK    4  A    between atoms: N8_20  and  C7_22 
ROOT
HETATM    1  N4  UNL     1      -1.160   0.320  -0.161  1.00  0.00    -0.365 NA
HETATM    2  C6  UNL     1      -0.110  -0.130   0.117  1.00  0.00     0.272 C 
HETATM    3  N5  UNL     1       0.105  -1.574   0.054  1.00  0.00    -0.245 N 
ATOM      4  H5  UNL     1       0.430  -2.096   0.868  1.00  0.00     0.192 HD
HETATM    5  N8  UNL     1       1.029   0.679   0.534  1.00  0.00    -0.345 N 
ATOM      6  H8  UNL     1       0.852   1.511   1.097  1.00  0.00     0.164 HD
ENDROOT
BRANCH   1   7
HETATM    7  C5  UNL     1      -2.406   0.653  -0.508  1.00  0.00     0.177 A 
HETATM    8  C3  UNL     1      -3.619   0.158   0.001  1.00  0.00     0.069 A 
HETATM    9  N1  UNL     1      -4.584   0.800  -0.653  1.00  0.00    -0.300 N 
HETATM   10  N2  UNL     1      -4.081   1.649  -1.523  1.00  0.00    -0.285 N 
ATOM     11  H1  UNL     1      -5.582   0.653  -0.500  1.00  0.00     0.186 HD
HETATM   12  C4  UNL     1      -2.759   1.618  -1.493  1.00  0.00     0.174 A 
ATOM     13  H2  UNL     1      -4.634   2.248  -2.136  1.00  0.00     0.188 HD
HETATM   14  N3  UNL     1      -1.803   2.357  -2.251  1.00  0.00    -0.078 NA
BRANCH   8  15
HETATM   15  C2  UNL     1      -3.774  -0.894   1.064  1.00  0.00     0.058 C 
HETATM   16  C1  UNL     1      -3.557  -2.279   0.554  1.00  0.00     0.011 C 
ENDBRANCH   8  15
ENDBRANCH   1   7
BRANCH   3  17
HETATM   17  N6  UNL     1      -0.124  -2.148  -1.037  1.00  0.00    -0.246 N 
HETATM   18  N7  UNL     1       0.239  -2.626  -2.117  1.00  0.00    -0.331 N 
ATOM     19  H72 UNL     1       1.245  -2.458  -2.089  1.00  0.00     0.178 HD
ATOM     20  H71 UNL     1       0.053  -3.093  -3.005  1.00  0.00     0.178 HD
ATOM     21  H6  UNL     1      -1.133  -2.298  -1.029  1.00  0.00     0.208 HD
ENDBRANCH   3  17
BRANCH   5  22
HETATM   22  C7  UNL     1       2.371   0.366   0.196  1.00  0.00     0.088 C 
HETATM   23  C8  UNL     1       2.886  -0.950   0.690  1.00  0.00     0.028 C 
HETATM   24  C9  UNL     1       4.408  -0.757   0.674  1.00  0.00     0.039 C 
HETATM   25  C10 UNL     1       4.658   0.723   0.736  1.00  0.00     0.172 C 
HETATM   26  F1  UNL     1       5.467   1.104   1.775  1.00  0.00    -0.249 F 
HETATM   27  C11 UNL     1       3.291   1.321   0.972  1.00  0.00     0.062 C 
ENDBRANCH   5  22
TORSDOF 4
