REMARK  8 active torsions:
REMARK  status: ('A' for Active; 'I' for Inactive)
REMARK    1  A    between atoms: C8_8  and  C9_9 
REMARK    2  A    between atoms: C8_8  and  C20_28 
REMARK    3  A    between atoms: C9_9  and  O1_10 
REMARK    4  A    between atoms: C9_9  and  N1_12 
REMARK    5  A    between atoms: C10_13  and  O2_14 
REMARK    6  A    between atoms: C12_17  and  N2_18 
REMARK    7  A    between atoms: C19_25  and  O3_26 
REMARK    8  A    between atoms: C23_31  and  N3_32 
ROOT
HETATM    1  C9  UNL     1      -1.112  -0.269  -0.521  1.00  0.00     0.141 C 
ENDROOT
BRANCH   1   2
HETATM    2  C8  UNL     1      -2.440  -0.526  -0.002  1.00  0.00     0.065 C 
HETATM    3  C2  UNL     1      -3.400  -0.152  -1.188  1.00  0.00     0.003 C 
HETATM    4  C1  UNL     1      -3.521  -1.195  -2.224  1.00  0.00     0.011 C 
HETATM    5  C3  UNL     1      -4.756   0.057  -0.558  1.00  0.00     0.006 C 
HETATM    6  C4  UNL     1      -5.252  -1.192   0.059  1.00  0.00     0.001 C 
HETATM    7  C5  UNL     1      -4.270  -2.170   0.553  1.00  0.00     0.006 C 
HETATM    8  C6  UNL     1      -2.814  -1.916   0.278  1.00  0.00     0.003 C 
HETATM    9  C7  UNL     1      -2.046  -2.704   1.280  1.00  0.00     0.011 C 
BRANCH   2  10
HETATM   10  C20 UNL     1      -2.813   0.503   0.996  1.00  0.00     0.002 A 
HETATM   11  C21 UNL     1      -3.412   0.540   2.200  1.00  0.00     0.019 A 
HETATM   12  C22 UNL     1      -3.567   1.723   2.814  1.00  0.00     0.045 A 
HETATM   13  C23 UNL     1      -3.096   2.835   2.161  1.00  0.00     0.144 A 
HETATM   14  S1  UNL     1      -2.462   2.162   0.723  1.00  0.00    -0.070 SA
BRANCH  13  15
HETATM   15  N3  UNL     1      -3.139   4.208   2.602  1.00  0.00    -0.108 N 
HETATM   16  O4  UNL     1      -3.638   4.514   3.677  1.00  0.00    -0.531 OA
HETATM   17  O5  UNL     1      -2.609   5.182   1.798  1.00  0.00    -0.531 OA
ENDBRANCH  13  15
ENDBRANCH   2  10
ENDBRANCH   1   2
BRANCH   1  18
HETATM   18  O1  UNL     1      -1.112  -0.178  -1.840  1.00  0.00    -0.348 OA
ATOM     19  H1  UNL     1      -0.241  -0.009  -2.180  1.00  0.00     0.219 HD
ENDBRANCH   1  18
BRANCH   1  20
HETATM   20  N1  UNL     1       0.156  -0.096   0.021  1.00  0.00    -0.252 N 
HETATM   21  C10 UNL     1       0.574  -0.056   1.278  1.00  0.00     0.152 A 
HETATM   22  C11 UNL     1       1.975   0.114   1.358  1.00  0.00     0.090 A 
HETATM   23  C12 UNL     1       2.398   0.177   0.070  1.00  0.00     0.086 A 
HETATM   24  C19 UNL     1       1.286   0.049  -0.723  1.00  0.00     0.177 A 
BRANCH  21  25
HETATM   25  O2  UNL     1      -0.107  -0.147   2.474  1.00  0.00    -0.346 OA
ATOM     26  H2  UNL     1       0.193  -0.118   3.375  1.00  0.00     0.219 HD
ENDBRANCH  21  25
BRANCH  23  27
HETATM   27  N2  UNL     1       3.741   0.345  -0.356  1.00  0.00    -0.377 N 
HETATM   28  C13 UNL     1       3.993   1.507  -1.144  1.00  0.00     0.123 C 
HETATM   29  C14 UNL     1       5.460   1.853  -1.249  1.00  0.00     0.020 C 
HETATM   30  C15 UNL     1       6.315   0.654  -1.536  1.00  0.00     0.002 C 
HETATM   31  C16 UNL     1       6.928   0.043  -0.316  1.00  0.00     0.002 C 
HETATM   32  C17 UNL     1       5.879  -0.126   0.746  1.00  0.00     0.020 C 
HETATM   33  C18 UNL     1       4.632  -0.705   0.090  1.00  0.00     0.123 C 
ENDBRANCH  23  27
BRANCH  24  34
HETATM   34  O3  UNL     1       1.359   0.070  -2.090  1.00  0.00    -0.344 OA
ATOM     35  H3  UNL     1       2.148   0.171  -2.609  1.00  0.00     0.219 HD
ENDBRANCH  24  34
ENDBRANCH   1  20
TORSDOF 8
