REMARK  7 active torsions:
REMARK  status: ('A' for Active; 'I' for Inactive)
REMARK    1  A    between atoms: C3_5  and  C4_6 
REMARK       I    between atoms: C4_6  and  N2_8 
REMARK    2  A    between atoms: N2_8  and  N3_10 
REMARK    3  A    between atoms: C5_12  and  C6_13 
REMARK    4  A    between atoms: C7_14  and  O2_15 
REMARK    5  A    between atoms: N4_17  and  O3_18 
REMARK    6  A    between atoms: O3_18  and  N5_19 
REMARK    7  A    between atoms: N6_27  and  N7_28 
ROOT
HETATM    1  N1  UNL     1       9.089   1.081  -1.313  1.00  0.00    -0.190 NA
HETATM    2  C1  UNL     1       8.164   1.033  -0.639  1.00  0.00     0.112 C 
HETATM    3  C2  UNL     1       6.979   0.994   0.208  1.00  0.00     0.119 C 
HETATM    4 CL1  UNL     1       6.679   2.271   1.362  1.00  0.00    -0.072 Cl
HETATM    5  C3  UNL     1       6.149  -0.003   0.092  1.00  0.00     0.111 C 
ENDROOT
BRANCH   5   6
HETATM    6  C4  UNL     1       4.938  -0.092   0.921  1.00  0.00     0.262 C 
HETATM    7  O1  UNL     1       4.662   0.787   1.768  1.00  0.00    -0.267 OA
HETATM    8  N2  UNL     1       4.017  -1.200   0.793  1.00  0.00    -0.267 N 
ATOM      9  H2  UNL     1       4.216  -1.933   0.112  1.00  0.00     0.190 HD
BRANCH   8  10
HETATM   10  N3  UNL     1       2.935  -1.291   1.525  1.00  0.00    -0.307 N 
HETATM   11  C5  UNL     1       1.748  -1.262   1.716  1.00  0.00     0.143 C 
ATOM     12  H3  UNL     1       3.307  -1.507   2.450  1.00  0.00     0.186 HD
BRANCH  11  13
HETATM   13  C6  UNL     1       0.691  -0.998   0.764  1.00  0.00     0.131 A 
HETATM   14  C7  UNL     1      -0.685  -0.971   1.022  1.00  0.00     0.205 A 
HETATM   15  N4  UNL     1      -1.345  -0.692  -0.112  1.00  0.00    -0.123 N 
HETATM   16  C12 UNL     1      -0.452  -0.538  -1.088  1.00  0.00     0.376 A 
HETATM   17  O5  UNL     1      -0.705  -0.270  -2.280  1.00  0.00    -0.242 OA
HETATM   18  N6  UNL     1       0.794  -0.723  -0.561  1.00  0.00    -0.204 N 
BRANCH  14  19
HETATM   19  O2  UNL     1      -1.225  -1.208   2.289  1.00  0.00    -0.343 OA
ATOM     20  H2  UNL     1      -2.159  -1.190   2.464  1.00  0.00     0.219 HD
ENDBRANCH  14  19
BRANCH  15  21
HETATM   21  O3  UNL     1      -2.694  -0.593  -0.203  1.00  0.00    -0.169 OA
BRANCH  21  22
HETATM   22  N5  UNL     1      -3.381   0.462  -0.709  1.00  0.00    -0.167 NA
HETATM   23  C8  UNL     1      -3.739   1.349   0.375  1.00  0.00     0.149 C 
HETATM   24  C9  UNL     1      -5.060   2.051   0.125  1.00  0.00     0.184 C 
HETATM   25  O4  UNL     1      -6.109   1.161   0.123  1.00  0.00    -0.389 OA
HETATM   26  C10 UNL     1      -5.670  -0.095  -0.261  1.00  0.00     0.184 C 
HETATM   27  C11 UNL     1      -4.589  -0.018  -1.322  1.00  0.00     0.149 C 
ENDBRANCH  21  22
ENDBRANCH  15  21
BRANCH  18  28
HETATM   28  N7  UNL     1       1.951  -0.626  -1.336  1.00  0.00    -0.334 N 
ATOM     29  H72 UNL     1       2.882  -0.764  -0.942  1.00  0.00     0.177 HD
ATOM     30  H71 UNL     1       2.028  -0.419  -2.332  1.00  0.00     0.177 HD
ENDBRANCH  18  28
ENDBRANCH  11  13
ENDBRANCH   8  10
ENDBRANCH   5   6
TORSDOF 7
