REMARK  3 active torsions:
REMARK  status: ('A' for Active; 'I' for Inactive)
REMARK    1  A    between atoms: C2_2  and  C4_10 
REMARK    2  A    between atoms: N1_3  and  N2_5 
REMARK    3  A    between atoms: N2_5  and  C3_7 
ROOT
HETATM    1  C1  UNL     1       0.310  -1.805  -1.156  1.00  0.00     0.065 C 
HETATM    2  C2  UNL     1       0.026  -0.403  -0.852  1.00  0.00     0.004 C 
HETATM    3  N1  UNL     1       0.992   0.413  -0.697  1.00  0.00    -0.307 N 
ATOM      4  H1  UNL     1       0.746   1.380  -0.486  1.00  0.00     0.186 HD
ENDROOT
BRANCH   2   5
HETATM    5  C4  UNL     1      -1.359   0.127  -0.711  1.00  0.00     0.032 C 
HETATM    6  C5  UNL     1      -1.370   1.583  -0.400  1.00  0.00     0.010 C 
HETATM    7  C6  UNL     1      -1.751   1.731   1.059  1.00  0.00     0.001 C 
HETATM    8  C7  UNL     1      -2.667   0.536   1.286  1.00  0.00     0.001 C 
HETATM    9  C8  UNL     1      -2.110  -0.560   0.405  1.00  0.00     0.010 C 
ENDBRANCH   2   5
BRANCH   3  10
HETATM   10  N2  UNL     1       2.332   0.121  -0.786  1.00  0.00    -0.279 N 
ATOM     11  H2  UNL     1       2.810   0.173  -1.685  1.00  0.00     0.189 HD
BRANCH  10  12
HETATM   12  C3  UNL     1       3.044  -0.252   0.379  1.00  0.00     0.199 C 
HETATM   13  N3  UNL     1       4.431  -0.562   0.333  1.00  0.00    -0.068 NA
HETATM   14  S1  UNL     1       2.247  -0.324   1.797  1.00  0.00    -0.043 SA
ENDBRANCH  10  12
ENDBRANCH   3  10
TORSDOF 3
