REMARK  7 active torsions:
REMARK  status: ('A' for Active; 'I' for Inactive)
REMARK    1  A    between atoms: C2_2  and  N1_3 
REMARK    2  A    between atoms: N1_3  and  N2_5 
REMARK    3  A    between atoms: N3_7  and  C4_9 
REMARK    4  A    between atoms: C7_17  and  N7_18 
REMARK    5  A    between atoms: N7_18  and  C8_20 
REMARK    6  A    between atoms: C11_23  and  O1_24 
REMARK    7  A    between atoms: O1_24  and  C12_25 
ROOT
HETATM    1  C4  UNL     1       2.591  -1.894  -0.670  1.00  0.00     0.135 A 
HETATM    2  C5  UNL     1       3.200  -2.951  -0.029  1.00  0.00     0.149 A 
HETATM    3  N4  UNL     1       4.518  -3.338  -0.383  1.00  0.00    -0.080 NA
HETATM    4  N5  UNL     1       2.560  -3.638   0.939  1.00  0.00    -0.339 N 
ATOM      5  H5  UNL     1       3.035  -4.416   1.397  1.00  0.00     0.167 HD
HETATM    6  C6  UNL     1       1.311  -3.320   1.313  1.00  0.00     0.183 A 
HETATM    7  N6  UNL     1       0.721  -2.291   0.686  1.00  0.00    -0.337 N 
ATOM      8  H6  UNL     1      -0.229  -2.047   0.967  1.00  0.00     0.168 HD
HETATM    9  C7  UNL     1       1.288  -1.562  -0.281  1.00  0.00     0.138 A 
ENDROOT
BRANCH   9  10
HETATM   10  N7  UNL     1       0.717  -0.590  -0.874  1.00  0.00    -0.340 N 
ATOM     11  H7  UNL     1       1.249  -0.111  -1.601  1.00  0.00     0.167 HD
BRANCH  10  12
HETATM   12  C8  UNL     1      -0.595  -0.115  -0.612  1.00  0.00     0.033 A 
HETATM   13  C9  UNL     1      -1.658  -0.984  -0.509  1.00  0.00     0.032 A 
HETATM   14  C10 UNL     1      -2.912  -0.472  -0.255  1.00  0.00     0.039 A 
HETATM   15  C11 UNL     1      -3.187   0.865  -0.095  1.00  0.00     0.069 A 
HETATM   16  C15 UNL     1      -2.111   1.729  -0.201  1.00  0.00     0.039 A 
HETATM   17  C16 UNL     1      -0.839   1.251  -0.454  1.00  0.00     0.032 A 
BRANCH  15  18
HETATM   18  O1  UNL     1      -4.432   1.400   0.159  1.00  0.00    -0.347 OA
BRANCH  18  19
HETATM   19  C12 UNL     1      -5.633   0.713   0.303  1.00  0.00     0.120 C 
HETATM   20  C13 UNL     1      -6.245   0.984   1.664  1.00  0.00     0.040 C 
HETATM   21  C14 UNL     1      -6.561   1.192  -0.807  1.00  0.00     0.040 C 
ENDBRANCH  18  19
ENDBRANCH  15  18
ENDBRANCH  10  12
ENDBRANCH   9  10
BRANCH   1  22
HETATM   22  N3  UNL     1       3.248  -1.175  -1.673  1.00  0.00    -0.280 N 
HETATM   23  N2  UNL     1       3.758  -0.052  -1.571  1.00  0.00    -0.245 N 
ATOM     24  H2  UNL     1       4.193   0.311  -2.419  1.00  0.00     0.208 HD
ATOM     25  H3  UNL     1       3.314  -1.624  -2.586  1.00  0.00     0.189 HD
BRANCH  23  26
HETATM   26  N1  UNL     1       3.820   0.776  -0.473  1.00  0.00    -0.318 N 
HETATM   27  C3  UNL     1       4.394   0.262   0.765  1.00  0.00     0.172 C 
BRANCH  26  28
HETATM   28  C2  UNL     1       3.320   2.131  -0.572  1.00  0.00     0.139 C 
HETATM   29  C1  UNL     1       4.436   3.140  -0.487  1.00  0.00     0.028 C 
ENDBRANCH  26  28
ENDBRANCH  23  26
ENDBRANCH   1  22
TORSDOF 7
