REMARK  13 active torsions:
REMARK  status: ('A' for Active; 'I' for Inactive)
REMARK    1  A    between atoms: S1_2  and  C2_3 
REMARK    2  A    between atoms: C3_5  and  C4_6 
REMARK    3  A    between atoms: C4_6  and  O2_7 
REMARK    4  A    between atoms: O2_7  and  C5_8 
REMARK    5  A    between atoms: C5_8  and  C6_10 
REMARK    6  A    between atoms: C6_10  and  C7_11 
REMARK    7  A    between atoms: C7_11  and  C8_13 
REMARK    8  A    between atoms: C9_14  and  C10_15 
REMARK    9  A    between atoms: C17_22  and  C18_23 
REMARK   10  A    between atoms: C18_23  and  C19_24 
REMARK   11  A    between atoms: C20_26  and  O5_27 
REMARK   12  A    between atoms: C21_29  and  O6_30 
REMARK   13  A    between atoms: C22_32  and  O7_33 
ROOT
HETATM    1  C2  UNL     1      -4.176   1.694   0.910  1.00  0.00     0.214 C 
HETATM    2  O1  UNL     1      -3.140   0.834   0.721  1.00  0.00    -0.365 OA
HETATM    3  C3  UNL     1      -3.486  -0.353   0.059  1.00  0.00     0.154 C 
HETATM    4  C17 UNL     1      -3.180  -0.134  -1.385  1.00  0.00     0.049 C 
HETATM    5  C20 UNL     1      -3.818   1.070  -1.976  1.00  0.00     0.156 C 
HETATM    6  C21 UNL     1      -5.115   1.505  -1.434  1.00  0.00     0.179 C 
HETATM    7  C22 UNL     1      -5.332   1.589   0.003  1.00  0.00     0.188 C 
ENDROOT
BRANCH   3   8
HETATM    8  C4  UNL     1      -2.541  -1.403   0.670  1.00  0.00     0.211 C 
BRANCH   8   9
HETATM    9  O2  UNL     1      -1.210  -0.989   0.405  1.00  0.00    -0.319 OA
BRANCH   9  10
HETATM   10  C5  UNL     1      -0.092  -1.708   0.816  1.00  0.00     0.266 C 
HETATM   11  O3  UNL     1      -0.310  -2.767   1.449  1.00  0.00    -0.265 OA
BRANCH  10  12
HETATM   12  C6  UNL     1       1.269  -1.252   0.525  1.00  0.00     0.193 C 
BRANCH  12  13
HETATM   13  C7  UNL     1       2.301  -2.158   1.050  1.00  0.00     0.158 C 
HETATM   14  O4  UNL     1       1.990  -3.190   1.672  1.00  0.00    -0.293 OA
BRANCH  13  15
HETATM   15  C8  UNL     1       3.709  -1.815   0.822  1.00  0.00     0.051 C 
HETATM   16  C9  UNL     1       4.037  -0.730   0.168  1.00  0.00     0.010 C 
BRANCH  16  17
HETATM   17  C10 UNL     1       5.386  -0.301  -0.111  1.00  0.00    -0.062 C 
HETATM   18  C11 UNL     1       5.497   0.846  -0.798  1.00  0.00    -0.020 C 
HETATM   19  C12 UNL     1       6.731   1.541  -1.234  1.00  0.00     0.027 C 
HETATM   20  C13 UNL     1       7.515   1.914  -0.002  1.00  0.00     0.004 C 
HETATM   21  C14 UNL     1       8.269   0.715   0.546  1.00  0.00     0.001 C 
HETATM   22  C15 UNL     1       7.338  -0.204   1.302  1.00  0.00     0.005 C 
HETATM   23  C16 UNL     1       6.541  -1.099   0.346  1.00  0.00     0.038 C 
ENDBRANCH  16  17
ENDBRANCH  13  15
ENDBRANCH  12  13
ENDBRANCH  10  12
ENDBRANCH   9  10
ENDBRANCH   8   9
ENDBRANCH   3   8
BRANCH   4  24
HETATM   24  C18 UNL     1      -3.348  -1.364  -2.237  1.00  0.00     0.025 C 
BRANCH  24  25
HETATM   25  C19 UNL     1      -4.713  -1.957  -2.251  1.00  0.00     0.115 C 
HETATM   26 CL1  UNL     1      -4.625  -3.399  -3.330  1.00  0.00    -0.130 Cl
ENDBRANCH  24  25
ENDBRANCH   4  24
BRANCH   1  27
HETATM   27  S1  UNL     1      -4.719   1.501   2.654  1.00  0.00    -0.139 SA
HETATM   28  C1  UNL     1      -5.419  -0.115   2.958  1.00  0.00     0.092 C 
ENDBRANCH   1  27
BRANCH   5  29
HETATM   29  O5  UNL     1      -2.898   2.144  -2.083  1.00  0.00    -0.392 OA
ATOM     30  H5  UNL     1      -3.306   2.914  -2.461  1.00  0.00     0.210 HD
ENDBRANCH   5  29
BRANCH   7  31
HETATM   31  O7  UNL     1      -6.160   2.710   0.274  1.00  0.00    -0.389 OA
ATOM     32  H7  UNL     1      -6.906   2.642  -0.311  1.00  0.00     0.210 HD
ENDBRANCH   7  31
BRANCH   6  33
HETATM   33  O6  UNL     1      -5.387   2.767  -2.025  1.00  0.00    -0.390 OA
ATOM     34  H6  UNL     1      -6.224   3.048  -1.675  1.00  0.00     0.210 HD
ENDBRANCH   6  33
TORSDOF 13
