REMARK  16 active torsions:
REMARK  status: ('A' for Active; 'I' for Inactive)
REMARK    1  A    between atoms: C2_2  and  C3_3 
REMARK    2  A    between atoms: C7_7  and  N1_8 
REMARK    3  A    between atoms: N1_8  and  C8_10 
REMARK    4  A    between atoms: C9_13  and  N3_14 
REMARK    5  A    between atoms: N3_14  and  C10_16 
REMARK    6  A    between atoms: C10_16  and  C11_17 
REMARK    7  A    between atoms: C11_17  and  C12_18 
REMARK    8  A    between atoms: C12_18  and  C13_19 
REMARK    9  A    between atoms: C13_19  and  C14_20 
REMARK   10  A    between atoms: C14_20  and  N4_21 
REMARK   11  A    between atoms: C17_29  and  C18_30 
REMARK   12  A    between atoms: C18_30  and  C19_31 
REMARK       I    between atoms: C19_31  and  N6_33 
REMARK   13  A    between atoms: N6_33  and  C20_35 
REMARK   14  A    between atoms: C20_35  and  C21_36 
REMARK   15  A    between atoms: C21_36  and  C22_37 
REMARK   16  A    between atoms: C22_37  and  N7_38 
ROOT
HETATM    1  C8  UNL     1      -2.086   1.813   1.011  1.00  0.00     0.685 A 
HETATM    2  N2  UNL     1      -2.886   0.738   1.087  1.00  0.00    -0.174 N 
ATOM      3  H2  UNL     1      -3.890   0.879   0.979  1.00  0.00     0.186 HD
HETATM    4  C9  UNL     1      -2.448  -0.494   1.294  1.00  0.00     0.146 A 
HETATM    5  C15 UNL     1      -1.076  -0.688   1.441  1.00  0.00     0.104 A 
HETATM    6  N5  UNL     1      -0.588  -1.937   1.655  1.00  0.00    -0.361 N 
ATOM      7  H5  UNL     1      -1.236  -2.723   1.707  1.00  0.00     0.165 HD
HETATM    8  C16 UNL     1       0.725  -2.160   1.800  1.00  0.00     0.096 A 
HETATM    9  C17 UNL     1       1.599  -1.070   1.728  1.00  0.00    -0.032 A 
HETATM   10  C23 UNL     1       1.114   0.209   1.511  1.00  0.00     0.041 A 
HETATM   11  C24 UNL     1      -0.254   0.413   1.363  1.00  0.00     0.080 A 
HETATM   12  N8  UNL     1      -0.773   1.645   1.149  1.00  0.00    -0.189 N 
ATOM     13  H8  UNL     1      -0.152   2.452   1.093  1.00  0.00     0.184 HD
ENDROOT
BRANCH   9  14
HETATM   14  C18 UNL     1       3.050  -1.285   1.884  1.00  0.00     0.142 C 
BRANCH  14  15
HETATM   15  C19 UNL     1       3.649  -1.504   0.543  1.00  0.00     0.221 C 
HETATM   16  O1  UNL     1       2.887  -1.468  -0.456  1.00  0.00    -0.273 OA
HETATM   17  N6  UNL     1       5.027  -1.750   0.359  1.00  0.00    -0.361 N 
ATOM     18  H6  UNL     1       5.631  -1.776   1.180  1.00  0.00     0.162 HD
BRANCH  17  19
HETATM   19  C20 UNL     1       5.613  -1.964  -0.927  1.00  0.00     0.124 C 
BRANCH  19  20
HETATM   20  C21 UNL     1       5.070  -3.150  -1.657  1.00  0.00     0.047 C 
BRANCH  20  21
HETATM   21  C22 UNL     1       5.299  -4.431  -0.855  1.00  0.00     0.231 C 
BRANCH  21  22
HETATM   22  N7  UNL     1       6.708  -4.630  -0.640  1.00  0.00    -0.079 N 
ATOM     23  H73 UNL     1       7.233  -4.627  -1.515  1.00  0.00     0.274 HD
ATOM     24  H72 UNL     1       7.146  -3.820  -0.201  1.00  0.00     0.274 HD
ATOM     25  H71 UNL     1       6.861  -5.485  -0.105  1.00  0.00     0.274 HD
ENDBRANCH  21  22
ENDBRANCH  20  21
ENDBRANCH  19  20
ENDBRANCH  17  19
ENDBRANCH  14  15
ENDBRANCH   9  14
BRANCH   4  26
HETATM   26  N3  UNL     1      -3.191  -1.525   1.374  1.00  0.00    -0.374 N 
ATOM     27  H3  UNL     1      -2.754  -2.432   1.536  1.00  0.00     0.161 HD
BRANCH  26  28
HETATM   28  C10 UNL     1      -4.617  -1.461   1.246  1.00  0.00     0.121 C 
BRANCH  28  29
HETATM   29  C11 UNL     1      -5.147  -1.518  -0.141  1.00  0.00     0.020 C 
BRANCH  29  30
HETATM   30  C12 UNL     1      -4.873  -2.730  -0.939  1.00  0.00     0.003 C 
BRANCH  30  31
HETATM   31  C13 UNL     1      -3.460  -3.088  -1.214  1.00  0.00     0.027 C 
BRANCH  31  32
HETATM   32  C14 UNL     1      -3.510  -4.373  -2.074  1.00  0.00     0.229 C 
BRANCH  32  33
HETATM   33  N4  UNL     1      -2.186  -4.814  -2.402  1.00  0.00    -0.079 N 
ATOM     34  H43 UNL     1      -1.643  -4.078  -2.853  1.00  0.00     0.274 HD
ATOM     35  H42 UNL     1      -1.612  -4.939  -1.568  1.00  0.00     0.274 HD
ATOM     36  H41 UNL     1      -2.219  -5.661  -2.969  1.00  0.00     0.274 HD
ENDBRANCH  32  33
ENDBRANCH  31  32
ENDBRANCH  30  31
ENDBRANCH  29  30
ENDBRANCH  28  29
ENDBRANCH  26  28
ENDBRANCH   4  26
BRANCH   1  37
HETATM   37  N1  UNL     1      -2.583   2.960   0.809  1.00  0.00    -0.185 N 
ATOM     38  H1  UNL     1      -3.597   3.009   0.712  1.00  0.00     0.185 HD
BRANCH  37  39
HETATM   39  C7  UNL     1      -1.871   4.185   0.704  1.00  0.00     0.096 A 
HETATM   40  C5  UNL     1      -1.204   4.742  -0.351  1.00  0.00    -0.027 A 
HETATM   41  C4  UNL     1      -0.616   5.938  -0.144  1.00  0.00     0.024 A 
HETATM   42  C6  UNL     1      -1.161   4.000  -1.677  1.00  0.00     0.051 C 
HETATM   43  C3  UNL     1      -0.739   6.488   1.104  1.00  0.00    -0.015 A 
HETATM   44  S1  UNL     1      -1.663   5.330   1.944  1.00  0.00    -0.076 SA
BRANCH  43  45
HETATM   45  C2  UNL     1      -0.185   7.801   1.596  1.00  0.00     0.041 C 
HETATM   46  C1  UNL     1       0.548   8.441   0.465  1.00  0.00     0.010 C 
ENDBRANCH  43  45
ENDBRANCH  37  39
ENDBRANCH   1  37
TORSDOF 16
