REMARK  16 active torsions:
REMARK  status: ('A' for Active; 'I' for Inactive)
REMARK    1  A    between atoms: C4_13  and  N6_14 
REMARK    2  A    between atoms: N7_17  and  N8_18 
REMARK    3  A    between atoms: N8_18  and  C5_20 
REMARK    4  A    between atoms: C6_22  and  N9_23 
REMARK    5  A    between atoms: C7_27  and  N10_28 
REMARK    6  A    between atoms: C8_32  and  C9_33 
REMARK    7  A    between atoms: C9_33  and  N11_34 
REMARK    8  A    between atoms: C10_39  and  N13_40 
REMARK    9  A    between atoms: N13_40  and  C11_41 
REMARK   10  A    between atoms: C11_41  and  C12_42 
REMARK   11  A    between atoms: C12_42  and  C13_43 
REMARK   12  A    between atoms: C13_43  and  C14_44 
REMARK   13  A    between atoms: C14_44  and  N14_45 
REMARK   14  A    between atoms: C14_44  and  C15_49 
REMARK   15  A    between atoms: C15_49  and  O1_50 
REMARK   16  A    between atoms: C15_49  and  O2_52 
ROOT
HETATM    1  C1  UNL     1      -3.579   3.436  -0.084  1.00  0.00     0.179 C 
HETATM    2  N1  UNL     1      -2.416   4.252  -0.317  1.00  0.00    -0.274 N 
HETATM    3  N2  UNL     1      -2.444   5.593  -0.478  1.00  0.00    -0.239 N 
ATOM      4  H2  UNL     1      -3.288   6.166  -0.456  1.00  0.00     0.208 HD
HETATM    5  N3  UNL     1      -1.245   6.047  -0.665  1.00  0.00    -0.268 N 
ATOM      6  H3  UNL     1      -0.995   7.025  -0.812  1.00  0.00     0.190 HD
HETATM    7  C2  UNL     1      -0.370   4.997  -0.632  1.00  0.00     0.170 A 
HETATM    8  N4  UNL     1       0.945   4.922  -0.764  1.00  0.00    -0.170 N 
ATOM      9  H4  UNL     1       1.480   5.775  -0.928  1.00  0.00     0.186 HD
HETATM   10  C3  UNL     1       1.599   3.728  -0.685  1.00  0.00     0.724 A 
HETATM   11  N5  UNL     1       2.900   3.485  -0.815  1.00  0.00    -0.017 N 
ATOM     12  H5  UNL     1       3.631   4.175  -0.987  1.00  0.00     0.203 HD
HETATM   13  C4  UNL     1       3.073   2.130  -0.674  1.00  0.00     0.728 A 
HETATM   14  N7  UNL     1       1.837   1.614  -0.461  1.00  0.00     0.005 N 
HETATM   15  N12 UNL     1       0.916   2.614  -0.472  1.00  0.00    -0.017 N 
HETATM   16  C10 UNL     1      -0.462   2.622  -0.329  1.00  0.00     0.251 A 
HETATM   17  C16 UNL     1      -1.128   3.886  -0.414  1.00  0.00     0.158 A 
ENDROOT
BRANCH  14  18
HETATM   18  N8  UNL     1       1.525   0.285  -0.321  1.00  0.00    -0.261 N 
ATOM     19  H8  UNL     1       0.617   0.151   0.124  1.00  0.00     0.190 HD
BRANCH  18  20
HETATM   20  C5  UNL     1       2.132  -0.921  -0.631  1.00  0.00     0.074 C 
HETATM   21  S1  UNL     1       3.072  -1.055  -2.170  1.00  0.00    -0.080 SA
HETATM   22  C6  UNL     1       4.211  -2.392  -1.633  1.00  0.00     0.281 C 
HETATM   23  C7  UNL     1       3.530  -2.880  -0.417  1.00  0.00     0.236 C 
HETATM   24  C8  UNL     1       2.829  -1.779   0.315  1.00  0.00     0.103 C 
BRANCH  22  25
HETATM   25  N9  UNL     1       5.558  -1.953  -1.484  1.00  0.00    -0.064 N 
ATOM     26  H93 UNL     1       5.893  -1.512  -2.340  1.00  0.00     0.275 HD
ATOM     27  H92 UNL     1       5.612  -1.154  -0.852  1.00  0.00     0.275 HD
ATOM     28  H91 UNL     1       6.191  -2.696  -1.186  1.00  0.00     0.275 HD
ENDBRANCH  22  25
BRANCH  23  29
HETATM   29  N10 UNL     1       2.519  -3.863  -0.839  1.00  0.00    -0.071 N 
ATOM     30 3H10 UNL     1       1.872  -3.494  -1.536  1.00  0.00     0.274 HD
ATOM     31 2H10 UNL     1       2.909  -4.616  -1.405  1.00  0.00     0.274 HD
ATOM     32 1H10 UNL     1       2.049  -4.200   0.001  1.00  0.00     0.274 HD
ENDBRANCH  23  29
BRANCH  24  33
HETATM   33  C9  UNL     1       3.736  -1.227   1.344  1.00  0.00     0.243 C 
BRANCH  33  34
HETATM   34  N11 UNL     1       3.006  -0.306   2.230  1.00  0.00    -0.079 N 
ATOM     35 3H11 UNL     1       2.533   0.430   1.706  1.00  0.00     0.274 HD
ATOM     36 2H11 UNL     1       2.185  -0.748   2.644  1.00  0.00     0.274 HD
ATOM     37 1H11 UNL     1       3.632   0.075   2.940  1.00  0.00     0.274 HD
ENDBRANCH  33  34
ENDBRANCH  24  33
ENDBRANCH  18  20
ENDBRANCH  14  18
BRANCH  13  38
HETATM   38  N6  UNL     1       4.227   1.623  -0.736  1.00  0.00    -0.231 N 
ATOM     39  H62 UNL     1       5.157   2.011  -0.896  1.00  0.00     0.174 HD
ATOM     40  H61 UNL     1       4.355   0.617  -0.631  1.00  0.00     0.174 HD
ENDBRANCH  13  38
BRANCH  16  41
HETATM   41  N13 UNL     1      -1.144   1.666  -0.216  1.00  0.00    -0.399 NA
BRANCH  41  42
HETATM   42  C11 UNL     1      -1.916   0.574  -0.089  1.00  0.00     0.158 C 
BRANCH  42  43
HETATM   43  C12 UNL     1      -2.243   0.100   1.309  1.00  0.00     0.062 C 
BRANCH  43  44
HETATM   44  C13 UNL     1      -3.047  -1.123   1.402  1.00  0.00     0.044 C 
BRANCH  44  45
HETATM   45  C14 UNL     1      -4.408  -1.195   0.850  1.00  0.00     0.238 C 
BRANCH  45  46
HETATM   46  N14 UNL     1      -4.628  -1.013  -0.528  1.00  0.00    -0.070 N 
ATOM     47 3H14 UNL     1      -4.218  -0.120  -0.803  1.00  0.00     0.274 HD
ATOM     48 2H14 UNL     1      -4.041  -1.674  -1.036  1.00  0.00     0.274 HD
ATOM     49 1H14 UNL     1      -5.572  -1.063  -0.911  1.00  0.00     0.274 HD
ENDBRANCH  45  46
BRANCH  45  50
HETATM   50  C15 UNL     1      -4.970  -2.596   1.198  1.00  0.00     0.284 C 
BRANCH  50  51
HETATM   51  O1  UNL     1      -4.758  -2.783   2.552  1.00  0.00    -0.369 OA
ATOM     52  H1  UNL     1      -5.103  -3.642   2.765  1.00  0.00     0.212 HD
ENDBRANCH  50  51
BRANCH  50  53
HETATM   53  O2  UNL     1      -4.380  -3.570   0.423  1.00  0.00    -0.369 OA
ATOM     54  H2  UNL     1      -4.725  -4.429   0.636  1.00  0.00     0.212 HD
ENDBRANCH  50  53
ENDBRANCH  45  50
ENDBRANCH  44  45
ENDBRANCH  43  44
ENDBRANCH  42  43
ENDBRANCH  41  42
ENDBRANCH  16  41
TORSDOF 16
