REMARK  14 active torsions:
REMARK  status: ('A' for Active; 'I' for Inactive)
REMARK    1  A    between atoms: C3_5  and  C4_6 
REMARK    2  A    between atoms: C4_6  and  C5_11 
REMARK    3  A    between atoms: N2_7  and  O1_9 
REMARK    4  A    between atoms: C5_11  and  N3_12 
REMARK    5  A    between atoms: C5_11  and  C6_16 
REMARK    6  A    between atoms: C6_16  and  C8_18 
REMARK    7  A    between atoms: C8_18  and  C9_19 
REMARK       I    between atoms: C9_19  and  N4_21 
REMARK    8  A    between atoms: N4_21  and  C10_23 
REMARK    9  A    between atoms: C10_23  and  O3_24 
REMARK   10  A    between atoms: C10_23  and  C11_26 
REMARK   11  A    between atoms: C13_30  and  N6_31 
REMARK   12  A    between atoms: C14_36  and  C15_37 
REMARK   13  A    between atoms: C17_43  and  N10_44 
REMARK   14  A    between atoms: N10_44  and  O5_46 
ROOT
HETATM    1  C10 UNL     1       1.770   1.768   1.963  1.00  0.00     0.289 C 
ENDROOT
BRANCH   1   2
HETATM    2  N4  UNL     1       0.648   0.838   1.918  1.00  0.00    -0.329 N 
HETATM    3  C9  UNL     1      -0.494   1.107   1.109  1.00  0.00     0.220 C 
HETATM    4  O2  UNL     1      -0.565   2.161   0.409  1.00  0.00    -0.274 OA
ATOM      5  H4  UNL     1       0.681  -0.017   2.473  1.00  0.00     0.165 HD
BRANCH   3   6
HETATM    6  C8  UNL     1      -1.606   0.154   1.084  1.00  0.00     0.109 C 
BRANCH   6   7
HETATM    7  C6  UNL     1      -2.673   0.609   0.124  1.00  0.00     0.027 C 
HETATM    8  C7  UNL     1      -2.071   0.705  -1.257  1.00  0.00     0.013 C 
BRANCH   7   9
HETATM    9  C5  UNL     1      -3.797  -0.414   0.161  1.00  0.00     0.242 C 
BRANCH   9  10
HETATM   10  C4  UNL     1      -4.884  -0.046  -0.763  1.00  0.00     0.108 C 
HETATM   11  N2  UNL     1      -4.812   1.032  -1.442  1.00  0.00    -0.268 N 
ATOM     12  H2  UNL     1      -3.995   1.635  -1.348  1.00  0.00     0.194 HD
BRANCH  10  13
HETATM   13  C3  UNL     1      -6.045  -0.901  -0.899  1.00  0.00     0.154 A 
HETATM   14  N1  UNL     1      -7.121  -0.693  -1.695  1.00  0.00    -0.322 N 
HETATM   15  C2  UNL     1      -7.996  -1.701  -1.553  1.00  0.00     0.144 A 
ATOM     16  H1  UNL     1      -7.248   0.110  -2.311  1.00  0.00     0.169 HD
HETATM   17  C1  UNL     1      -9.307  -1.830  -2.268  1.00  0.00     0.100 C 
HETATM   18  O6  UNL     1      -7.460  -2.519  -0.677  1.00  0.00    -0.223 OA
HETATM   19  N12 UNL     1      -6.313  -2.073  -0.276  1.00  0.00    -0.241 N 
ATOM     20  H12 UNL     1      -5.706  -2.532   0.403  1.00  0.00     0.196 HD
ENDBRANCH  10  13
BRANCH  11  21
HETATM   21  O1  UNL     1      -5.824   1.387  -2.298  1.00  0.00    -0.290 OA
ATOM     22  H1  UNL     1      -5.770   2.190  -2.804  1.00  0.00     0.244 HD
ENDBRANCH  11  21
ENDBRANCH   9  10
BRANCH   9  23
HETATM   23  N3  UNL     1      -4.367  -0.505   1.488  1.00  0.00    -0.069 N 
ATOM     24  H33 UNL     1      -4.858   0.344   1.769  1.00  0.00     0.275 HD
ATOM     25  H32 UNL     1      -5.163  -1.141   1.536  1.00  0.00     0.275 HD
ATOM     26  H31 UNL     1      -3.614  -0.760   2.128  1.00  0.00     0.275 HD
ENDBRANCH   9  23
ENDBRANCH   7   9
ENDBRANCH   6   7
ENDBRANCH   3   6
ENDBRANCH   1   2
BRANCH   1  27
HETATM   27  O3  UNL     1       1.964   2.160   3.266  1.00  0.00    -0.369 OA
ATOM     28  H3  UNL     1       2.695   2.766   3.295  1.00  0.00     0.212 HD
ENDBRANCH   1  27
BRANCH   1  29
HETATM   29  C11 UNL     1       2.965   1.041   1.453  1.00  0.00     0.133 A 
HETATM   30  N5  UNL     1       3.792   1.623   0.552  1.00  0.00    -0.337 N 
HETATM   31  C12 UNL     1       4.858   0.945   0.114  1.00  0.00     0.108 A 
ATOM     32  H5  UNL     1       3.604   2.566   0.212  1.00  0.00     0.167 HD
HETATM   33  C13 UNL     1       5.751   1.471  -0.807  1.00  0.00     0.130 A 
HETATM   34  C16 UNL     1       5.115  -0.333   0.572  1.00  0.00     0.111 A 
HETATM   35  N7  UNL     1       6.831   0.771  -1.243  1.00  0.00    -0.323 N 
HETATM   36  C14 UNL     1       7.053  -0.465  -0.781  1.00  0.00     0.174 A 
ATOM     37  H7  UNL     1       7.470   1.186  -1.920  1.00  0.00     0.169 HD
HETATM   38  N9  UNL     1       6.193  -0.999   0.119  1.00  0.00    -0.333 N 
ATOM     39  H9  UNL     1       6.369  -1.942   0.467  1.00  0.00     0.168 HD
HETATM   40  C17 UNL     1       4.281  -0.934   1.487  1.00  0.00     0.156 A 
HETATM   41  N11 UNL     1       3.208  -0.197   1.900  1.00  0.00    -0.325 N 
ATOM     42  H11 UNL     1       2.565  -0.607   2.577  1.00  0.00     0.169 HD
BRANCH  33  43
HETATM   43  N6  UNL     1       5.583   2.646  -1.277  1.00  0.00    -0.384 N 
ATOM     44  H62 UNL     1       4.772   3.171  -0.950  1.00  0.00     0.157 HD
ATOM     45  H61 UNL     1       6.240   3.033  -1.955  1.00  0.00     0.157 HD
ENDBRANCH  33  43
BRANCH  36  46
HETATM   46  C15 UNL     1       8.204  -1.251  -1.228  1.00  0.00     0.298 C 
HETATM   47  N8  UNL     1       9.112  -0.712  -2.165  1.00  0.00    -0.054 NA
HETATM   48  O4  UNL     1       8.394  -2.397  -0.788  1.00  0.00    -0.268 OA
ENDBRANCH  36  46
BRANCH  40  49
HETATM   49  N10 UNL     1       4.495  -2.122   1.931  1.00  0.00    -0.251 N 
ATOM     50  H10 UNL     1       5.300  -2.663   1.615  1.00  0.00     0.196 HD
BRANCH  49  51
HETATM   51  O5  UNL     1       3.605  -2.642   2.846  1.00  0.00    -0.288 OA
ATOM     52  H5  UNL     1       3.763  -3.519   3.174  1.00  0.00     0.244 HD
ENDBRANCH  49  51
ENDBRANCH  40  49
ENDBRANCH   1  29
TORSDOF 14
