REMARK  14 active torsions:
REMARK  status: ('A' for Active; 'I' for Inactive)
REMARK    1  A    between atoms: N1_1  and  C1_4 
REMARK    2  A    between atoms: C2_7  and  O1_8 
REMARK    3  A    between atoms: C3_10  and  O2_11 
REMARK    4  A    between atoms: C5_14  and  C6_15 
REMARK    5  A    between atoms: N6_22  and  C7_23 
REMARK    6  A    between atoms: C9_27  and  S1_28 
REMARK    7  A    between atoms: S1_28  and  N8_31 
REMARK    8  A    between atoms: N8_31  and  N9_33 
REMARK       I    between atoms: N9_33  and  C10_35 
REMARK    9  A    between atoms: C10_35  and  C11_37 
REMARK   10  A    between atoms: C11_37  and  S2_38 
REMARK   11  A    between atoms: S2_38  and  C12_39 
REMARK   12  A    between atoms: C12_39  and  C13_40 
REMARK   13  A    between atoms: C13_40  and  O6_41 
REMARK   14  A    between atoms: C13_40  and  O7_43 
ROOT
HETATM    1  C7  UNL     1      -1.907  -0.085   1.372  1.00  0.00     0.707 A 
HETATM    2  N7  UNL     1      -1.552   1.007   0.627  1.00  0.00    -0.198 N 
ATOM      3  H7  UNL     1      -2.001   1.903   0.816  1.00  0.00     0.183 HD
HETATM    4  C8  UNL     1      -0.623   0.931  -0.353  1.00  0.00     0.135 A 
HETATM    5  C9  UNL     1      -0.018  -0.275  -0.609  1.00  0.00     0.138 A 
HETATM    6  C14 UNL     1      -0.351  -1.387   0.118  1.00  0.00     0.156 A 
HETATM    7  N10 UNL     1       0.222  -2.665  -0.103  1.00  0.00    -0.080 NA
HETATM    8  N11 UNL     1      -1.289  -1.230   1.082  1.00  0.00    -0.175 N 
ATOM      9  H11 UNL     1      -1.543  -2.053   1.629  1.00  0.00     0.185 HD
ENDROOT
BRANCH   1  10
HETATM   10  N6  UNL     1      -2.868   0.137   2.388  1.00  0.00    -0.052 N 
HETATM   11  C6  UNL     1      -4.149   0.406   2.326  1.00  0.00     0.176 A 
HETATM   12  N3  UNL     1      -4.546   0.605   3.662  1.00  0.00    -0.267 N 
HETATM   13  N4  UNL     1      -3.521   0.449   4.455  1.00  0.00    -0.226 N 
ATOM     14  H3  UNL     1      -5.492   0.836   3.965  1.00  0.00     0.190 HD
HETATM   15  N5  UNL     1      -2.495   0.164   3.709  1.00  0.00    -0.205 N 
ATOM     16  H4  UNL     1      -3.524   0.535   5.471  1.00  0.00     0.210 HD
ATOM     17  H5  UNL     1      -1.552  -0.013   4.054  1.00  0.00     0.211 HD
BRANCH  11  18
HETATM   18  C5  UNL     1      -5.077   0.588   1.242  1.00  0.00     0.058 A 
HETATM   19  C1  UNL     1      -5.182  -0.148   0.111  1.00  0.00     0.115 A 
HETATM   20  N2  UNL     1      -6.176   0.075  -0.813  1.00  0.00    -0.321 N 
HETATM   21  C2  UNL     1      -7.106   1.014  -0.681  1.00  0.00     0.175 A 
ATOM     22  H2  UNL     1      -6.200  -0.513  -1.646  1.00  0.00     0.169 HD
HETATM   23  C3  UNL     1      -7.053   1.799   0.457  1.00  0.00     0.117 A 
HETATM   24  C4  UNL     1      -6.070   1.587   1.382  1.00  0.00     0.060 A 
BRANCH  19  25
HETATM   25  N1  UNL     1      -4.432  -1.131  -0.172  1.00  0.00    -0.385 N 
ATOM     26  H12 UNL     1      -4.511  -1.686  -1.024  1.00  0.00     0.157 HD
ATOM     27  H11 UNL     1      -3.695  -1.296   0.513  1.00  0.00     0.157 HD
ENDBRANCH  19  25
BRANCH  21  28
HETATM   28  O1  UNL     1      -8.095   1.205  -1.640  1.00  0.00    -0.344 OA
ATOM     29  H1  UNL     1      -8.760   1.877  -1.546  1.00  0.00     0.219 HD
ENDBRANCH  21  28
BRANCH  23  30
HETATM   30  O2  UNL     1      -8.028   2.775   0.585  1.00  0.00    -0.357 OA
ATOM     31  H2  UNL     1      -7.992   3.314   1.366  1.00  0.00     0.218 HD
ENDBRANCH  23  30
ENDBRANCH  11  18
ENDBRANCH   1  10
BRANCH   5  32
HETATM   32  S1  UNL     1       1.132  -0.399  -1.908  1.00  0.00     0.281 S 
HETATM   33  O3  UNL     1       1.359   0.950  -2.560  1.00  0.00    -0.199 OA
HETATM   34  O4  UNL     1       0.490  -1.315  -2.948  1.00  0.00    -0.199 OA
BRANCH  32  35
HETATM   35  N8  UNL     1       2.598  -1.075  -1.414  1.00  0.00    -0.220 N 
ATOM     36  H8  UNL     1       2.736  -2.086  -1.401  1.00  0.00     0.200 HD
BRANCH  35  37
HETATM   37  N9  UNL     1       3.602  -0.212  -1.029  1.00  0.00    -0.260 N 
HETATM   38  C10 UNL     1       3.943  -0.161   0.340  1.00  0.00     0.245 C 
HETATM   39  O5  UNL     1       3.348  -0.853   1.201  1.00  0.00    -0.271 OA
ATOM     40  H9  UNL     1       4.084   0.372  -1.713  1.00  0.00     0.190 HD
BRANCH  38  41
HETATM   41  C11 UNL     1       5.046   0.723   0.853  1.00  0.00     0.178 C 
BRANCH  41  42
HETATM   42  S2  UNL     1       6.559  -0.309   0.970  1.00  0.00    -0.155 SA
BRANCH  42  43
HETATM   43  C12 UNL     1       7.061  -0.797  -0.670  1.00  0.00     0.134 C 
BRANCH  43  44
HETATM   44  C13 UNL     1       7.645   0.330  -1.458  1.00  0.00     0.263 C 
BRANCH  44  45
HETATM   45  O6  UNL     1       8.782   0.781  -0.741  1.00  0.00    -0.371 OA
ATOM     46  H6  UNL     1       9.153   1.498  -1.242  1.00  0.00     0.212 HD
ENDBRANCH  44  45
BRANCH  44  47
HETATM   47  O7  UNL     1       6.841   1.418  -1.662  1.00  0.00    -0.371 OA
ATOM     48  H7  UNL     1       7.212   2.135  -2.163  1.00  0.00     0.212 HD
ENDBRANCH  44  47
ENDBRANCH  43  44
ENDBRANCH  42  43
ENDBRANCH  41  42
ENDBRANCH  38  41
ENDBRANCH  35  37
ENDBRANCH  32  35
ENDBRANCH   5  32
TORSDOF 14
