REMARK  12 active torsions:
REMARK  status: ('A' for Active; 'I' for Inactive)
REMARK    1  A    between atoms: N1_1  and  C1_4 
REMARK    2  A    between atoms: C3_9  and  C4_10 
REMARK    3  A    between atoms: C5_15  and  C6_16 
REMARK    4  A    between atoms: C6_16  and  O1_17 
REMARK    5  A    between atoms: C6_16  and  C7_19 
REMARK    6  A    between atoms: C8_22  and  N6_23 
REMARK    7  A    between atoms: N6_23  and  N7_25 
REMARK    8  A    between atoms: N8_28  and  N9_29 
REMARK    9  A    between atoms: N9_29  and  N10_31 
REMARK   10  A    between atoms: N10_31  and  C9_33 
REMARK   11  A    between atoms: C11_40  and  N13_41 
REMARK   12  A    between atoms: C13_45  and  N14_46 
ROOT
HETATM    1  C4  UNL     1      -2.240  -0.220  -0.292  1.00  0.00     0.164 A 
HETATM    2  N4  UNL     1      -3.418   0.425  -0.262  1.00  0.00    -0.283 N 
ATOM      3  H4  UNL     1      -4.232  -0.073   0.097  1.00  0.00     0.188 HD
HETATM    4  N5  UNL     1      -3.575   1.652  -0.667  1.00  0.00    -0.296 N 
ATOM      5  H5  UNL     1      -4.494   2.093  -0.622  1.00  0.00     0.187 HD
HETATM    6  C5  UNL     1      -2.500   2.350  -1.155  1.00  0.00     0.112 A 
HETATM    7  C8  UNL     1      -1.295   1.712  -1.196  1.00  0.00     0.172 A 
HETATM    8  N8  UNL     1      -1.181   0.399  -0.750  1.00  0.00    -0.203 N 
ENDROOT
BRANCH   8   9
HETATM    9  N9  UNL     1       0.099  -0.205  -0.814  1.00  0.00    -0.231 N 
ATOM     10  H9  UNL     1       0.291  -0.948  -1.486  1.00  0.00     0.209 HD
BRANCH   9  11
HETATM   11  N10 UNL     1       0.993   0.195  -0.025  1.00  0.00    -0.268 N 
ATOM     12  H10 UNL     1       0.740   0.941   0.623  1.00  0.00     0.190 HD
BRANCH  11  13
HETATM   13  C9  UNL     1       2.310  -0.293   0.045  1.00  0.00     0.156 A 
HETATM   14  N11 UNL     1       2.802  -1.200  -0.815  1.00  0.00    -0.324 N 
HETATM   15  C10 UNL     1       4.075  -1.679  -0.756  1.00  0.00     0.134 A 
ATOM     16  H11 UNL     1       2.189  -1.549  -1.552  1.00  0.00     0.169 HD
HETATM   17  N12 UNL     1       4.434  -2.520  -1.624  1.00  0.00    -0.383 N 
HETATM   18  C11 UNL     1       4.894  -1.220   0.220  1.00  0.00     0.148 A 
ATOM     19 2H12 UNL     1       3.817  -2.866  -2.359  1.00  0.00     0.157 HD
ATOM     20 1H12 UNL     1       5.388  -2.879  -1.580  1.00  0.00     0.157 HD
HETATM   21  C12 UNL     1       4.435  -0.278   1.138  1.00  0.00     0.080 A 
HETATM   22  C13 UNL     1       3.151   0.173   1.038  1.00  0.00     0.150 A 
BRANCH  18  23
HETATM   23  N13 UNL     1       6.243  -1.610   0.420  1.00  0.00    -0.112 N 
HETATM   24  O4  UNL     1       6.611  -2.756   0.188  1.00  0.00    -0.532 OA
HETATM   25  O5  UNL     1       7.199  -0.732   0.911  1.00  0.00    -0.532 OA
ENDBRANCH  18  23
BRANCH  22  26
HETATM   26  N14 UNL     1       2.656   1.145   1.974  1.00  0.00    -0.112 N 
HETATM   27  O6  UNL     1       1.459   1.178   2.327  1.00  0.00    -0.532 OA
HETATM   28  O7  UNL     1       3.500   2.078   2.513  1.00  0.00    -0.532 OA
ENDBRANCH  22  26
ENDBRANCH  11  13
ENDBRANCH   9  11
ENDBRANCH   8   9
BRANCH   1  29
HETATM   29  C3  UNL     1      -2.105  -1.600   0.174  1.00  0.00     0.121 A 
HETATM   30  C2  UNL     1      -1.792  -1.837   1.493  1.00  0.00     0.151 A 
HETATM   31  N2  UNL     1      -1.664  -3.111   1.933  1.00  0.00    -0.178 N 
HETATM   32  N3  UNL     1      -1.589  -0.806   2.444  1.00  0.00    -0.081 NA
HETATM   33  C1  UNL     1      -1.846  -4.134   1.077  1.00  0.00     0.680 A 
ATOM     34  H2  UNL     1      -1.431  -3.295   2.909  1.00  0.00     0.185 HD
HETATM   35  N15 UNL     1      -2.154  -3.895  -0.216  1.00  0.00    -0.155 N 
HETATM   36  C14 UNL     1      -2.290  -2.649  -0.698  1.00  0.00     0.277 A 
ATOM     37  H15 UNL     1      -2.288  -4.686  -0.846  1.00  0.00     0.187 HD
HETATM   38  O8  UNL     1      -2.578  -2.510  -1.911  1.00  0.00    -0.267 OA
BRANCH  33  39
HETATM   39  N1  UNL     1      -1.729  -5.357   1.473  1.00  0.00    -0.234 N 
ATOM     40  H12 UNL     1      -1.496  -5.538   2.450  1.00  0.00     0.174 HD
ATOM     41  H11 UNL     1      -1.867  -6.132   0.824  1.00  0.00     0.174 HD
ENDBRANCH  33  39
ENDBRANCH   1  29
BRANCH   7  42
HETATM   42  N6  UNL     1      -0.230   2.194  -1.652  1.00  0.00    -0.289 N 
ATOM     43  H6  UNL     1       0.565   1.558  -1.591  1.00  0.00     0.188 HD
BRANCH  42  44
HETATM   44  N7  UNL     1       0.070   3.372  -2.200  1.00  0.00    -0.344 N 
ATOM     45  H72 UNL     1      -0.738   3.992  -2.251  1.00  0.00     0.176 HD
ATOM     46  H71 UNL     1       0.936   3.764  -2.571  1.00  0.00     0.176 HD
ENDBRANCH  42  44
ENDBRANCH   7  42
BRANCH   6  47
HETATM   47  C6  UNL     1      -2.724   3.766  -1.558  1.00  0.00     0.273 C 
BRANCH  47  48
HETATM   48  O1  UNL     1      -3.270   3.826  -2.825  1.00  0.00    -0.378 OA
ATOM     49  H1  UNL     1      -3.413   4.729  -3.082  1.00  0.00     0.211 HD
ENDBRANCH  47  48
BRANCH  47  50
HETATM   50  C7  UNL     1      -3.679   4.384  -0.551  1.00  0.00     0.209 C 
HETATM   51  O2  UNL     1      -4.749   4.832  -0.979  1.00  0.00    -0.646 OA
HETATM   52  O3  UNL     1      -3.298   4.408   0.762  1.00  0.00    -0.646 OA
ENDBRANCH  47  50
ENDBRANCH   6  47
TORSDOF 12
