REMARK  5 active torsions:
REMARK  status: ('A' for Active; 'I' for Inactive)
REMARK    1  A    between atoms: C2_2  and  O1_3 
REMARK    2  A    between atoms: C2_2  and  C3_6 
REMARK    3  A    between atoms: C10_13  and  C11_14 
REMARK    4  A    between atoms: C15_20  and  C16_21 
REMARK    5  A    between atoms: C22_29  and  C23_30 
ROOT
HETATM    1  C3  UNL     1      -3.386   0.442  -1.338  1.00  0.00     0.060 C 
HETATM    2  C4  UNL     1      -3.286   1.923  -0.928  1.00  0.00     0.011 C 
HETATM    3  C5  UNL     1      -1.760   1.877  -0.670  1.00  0.00     0.013 C 
HETATM    4  C6  UNL     1      -1.682   0.742   0.272  1.00  0.00    -0.003 C 
HETATM    5  C7  UNL     1      -2.244   1.214   1.581  1.00  0.00     0.131 C 
HETATM    6  C8  UNL     1      -1.260   0.981   2.664  1.00  0.00     0.033 C 
HETATM    7  C9  UNL     1      -0.044   0.463   1.963  1.00  0.00     0.009 C 
HETATM    8  C10 UNL     1      -0.410   0.104   0.549  1.00  0.00     0.005 C 
HETATM    9  O2  UNL     1      -3.408   0.587   1.869  1.00  0.00    -0.379 OA
HETATM   10  C22 UNL     1      -3.613  -0.476   1.010  1.00  0.00     0.137 C 
HETATM   11  C24 UNL     1      -2.797  -0.232  -0.185  1.00  0.00     0.036 C 
ENDROOT
BRANCH   8  12
HETATM   12  C11 UNL     1       0.761   0.236  -0.330  1.00  0.00    -0.033 C 
HETATM   13  C12 UNL     1       0.565  -0.254  -1.739  1.00  0.00     0.016 C 
HETATM   14  C13 UNL     1       1.470   1.588  -0.283  1.00  0.00     0.029 C 
HETATM   15  C14 UNL     1       2.527   1.627  -1.358  1.00  0.00     0.120 C 
HETATM   16  N1  UNL     1       3.363   0.500  -1.211  1.00  0.00    -0.396 N 
HETATM   17  C15 UNL     1       3.114  -0.538  -0.535  1.00  0.00    -0.013 C 
ATOM     18  H1  UNL     1       4.258   0.526  -1.699  1.00  0.00     0.159 HD
HETATM   19  C21 UNL     1       1.839  -0.717   0.239  1.00  0.00     0.062 C 
BRANCH  17  20
HETATM   20  C16 UNL     1       4.124  -1.661  -0.482  1.00  0.00     0.034 C 
HETATM   21  C17 UNL     1       5.299  -1.249  -1.325  1.00  0.00     0.013 C 
HETATM   22  C18 UNL     1       6.291  -0.588  -0.396  1.00  0.00     0.038 C 
HETATM   23  C19 UNL     1       5.691  -0.569   0.971  1.00  0.00     0.170 C 
HETATM   24  F2  UNL     1       6.630  -0.793   1.976  1.00  0.00    -0.249 F 
HETATM   25  C20 UNL     1       4.676  -1.691   0.930  1.00  0.00     0.047 C 
ENDBRANCH  17  20
ENDBRANCH   8  12
BRANCH   1  26
HETATM   26  C2  UNL     1      -4.729   0.207  -1.830  1.00  0.00     0.203 C 
HETATM   27  C1  UNL     1      -5.046  -1.193  -2.283  1.00  0.00     0.085 C 
HETATM   28  F1  UNL     1      -5.767   0.705  -1.061  1.00  0.00    -0.212 F 
BRANCH  26  29
HETATM   29  O1  UNL     1      -4.838   0.973  -3.032  1.00  0.00    -0.362 OA
ATOM     30  H1  UNL     1      -4.638   1.857  -2.746  1.00  0.00     0.213 HD
ENDBRANCH  26  29
ENDBRANCH   1  26
BRANCH  10  31
HETATM   31  C23 UNL     1      -3.319  -1.738   1.770  1.00  0.00     0.117 C 
HETATM   32 BR1  UNL     1      -3.535  -3.348   0.780  1.00  0.00    -0.094 Br
ENDBRANCH  10  31
TORSDOF 5
