REMARK  2 active torsions:
REMARK  status: ('A' for Active; 'I' for Inactive)
REMARK    1  A    between atoms: C2_2  and  C3_3 
REMARK    2  A    between atoms: C9_9  and  O1_11 
ROOT
HETATM    1  C3  UNL     1       1.598   0.081   0.499  1.00  0.00     0.012 C 
HETATM    2  C4  UNL     1       0.275   0.678   0.991  1.00  0.00     0.016 C 
HETATM    3  C5  UNL     1      -0.503   0.767  -0.287  1.00  0.00     0.025 C 
HETATM    4  C6  UNL     1      -0.154  -0.498  -1.077  1.00  0.00    -0.003 C 
HETATM    5  C7  UNL     1      -1.163  -1.524  -0.689  1.00  0.00     0.008 C 
HETATM    6  C8  UNL     1      -2.119  -0.832   0.290  1.00  0.00     0.038 C 
HETATM    7  C9  UNL     1      -1.983   0.597  -0.110  1.00  0.00     0.058 C 
HETATM    8  C10 UNL     1      -2.495   1.571   0.910  1.00  0.00     0.046 C 
HETATM    9  C11 UNL     1       1.242  -0.801  -0.666  1.00  0.00    -0.007 C 
HETATM   10  C12 UNL     1       1.511  -2.254  -0.411  1.00  0.00     0.011 C 
ENDROOT
BRANCH   7  11
HETATM   11  O1  UNL     1      -2.566   0.768  -1.363  1.00  0.00    -0.390 OA
ATOM     12  H1  UNL     1      -3.503   0.660  -1.251  1.00  0.00     0.210 HD
ENDBRANCH   7  11
BRANCH   1  13
HETATM   13  C2  UNL     1       2.450   1.226   0.075  1.00  0.00    -0.032 C 
HETATM   14  C1  UNL     1       3.662   1.423   0.560  1.00  0.00     0.007 C 
ENDBRANCH   1  13
TORSDOF 2
