REMARK  11 active torsions:
REMARK  status: ('A' for Active; 'I' for Inactive)
REMARK    1  A    between atoms: C1_2  and  C2_4 
REMARK    2  A    between atoms: C2_4  and  O3_5 
REMARK    3  A    between atoms: O3_5  and  C3_6 
REMARK    4  A    between atoms: C3_6  and  C4_7 
REMARK    5  A    between atoms: C4_7  and  C5_8 
REMARK    6  A    between atoms: N1_11  and  C8_12 
REMARK    7  A    between atoms: C8_12  and  C9_13 
REMARK    8  A    between atoms: C9_13  and  C10_14 
REMARK    9  A    between atoms: C10_14  and  S1_15 
REMARK   10  A    between atoms: S1_15  and  C11_16 
REMARK   11  A    between atoms: C12_19  and  C13_20 
ROOT
HETATM    1  C11 UNL     1      -3.608   0.125   0.796  1.00  0.00     0.081 A 
HETATM    2  N2  UNL     1      -4.367   1.205   0.452  1.00  0.00    -0.349 N 
ATOM      3  H2  UNL     1      -4.033   2.137   0.697  1.00  0.00     0.166 HD
HETATM    4  C12 UNL     1      -5.544   1.089  -0.201  1.00  0.00     0.044 A 
HETATM    5  C19 UNL     1      -5.944  -0.192  -0.505  1.00  0.00     0.042 A 
HETATM    6  C20 UNL     1      -5.207  -1.318  -0.175  1.00  0.00    -0.020 A 
HETATM    7  C21 UNL     1      -5.636  -2.591  -0.483  1.00  0.00     0.029 A 
HETATM    8  C22 UNL     1      -4.915  -3.718  -0.149  1.00  0.00     0.033 A 
HETATM    9  C23 UNL     1      -5.081  -5.076  -0.316  1.00  0.00     0.130 A 
HETATM   10 CL3  UNL     1      -6.426  -5.857  -1.102  1.00  0.00    -0.062 Cl
HETATM   11  N3  UNL     1      -4.037  -5.731   0.223  1.00  0.00    -0.289 N 
ATOM     12  H3  UNL     1      -3.896  -6.741   0.244  1.00  0.00     0.188 HD
HETATM   13  N4  UNL     1      -3.225  -4.807   0.723  1.00  0.00    -0.299 N 
ATOM     14  H4  UNL     1      -2.345  -5.009   1.198  1.00  0.00     0.187 HD
HETATM   15  C24 UNL     1      -3.712  -3.576   0.522  1.00  0.00     0.062 A 
HETATM   16  C25 UNL     1      -3.278  -2.287   0.834  1.00  0.00     0.047 A 
HETATM   17  C26 UNL     1      -4.005  -1.158   0.496  1.00  0.00     0.010 A 
ENDROOT
BRANCH   1  18
HETATM   18  S1  UNL     1      -2.069   0.363   1.664  1.00  0.00    -0.111 SA
BRANCH  18  19
HETATM   19  C10 UNL     1      -0.668   0.654   0.591  1.00  0.00     0.082 C 
BRANCH  19  20
HETATM   20  C9  UNL     1      -0.325  -0.544  -0.258  1.00  0.00     0.041 C 
BRANCH  20  21
HETATM   21  C8  UNL     1       0.838  -0.301  -1.158  1.00  0.00     0.273 C 
BRANCH  21  22
HETATM   22  N1  UNL     1       2.067   0.034  -0.537  1.00  0.00     0.088 N 
HETATM   23  C7  UNL     1       2.703  -0.983   0.226  1.00  0.00     0.272 C 
HETATM   24  C6  UNL     1       3.772  -0.279   1.076  1.00  0.00     0.035 C 
HETATM   25  C5  UNL     1       4.798   0.293   0.159  1.00  0.00    -0.009 C 
HETATM   26  C28 UNL     1       4.415   0.296  -1.281  1.00  0.00     0.035 C 
HETATM   27  C27 UNL     1       2.958   0.581  -1.516  1.00  0.00     0.272 C 
BRANCH  25  28
HETATM   28  C4  UNL     1       6.128  -0.344   0.425  1.00  0.00     0.031 C 
BRANCH  28  29
HETATM   29  C3  UNL     1       7.132   0.293  -0.554  1.00  0.00     0.168 C 
BRANCH  29  30
HETATM   30  O3  UNL     1       8.384  -0.214  -0.398  1.00  0.00    -0.381 OA
BRANCH  30  31
HETATM   31  C2  UNL     1       8.992  -0.101   0.815  1.00  0.00     0.280 C 
BRANCH  31  32
HETATM   32  C1  UNL     1       9.242   1.273   1.228  1.00  0.00     0.197 C 
HETATM   33  O1  UNL     1       8.970   2.241   0.489  1.00  0.00    -0.646 OA
HETATM   34  O2  UNL     1       9.803   1.593   2.476  1.00  0.00    -0.646 OA
ENDBRANCH  31  32
ENDBRANCH  30  31
ENDBRANCH  29  30
ENDBRANCH  28  29
ENDBRANCH  25  28
ENDBRANCH  21  22
ENDBRANCH  20  21
ENDBRANCH  19  20
ENDBRANCH  18  19
ENDBRANCH   1  18
BRANCH   4  35
HETATM   35  C13 UNL     1      -6.283   2.292  -0.527  1.00  0.00    -0.008 A 
HETATM   36  C14 UNL     1      -5.807   3.537  -0.188  1.00  0.00     0.015 A 
HETATM   37  C15 UNL     1      -6.502   4.699  -0.493  1.00  0.00     0.026 A 
HETATM   38  C16 UNL     1      -7.715   4.591  -1.161  1.00  0.00     0.055 A 
HETATM   39 CL1  UNL     1      -8.601   6.050  -1.551  1.00  0.00    -0.083 Cl
HETATM   40  C17 UNL     1      -8.206   3.358  -1.508  1.00  0.00     0.056 A 
HETATM   41 CL2  UNL     1      -9.745   3.250  -2.353  1.00  0.00    -0.083 Cl
HETATM   42  C18 UNL     1      -7.479   2.200  -1.185  1.00  0.00     0.039 A 
ENDBRANCH   4  35
TORSDOF 11
