REMARK  7 active torsions:
REMARK  status: ('A' for Active; 'I' for Inactive)
REMARK    1  A    between atoms: C2_2  and  S1_5 
REMARK    2  A    between atoms: S1_5  and  C5_8 
REMARK    3  A    between atoms: C5_8  and  C6_9 
REMARK    4  A    between atoms: C6_9  and  C7_10 
REMARK    5  A    between atoms: C7_10  and  N1_11 
REMARK    6  A    between atoms: C11_20  and  C12_21 
REMARK    7  A    between atoms: C14_25  and  C15_26 
ROOT
HETATM    1  N1  UNL     1      -0.313  -0.928   0.756  1.00  0.00    -0.241 NA
HETATM    2  S2  UNL     1       0.286  -2.618   0.653  1.00  0.00    -0.026 SA
HETATM    3  C8  UNL     1      -0.904  -3.296   1.832  1.00  0.00     0.075 C 
HETATM    4  N2  UNL     1      -0.718  -4.270   2.608  1.00  0.00    -0.395 N 
ATOM      5  H21 UNL     1      -1.390  -4.653   3.273  1.00  0.00     0.156 HD
ATOM      6  H22 UNL     1       0.078  -4.887   2.769  1.00  0.00     0.156 HD
HETATM    7  C9  UNL     1      -2.063  -2.397   1.597  1.00  0.00     0.174 C 
HETATM    8  C10 UNL     1      -2.938  -2.956   0.577  1.00  0.00     0.072 C 
HETATM    9  N3  UNL     1      -3.639  -3.425  -0.232  1.00  0.00    -0.196 NA
HETATM   10  C11 UNL     1      -1.632  -1.043   1.327  1.00  0.00     0.145 C 
ENDROOT
BRANCH  10  11
HETATM   11  C12 UNL     1      -2.575  -0.382   0.372  1.00  0.00     0.046 A 
HETATM   12  C13 UNL     1      -2.597  -0.490  -1.004  1.00  0.00     0.116 A 
HETATM   13  N4  UNL     1      -3.619   0.274  -1.463  1.00  0.00    -0.353 N 
HETATM   14  C14 UNL     1      -4.230   0.852  -0.407  1.00  0.00     0.085 A 
ATOM     15  H4  UNL     1      -3.882   0.392  -2.441  1.00  0.00     0.166 HD
HETATM   16  N5  UNL     1      -3.579   0.438   0.690  1.00  0.00    -0.346 N 
ATOM     17  H5  UNL     1      -3.820   0.714   1.642  1.00  0.00     0.167 HD
BRANCH  14  18
HETATM   18  C15 UNL     1      -5.392   1.755  -0.541  1.00  0.00     0.053 A 
HETATM   19  C16 UNL     1      -6.564   1.294  -1.405  1.00  0.00     0.013 A 
HETATM   20  C17 UNL     1      -5.687   2.465  -1.789  1.00  0.00     0.013 A 
ENDBRANCH  14  18
ENDBRANCH  10  11
BRANCH   1  21
HETATM   21  C7  UNL     1       0.505  -0.274   1.746  1.00  0.00     0.105 C 
BRANCH  21  22
HETATM   22  C6  UNL     1       1.862   0.145   1.344  1.00  0.00     0.030 C 
BRANCH  22  23
HETATM   23  C5  UNL     1       2.801  -0.894   0.872  1.00  0.00     0.142 C 
BRANCH  23  24
HETATM   24  S1  UNL     1       4.419  -0.267   0.490  1.00  0.00     0.152 S 
HETATM   25  O1  UNL     1       5.221  -1.453  -0.029  1.00  0.00    -0.227 OA
HETATM   26  O2  UNL     1       5.143   0.192   1.729  1.00  0.00    -0.227 OA
BRANCH  24  27
HETATM   27  C2  UNL     1       4.435   0.951  -0.767  1.00  0.00     0.053 C 
HETATM   28  C1  UNL     1       3.860   0.374  -2.041  1.00  0.00     0.031 C 
HETATM   29  C3  UNL     1       5.901   1.284  -1.109  1.00  0.00     0.031 C 
HETATM   30  C4  UNL     1       3.807   2.264  -0.371  1.00  0.00     0.031 C 
ENDBRANCH  24  27
ENDBRANCH  23  24
ENDBRANCH  22  23
ENDBRANCH  21  22
ENDBRANCH   1  21
TORSDOF 7
