REMARK  6 active torsions:
REMARK  status: ('A' for Active; 'I' for Inactive)
REMARK    1  A    between atoms: O1_2  and  C2_3 
REMARK    2  A    between atoms: C4_6  and  C5_7 
REMARK    3  A    between atoms: C5_7  and  O2_9 
REMARK    4  A    between atoms: C8_13  and  C9_14 
REMARK    5  A    between atoms: C9_14  and  N1_16 
REMARK    6  A    between atoms: C12_21  and  N3_22 
ROOT
HETATM    1  N1  UNL     1      -1.333   0.209   0.328  1.00  0.00    -0.366 N 
ATOM      2  H1  UNL     1      -0.942   1.034  -0.127  1.00  0.00     0.161 HD
HETATM    3  C11 UNL     1      -2.472   0.052  -0.090  1.00  0.00     0.141 A 
HETATM    4  N2  UNL     1      -2.939   1.001  -1.019  1.00  0.00    -0.175 N 
ATOM      5  H2  UNL     1      -2.321   1.753  -1.324  1.00  0.00     0.186 HD
HETATM    6  C12 UNL     1      -4.163   0.930  -1.500  1.00  0.00     0.678 A 
HETATM    7  N4  UNL     1      -5.029  -0.047  -1.142  1.00  0.00    -0.177 N 
ATOM      8  H4  UNL     1      -5.968  -0.072  -1.539  1.00  0.00     0.185 HD
HETATM    9  C13 UNL     1      -4.644  -0.976  -0.267  1.00  0.00     0.156 A 
HETATM   10  N5  UNL     1      -5.508  -2.042   0.133  1.00  0.00    -0.080 NA
HETATM   11  C14 UNL     1      -3.348  -0.925   0.266  1.00  0.00     0.130 A 
HETATM   12  C15 UNL     1      -3.013  -1.966   1.240  1.00  0.00     0.107 C 
HETATM   13  N6  UNL     1      -2.756  -2.818   1.988  1.00  0.00    -0.191 NA
ENDROOT
BRANCH   1  14
HETATM   14  C9  UNL     1      -0.371  -0.304   1.182  1.00  0.00     0.116 C 
HETATM   15  C10 UNL     1      -0.645   0.447   2.564  1.00  0.00     0.037 C 
BRANCH  14  16
HETATM   16  C8  UNL     1       1.056   0.013   0.849  1.00  0.00     0.011 A 
HETATM   17  C7  UNL     1       1.936  -1.003   0.467  1.00  0.00     0.059 A 
HETATM   18  C4  UNL     1       3.242  -0.829   0.119  1.00  0.00     0.056 A 
HETATM   19 CL1  UNL     1       1.364  -2.681   0.423  1.00  0.00    -0.083 Cl
HETATM   20  C3  UNL     1       3.740   0.498   0.138  1.00  0.00     0.165 A 
HETATM   21  C2  UNL     1       2.904   1.521   0.499  1.00  0.00     0.130 A 
HETATM   22  F1  UNL     1       5.044   0.660  -0.224  1.00  0.00    -0.202 F 
HETATM   23  C16 UNL     1       1.604   1.272   0.844  1.00  0.00     0.080 A 
HETATM   24 CL2  UNL     1       0.582   2.632   1.260  1.00  0.00    -0.081 Cl
BRANCH  18  25
HETATM   25  C5  UNL     1       4.166  -1.913  -0.124  1.00  0.00     0.054 C 
HETATM   26  C6  UNL     1       4.613  -2.492  -1.385  1.00  0.00     0.077 C 
BRANCH  25  27
HETATM   27  O2  UNL     1       4.705  -2.483   0.919  1.00  0.00    -0.364 OA
ATOM     28  H2  UNL     1       5.312  -3.196   0.759  1.00  0.00     0.217 HD
ENDBRANCH  25  27
ENDBRANCH  18  25
BRANCH  21  29
HETATM   29  O1  UNL     1       3.466   2.813   0.491  1.00  0.00    -0.351 OA
HETATM   30  C1  UNL     1       3.552   3.576  -0.693  1.00  0.00     0.210 C 
ENDBRANCH  21  29
ENDBRANCH  14  16
ENDBRANCH   1  14
BRANCH   6  31
HETATM   31  N3  UNL     1      -4.621   1.844  -2.306  1.00  0.00    -0.234 N 
ATOM     32  H32 UNL     1      -3.969   2.580  -2.576  1.00  0.00     0.174 HD
ATOM     33  H31 UNL     1      -5.569   1.789  -2.679  1.00  0.00     0.174 HD
ENDBRANCH   6  31
TORSDOF 6
