REMARK  7 active torsions:
REMARK  status: ('A' for Active; 'I' for Inactive)
REMARK    1  A    between atoms: C2_2  and  C3_3 
REMARK    2  A    between atoms: C3_3  and  C4_4 
REMARK    3  A    between atoms: C4_4  and  C5_5 
REMARK    4  A    between atoms: C5_5  and  C6_6 
REMARK    5  A    between atoms: C9_10  and  N1_11 
REMARK    6  A    between atoms: C12_16  and  N3_17 
REMARK    7  A    between atoms: C16_27  and  O1_28 
ROOT
HETATM    1  N1  UNL     1      -1.747   0.993  -0.619  1.00  0.00    -0.322 N 
HETATM    2  C10 UNL     1      -1.976   2.312  -0.888  1.00  0.00     0.185 A 
HETATM    3  N2  UNL     1      -3.275   2.576  -0.880  1.00  0.00    -0.346 N 
ATOM      4  H2  UNL     1      -3.716   3.480  -1.050  1.00  0.00     0.167 HD
HETATM    5  C11 UNL     1      -3.896   1.416  -0.603  1.00  0.00     0.122 A 
HETATM    6  C12 UNL     1      -5.227   1.092  -0.468  1.00  0.00     0.131 A 
HETATM    7  N4  UNL     1      -5.577  -0.173  -0.182  1.00  0.00    -0.337 N 
ATOM      8  H4  UNL     1      -6.561  -0.422  -0.080  1.00  0.00     0.168 HD
HETATM    9  C13 UNL     1      -4.622  -1.112  -0.030  1.00  0.00     0.183 A 
HETATM   10  N5  UNL     1      -3.310  -0.813  -0.158  1.00  0.00    -0.336 N 
ATOM     11  H5  UNL     1      -2.605  -1.541  -0.038  1.00  0.00     0.168 HD
HETATM   12  C14 UNL     1      -2.941   0.433  -0.441  1.00  0.00     0.140 A 
ENDROOT
BRANCH   1  13
HETATM   13  C9  UNL     1      -0.418   0.401  -0.559  1.00  0.00     0.095 C 
HETATM   14  C8  UNL     1       0.206   0.625   0.770  1.00  0.00     0.027 C 
HETATM   15  C7  UNL     1       0.914  -0.541   1.353  1.00  0.00     0.015 C 
HETATM   16  C5  UNL     1       1.697  -1.372   0.389  1.00  0.00    -0.002 C 
HETATM   17  C16 UNL     1       1.012  -1.528  -0.948  1.00  0.00     0.129 C 
HETATM   18  C15 UNL     1      -0.454  -1.083  -0.847  1.00  0.00     0.058 C 
BRANCH  16  19
HETATM   19  C4  UNL     1       3.137  -0.980   0.266  1.00  0.00     0.039 C 
BRANCH  19  20
HETATM   20  C3  UNL     1       3.382   0.338  -0.297  1.00  0.00    -0.030 C 
BRANCH  20  21
HETATM   21  C2  UNL     1       4.022   1.314   0.340  1.00  0.00    -0.035 C 
HETATM   22  C1  UNL     1       4.283   2.645  -0.200  1.00  0.00     0.036 C 
ENDBRANCH  20  21
ENDBRANCH  19  20
ENDBRANCH  16  19
BRANCH  16  23
HETATM   23  C6  UNL     1       1.732  -2.785   1.002  1.00  0.00     0.097 C 
HETATM   24 BR1  UNL     1       2.610  -2.736   2.729  1.00  0.00    -0.096 Br
ENDBRANCH  16  23
BRANCH  17  25
HETATM   25  O1  UNL     1       0.972  -2.854  -1.376  1.00  0.00    -0.395 OA
ATOM     26  H1  UNL     1       0.541  -2.952  -2.217  1.00  0.00     0.210 HD
ENDBRANCH  17  25
ENDBRANCH   1  13
BRANCH   6  27
HETATM   27  N3  UNL     1      -6.120   2.003  -0.617  1.00  0.00    -0.383 N 
ATOM     28  H32 UNL     1      -5.854   2.964  -0.834  1.00  0.00     0.157 HD
ATOM     29  H31 UNL     1      -7.106   1.763  -0.517  1.00  0.00     0.157 HD
ENDBRANCH   6  27
TORSDOF 7
