REMARK  8 active torsions:
REMARK  status: ('A' for Active; 'I' for Inactive)
REMARK    1  A    between atoms: N1_2  and  C2_5 
REMARK    2  A    between atoms: N2_9  and  C5_10 
REMARK    3  A    between atoms: C6_13  and  N4_14 
REMARK    4  A    between atoms: N4_14  and  C7_16 
REMARK    5  A    between atoms: C7_16  and  C9_18 
REMARK    6  A    between atoms: C9_18  and  O1_19 
REMARK    7  A    between atoms: N5_21  and  O2_23 
REMARK    8  A    between atoms: C10_25  and  C11_26 
ROOT
HETATM    1  C5  UNL     1       1.022  -0.448  -0.187  1.00  0.00     0.128 A 
HETATM    2  N3  UNL     1      -0.079   0.298  -0.029  1.00  0.00    -0.326 N 
ATOM      3  H3  UNL     1       0.014   1.310   0.053  1.00  0.00     0.169 HD
HETATM    4  C6  UNL     1      -1.299  -0.252   0.024  1.00  0.00     0.127 A 
HETATM    5  C10 UNL     1      -1.444  -1.647  -0.086  1.00  0.00     0.061 A 
HETATM    6  N6  UNL     1      -0.327  -2.357  -0.243  1.00  0.00    -0.357 N 
ATOM      7  H6  UNL     1      -0.409  -3.370  -0.326  1.00  0.00     0.166 HD
HETATM    8  C15 UNL     1       0.906  -1.811  -0.298  1.00  0.00     0.050 A 
HETATM    9  C16 UNL     1       2.104  -2.637  -0.475  1.00  0.00     0.072 C 
ENDROOT
BRANCH   4  10
HETATM   10  N4  UNL     1      -2.335   0.397   0.171  1.00  0.00    -0.363 N 
ATOM     11  H4  UNL     1      -3.156  -0.208   0.184  1.00  0.00     0.162 HD
BRANCH  10  12
HETATM   12  C7  UNL     1      -2.686   1.734   0.324  1.00  0.00     0.155 C 
HETATM   13  C8  UNL     1      -1.809   2.653   1.100  1.00  0.00     0.041 C 
BRANCH  12  14
HETATM   14  C9  UNL     1      -4.081   1.890   0.890  1.00  0.00     0.158 C 
HETATM   15  N5  UNL     1      -4.249   2.396   2.053  1.00  0.00    -0.249 N 
ATOM     16  H5  UNL     1      -3.421   2.686   2.574  1.00  0.00     0.196 HD
BRANCH  14  17
HETATM   17  O1  UNL     1      -5.142   1.470   0.112  1.00  0.00    -0.347 OA
ATOM     18  H1  UNL     1      -6.018   1.568   0.467  1.00  0.00     0.219 HD
ENDBRANCH  14  17
BRANCH  15  19
HETATM   19  O2  UNL     1      -5.458   2.570   2.634  1.00  0.00    -0.288 OA
ATOM     20  H2  UNL     1      -5.583   2.946   3.498  1.00  0.00     0.244 HD
ENDBRANCH  15  19
ENDBRANCH  12  14
ENDBRANCH  10  12
ENDBRANCH   4  10
BRANCH   5  21
HETATM   21  C11 UNL     1      -2.778  -2.231  -0.010  1.00  0.00    -0.005 C 
HETATM   22  C12 UNL     1      -3.767  -1.796  -1.028  1.00  0.00     0.021 C 
HETATM   23  C13 UNL     1      -3.333  -2.173   1.420  1.00  0.00     0.021 C 
HETATM   24  C14 UNL     1      -2.591  -3.752  -0.238  1.00  0.00     0.021 C 
ENDBRANCH   5  21
BRANCH   1  25
HETATM   25  N2  UNL     1       2.302   0.234  -0.202  1.00  0.00    -0.346 N 
HETATM   26  C4  UNL     1       3.247   0.225   0.884  1.00  0.00     0.185 C 
HETATM   27  C3  UNL     1       4.596   0.298   0.160  1.00  0.00     0.076 C 
HETATM   28 CL1  UNL     1       3.049   1.665   1.883  1.00  0.00    -0.102 Cl
HETATM   29  C2  UNL     1       4.307   0.968  -1.141  1.00  0.00     0.206 C 
HETATM   30  C17 UNL     1       2.824   1.045  -1.260  1.00  0.00     0.159 C 
BRANCH  29  31
HETATM   31  N1  UNL     1       4.951   2.246  -1.290  1.00  0.00    -0.073 N 
HETATM   32  C1  UNL     1       6.372   2.127  -1.300  1.00  0.00     0.267 C 
ATOM     33  H12 UNL     1       4.639   2.904  -0.576  1.00  0.00     0.277 HD
ATOM     34  H11 UNL     1       4.614   2.737  -2.118  1.00  0.00     0.277 HD
ENDBRANCH  29  31
ENDBRANCH   1  25
TORSDOF 8
