REMARK  5 active torsions:
REMARK  status: ('A' for Active; 'I' for Inactive)
REMARK    1  A    between atoms: C2_2  and  O1_4 
REMARK    2  A    between atoms: O1_4  and  C4_5 
REMARK    3  A    between atoms: C7_8  and  N1_9 
REMARK    4  A    between atoms: N1_9  and  C8_11 
REMARK    5  A    between atoms: C14_28  and  N6_29 
ROOT
HETATM    1  C8  UNL     1       0.680  -0.177  -0.732  1.00  0.00     0.120 A 
HETATM    2  N2  UNL     1       0.054  -1.115  -1.467  1.00  0.00    -0.318 N 
ATOM      3  H2  UNL     1      -0.829  -0.867  -1.913  1.00  0.00     0.170 HD
HETATM    4  C9  UNL     1       0.528  -2.362  -1.646  1.00  0.00     0.182 A 
HETATM    5 CL1  UNL     1      -0.374  -3.528  -2.636  1.00  0.00    -0.045 Cl
HETATM    6  N3  UNL     1       1.677  -2.699  -1.069  1.00  0.00    -0.318 N 
ATOM      7  H3  UNL     1       2.040  -3.643  -1.200  1.00  0.00     0.170 HD
HETATM    8  C10 UNL     1       2.382  -1.819  -0.308  1.00  0.00     0.125 A 
HETATM    9  N4  UNL     1       3.543  -2.250   0.241  1.00  0.00    -0.326 N 
ATOM     10  H4  UNL     1       3.852  -3.207   0.071  1.00  0.00     0.169 HD
HETATM   11  C11 UNL     1       4.307  -1.427   1.017  1.00  0.00     0.130 A 
HETATM   12  N5  UNL     1       5.446  -1.739   1.596  1.00  0.00    -0.302 N 
ATOM     13  H5  UNL     1       5.848  -2.670   1.491  1.00  0.00     0.171 HD
HETATM   14  C12 UNL     1       6.060  -0.808   2.322  1.00  0.00     0.290 A 
HETATM   15  O2  UNL     1       7.170  -0.931   2.955  1.00  0.00    -0.260 OA
HETATM   16  S1  UNL     1       5.024   0.540   2.195  1.00  0.00    -0.023 SA
HETATM   17  C13 UNL     1       3.829  -0.163   1.200  1.00  0.00     0.081 A 
HETATM   18  C14 UNL     1       2.627   0.291   0.635  1.00  0.00     0.065 A 
HETATM   19  C15 UNL     1       1.882  -0.576  -0.146  1.00  0.00     0.080 A 
ENDROOT
BRANCH   1  20
HETATM   20  N1  UNL     1       0.273   0.991  -0.542  1.00  0.00    -0.368 N 
ATOM     21  H1  UNL     1       0.964   1.447   0.053  1.00  0.00     0.161 HD
BRANCH  20  22
HETATM   22  C7  UNL     1      -0.698   1.914  -0.790  1.00  0.00     0.112 C 
HETATM   23  C4  UNL     1      -2.100   1.770  -0.236  1.00  0.00     0.144 C 
HETATM   24  C5  UNL     1      -2.519   2.711  -1.377  1.00  0.00     0.036 C 
HETATM   25  C6  UNL     1      -1.338   2.085  -2.146  1.00  0.00     0.030 C 
BRANCH  23  26
HETATM   26  O1  UNL     1      -2.727   0.568  -0.365  1.00  0.00    -0.379 OA
BRANCH  26  27
HETATM   27  C2  UNL     1      -3.402   0.227   0.802  1.00  0.00     0.114 C 
HETATM   28  C1  UNL     1      -2.951  -1.110   1.353  1.00  0.00     0.039 C 
HETATM   29  C3  UNL     1      -4.885   0.111   0.439  1.00  0.00     0.039 C 
ENDBRANCH  26  27
ENDBRANCH  23  26
ENDBRANCH  20  22
ENDBRANCH   1  20
BRANCH  18  30
HETATM   30  N6  UNL     1       2.238   1.469   0.840  1.00  0.00    -0.397 N 
ATOM     31  H62 UNL     1       2.787   2.108   1.415  1.00  0.00     0.156 HD
ATOM     32  H61 UNL     1       1.365   1.799   0.429  1.00  0.00     0.156 HD
ENDBRANCH  18  30
TORSDOF 5
