REMARK  6 active torsions:
REMARK  status: ('A' for Active; 'I' for Inactive)
REMARK    1  A    between atoms: O1_2  and  C2_3 
REMARK    2  A    between atoms: C2_3  and  C3_5 
REMARK    3  A    between atoms: C6_9  and  C7_10 
REMARK    4  A    between atoms: C8_11  and  C9_12 
REMARK    5  A    between atoms: C12_16  and  O3_17 
REMARK    6  A    between atoms: C13_19  and  O4_20 
ROOT
HETATM    1  C3  UNL     1      -2.540   0.410  -0.116  1.00  0.00     0.078 A 
HETATM    2  C4  UNL     1      -1.867   1.481  -0.728  1.00  0.00     0.063 A 
HETATM    3  C5  UNL     1      -0.507   1.558  -0.782  1.00  0.00     0.130 A 
HETATM    4  F1  UNL     1       0.142   2.593  -1.373  1.00  0.00    -0.205 F 
HETATM    5  C6  UNL     1       0.300   0.553  -0.216  1.00  0.00     0.038 A 
HETATM    6  C12 UNL     1      -0.369  -0.471   0.369  1.00  0.00     0.113 A 
HETATM    7  C13 UNL     1      -1.754  -0.564   0.432  1.00  0.00     0.116 A 
ENDROOT
BRANCH   5   8
HETATM    8  C7  UNL     1       1.744   0.692  -0.305  1.00  0.00     0.017 C 
HETATM    9  C8  UNL     1       2.657  -0.112   0.146  1.00  0.00     0.002 C 
BRANCH   9  10
HETATM   10  C9  UNL     1       4.080   0.267  -0.079  1.00  0.00     0.019 C 
HETATM   11  C10 UNL     1       5.040  -0.519   0.360  1.00  0.00     0.008 C 
HETATM   12  C11 UNL     1       6.444  -0.123   0.126  1.00  0.00     0.062 C 
HETATM   13 CL1  UNL     1       4.635  -2.003   1.206  1.00  0.00    -0.089 Cl
ENDBRANCH   9  10
ENDBRANCH   5   8
BRANCH   6  14
HETATM   14  O3  UNL     1       0.346  -1.511   0.955  1.00  0.00    -0.357 OA
ATOM     15  H3  UNL     1      -0.123  -2.228   1.365  1.00  0.00     0.217 HD
ENDBRANCH   6  14
BRANCH   7  16
HETATM   16  O4  UNL     1      -2.314  -1.664   1.060  1.00  0.00    -0.357 OA
ATOM     17  H4  UNL     1      -1.767  -2.341   1.441  1.00  0.00     0.217 HD
ENDBRANCH   7  16
BRANCH   1  18
HETATM   18  C2  UNL     1      -3.995   0.415  -0.109  1.00  0.00     0.295 C 
HETATM   19  O2  UNL     1      -4.560   1.421  -0.676  1.00  0.00    -0.259 OA
BRANCH  18  20
HETATM   20  O1  UNL     1      -4.843  -0.507   0.420  1.00  0.00    -0.322 OA
HETATM   21  C1  UNL     1      -6.253  -0.413   0.376  1.00  0.00     0.213 C 
ENDBRANCH  18  20
ENDBRANCH   1  18
TORSDOF 6
