REMARK  4 active torsions:
REMARK  status: ('A' for Active; 'I' for Inactive)
REMARK    1  A    between atoms: C2_2  and  N1_4 
REMARK    2  A    between atoms: C2_2  and  C11_20 
REMARK    3  A    between atoms: N1_4  and  S1_6 
REMARK    4  A    between atoms: S1_6  and  C4_9 
ROOT
HETATM    1  S1  UNL     1       0.257  -1.041  -0.686  1.00  0.00     0.260 S 
HETATM    2  O1  UNL     1      -0.636  -2.027   0.071  1.00  0.00    -0.200 OA
HETATM    3  O2  UNL     1       0.668  -1.869  -1.863  1.00  0.00    -0.200 OA
ENDROOT
BRANCH   1   4
HETATM    4  N1  UNL     1      -0.765   0.279  -1.047  1.00  0.00    -0.302 N 
ATOM      5  H1  UNL     1      -0.450   1.089  -1.580  1.00  0.00     0.173 HD
BRANCH   4   6
HETATM    6  C2  UNL     1      -2.104   0.157  -0.540  1.00  0.00     0.082 C 
HETATM    7  C1  UNL     1      -2.207   0.039   0.940  1.00  0.00     0.043 C 
HETATM    8  C3  UNL     1      -2.871  -0.970  -1.186  1.00  0.00     0.043 C 
BRANCH   6   9
HETATM    9  C11 UNL     1      -2.817   1.452  -0.943  1.00  0.00     0.213 C 
HETATM   10 CL2  UNL     1      -2.013   2.834  -0.138  1.00  0.00    -0.081 Cl
HETATM   11 CL3  UNL     1      -4.514   1.415  -0.435  1.00  0.00    -0.081 Cl
HETATM   12 CL4  UNL     1      -2.705   1.729  -2.690  1.00  0.00    -0.081 Cl
ENDBRANCH   6   9
ENDBRANCH   4   6
ENDBRANCH   1   4
BRANCH   1  13
HETATM   13  C4  UNL     1       1.552  -0.607   0.379  1.00  0.00     0.094 A 
HETATM   14  C5  UNL     1       1.576  -1.110   1.666  1.00  0.00     0.026 A 
HETATM   15  C6  UNL     1       2.523  -0.805   2.613  1.00  0.00     0.004 A 
HETATM   16  C7  UNL     1       3.519   0.063   2.252  1.00  0.00     0.031 A 
HETATM   17  C8  UNL     1       3.539   0.604   0.946  1.00  0.00     0.052 A 
HETATM   18  N2  UNL     1       4.503   1.447   0.550  1.00  0.00    -0.324 N 
HETATM   19  C10 UNL     1       2.587   0.285   0.025  1.00  0.00     0.044 A 
HETATM   20  S2  UNL     1       4.139   1.808  -1.042  1.00  0.00    -0.001 SA
ATOM     21  H2  UNL     1       5.289   1.793   1.101  1.00  0.00     0.174 HD
HETATM   22  C9  UNL     1       2.734   0.866  -1.200  1.00  0.00     0.105 A 
HETATM   23 CL1  UNL     1       1.873   0.806  -2.702  1.00  0.00    -0.074 Cl
ENDBRANCH   1  13
TORSDOF 4
