REMARK  6 active torsions:
REMARK  status: ('A' for Active; 'I' for Inactive)
REMARK    1  A    between atoms: C2_2  and  C3_3 
REMARK    2  A    between atoms: C3_3  and  C4_4 
REMARK    3  A    between atoms: C7_7  and  C8_8 
REMARK    4  A    between atoms: C8_8  and  N1_9 
REMARK    5  A    between atoms: N1_9  and  C9_12 
REMARK    6  A    between atoms: C9_12  and  C10_13 
ROOT
HETATM    1  N1  UNL     1       0.989  -0.027  -0.919  1.00  0.00    -0.071 N 
ATOM      2  H11 UNL     1       0.359  -0.822  -0.813  1.00  0.00     0.277 HD
ATOM      3  H12 UNL     1       1.463  -0.118  -0.020  1.00  0.00     0.277 HD
ENDROOT
BRANCH   1   4
HETATM    4  C8  UNL     1       0.304   1.218  -1.071  1.00  0.00     0.237 C 
BRANCH   4   5
HETATM    5  C7  UNL     1      -0.671   1.511   0.030  1.00  0.00     0.011 C 
HETATM    6  C6  UNL     1      -0.014   1.576   1.391  1.00  0.00     0.007 C 
HETATM    7  C5  UNL     1      -1.243   1.614   2.293  1.00  0.00     0.005 C 
HETATM    8  C4  UNL     1      -2.334   0.895   1.541  1.00  0.00    -0.011 C 
HETATM    9  C16 UNL     1      -1.676   0.412   0.240  1.00  0.00     0.011 C 
BRANCH   8  10
HETATM   10  C3  UNL     1      -3.495   1.727   1.152  1.00  0.00     0.031 C 
BRANCH  10  11
HETATM   11  C2  UNL     1      -4.273   2.358   2.214  1.00  0.00    -0.037 C 
HETATM   12  C1  UNL     1      -4.050   2.157   3.487  1.00  0.00     0.007 C 
ENDBRANCH  10  11
ENDBRANCH   8  10
ENDBRANCH   4   5
ENDBRANCH   1   4
BRANCH   1  13
HETATM   13  C9  UNL     1       1.894  -0.155  -2.065  1.00  0.00     0.270 C 
BRANCH  13  14
HETATM   14  C10 UNL     1       2.651  -1.435  -1.973  1.00  0.00    -0.033 A 
HETATM   15  C11 UNL     1       3.516  -1.816  -2.978  1.00  0.00     0.009 A 
HETATM   16  C12 UNL     1       4.233  -2.985  -2.934  1.00  0.00     0.001 A 
HETATM   17  C13 UNL     1       4.110  -3.840  -1.856  1.00  0.00     0.000 A 
HETATM   18  C14 UNL     1       3.250  -3.474  -0.843  1.00  0.00     0.001 A 
HETATM   19  C15 UNL     1       2.535  -2.294  -0.902  1.00  0.00     0.009 A 
ENDBRANCH  13  14
ENDBRANCH   1  13
TORSDOF 6
