REMARK  8 active torsions:
REMARK  status: ('A' for Active; 'I' for Inactive)
REMARK    1  A    between atoms: O1_2  and  C2_3 
REMARK    2  A    between atoms: C7_14  and  C8_15 
REMARK    3  A    between atoms: C7_14  and  N6_28 
REMARK    4  A    between atoms: C8_15  and  O3_16 
REMARK    5  A    between atoms: O3_16  and  C9_17 
REMARK    6  A    between atoms: C11_22  and  O4_23 
REMARK    7  A    between atoms: C12_25  and  O5_26 
REMARK    8  A    between atoms: N6_28  and  N7_30 
ROOT
HETATM    1  C2  UNL     1      -2.280  -0.190  -0.186  1.00  0.00     0.235 A 
HETATM    2  C3  UNL     1      -3.018  -0.962   0.754  1.00  0.00     0.089 A 
HETATM    3  N1  UNL     1      -2.609  -2.209   1.413  1.00  0.00    -0.102 NA
HETATM    4  C4  UNL     1      -4.195  -0.434   1.035  1.00  0.00     0.102 A 
HETATM    5  C5  UNL     1      -4.320   0.804   0.291  1.00  0.00     0.254 A 
HETATM    6  O2  UNL     1      -5.336   1.599   0.279  1.00  0.00    -0.268 OA
HETATM    7  N2  UNL     1      -3.156   1.016  -0.427  1.00  0.00    -0.245 N 
HETATM    8  C6  UNL     1      -2.346   1.884  -1.241  1.00  0.00     0.198 C 
HETATM    9  N3  UNL     1      -2.834   2.806  -2.174  1.00  0.00    -0.063 NA
HETATM   10  N4  UNL     1      -1.096   1.658  -0.943  1.00  0.00    -0.330 N 
ATOM     11  H4  UNL     1      -0.286   2.123  -1.353  1.00  0.00     0.165 HD
HETATM   12  C7  UNL     1      -1.062   0.578   0.124  1.00  0.00     0.198 C 
ENDROOT
BRANCH  12  13
HETATM   13  C8  UNL     1       0.193  -0.181  -0.156  1.00  0.00     0.231 C 
BRANCH  13  14
HETATM   14  O3  UNL     1       1.329   0.643  -0.003  1.00  0.00    -0.353 OA
BRANCH  14  15
HETATM   15  C9  UNL     1       2.446  -0.135  -0.280  1.00  0.00     0.352 C 
HETATM   16  N5  UNL     1       3.285   0.437  -1.295  1.00  0.00    -0.044 N 
HETATM   17  C10 UNL     1       4.477  -0.416  -1.208  1.00  0.00     0.269 C 
ATOM     18  H52 UNL     1       2.864   0.502  -2.222  1.00  0.00     0.280 HD
ATOM     19  H51 UNL     1       3.459   1.438  -1.202  1.00  0.00     0.280 HD
HETATM   20  C11 UNL     1       4.707  -0.453   0.289  1.00  0.00     0.176 C 
HETATM   21  C12 UNL     1       3.391  -0.142   0.929  1.00  0.00     0.205 C 
BRANCH  20  22
HETATM   22  O4  UNL     1       5.659   0.510   0.620  1.00  0.00    -0.391 OA
ATOM     23  H4  UNL     1       5.803   0.487   1.559  1.00  0.00     0.210 HD
ENDBRANCH  20  22
BRANCH  21  24
HETATM   24  O5  UNL     1       3.318   1.106   1.500  1.00  0.00    -0.389 OA
ATOM     25  H5  UNL     1       3.903   1.102   2.248  1.00  0.00     0.210 HD
ENDBRANCH  21  24
ENDBRANCH  14  15
ENDBRANCH  13  14
ENDBRANCH  12  13
BRANCH  12  26
HETATM   26  N6  UNL     1      -1.082   1.294   1.353  1.00  0.00    -0.307 N 
ATOM     27  H6  UNL     1      -0.977   2.308   1.376  1.00  0.00     0.182 HD
BRANCH  26  28
HETATM   28  N7  UNL     1      -1.247   0.573   2.502  1.00  0.00    -0.347 N 
ATOM     29  H72 UNL     1      -1.351  -0.441   2.463  1.00  0.00     0.176 HD
ATOM     30  H71 UNL     1      -1.261   1.086   3.383  1.00  0.00     0.176 HD
ENDBRANCH  26  28
ENDBRANCH  12  26
BRANCH   1  31
HETATM   31  O1  UNL     1      -2.279  -0.763  -1.481  1.00  0.00    -0.356 OA
HETATM   32  C1  UNL     1      -1.931  -2.061  -1.576  1.00  0.00     0.205 C 
ENDBRANCH   1  31
TORSDOF 8
