REMARK  8 active torsions:
REMARK  status: ('A' for Active; 'I' for Inactive)
REMARK    1  A    between atoms: C1_2  and  C2_4 
REMARK    2  A    between atoms: C3_5  and  O3_6 
REMARK    3  A    between atoms: O3_6  and  S1_7 
REMARK    4  A    between atoms: C5_12  and  O7_13 
REMARK    5  A    between atoms: C5_12  and  C6_15 
REMARK    6  A    between atoms: C7_18  and  O10_19 
REMARK    7  A    between atoms: C8_21  and  O11_22 
REMARK    8  A    between atoms: C8_21  and  O12_24 
ROOT
HETATM    1  C2  UNL     1       0.887  -1.349   0.260  1.00  0.00     0.141 C 
HETATM    2  C3  UNL     1       1.011  -0.407  -0.659  1.00  0.00     0.106 C 
HETATM    3  C4  UNL     1      -0.022   0.419  -1.271  1.00  0.00     0.121 C 
HETATM    4  C5  UNL     1      -1.108   0.867  -0.303  1.00  0.00     0.184 C 
HETATM    5  C7  UNL     1      -1.994  -0.287   0.105  1.00  0.00     0.248 C 
HETATM    6  C8  UNL     1      -1.460  -1.077   1.247  1.00  0.00     0.275 C 
HETATM    7  N1  UNL     1      -0.276  -1.840   0.926  1.00  0.00    -0.326 N 
ATOM      8  H1  UNL     1      -0.271  -2.822   1.201  1.00  0.00     0.165 HD
ENDROOT
BRANCH   2   9
HETATM    9  O3  UNL     1       2.312  -0.202  -1.076  1.00  0.00    -0.216 OA
BRANCH   9  10
HETATM   10  S1  UNL     1       3.164   1.248  -0.972  1.00  0.00     0.256 S 
HETATM   11  O4  UNL     1       2.585   2.345  -1.817  1.00  0.00    -0.572 OA
HETATM   12  O5  UNL     1       4.565   1.002  -1.515  1.00  0.00    -0.572 OA
HETATM   13  O6  UNL     1       3.333   1.739   0.627  1.00  0.00    -0.572 OA
ENDBRANCH   9  10
ENDBRANCH   2   9
BRANCH   1  14
HETATM   14  C1  UNL     1       2.118  -2.030   0.697  1.00  0.00     0.229 C 
HETATM   15  O1  UNL     1       2.125  -2.936   1.559  1.00  0.00    -0.643 OA
HETATM   16  O2  UNL     1       3.335  -1.673   0.146  1.00  0.00    -0.643 OA
ENDBRANCH   1  14
BRANCH   4  17
HETATM   17  O7  UNL     1      -0.583   1.529   0.783  1.00  0.00    -0.376 OA
ATOM     18  H7  UNL     1      -1.261   1.809   1.387  1.00  0.00     0.211 HD
ENDBRANCH   4  17
BRANCH   4  19
HETATM   19  C6  UNL     1      -1.954   1.813  -1.073  1.00  0.00     0.212 C 
HETATM   20  O8  UNL     1      -2.559   1.468  -2.120  1.00  0.00    -0.646 OA
HETATM   21  O9  UNL     1      -2.102   3.115  -0.654  1.00  0.00    -0.646 OA
ENDBRANCH   4  19
BRANCH   6  22
HETATM   22  O11 UNL     1      -1.272  -0.302   2.400  1.00  0.00    -0.347 OA
ATOM     23  H11 UNL     1      -0.931  -0.806   3.129  1.00  0.00     0.215 HD
ENDBRANCH   6  22
BRANCH   6  24
HETATM   24  O12 UNL     1      -2.476  -1.999   1.601  1.00  0.00    -0.347 OA
ATOM     25  H12 UNL     1      -2.135  -2.503   2.330  1.00  0.00     0.215 HD
ENDBRANCH   6  24
BRANCH   5  26
HETATM   26  O10 UNL     1      -2.122  -1.121  -0.991  1.00  0.00    -0.384 OA
ATOM     27  H10 UNL     1      -2.679  -1.847  -0.734  1.00  0.00     0.210 HD
ENDBRANCH   5  26
TORSDOF 8
