REMARK  8 active torsions:
REMARK  status: ('A' for Active; 'I' for Inactive)
REMARK    1  A    between atoms: C2_2  and  C3_3 
REMARK    2  A    between atoms: C3_3  and  C4_4 
REMARK    3  A    between atoms: C4_4  and  N1_5 
REMARK    4  A    between atoms: N1_5  and  C5_6 
REMARK       I    between atoms: N1_5  and  C8_10 
REMARK    5  A    between atoms: C5_6  and  C6_7 
REMARK    6  A    between atoms: C8_10  and  C9_12 
REMARK    7  A    between atoms: C9_12  and  O2_13 
REMARK    8  A    between atoms: C20_25  and  C21_26 
ROOT
HETATM    1  C6  UNL     1      -6.121   1.907   1.709  1.00  0.00     0.143 C 
HETATM    2  C7  UNL     1      -5.860   3.068   0.922  1.00  0.00     0.060 C 
HETATM    3  N2  UNL     1      -5.672   4.017   0.301  1.00  0.00    -0.197 NA
ENDROOT
BRANCH   1   4
HETATM    4  C5  UNL     1      -5.060   0.891   1.797  1.00  0.00     0.140 C 
BRANCH   4   5
HETATM    5  N1  UNL     1      -4.591   0.258   0.620  1.00  0.00    -0.349 N 
HETATM    6  C8  UNL     1      -3.475   0.502  -0.186  1.00  0.00     0.255 C 
HETATM    7  O1  UNL     1      -3.456  -0.190  -1.284  1.00  0.00    -0.270 OA
BRANCH   5   8
HETATM    8  C4  UNL     1      -5.501  -0.824   0.126  1.00  0.00     0.126 C 
BRANCH   8   9
HETATM    9  C3  UNL     1      -5.076  -2.145   0.693  1.00  0.00     0.020 C 
BRANCH   9  10
HETATM   10  C2  UNL     1      -5.991  -3.223   0.196  1.00  0.00    -0.003 C 
HETATM   11  C1  UNL     1      -5.994  -3.354  -1.298  1.00  0.00     0.005 C 
ENDBRANCH   9  10
ENDBRANCH   8   9
ENDBRANCH   5   8
BRANCH   6  12
HETATM   12  C9  UNL     1      -2.324   1.403   0.010  1.00  0.00     0.146 C 
HETATM   13  C10 UNL     1      -2.356   2.361  -1.216  1.00  0.00     0.049 C 
HETATM   14  C11 UNL     1      -1.290   3.402  -1.070  1.00  0.00     0.004 C 
HETATM   15  C12 UNL     1      -0.049   2.894  -0.374  1.00  0.00     0.010 C 
HETATM   16  C13 UNL     1       0.120   1.433  -0.673  1.00  0.00    -0.029 C 
HETATM   17  C14 UNL     1       0.160   1.281  -2.147  1.00  0.00     0.016 C 
HETATM   18  C15 UNL     1       1.434   0.893  -0.114  1.00  0.00    -0.001 C 
HETATM   19  C30 UNL     1      -0.984   0.694   0.045  1.00  0.00     0.004 C 
HETATM   20  C16 UNL     1       2.650   1.548  -0.717  1.00  0.00     0.006 C 
HETATM   21  C27 UNL     1       1.537  -0.575  -0.437  1.00  0.00    -0.005 C 
HETATM   22  C17 UNL     1       3.620   0.633  -1.369  1.00  0.00     0.010 C 
HETATM   23  C18 UNL     1       3.982  -0.605  -0.573  1.00  0.00    -0.036 C 
HETATM   24  C19 UNL     1       4.409  -1.646  -1.584  1.00  0.00     0.016 C 
HETATM   25  C20 UNL     1       4.941  -0.330   0.516  1.00  0.00    -0.003 C 
HETATM   26  C26 UNL     1       2.752  -1.210   0.119  1.00  0.00    -0.002 C 
HETATM   27  C24 UNL     1       4.543  -1.344   1.598  1.00  0.00     0.006 C 
HETATM   28  C25 UNL     1       3.025  -1.076   1.566  1.00  0.00     0.006 C 
HETATM   29  C28 UNL     1       0.333  -1.397  -0.178  1.00  0.00     0.006 C 
HETATM   30  C29 UNL     1      -0.998  -0.717  -0.427  1.00  0.00     0.014 C 
HETATM   31  C31 UNL     1      -0.613   0.578   1.532  1.00  0.00     0.020 C 
BRANCH  12  32
HETATM   32  O2  UNL     1      -2.453   2.286   1.065  1.00  0.00    -0.379 OA
ATOM     33  H2  UNL     1      -1.712   2.866   1.191  1.00  0.00     0.211 HD
ENDBRANCH  12  32
BRANCH  25  34
HETATM   34  C21 UNL     1       6.388  -0.343   0.233  1.00  0.00    -0.018 C 
HETATM   35  C22 UNL     1       7.074  -0.000   1.582  1.00  0.00     0.010 C 
HETATM   36  C23 UNL     1       6.979  -1.676  -0.144  1.00  0.00     0.010 C 
ENDBRANCH  25  34
ENDBRANCH   6  12
ENDBRANCH   4   5
ENDBRANCH   1   4
TORSDOF 8
