REMARK  11 active torsions:
REMARK  status: ('A' for Active; 'I' for Inactive)
REMARK    1  A    between atoms: C11_11  and  C12_12 
REMARK    2  A    between atoms: C12_12  and  N1_13 
REMARK    3  A    between atoms: C15_18  and  O3_19 
REMARK    4  A    between atoms: C16_21  and  C18_23 
REMARK    5  A    between atoms: C18_23  and  O4_24 
REMARK    6  A    between atoms: O4_24  and  C19_25 
REMARK    7  A    between atoms: C19_25  and  C20_27 
REMARK    8  A    between atoms: C22_29  and  O6_30 
REMARK    9  A    between atoms: O6_30  and  C23_31 
REMARK   10  A    between atoms: C23_31  and  C24_32 
REMARK   11  A    between atoms: C24_32  and  N2_33 
ROOT
HETATM    1  C1  UNL     1       1.339   1.316  -0.986  1.00  0.00     0.011 C 
HETATM    2  C2  UNL     1      -0.078   0.834  -1.092  1.00  0.00    -0.008 C 
HETATM    3  C3  UNL     1      -1.055   1.989  -1.005  1.00  0.00     0.005 C 
HETATM    4  C4  UNL     1      -1.756   2.117   0.294  1.00  0.00     0.008 C 
HETATM    5  C5  UNL     1      -2.421   0.862   0.774  1.00  0.00     0.025 C 
HETATM    6  C6  UNL     1      -1.811  -0.390   0.291  1.00  0.00     0.003 C 
HETATM    7  C7  UNL     1      -2.623  -1.161  -0.711  1.00  0.00     0.007 C 
HETATM    8  C8  UNL     1      -4.082  -1.254  -0.384  1.00  0.00     0.013 C 
HETATM    9  C9  UNL     1      -4.542  -0.394   0.729  1.00  0.00    -0.007 C 
HETATM   10  C10 UNL     1      -4.421  -0.994   2.091  1.00  0.00     0.019 C 
HETATM   11  C11 UNL     1      -6.000   0.006   0.455  1.00  0.00     0.021 C 
HETATM   12  C13 UNL     1      -5.872   0.942  -0.702  1.00  0.00     0.010 C 
HETATM   13  C14 UNL     1      -4.440   1.503  -0.646  1.00  0.00     0.039 C 
HETATM   14  C15 UNL     1      -3.903   0.962   0.604  1.00  0.00     0.069 C 
HETATM   15  C16 UNL     1      -0.386  -0.291  -0.198  1.00  0.00    -0.015 C 
HETATM   16  C17 UNL     1      -0.113  -1.567  -1.067  1.00  0.00     0.018 C 
ENDROOT
BRANCH  15  17
HETATM   17  C18 UNL     1       0.582  -0.407   0.980  1.00  0.00     0.189 C 
BRANCH  17  18
HETATM   18  O4  UNL     1       1.893  -0.638   0.623  1.00  0.00    -0.317 OA
BRANCH  18  19
HETATM   19  C19 UNL     1       2.964  -0.778   1.457  1.00  0.00     0.295 C 
HETATM   20  O5  UNL     1       2.776  -0.685   2.696  1.00  0.00    -0.259 OA
BRANCH  19  21
HETATM   21  C20 UNL     1       4.265  -1.029   0.860  1.00  0.00     0.063 A 
HETATM   22  C21 UNL     1       5.301  -0.124   0.851  1.00  0.00     0.056 A 
HETATM   23  C22 UNL     1       6.517  -0.402   0.269  1.00  0.00     0.069 A 
HETATM   24  C25 UNL     1       6.696  -1.646  -0.331  1.00  0.00     0.038 A 
HETATM   25  C26 UNL     1       5.694  -2.568  -0.342  1.00  0.00     0.028 A 
HETATM   26  C27 UNL     1       4.486  -2.255   0.253  1.00  0.00     0.050 A 
HETATM   27 CL1  UNL     1       3.204  -3.440   0.234  1.00  0.00    -0.083 Cl
BRANCH  23  28
HETATM   28  O6  UNL     1       7.581   0.476   0.237  1.00  0.00    -0.349 OA
BRANCH  28  29
HETATM   29  C23 UNL     1       8.813   0.126  -0.383  1.00  0.00     0.203 C 
BRANCH  29  30
HETATM   30  C24 UNL     1       9.828   1.224  -0.305  1.00  0.00     0.256 C 
BRANCH  30  31
HETATM   31  N2  UNL     1       9.299   2.384  -0.971  1.00  0.00    -0.077 N 
ATOM     32  H23 UNL     1       9.009   2.187  -1.929  1.00  0.00     0.274 HD
ATOM     33  H22 UNL     1       8.390   2.665  -0.604  1.00  0.00     0.274 HD
ATOM     34  H21 UNL     1       9.990   3.132  -0.918  1.00  0.00     0.274 HD
ENDBRANCH  30  31
ENDBRANCH  29  30
ENDBRANCH  28  29
ENDBRANCH  23  28
ENDBRANCH  19  21
ENDBRANCH  18  19
ENDBRANCH  17  18
ENDBRANCH  15  17
BRANCH  14  35
HETATM   35  O3  UNL     1      -4.430   1.739   1.663  1.00  0.00    -0.389 OA
ATOM     36  H3  UNL     1      -5.372   1.803   1.555  1.00  0.00     0.210 HD
ENDBRANCH  14  35
BRANCH  11  37
HETATM   37  C12 UNL     1      -6.881  -1.170   0.189  1.00  0.00     0.206 C 
BRANCH  37  38
HETATM   38  N1  UNL     1      -8.213  -0.702  -0.048  1.00  0.00    -0.155 N 
HETATM   39  O1  UNL     1      -8.803  -0.915  -1.122  1.00  0.00    -0.537 OA
HETATM   40  O2  UNL     1      -8.891   0.008   0.921  1.00  0.00    -0.537 OA
ENDBRANCH  37  38
ENDBRANCH  11  37
TORSDOF 11
