REMARK  5 active torsions:
REMARK  status: ('A' for Active; 'I' for Inactive)
REMARK    1  A    between atoms: C2_2  and  C4_4 
REMARK    2  A    between atoms: C8_9  and  C9_10 
REMARK    3  A    between atoms: C9_10  and  C10_11 
REMARK    4  A    between atoms: C10_11  and  O1_12 
REMARK    5  A    between atoms: C10_11  and  C11_14 
ROOT
HETATM    1  C11 UNL     1      -0.971   0.641   0.400  1.00  0.00     0.016 C 
HETATM    2  N2  UNL     1      -0.976   1.901   0.200  1.00  0.00    -0.373 N 
ATOM      3  H2  UNL     1      -0.457   2.508   0.834  1.00  0.00     0.164 HD
HETATM    4  C12 UNL     1      -1.678   2.470  -0.870  1.00  0.00     0.067 C 
HETATM    5  C13 UNL     1      -3.030   1.874  -1.129  1.00  0.00     0.045 C 
HETATM    6  C14 UNL     1      -4.003   2.541  -0.179  1.00  0.00     0.033 C 
HETATM    7  C15 UNL     1      -5.370   1.972  -0.584  1.00  0.00     0.147 C 
HETATM    8  N3  UNL     1      -5.320   0.586  -0.151  1.00  0.00    -0.280 N 
HETATM    9  C16 UNL     1      -6.567  -0.060   0.047  1.00  0.00     0.234 C 
HETATM   10  O2  UNL     1      -7.632   0.424  -0.390  1.00  0.00    -0.272 OA
HETATM   11  C17 UNL     1      -6.501  -1.352   0.814  1.00  0.00     0.105 C 
HETATM   12  C18 UNL     1      -5.415  -2.136   0.137  1.00  0.00     0.025 C 
HETATM   13  C19 UNL     1      -4.098  -1.453   0.051  1.00  0.00     0.115 C 
HETATM   14  N4  UNL     1      -4.094  -0.031   0.051  1.00  0.00    -0.221 NA
HETATM   15  C20 UNL     1      -3.095   0.395  -0.908  1.00  0.00     0.094 C 
HETATM   16  C21 UNL     1      -1.755  -0.199  -0.541  1.00  0.00     0.077 C 
ENDROOT
BRANCH   1  17
HETATM   17  C10 UNL     1      -0.244   0.008   1.513  1.00  0.00     0.164 C 
BRANCH  17  18
HETATM   18  C9  UNL     1       0.860  -0.922   1.220  1.00  0.00     0.044 C 
BRANCH  18  19
HETATM   19  C8  UNL     1       2.173  -0.346   0.784  1.00  0.00     0.020 C 
HETATM   20  C7  UNL     1       2.103   0.425  -0.505  1.00  0.00     0.242 C 
HETATM   21  N1  UNL     1       3.247  -0.102  -1.273  1.00  0.00    -0.070 N 
HETATM   22  C5  UNL     1       4.439   0.157  -0.493  1.00  0.00     0.242 C 
HETATM   23  C6  UNL     1       3.279   0.288  -2.617  1.00  0.00     0.272 C 
HETATM   24  C23 UNL     1       2.956  -1.536  -1.057  1.00  0.00     0.242 C 
HETATM   25  C4  UNL     1       4.565  -1.033   0.453  1.00  0.00     0.021 C 
HETATM   26  C22 UNL     1       3.141  -1.464   0.495  1.00  0.00     0.023 C 
BRANCH  25  27
HETATM   27  C2  UNL     1       5.326  -0.836   1.674  1.00  0.00    -0.017 C 
HETATM   28  C1  UNL     1       4.917   0.197   2.652  1.00  0.00     0.010 C 
HETATM   29  C3  UNL     1       6.789  -0.493   1.306  1.00  0.00     0.010 C 
ENDBRANCH  25  27
ENDBRANCH  18  19
ENDBRANCH  17  18
BRANCH  17  30
HETATM   30  O1  UNL     1       0.165   0.901   2.516  1.00  0.00    -0.390 OA
ATOM     31  H1  UNL     1      -0.547   1.501   2.705  1.00  0.00     0.210 HD
ENDBRANCH  17  30
ENDBRANCH   1  17
TORSDOF 5
