REMARK  3 active torsions:
REMARK  status: ('A' for Active; 'I' for Inactive)
REMARK    1  A    between atoms: C5_9  and  C6_10 
REMARK    2  A    between atoms: C11_17  and  O1_18 
REMARK    3  A    between atoms: C17_25  and  N5_26 
ROOT
HETATM    1  C1  UNL     1      -2.463  -3.944   1.559  1.00  0.00     0.038 C 
HETATM    2  C2  UNL     1      -1.628  -2.855   1.049  1.00  0.00     0.004 C 
HETATM    3  C3  UNL     1      -1.951  -1.764   0.382  1.00  0.00     0.135 C 
HETATM    4  C4  UNL     1      -0.905  -0.837  -0.003  1.00  0.00     0.193 C 
HETATM    5  N1  UNL     1       0.338  -0.900   0.789  1.00  0.00    -0.323 N 
ATOM      6  H1  UNL     1       0.380  -1.441   1.652  1.00  0.00     0.181 HD
HETATM    7  N2  UNL     1       1.466  -0.194   0.324  1.00  0.00    -0.306 N 
ATOM      8  H2  UNL     1       2.337  -0.453   0.788  1.00  0.00     0.186 HD
HETATM    9  C5  UNL     1       1.603   0.717  -0.577  1.00  0.00     0.066 C 
HETATM   10  C15 UNL     1       0.489   1.244  -1.377  1.00  0.00     0.332 C 
HETATM   11  N4  UNL     1      -0.737   1.505  -0.728  1.00  0.00     0.106 N 
HETATM   12  C16 UNL     1      -1.902   1.342  -1.621  1.00  0.00     0.319 C 
HETATM   13  C17 UNL     1      -2.668   0.889  -0.388  1.00  0.00     0.242 C 
HETATM   14  C20 UNL     1      -3.585  -0.231  -0.555  1.00  0.00     0.288 C 
HETATM   15  N6  UNL     1      -3.276  -1.507  -0.002  1.00  0.00    -0.044 N 
HETATM   16  C21 UNL     1      -4.162  -1.702   1.158  1.00  0.00     0.279 C 
HETATM   17  C22 UNL     1      -3.677  -2.547  -0.986  1.00  0.00     0.279 C 
HETATM   18  C23 UNL     1      -1.327   0.582   0.146  1.00  0.00     0.295 C 
ENDROOT
BRANCH   9  19
HETATM   19  C6  UNL     1       2.925   1.278  -0.848  1.00  0.00     0.018 A 
HETATM   20  C7  UNL     1       3.188   2.223  -1.811  1.00  0.00     0.102 A 
HETATM   21  N3  UNL     1       4.527   2.486  -1.779  1.00  0.00    -0.364 N 
HETATM   22  C8  UNL     1       5.094   1.737  -0.830  1.00  0.00     0.043 A 
ATOM     23  H3  UNL     1       5.015   3.148  -2.382  1.00  0.00     0.165 HD
HETATM   24  C9  UNL     1       6.399   1.629  -0.402  1.00  0.00     0.033 A 
HETATM   25  C14 UNL     1       4.121   0.958  -0.216  1.00  0.00     0.007 A 
HETATM   26  C10 UNL     1       6.714   0.758   0.618  1.00  0.00     0.039 A 
HETATM   27  C11 UNL     1       5.758  -0.019   1.235  1.00  0.00     0.069 A 
HETATM   28  C13 UNL     1       4.433   0.097   0.793  1.00  0.00     0.051 A 
BRANCH  27  29
HETATM   29  O1  UNL     1       6.078  -0.904   2.271  1.00  0.00    -0.356 OA
HETATM   30  C12 UNL     1       7.435  -0.968   2.663  1.00  0.00     0.210 C 
ENDBRANCH  27  29
ENDBRANCH   9  19
BRANCH  13  31
HETATM   31  N5  UNL     1      -3.249   2.052   0.235  1.00  0.00     0.095 N 
HETATM   32  C18 UNL     1      -4.209   2.710  -0.604  1.00  0.00     0.310 C 
HETATM   33  C19 UNL     1      -3.667   1.903   1.582  1.00  0.00     0.310 C 
ENDBRANCH  13  31
TORSDOF 3
