REMARK  6 active torsions:
REMARK  status: ('A' for Active; 'I' for Inactive)
REMARK    1  A    between atoms: O1_2  and  C2_3 
REMARK    2  A    between atoms: C2_3  and  C3_5 
REMARK    3  A    between atoms: C5_11  and  N3_12 
REMARK    4  A    between atoms: C6_15  and  N4_16 
REMARK    5  A    between atoms: C7_22  and  O3_23 
REMARK    6  A    between atoms: O3_23  and  N7_24 
ROOT
HETATM    1  C3  UNL     1       1.103   0.928   0.271  1.00  0.00     0.134 A 
HETATM    2  N1  UNL     1       0.096   1.744  -0.062  1.00  0.00    -0.183 N 
ATOM      3  H1  UNL     1       0.256   2.746  -0.169  1.00  0.00     0.184 HD
HETATM    4  C4  UNL     1      -1.150   1.218  -0.257  1.00  0.00     0.708 A 
HETATM    5  N2  UNL     1      -2.176   2.006  -0.590  1.00  0.00    -0.171 N 
ATOM      6  H2  UNL     1      -2.026   3.009  -0.700  1.00  0.00     0.186 HD
HETATM    7  C5  UNL     1      -3.426   1.483  -0.786  1.00  0.00     0.160 A 
HETATM    8  C6  UNL     1      -3.663   0.136  -0.646  1.00  0.00     0.159 A 
HETATM    9  N5  UNL     1      -2.583  -0.631  -0.304  1.00  0.00    -0.259 N 
ATOM     10  H5  UNL     1      -2.702  -1.637  -0.187  1.00  0.00     0.190 HD
HETATM   11  N6  UNL     1      -1.390  -0.095  -0.122  1.00  0.00    -0.059 N 
HETATM   12  C7  UNL     1      -0.355  -0.910   0.217  1.00  0.00     0.216 A 
HETATM   13  C8  UNL     1       0.908  -0.432   0.422  1.00  0.00     0.027 A 
HETATM   14  C9  UNL     1       2.007  -1.367   0.795  1.00  0.00     0.056 C 
ENDROOT
BRANCH   1  15
HETATM   15  C2  UNL     1       2.423   1.505   0.474  1.00  0.00     0.310 C 
HETATM   16  O2  UNL     1       2.554   2.748   0.328  1.00  0.00    -0.258 OA
BRANCH  15  17
HETATM   17  O1  UNL     1       3.557   0.811   0.816  1.00  0.00    -0.321 OA
HETATM   18  C1  UNL     1       4.826   1.394   1.007  1.00  0.00     0.213 C 
ENDBRANCH  15  17
ENDBRANCH   1  15
BRANCH  12  19
HETATM   19  O3  UNL     1      -0.621  -2.278   0.354  1.00  0.00    -0.224 OA
BRANCH  19  20
HETATM   20  N7  UNL     1      -0.359  -3.046  -0.780  1.00  0.00    -0.303 N 
ATOM     21  H72 UNL     1      -0.000  -2.627  -1.638  1.00  0.00     0.184 HD
ATOM     22  H71 UNL     1      -0.553  -4.042  -0.680  1.00  0.00     0.184 HD
ENDBRANCH  19  20
ENDBRANCH  12  19
BRANCH   7  23
HETATM   23  N3  UNL     1      -4.387   2.275  -1.107  1.00  0.00    -0.382 N 
ATOM     24  H32 UNL     1      -4.211   3.274  -1.211  1.00  0.00     0.157 HD
ATOM     25  H31 UNL     1      -5.318   1.885  -1.253  1.00  0.00     0.157 HD
ENDBRANCH   7  23
BRANCH   8  26
HETATM   26  N4  UNL     1      -4.797  -0.430  -0.810  1.00  0.00    -0.381 N 
ATOM     27  H42 UNL     1      -5.602   0.142  -1.065  1.00  0.00     0.157 HD
ATOM     28  H41 UNL     1      -4.973  -1.429  -0.706  1.00  0.00     0.157 HD
ENDBRANCH   8  26
TORSDOF 6
