REMARK  10 active torsions:
REMARK  status: ('A' for Active; 'I' for Inactive)
REMARK    1  A    between atoms: C2_2  and  C3_3 
REMARK    2  A    between atoms: C2_2  and  N7_26 
REMARK       I    between atoms: C3_3  and  N1_5 
REMARK    3  A    between atoms: N1_5  and  N2_7 
REMARK       I    between atoms: N2_7  and  C4_9 
REMARK       I    between atoms: C4_9  and  N3_11 
REMARK    4  A    between atoms: N3_11  and  N4_12 
REMARK    5  A    between atoms: N3_11  and  C5_16 
REMARK    6  A    between atoms: N4_12  and  O3_14 
REMARK    7  A    between atoms: C7_20  and  C8_21 
REMARK    8  A    between atoms: C8_21  and  O4_22 
REMARK    9  A    between atoms: C9_31  and  N11_32 
REMARK   10  A    between atoms: N12_34  and  N13_36 
REMARK       I    between atoms: N13_36  and  C10_38 
ROOT
HETATM    1  C3  UNL     1       0.952   1.038   0.758  1.00  0.00     0.261 C 
HETATM    2  O1  UNL     1       0.219   0.756   1.760  1.00  0.00    -0.269 OA
HETATM    3  N1  UNL     1       0.332   1.766  -0.279  1.00  0.00    -0.264 N 
ATOM      4  H1  UNL     1       0.854   2.023  -1.117  1.00  0.00     0.190 HD
ENDROOT
BRANCH   3   5
HETATM    5  N2  UNL     1      -1.019   2.132  -0.137  1.00  0.00    -0.247 N 
HETATM    6  C4  UNL     1      -2.007   1.134  -0.113  1.00  0.00     0.364 C 
HETATM    7  O2  UNL     1      -1.644  -0.081  -0.226  1.00  0.00    -0.243 OA
HETATM    8  N3  UNL     1      -3.380   1.477   0.036  1.00  0.00    -0.152 N 
ATOM      9  H2  UNL     1      -1.279   3.115  -0.052  1.00  0.00     0.192 HD
BRANCH   8  10
HETATM   10  N4  UNL     1      -3.722   2.822   0.144  1.00  0.00    -0.197 N 
ATOM     11  H4  UNL     1      -3.841   3.261   1.057  1.00  0.00     0.216 HD
BRANCH  10  12
HETATM   12  O3  UNL     1      -3.879   3.478  -0.910  1.00  0.00    -0.274 OA
ATOM     13  H3  UNL     1      -4.112   4.396  -0.836  1.00  0.00     0.246 HD
ENDBRANCH  10  12
ENDBRANCH   8  10
BRANCH   8  14
HETATM   14  C5  UNL     1      -4.398   0.464   0.084  1.00  0.00     0.203 A 
HETATM   15  N5  UNL     1      -4.182  -0.805  -0.001  1.00  0.00    -0.358 N 
HETATM   16  C6  UNL     1      -5.412  -1.545   0.082  1.00  0.00     0.150 A 
ATOM     17  H5  UNL     1      -3.260  -1.228  -0.112  1.00  0.00     0.162 HD
HETATM   18  C7  UNL     1      -6.488  -0.538   0.358  1.00  0.00     0.126 A 
HETATM   19  N6  UNL     1      -5.789   0.722   0.233  1.00  0.00    -0.352 N 
ATOM     20  H6  UNL     1      -6.223   1.645   0.249  1.00  0.00     0.163 HD
BRANCH  18  21
HETATM   21  C8  UNL     1      -7.649  -0.650  -0.599  1.00  0.00     0.191 C 
BRANCH  21  22
HETATM   22  O4  UNL     1      -8.271  -1.882  -0.417  1.00  0.00    -0.399 OA
ATOM     23  H4  UNL     1      -9.002  -1.953  -1.020  1.00  0.00     0.209 HD
ENDBRANCH  21  22
ENDBRANCH  18  21
ENDBRANCH   8  14
ENDBRANCH   3   5
BRANCH   1  24
HETATM   24  C2  UNL     1       2.335   0.565   0.816  1.00  0.00     0.213 C 
HETATM   25  C1  UNL     1       2.317  -0.835   0.141  1.00  0.00     0.045 C 
BRANCH  24  26
HETATM   26  N7  UNL     1       3.274   1.392   0.129  1.00  0.00    -0.093 N 
HETATM   27  N8  UNL     1       3.078   2.646  -0.419  1.00  0.00     0.010 NA
HETATM   28  N9  UNL     1       4.147   2.854  -1.289  1.00  0.00     0.007 NA
HETATM   29  N10 UNL     1       5.163   1.956  -0.940  1.00  0.00    -0.115 N 
HETATM   30  C9  UNL     1       4.666   1.102  -0.117  1.00  0.00     0.726 C 
ATOM     31  H10 UNL     1       6.125   1.976  -1.278  1.00  0.00     0.202 HD
BRANCH  30  32
HETATM   32  N11 UNL     1       5.327   0.019   0.500  1.00  0.00    -0.115 N 
HETATM   33  N12 UNL     1       6.031  -0.779  -0.159  1.00  0.00    -0.225 N 
ATOM     34  H12 UNL     1       6.109  -0.615  -1.163  1.00  0.00     0.209 HD
ATOM     35  H11 UNL     1       5.229  -0.117   1.506  1.00  0.00     0.207 HD
BRANCH  33  36
HETATM   36  N13 UNL     1       6.711  -1.862   0.360  1.00  0.00    -0.239 N 
HETATM   37  C10 UNL     1       7.109  -2.926  -0.484  1.00  0.00     0.348 C 
HETATM   38  N14 UNL     1       7.806  -4.041   0.046  1.00  0.00    -0.038 NA
HETATM   39  O5  UNL     1       6.826  -2.857  -1.725  1.00  0.00    -0.249 OA
ATOM     40  H13 UNL     1       6.928  -1.896   1.356  1.00  0.00     0.193 HD
ENDBRANCH  33  36
ENDBRANCH  30  32
ENDBRANCH  24  26
ENDBRANCH   1  24
TORSDOF 10
