REMARK  14 active torsions:
REMARK  status: ('A' for Active; 'I' for Inactive)
REMARK    1  A    between atoms: N1_1  and  C1_4 
REMARK    2  A    between atoms: C4_10  and  N3_11 
REMARK    3  A    between atoms: N3_11  and  C5_13 
REMARK    4  A    between atoms: C5_13  and  C6_14 
REMARK    5  A    between atoms: C6_14  and  C7_15 
REMARK    6  A    between atoms: C7_15  and  N4_16 
REMARK    7  A    between atoms: N4_16  and  C8_19 
REMARK    8  A    between atoms: C8_19  and  C9_20 
REMARK    9  A    between atoms: C9_20  and  C10_21 
REMARK   10  A    between atoms: C10_21  and  N5_22 
REMARK   11  A    between atoms: N5_22  and  C11_24 
REMARK   12  A    between atoms: C11_24  and  C12_25 
REMARK   13  A    between atoms: C12_25  and  O2_26 
REMARK   14  A    between atoms: C13_30  and  N7_31 
ROOT
HETATM    1  C1  UNL     1      -5.715   2.385   0.530  1.00  0.00     0.680 A 
HETATM    2  N2  UNL     1      -4.423   2.325   0.939  1.00  0.00    -0.155 N 
ATOM      3  H2  UNL     1      -3.976   3.145   1.349  1.00  0.00     0.187 HD
HETATM    4  C2  UNL     1      -3.737   1.180   0.801  1.00  0.00     0.277 A 
HETATM    5  O1  UNL     1      -2.554   1.149   1.185  1.00  0.00    -0.266 OA
HETATM    6  C3  UNL     1      -4.348   0.082   0.248  1.00  0.00     0.122 A 
HETATM    7  C4  UNL     1      -3.628  -1.076   0.106  1.00  0.00     0.136 A 
HETATM    8  N6  UNL     1      -4.228  -2.147  -0.442  1.00  0.00    -0.176 N 
ATOM      9  H6  UNL     1      -3.702  -3.014  -0.553  1.00  0.00     0.186 HD
HETATM   10  C13 UNL     1      -5.516  -2.094  -0.848  1.00  0.00     0.679 A 
HETATM   11  N8  UNL     1      -6.190  -0.953  -0.699  1.00  0.00    -0.175 N 
ATOM     12  H8  UNL     1      -7.161  -0.926  -1.011  1.00  0.00     0.186 HD
HETATM   13  C14 UNL     1      -5.673   0.152  -0.168  1.00  0.00     0.156 A 
HETATM   14  N9  UNL     1      -6.326   1.307  -0.015  1.00  0.00    -0.175 N 
ATOM     15  H9  UNL     1      -7.299   1.378  -0.313  1.00  0.00     0.186 HD
ENDROOT
BRANCH   7  16
HETATM   16  N3  UNL     1      -2.396  -1.115   0.490  1.00  0.00    -0.375 N 
ATOM     17  H3  UNL     1      -1.979  -0.278   0.896  1.00  0.00     0.161 HD
BRANCH  16  18
HETATM   18  C5  UNL     1      -1.584  -2.313   0.362  1.00  0.00     0.123 C 
BRANCH  18  19
HETATM   19  C6  UNL     1      -0.178  -1.922   0.760  1.00  0.00     0.047 C 
BRANCH  19  20
HETATM   20  C7  UNL     1       0.344  -0.789  -0.120  1.00  0.00     0.234 C 
BRANCH  20  21
HETATM   21  N4  UNL     1       1.666  -0.502   0.322  1.00  0.00    -0.075 N 
ATOM     22  H42 UNL     1       1.683  -0.388   1.335  1.00  0.00     0.277 HD
ATOM     23  H41 UNL     1       2.257  -1.328   0.228  1.00  0.00     0.277 HD
BRANCH  21  24
HETATM   24  C8  UNL     1       2.289   0.640  -0.324  1.00  0.00     0.237 C 
BRANCH  24  25
HETATM   25  C9  UNL     1       3.708   0.692   0.287  1.00  0.00     0.072 C 
BRANCH  25  26
HETATM   26  C10 UNL     1       4.523   1.819  -0.247  1.00  0.00     0.062 C 
BRANCH  26  27
HETATM   27  N5  UNL     1       5.820   1.944   0.245  1.00  0.00    -0.380 N 
ATOM     28  H5  UNL     1       6.003   2.708   0.896  1.00  0.00     0.164 HD
BRANCH  27  29
HETATM   29  C11 UNL     1       6.878   1.116  -0.078  1.00  0.00     0.086 C 
BRANCH  29  30
HETATM   30  C12 UNL     1       6.925  -0.309   0.309  1.00  0.00     0.208 C 
BRANCH  30  31
HETATM   31  O2  UNL     1       8.181  -0.790  -0.190  1.00  0.00    -0.396 OA
ATOM     32  H2  UNL     1       8.211  -1.706   0.059  1.00  0.00     0.209 HD
ENDBRANCH  30  31
ENDBRANCH  29  30
ENDBRANCH  27  29
ENDBRANCH  26  27
ENDBRANCH  25  26
ENDBRANCH  24  25
ENDBRANCH  21  24
ENDBRANCH  20  21
ENDBRANCH  19  20
ENDBRANCH  18  19
ENDBRANCH  16  18
ENDBRANCH   7  16
BRANCH  10  33
HETATM   33  N7  UNL     1      -6.044  -3.167  -1.376  1.00  0.00    -0.234 N 
ATOM     34  H72 UNL     1      -5.528  -4.040  -1.490  1.00  0.00     0.174 HD
ATOM     35  H71 UNL     1      -7.016  -3.127  -1.682  1.00  0.00     0.174 HD
ENDBRANCH  10  33
BRANCH   1  36
HETATM   36  N1  UNL     1      -6.399   3.480   0.649  1.00  0.00    -0.234 N 
ATOM     37  H12 UNL     1      -5.939   4.292   1.060  1.00  0.00     0.174 HD
ATOM     38  H11 UNL     1      -7.370   3.525   0.341  1.00  0.00     0.174 HD
ENDBRANCH   1  36
TORSDOF 14
