REMARK  10 active torsions:
REMARK  status: ('A' for Active; 'I' for Inactive)
REMARK    1  A    between atoms: C4_4  and  C5_5 
REMARK    2  A    between atoms: C5_5  and  O1_6 
REMARK    3  A    between atoms: C5_5  and  N1_8 
REMARK    4  A    between atoms: N1_8  and  C6_10 
REMARK    5  A    between atoms: N2_12  and  C8_13 
REMARK    6  A    between atoms: C16_25  and  N5_26 
REMARK    7  A    between atoms: N5_26  and  C17_28 
REMARK    8  A    between atoms: C17_28  and  O2_29 
REMARK    9  A    between atoms: C17_28  and  C18_31 
REMARK   10  A    between atoms: N7_36  and  C21_37 
ROOT
HETATM    1  C1  UNL     1      -2.203  -0.982   3.799  1.00  0.00     0.050 C 
HETATM    2  C2  UNL     1      -1.829  -0.921   2.383  1.00  0.00    -0.035 A 
HETATM    3  C3  UNL     1      -0.467  -0.816   2.060  1.00  0.00     0.020 A 
HETATM    4  C4  UNL     1      -0.073  -0.755   0.769  1.00  0.00    -0.010 A 
HETATM    5  C14 UNL     1      -1.032  -0.800  -0.234  1.00  0.00     0.014 A 
HETATM    6  C15 UNL     1      -2.374  -0.905   0.106  1.00  0.00     0.030 A 
HETATM    7  C16 UNL     1      -2.788  -0.966   1.410  1.00  0.00     0.036 A 
ENDROOT
BRANCH   4   8
HETATM    8  C5  UNL     1       1.372  -0.629   0.406  1.00  0.00     0.253 C 
BRANCH   8   9
HETATM    9  O1  UNL     1       1.494   0.214  -0.731  1.00  0.00    -0.372 OA
ATOM     10  H1  UNL     1       2.412   0.294  -0.962  1.00  0.00     0.212 HD
ENDBRANCH   8   9
BRANCH   8  11
HETATM   11  N1  UNL     1       2.097   0.071   1.444  1.00  0.00    -0.344 N 
ATOM     12  H1  UNL     1       1.595   0.438   2.253  1.00  0.00     0.164 HD
BRANCH  11  13
HETATM   13  C6  UNL     1       3.513   0.252   1.344  1.00  0.00     0.136 A 
HETATM   14  C7  UNL     1       4.339  -0.180   0.323  1.00  0.00     0.161 A 
HETATM   15  N2  UNL     1       5.601   0.187   0.603  1.00  0.00    -0.281 N 
HETATM   16  N3  UNL     1       5.537   0.830   1.775  1.00  0.00    -0.239 N 
HETATM   17  N4  UNL     1       4.306   0.872   2.217  1.00  0.00    -0.270 N 
ATOM     18  H3  UNL     1       6.340   1.233   2.259  1.00  0.00     0.208 HD
ATOM     19  H4  UNL     1       4.003   1.308   3.088  1.00  0.00     0.190 HD
BRANCH  15  20
HETATM   20  C8  UNL     1       6.779  -0.070  -0.209  1.00  0.00     0.109 C 
HETATM   21  C9  UNL     1       7.961   0.590   0.462  1.00  0.00     0.027 C 
HETATM   22  C10 UNL     1       9.157   0.517  -0.443  1.00  0.00     0.002 C 
HETATM   23  C11 UNL     1       8.920   1.326  -1.673  1.00  0.00     0.000 C 
HETATM   24  C12 UNL     1       7.493   1.442  -2.084  1.00  0.00     0.002 C 
HETATM   25  C13 UNL     1       6.613   0.330  -1.632  1.00  0.00     0.027 C 
ENDBRANCH  15  20
ENDBRANCH  11  13
ENDBRANCH   8  11
ENDBRANCH   4   8
BRANCH   7  26
HETATM   26  N5  UNL     1      -4.139  -1.078   1.729  1.00  0.00    -0.357 N 
ATOM     27  H5  UNL     1      -4.396  -1.158   2.713  1.00  0.00     0.162 HD
BRANCH  26  28
HETATM   28  C17 UNL     1      -5.209  -1.088   0.735  1.00  0.00     0.286 C 
BRANCH  28  29
HETATM   29  O2  UNL     1      -6.403  -1.316   1.466  1.00  0.00    -0.370 OA
ATOM     30  H2  UNL     1      -7.099  -1.323   0.819  1.00  0.00     0.212 HD
ENDBRANCH  28  29
BRANCH  28  31
HETATM   31  C18 UNL     1      -5.344   0.272   0.100  1.00  0.00     0.125 C 
HETATM   32  N6  UNL     1      -4.698   1.303   0.517  1.00  0.00    -0.375 N 
HETATM   33  C19 UNL     1      -5.001   2.488  -0.259  1.00  0.00     0.141 C 
ATOM     34  H6  UNL     1      -4.048   1.288   1.303  1.00  0.00     0.160 HD
HETATM   35  C20 UNL     1      -6.261   2.048  -0.980  1.00  0.00     0.144 C 
HETATM   36  N7  UNL     1      -6.172   0.576  -0.984  1.00  0.00    -0.362 N 
BRANCH  36  37
HETATM   37  C21 UNL     1      -6.815  -0.271  -1.925  1.00  0.00     0.077 C 
HETATM   38  C22 UNL     1      -7.807  -1.247  -1.346  1.00  0.00     0.032 C 
HETATM   39  C23 UNL     1      -5.803  -1.028  -2.798  1.00  0.00     0.032 C 
ENDBRANCH  36  37
ENDBRANCH  28  31
ENDBRANCH  26  28
ENDBRANCH   7  26
TORSDOF 10
