REMARK  4 active torsions:
REMARK  status: ('A' for Active; 'I' for Inactive)
REMARK    1  A    between atoms: C3_4  and  N2_5 
REMARK    2  A    between atoms: C4_10  and  N4_11 
REMARK    3  A    between atoms: C5_16  and  N6_17 
REMARK    4  A    between atoms: N6_17  and  N7_19 
ROOT
HETATM    1  N1  UNL     1       0.443  -3.567  -0.559  1.00  0.00    -0.191 NA
HETATM    2  C1  UNL     1       0.180  -2.435  -0.384  1.00  0.00     0.107 C 
HETATM    3  C2  UNL     1      -0.112  -1.044  -0.168  1.00  0.00     0.141 A 
HETATM    4  C3  UNL     1      -1.425  -0.635  -0.127  1.00  0.00     0.212 A 
HETATM    5  N3  UNL     1      -1.640   0.698   0.081  1.00  0.00    -0.169 N 
ATOM      6  H3  UNL     1      -2.602   1.034   0.116  1.00  0.00     0.186 HD
HETATM    7  C4  UNL     1      -0.649   1.586   0.241  1.00  0.00     0.679 A 
HETATM    8  N5  UNL     1       0.624   1.155   0.196  1.00  0.00    -0.174 N 
ATOM      9  H5  UNL     1       1.380   1.829   0.317  1.00  0.00     0.186 HD
HETATM   10  C5  UNL     1       0.924  -0.118  -0.001  1.00  0.00     0.160 A 
ENDROOT
BRANCH   4  11
HETATM   11  N2  UNL     1      -2.528  -1.506  -0.286  1.00  0.00    -0.096 N 
HETATM   12  O1  UNL     1      -2.401  -2.710  -0.475  1.00  0.00    -0.530 OA
HETATM   13  O2  UNL     1      -3.794  -0.987  -0.227  1.00  0.00    -0.530 OA
ENDBRANCH   4  11
BRANCH  10  14
HETATM   14  N6  UNL     1       2.113  -0.596  -0.055  1.00  0.00    -0.290 N 
ATOM     15  H6  UNL     1       2.200  -1.600  -0.212  1.00  0.00     0.188 HD
BRANCH  14  16
HETATM   16  N7  UNL     1       3.280   0.116   0.079  1.00  0.00    -0.344 N 
ATOM     17  H72 UNL     1       3.173   1.118   0.236  1.00  0.00     0.176 HD
ATOM     18  H71 UNL     1       4.226  -0.264   0.036  1.00  0.00     0.176 HD
ENDBRANCH  14  16
ENDBRANCH  10  14
BRANCH   7  19
HETATM   19  N4  UNL     1      -0.943   2.826   0.432  1.00  0.00    -0.234 N 
ATOM     20  H42 UNL     1      -1.909   3.153   0.466  1.00  0.00     0.174 HD
ATOM     21  H41 UNL     1      -0.189   3.502   0.554  1.00  0.00     0.174 HD
ENDBRANCH   7  19
TORSDOF 4
