REMARK  16 active torsions:
REMARK  status: ('A' for Active; 'I' for Inactive)
REMARK    1  A    between atoms: C2_2  and  C3_3 
REMARK    2  A    between atoms: C3_3  and  N2_7 
REMARK       I    between atoms: N2_7  and  C6_9 
REMARK       I    between atoms: C6_9  and  N7_29 
REMARK    3  A    between atoms: N3_10  and  C7_12 
REMARK    4  A    between atoms: C11_16  and  C12_17 
REMARK    5  A    between atoms: C12_17  and  N5_21 
REMARK    6  A    between atoms: N5_21  and  C13_23 
REMARK    7  A    between atoms: C13_23  and  C14_24 
REMARK    8  A    between atoms: C14_24  and  N6_25 
REMARK    9  A    between atoms: N7_29  and  N8_31 
REMARK       I    between atoms: N8_31  and  C18_33 
REMARK       I    between atoms: C18_33  and  N9_35 
REMARK   10  A    between atoms: N9_35  and  C19_37 
REMARK   11  A    between atoms: C19_37  and  C20_38 
REMARK   12  A    between atoms: C20_38  and  C21_39 
REMARK       I    between atoms: C21_39  and  N10_41 
REMARK   13  A    between atoms: N10_41  and  C22_43 
REMARK   14  A    between atoms: C22_43  and  C23_44 
REMARK   15  A    between atoms: C23_44  and  C24_45 
REMARK   16  A    between atoms: C24_45  and  N11_46 
ROOT
HETATM    1  C3  UNL     1      -0.872   3.144   0.459  1.00  0.00     0.132 C 
HETATM    2  C4  UNL     1      -1.630   2.644   1.655  1.00  0.00     0.055 C 
HETATM    3  C5  UNL     1       0.560   3.340   0.754  1.00  0.00     0.091 C 
HETATM    4  N1  UNL     1       1.684   3.494   1.000  1.00  0.00    -0.195 NA
ENDROOT
BRANCH   1   5
HETATM    5  C2  UNL     1      -1.381   4.579   0.183  1.00  0.00     0.042 C 
HETATM    6  C1  UNL     1      -2.859   4.561  -0.100  1.00  0.00     0.009 C 
ENDBRANCH   1   5
BRANCH   1   7
HETATM    7  N2  UNL     1      -1.116   2.414  -0.734  1.00  0.00    -0.203 N 
HETATM    8  C6  UNL     1      -0.954   0.966  -0.884  1.00  0.00     0.694 C 
HETATM    9  N3  UNL     1      -1.886   0.298  -0.466  1.00  0.00    -0.191 N 
HETATM   10  N7  UNL     1       0.246   0.573  -1.508  1.00  0.00    -0.128 N 
ATOM     11  H3  UNL     1      -2.547   0.987  -0.107  1.00  0.00     0.184 HD
ATOM     12  H7  UNL     1       0.562   1.183  -2.262  1.00  0.00     0.205 HD
ATOM     13  H2  UNL     1      -1.429   2.939  -1.551  1.00  0.00     0.179 HD
BRANCH   9  14
HETATM   14  C7  UNL     1      -2.483  -0.881  -0.239  1.00  0.00     0.050 A 
HETATM   15  C8  UNL     1      -1.860  -1.985   0.336  1.00  0.00     0.030 A 
HETATM   16  C9  UNL     1      -2.572  -3.145   0.518  1.00  0.00     0.003 A 
HETATM   17  C10 UNL     1      -3.889  -3.242   0.145  1.00  0.00     0.015 A 
HETATM   18  C11 UNL     1      -4.562  -2.181  -0.427  1.00  0.00     0.009 A 
HETATM   19  C17 UNL     1      -3.832  -1.030  -0.602  1.00  0.00     0.045 A 
BRANCH  18  20
HETATM   20  C12 UNL     1      -5.959  -2.285  -0.816  1.00  0.00     0.105 C 
HETATM   21  N4  UNL     1      -6.597  -3.367  -0.716  1.00  0.00    -0.385 N 
ATOM     22  H42 UNL     1      -6.058  -4.160  -0.368  1.00  0.00     0.157 HD
ATOM     23  H41 UNL     1      -7.577  -3.440  -0.989  1.00  0.00     0.157 HD
BRANCH  20  24
HETATM   24  N5  UNL     1      -6.723  -1.160  -1.309  1.00  0.00    -0.374 N 
ATOM     25  H5  UNL     1      -6.325  -0.533  -2.008  1.00  0.00     0.161 HD
BRANCH  24  26
HETATM   26  C13 UNL     1      -8.063  -0.934  -0.797  1.00  0.00     0.151 C 
BRANCH  26  27
HETATM   27  C14 UNL     1      -8.666   0.255  -1.455  1.00  0.00     0.290 C 
BRANCH  27  28
HETATM   28  N6  UNL     1     -10.013   0.532  -0.977  1.00  0.00     0.081 N 
HETATM   29  C15 UNL     1     -10.954  -0.498  -1.383  1.00  0.00     0.309 C 
HETATM   30  C16 UNL     1     -10.085   0.804   0.426  1.00  0.00     0.309 C 
ENDBRANCH  27  28
ENDBRANCH  26  27
ENDBRANCH  24  26
ENDBRANCH  20  24
ENDBRANCH  18  20
ENDBRANCH   9  14
BRANCH  10  31
HETATM   31  N8  UNL     1       1.058  -0.512  -1.254  1.00  0.00    -0.237 N 
HETATM   32  C18 UNL     1       1.799  -0.803  -0.100  1.00  0.00     0.335 C 
HETATM   33  O1  UNL     1       1.765  -0.030   0.883  1.00  0.00    -0.246 OA
HETATM   34  N9  UNL     1       2.597  -1.968  -0.004  1.00  0.00    -0.341 N 
ATOM     35  H9  UNL     1       2.648  -2.606  -0.799  1.00  0.00     0.164 HD
ATOM     36  H8  UNL     1       1.129  -1.195  -2.008  1.00  0.00     0.192 HD
BRANCH  34  37
HETATM   37  C19 UNL     1       3.330  -2.268   1.178  1.00  0.00     0.134 C 
BRANCH  37  38
HETATM   38  C20 UNL     1       4.348  -1.272   1.613  1.00  0.00     0.122 C 
BRANCH  38  39
HETATM   39  C21 UNL     1       5.422  -1.046   0.596  1.00  0.00     0.219 C 
HETATM   40  O2  UNL     1       5.352  -1.652  -0.487  1.00  0.00    -0.274 OA
HETATM   41  N10 UNL     1       6.479  -0.159   0.895  1.00  0.00    -0.361 N 
ATOM     42  H10 UNL     1       6.485   0.323   1.794  1.00  0.00     0.162 HD
BRANCH  41  43
HETATM   43  C22 UNL     1       7.543   0.081  -0.032  1.00  0.00     0.124 C 
BRANCH  43  44
HETATM   44  C23 UNL     1       8.333  -1.161  -0.347  1.00  0.00     0.050 C 
BRANCH  44  45
HETATM   45  C24 UNL     1       9.472  -0.834  -1.318  1.00  0.00     0.273 C 
BRANCH  45  46
HETATM   46  N11 UNL     1      10.307   0.142  -0.631  1.00  0.00     0.080 N 
HETATM   47  C25 UNL     1      11.424   0.553  -1.473  1.00  0.00     0.309 C 
HETATM   48  C26 UNL     1      10.784  -0.390   0.635  1.00  0.00     0.309 C 
ENDBRANCH  45  46
ENDBRANCH  44  45
ENDBRANCH  43  44
ENDBRANCH  41  43
ENDBRANCH  38  39
ENDBRANCH  37  38
ENDBRANCH  34  37
ENDBRANCH  10  31
ENDBRANCH   1   7
TORSDOF 16
