REMARK  10 active torsions:
REMARK  status: ('A' for Active; 'I' for Inactive)
REMARK    1  A    between atoms: C2_2  and  O1_5 
REMARK    2  A    between atoms: O1_5  and  C5_6 
REMARK       I    between atoms: C5_6  and  N1_8 
REMARK    3  A    between atoms: C9_12  and  C10_13 
REMARK    4  A    between atoms: C10_13  and  S1_14 
REMARK    5  A    between atoms: S1_14  and  C11_15 
REMARK    6  A    between atoms: C11_15  and  C12_16 
REMARK    7  A    between atoms: C12_16  and  N2_17 
REMARK       I    between atoms: N2_17  and  C13_19 
REMARK    8  A    between atoms: C13_19  and  C14_21 
REMARK    9  A    between atoms: C14_21  and  O4_23 
REMARK   10  A    between atoms: C14_21  and  C16_25 
ROOT
HETATM    1  S1  UNL     1       0.263   0.182   0.925  1.00  0.00    -0.167 SA
ENDROOT
BRANCH   1   2
HETATM    2  C10 UNL     1       0.883  -0.044  -0.764  1.00  0.00     0.080 C 
BRANCH   2   3
HETATM    3  C9  UNL     1       2.212   0.635  -0.947  1.00  0.00     0.013 C 
HETATM    4  C8  UNL     1       2.039   2.091  -0.679  1.00  0.00     0.009 C 
HETATM    5  C7  UNL     1       3.333   2.860  -0.563  1.00  0.00     0.020 C 
HETATM    6  C6  UNL     1       4.113   2.221   0.594  1.00  0.00     0.128 C 
HETATM    7  N1  UNL     1       4.376   0.859   0.184  1.00  0.00    -0.328 N 
HETATM    8  C5  UNL     1       5.726   0.422   0.132  1.00  0.00     0.363 C 
HETATM    9  C20 UNL     1       3.304  -0.018  -0.158  1.00  0.00     0.133 C 
HETATM   10  O2  UNL     1       6.685   1.184   0.429  1.00  0.00    -0.238 OA
BRANCH   8  11
HETATM   11  O1  UNL     1       6.072  -0.873  -0.252  1.00  0.00    -0.294 OA
BRANCH  11  12
HETATM   12  C2  UNL     1       7.403  -1.326  -0.311  1.00  0.00     0.061 C 
HETATM   13  C1  UNL     1       8.243  -0.528  -1.273  1.00  0.00     0.046 C 
HETATM   14  C3  UNL     1       8.052  -1.427   1.052  1.00  0.00     0.046 C 
HETATM   15  C4  UNL     1       7.348  -2.756  -0.862  1.00  0.00     0.046 C 
ENDBRANCH  11  12
ENDBRANCH   8  11
ENDBRANCH   2   3
ENDBRANCH   1   2
BRANCH   1  16
HETATM   16  C11 UNL     1      -1.339  -0.631   1.148  1.00  0.00     0.093 C 
BRANCH  16  17
HETATM   17  C12 UNL     1      -2.345   0.073   0.296  1.00  0.00     0.133 C 
BRANCH  17  18
HETATM   18  N2  UNL     1      -3.666  -0.531   0.426  1.00  0.00    -0.358 N 
HETATM   19  C13 UNL     1      -4.767  -0.019  -0.296  1.00  0.00     0.252 C 
HETATM   20  O3  UNL     1      -4.601   0.961  -1.052  1.00  0.00    -0.270 OA
ATOM     21  H2  UNL     1      -3.796  -1.331   1.045  1.00  0.00     0.162 HD
BRANCH  19  22
HETATM   22  C14 UNL     1      -6.108  -0.624  -0.171  1.00  0.00     0.141 C 
HETATM   23  C15 UNL     1      -6.501  -1.132  -1.539  1.00  0.00     0.057 C 
BRANCH  22  24
HETATM   24  O4  UNL     1      -6.070  -1.706   0.728  1.00  0.00    -0.380 OA
ATOM     25  H4  UNL     1      -6.933  -2.095   0.808  1.00  0.00     0.211 HD
ENDBRANCH  22  24
BRANCH  22  26
HETATM   26  C16 UNL     1      -7.131   0.351   0.374  1.00  0.00    -0.012 C 
HETATM   27  C17 UNL     1      -7.296   1.560  -0.491  1.00  0.00     0.018 C 
HETATM   28  C18 UNL     1      -6.712   0.769   1.766  1.00  0.00     0.018 C 
HETATM   29  C19 UNL     1      -8.447  -0.376   0.500  1.00  0.00     0.018 C 
ENDBRANCH  22  26
ENDBRANCH  19  22
ENDBRANCH  17  18
ENDBRANCH  16  17
ENDBRANCH   1  16
TORSDOF 10
