REMARK  1 active torsions:
REMARK  status: ('A' for Active; 'I' for Inactive)
REMARK    1  A    between atoms: C6_6  and  N1_7 
ROOT
HETATM    1  C1  UNL     1       2.139   0.129   1.071  1.00  0.00     0.015 C 
HETATM    2  C2  UNL     1       1.209   0.026  -0.150  1.00  0.00    -0.046 C 
HETATM    3  C3  UNL     1       2.182  -0.200  -1.321  1.00  0.00     0.015 C 
HETATM    4  C4  UNL     1       0.627   1.384  -0.347  1.00  0.00     0.011 C 
HETATM    5  C5  UNL     1      -0.570   1.533   0.556  1.00  0.00     0.035 C 
HETATM    6  C6  UNL     1      -1.609   0.591  -0.047  1.00  0.00     0.202 C 
HETATM    7  C7  UNL     1      -1.158  -0.803   0.205  1.00  0.00     0.043 C 
HETATM    8  C8  UNL     1      -1.568  -1.149   1.644  1.00  0.00     0.030 C 
HETATM    9  S1  UNL     1      -2.210  -1.874  -0.858  1.00  0.00    -0.085 SA
HETATM   10  C9  UNL     1       0.265  -1.091  -0.036  1.00  0.00     0.032 C 
ENDROOT
BRANCH   6  11
HETATM   11  N1  UNL     1      -1.728   0.801  -1.475  1.00  0.00    -0.073 N 
ATOM     12  H13 UNL     1      -1.929   1.776  -1.697  1.00  0.00     0.274 HD
ATOM     13  H12 UNL     1      -0.826   0.718  -1.945  1.00  0.00     0.274 HD
ATOM     14  H11 UNL     1      -2.422   0.172  -1.878  1.00  0.00     0.274 HD
ENDBRANCH   6  11
TORSDOF 1
