REMARK  14 active torsions:
REMARK  status: ('A' for Active; 'I' for Inactive)
REMARK    1  A    between atoms: O1_1  and  N1_3 
REMARK    2  A    between atoms: N1_3  and  N2_4 
REMARK       I    between atoms: N2_4  and  C1_6 
REMARK    3  A    between atoms: C1_6  and  C2_8 
REMARK       I    between atoms: C2_8  and  N3_10 
REMARK    4  A    between atoms: N3_10  and  C3_12 
REMARK    5  A    between atoms: C4_14  and  C5_15 
REMARK    6  A    between atoms: C5_15  and  O4_16 
REMARK    7  A    between atoms: C5_15  and  O5_18 
REMARK    8  A    between atoms: C7_21  and  N4_22 
REMARK    9  A    between atoms: N4_22  and  N5_24 
REMARK   10  A    between atoms: N5_24  and  C8_26 
REMARK   11  A    between atoms: C11_32  and  C12_33 
REMARK   12  A    between atoms: C12_33  and  O7_34 
REMARK   13  A    between atoms: C12_33  and  O8_36 
REMARK   14  A    between atoms: C13_39  and  O10_40 
ROOT
HETATM    1  C3  UNL     1       2.763  -0.772  -0.811  1.00  0.00     0.113 A 
HETATM    2  S1  UNL     1       3.294   0.753  -0.283  1.00  0.00    -0.069 SA
HETATM    3  C4  UNL     1       2.030   1.856  -0.018  1.00  0.00     0.041 A 
HETATM    4  C6  UNL     1       0.786   1.349  -0.270  1.00  0.00     0.053 A 
HETATM    5  C7  UNL     1       0.475   0.084  -0.700  1.00  0.00     0.085 A 
HETATM    6  C13 UNL     1       1.381  -0.920  -0.958  1.00  0.00     0.128 A 
ENDROOT
BRANCH   5   7
HETATM    7  N4  UNL     1      -0.927  -0.198  -0.926  1.00  0.00    -0.295 N 
ATOM      8  H4  UNL     1      -1.217  -1.144  -1.174  1.00  0.00     0.187 HD
BRANCH   7   9
HETATM    9  N5  UNL     1      -1.884   0.806  -0.809  1.00  0.00    -0.264 N 
ATOM     10  H5  UNL     1      -1.651   1.741  -1.142  1.00  0.00     0.190 HD
BRANCH   9  11
HETATM   11  C8  UNL     1      -3.174   0.587  -0.245  1.00  0.00     0.246 A 
HETATM   12  N6  UNL     1      -3.656   1.494   0.666  1.00  0.00    -0.288 N 
HETATM   13  C9  UNL     1      -4.855   1.371   1.241  1.00  0.00     0.250 A 
ATOM     14  H6  UNL     1      -3.075   2.295   0.914  1.00  0.00     0.172 HD
HETATM   15  O6  UNL     1      -5.267   2.233   2.083  1.00  0.00    -0.268 OA
HETATM   16  C10 UNL     1      -5.620   0.304   0.907  1.00  0.00     0.112 A 
HETATM   17  C11 UNL     1      -5.128  -0.621  -0.022  1.00  0.00     0.116 A 
HETATM   18  O9  UNL     1      -3.949  -0.426  -0.534  1.00  0.00    -0.277 OA
BRANCH  17  19
HETATM   19  C12 UNL     1      -6.015  -1.763  -0.345  1.00  0.00     0.312 C 
BRANCH  19  20
HETATM   20  O7  UNL     1      -5.248  -2.919  -0.355  1.00  0.00    -0.365 OA
ATOM     21  H7  UNL     1      -5.817  -3.651  -0.562  1.00  0.00     0.213 HD
ENDBRANCH  19  20
BRANCH  19  22
HETATM   22  O8  UNL     1      -6.950  -1.943   0.699  1.00  0.00    -0.365 OA
ATOM     23  H8  UNL     1      -7.519  -2.675   0.492  1.00  0.00     0.213 HD
ENDBRANCH  19  22
ENDBRANCH  17  19
ENDBRANCH   9  11
ENDBRANCH   7   9
ENDBRANCH   5   7
BRANCH   6  24
HETATM   24  O10 UNL     1       1.011  -2.183  -1.390  1.00  0.00    -0.356 OA
ATOM     25  H10 UNL     1       0.072  -2.284  -1.490  1.00  0.00     0.218 HD
ENDBRANCH   6  24
BRANCH   3  26
HETATM   26  C5  UNL     1       2.268   3.246   0.448  1.00  0.00     0.295 C 
BRANCH  26  27
HETATM   27  O4  UNL     1       3.206   3.152   1.488  1.00  0.00    -0.367 OA
ATOM     28  H4  UNL     1       3.358   4.041   1.786  1.00  0.00     0.213 HD
ENDBRANCH  26  27
BRANCH  26  29
HETATM   29  O5  UNL     1       1.114   3.849   0.911  1.00  0.00    -0.367 OA
ATOM     30  H5  UNL     1       1.266   4.738   1.209  1.00  0.00     0.213 HD
ENDBRANCH  26  29
ENDBRANCH   3  26
BRANCH   1  31
HETATM   31  N3  UNL     1       3.602  -1.726  -1.071  1.00  0.00    -0.311 N 
HETATM   32  C2  UNL     1       4.991  -1.437  -0.895  1.00  0.00     0.315 C 
HETATM   33  O3  UNL     1       5.637  -0.825  -1.813  1.00  0.00    -0.262 OA
ATOM     34  H3  UNL     1       3.285  -2.642  -1.387  1.00  0.00     0.170 HD
BRANCH  32  35
HETATM   35  C1  UNL     1       5.734  -1.808   0.300  1.00  0.00     0.327 C 
HETATM   36  N2  UNL     1       7.117  -1.488   0.414  1.00  0.00    -0.240 N 
ATOM     37  H2  UNL     1       7.591  -0.998  -0.345  1.00  0.00     0.188 HD
HETATM   38  O2  UNL     1       5.167  -2.410   1.234  1.00  0.00    -0.261 OA
BRANCH  36  39
HETATM   39  N1  UNL     1       7.830  -1.848   1.574  1.00  0.00     0.021 NA
BRANCH  39  40
HETATM   40  O1  UNL     1       7.478  -1.238   2.620  1.00  0.00    -0.277 OA
ATOM     41  H1  UNL     1       7.959  -1.481   3.402  1.00  0.00     0.240 HD
ENDBRANCH  39  40
ENDBRANCH  36  39
ENDBRANCH  32  35
ENDBRANCH   1  31
TORSDOF 14
