REMARK  1 active torsions:
REMARK  status: ('A' for Active; 'I' for Inactive)
REMARK    1  A    between atoms: N1_2  and  C2_4 
ROOT
HETATM    1  C2  UNL     1       0.885  -0.059   0.262  1.00  0.00     0.096 C 
HETATM    2  C3  UNL     1       0.659  -1.459  -0.186  1.00  0.00     0.049 C 
HETATM    3  C4  UNL     1      -0.545  -1.580  -1.095  1.00  0.00     0.047 C 
HETATM    4  C5  UNL     1      -1.734  -0.859  -0.528  1.00  0.00     0.058 C 
HETATM    5  N2  UNL     1      -1.514   0.419  -0.034  1.00  0.00    -0.389 N 
HETATM    6  C6  UNL     1      -2.400   1.459  -0.349  1.00  0.00     0.149 C 
HETATM    7  C7  UNL     1      -0.317   0.732   0.623  1.00  0.00     0.130 C 
HETATM    8  C8  UNL     1      -0.390   0.460   2.120  1.00  0.00     0.105 C 
HETATM    9  S1  UNL     1       1.308  -0.086   2.050  1.00  0.00    -0.134 SA
ENDROOT
BRANCH   1  10
HETATM   10  N1  UNL     1       1.841   0.648  -0.526  1.00  0.00    -0.407 N 
HETATM   11  C1  UNL     1       3.186   0.208  -0.459  1.00  0.00     0.141 C 
ATOM     12  H1  UNL     1       1.568   1.437  -1.113  1.00  0.00     0.154 HD
ENDBRANCH   1  10
TORSDOF 1
