REMARK  14 active torsions:
REMARK  status: ('A' for Active; 'I' for Inactive)
REMARK    1  A    between atoms: O1_2  and  C2_3 
REMARK    2  A    between atoms: C2_3  and  C3_4 
REMARK    3  A    between atoms: C3_4  and  C5_6 
REMARK    4  A    between atoms: C5_6  and  O2_7 
REMARK    5  A    between atoms: C5_6  and  C6_9 
REMARK    6  A    between atoms: C6_9  and  C7_10 
REMARK    7  A    between atoms: C7_10  and  O3_13 
REMARK    8  A    between atoms: C25_32  and  C26_33 
REMARK    9  A    between atoms: C26_33  and  C28_35 
REMARK   10  A    between atoms: C28_35  and  C29_36 
REMARK   11  A    between atoms: C29_36  and  C30_37 
REMARK   12  A    between atoms: C30_37  and  C31_38 
REMARK   13  A    between atoms: C31_38  and  O6_41 
REMARK   14  A    between atoms: O6_41  and  C34_42 
ROOT
HETATM    1  C2  UNL     1      -0.235   1.054   0.938  1.00  0.00     0.158 C 
HETATM    2  C10 UNL     1      -1.558   0.756   1.654  1.00  0.00     0.295 C 
HETATM    3  O4  UNL     1      -1.860   1.172   2.772  1.00  0.00    -0.262 OA
HETATM    4  O5  UNL     1      -2.511  -0.043   1.022  1.00  0.00    -0.312 OA
HETATM    5  C11 UNL     1      -2.121  -0.754  -0.100  1.00  0.00     0.149 C 
HETATM    6  C12 UNL     1      -3.234  -1.693  -0.480  1.00  0.00    -0.012 C 
HETATM    7  C13 UNL     1      -3.830  -2.367   0.681  1.00  0.00     0.018 C 
HETATM    8  C14 UNL     1      -4.339  -0.724  -0.998  1.00  0.00     0.012 C 
HETATM    9  C15 UNL     1      -5.436  -1.410  -1.697  1.00  0.00     0.002 C 
HETATM   10  C16 UNL     1      -5.334  -2.871  -1.874  1.00  0.00     0.009 C 
HETATM   11  C17 UNL     1      -3.939  -3.365  -2.216  1.00  0.00    -0.043 C 
HETATM   12  C18 UNL     1      -3.858  -4.797  -1.803  1.00  0.00     0.015 C 
HETATM   13  C19 UNL     1      -3.877  -3.385  -3.756  1.00  0.00     0.015 C 
HETATM   14  C20 UNL     1      -2.869  -2.464  -1.684  1.00  0.00     0.004 C 
HETATM   15  C21 UNL     1      -1.538  -3.076  -1.563  1.00  0.00     0.007 C 
HETATM   16  C22 UNL     1      -0.450  -2.107  -1.171  1.00  0.00     0.012 C 
HETATM   17  C23 UNL     1      -0.788  -1.340   0.132  1.00  0.00    -0.009 C 
HETATM   18  C24 UNL     1      -0.728  -2.425   1.150  1.00  0.00     0.018 C 
HETATM   19  C25 UNL     1       0.218  -0.226   0.292  1.00  0.00     0.049 C 
ENDROOT
BRANCH   1  20
HETATM   20  O1  UNL     1       0.715   1.398   1.833  1.00  0.00    -0.374 OA
HETATM   21  C1  UNL     1       0.738   2.393   2.685  1.00  0.00     0.203 C 
ENDBRANCH   1  20
BRANCH   1  22
HETATM   22  C3  UNL     1      -0.442   2.245   0.057  1.00  0.00     0.056 C 
HETATM   23  C4  UNL     1       0.711   2.801  -0.686  1.00  0.00     0.016 C 
BRANCH  22  24
HETATM   24  C5  UNL     1      -1.419   3.285   0.501  1.00  0.00     0.128 C 
BRANCH  24  25
HETATM   25  O2  UNL     1      -2.722   2.768   0.592  1.00  0.00    -0.395 OA
ATOM     26  H2  UNL     1      -3.343   3.429   0.874  1.00  0.00     0.210 HD
ENDBRANCH  24  25
BRANCH  24  27
HETATM   27  C6  UNL     1      -1.491   4.504  -0.369  1.00  0.00     0.069 C 
BRANCH  27  28
HETATM   28  C7  UNL     1      -2.494   5.504   0.145  1.00  0.00     0.053 C 
HETATM   29  C8  UNL     1      -2.473   6.728  -0.804  1.00  0.00     0.045 C 
HETATM   30  C9  UNL     1      -3.928   5.032   0.098  1.00  0.00     0.045 C 
BRANCH  28  31
HETATM   31  O3  UNL     1      -2.244   5.964   1.413  1.00  0.00    -0.391 OA
ATOM     32  H3  UNL     1      -2.876   6.595   1.737  1.00  0.00     0.210 HD
ENDBRANCH  28  31
ENDBRANCH  27  28
ENDBRANCH  24  27
ENDBRANCH  22  24
ENDBRANCH   1  22
BRANCH  19  33
HETATM   33  C26 UNL     1       1.590  -0.748   0.673  1.00  0.00     0.012 C 
HETATM   34  C27 UNL     1       1.725  -0.966   2.156  1.00  0.00     0.015 C 
BRANCH  33  35
HETATM   35  C28 UNL     1       2.754  -0.039   0.103  1.00  0.00    -0.026 C 
BRANCH  35  36
HETATM   36  C29 UNL     1       4.136  -0.521   0.294  1.00  0.00    -0.027 C 
BRANCH  36  37
HETATM   37  C30 UNL     1       4.771  -0.640   1.603  1.00  0.00     0.065 C 
BRANCH  37  38
HETATM   38  C31 UNL     1       6.237  -1.115   1.410  1.00  0.00     0.066 C 
HETATM   39  C32 UNL     1       6.305  -2.446   0.740  1.00  0.00     0.046 C 
HETATM   40  C33 UNL     1       6.955  -1.168   2.723  1.00  0.00     0.046 C 
BRANCH  38  41
HETATM   41  O6  UNL     1       6.815  -0.127   0.548  1.00  0.00    -0.311 OA
BRANCH  41  42
HETATM   42  C34 UNL     1       8.156  -0.247   0.162  1.00  0.00     0.255 C 
HETATM   43  C35 UNL     1       8.790   0.761  -0.740  1.00  0.00     0.126 C 
HETATM   44  O7  UNL     1       8.782  -1.241   0.613  1.00  0.00    -0.266 OA
ENDBRANCH  41  42
ENDBRANCH  38  41
ENDBRANCH  37  38
ENDBRANCH  36  37
ENDBRANCH  35  36
ENDBRANCH  33  35
ENDBRANCH  19  33
TORSDOF 14
