REMARK  9 active torsions:
REMARK  status: ('A' for Active; 'I' for Inactive)
REMARK    1  A    between atoms: C2_2  and  O1_3 
REMARK    2  A    between atoms: O1_3  and  C3_4 
REMARK       I    between atoms: C3_4  and  N1_6 
REMARK    3  A    between atoms: N1_6  and  N2_8 
REMARK    4  A    between atoms: C4_10  and  C6_12 
REMARK    5  A    between atoms: C6_12  and  C7_13 
REMARK    6  A    between atoms: C7_13  and  C8_14 
REMARK    7  A    between atoms: C8_14  and  C11_17 
REMARK    8  A    between atoms: C11_17  and  C12_18 
REMARK    9  A    between atoms: C13_20  and  N3_21 
REMARK       I    between atoms: N3_21  and  C14_23 
ROOT
HETATM    1  C8  UNL     1      -1.214  -2.334  -1.008  1.00  0.00    -0.043 C 
HETATM    2  C9  UNL     1      -2.260  -1.969  -2.138  1.00  0.00     0.015 C 
HETATM    3  C10 UNL     1      -0.766  -3.729  -1.343  1.00  0.00     0.015 C 
ENDROOT
BRANCH   1   4
HETATM    4  C7  UNL     1      -0.116  -1.369  -1.263  1.00  0.00     0.014 C 
BRANCH   4   5
HETATM    5  C6  UNL     1       1.097  -1.567  -0.375  1.00  0.00     0.054 C 
BRANCH   5   6
HETATM    6  C4  UNL     1       2.153  -0.585  -0.717  1.00  0.00    -0.000 C 
HETATM    7  N2  UNL     1       3.312  -0.965  -1.115  1.00  0.00    -0.305 N 
ATOM      8  H2  UNL     1       3.500  -1.965  -1.188  1.00  0.00     0.186 HD
HETATM    9  C5  UNL     1       1.862   0.857  -0.604  1.00  0.00     0.065 C 
BRANCH   7  10
HETATM   10  N1  UNL     1       4.324  -0.069  -1.451  1.00  0.00    -0.245 N 
HETATM   11  C3  UNL     1       5.301   0.246  -0.476  1.00  0.00     0.379 C 
HETATM   12  O2  UNL     1       5.302  -0.242   0.680  1.00  0.00    -0.237 OA
ATOM     13  H1  UNL     1       4.360   0.351  -2.380  1.00  0.00     0.192 HD
BRANCH  11  14
HETATM   14  O1  UNL     1       6.301   1.143  -0.838  1.00  0.00    -0.303 OA
BRANCH  14  15
HETATM   15  C2  UNL     1       7.333   1.547   0.024  1.00  0.00     0.176 C 
HETATM   16  C1  UNL     1       6.769   2.219   1.266  1.00  0.00     0.034 C 
ENDBRANCH  14  15
ENDBRANCH  11  14
ENDBRANCH   7  10
ENDBRANCH   5   6
ENDBRANCH   4   5
ENDBRANCH   1   4
BRANCH   1  17
HETATM   17  C11 UNL     1      -1.951  -2.324   0.262  1.00  0.00     0.057 C 
BRANCH  17  18
HETATM   18  C12 UNL     1      -2.764  -1.103   0.564  1.00  0.00     0.009 A 
HETATM   19  S1  UNL     1      -4.436  -0.927   0.043  1.00  0.00    -0.057 SA
HETATM   20  C13 UNL     1      -4.705   0.669   0.635  1.00  0.00     0.151 A 
HETATM   21  N6  UNL     1      -3.541   0.960   1.177  1.00  0.00    -0.339 N 
HETATM   22  C15 UNL     1      -2.564   0.087   1.150  1.00  0.00     0.020 A 
ATOM     23  H6  UNL     1      -3.399   1.868   1.619  1.00  0.00     0.168 HD
HETATM   24  C16 UNL     1      -1.238   0.414   1.842  1.00  0.00     0.069 C 
BRANCH  20  25
HETATM   25  N3  UNL     1      -5.822   1.293   0.502  1.00  0.00    -0.311 N 
HETATM   26  C14 UNL     1      -6.176   2.557   0.919  1.00  0.00     0.187 C 
HETATM   27  N4  UNL     1      -5.337   3.442   1.317  1.00  0.00    -0.373 N 
HETATM   28  N5  UNL     1      -7.554   2.982   0.934  1.00  0.00    -0.064 NA
ATOM     29  H42 UNL     1      -4.362   3.141   1.306  1.00  0.00     0.158 HD
ATOM     30  H41 UNL     1      -5.599   4.378   1.626  1.00  0.00     0.158 HD
ATOM     31  H3  UNL     1      -6.554   0.775   0.016  1.00  0.00     0.170 HD
ENDBRANCH  20  25
ENDBRANCH  17  18
ENDBRANCH   1  17
TORSDOF 9
