REMARK  5 active torsions:
REMARK  status: ('A' for Active; 'I' for Inactive)
REMARK    1  A    between atoms: C3_3  and  C4_4 
REMARK    2  A    between atoms: C4_4  and  C5_5 
REMARK    3  A    between atoms: C5_5  and  C6_6 
REMARK    4  A    between atoms: C6_6  and  N1_7 
REMARK       I    between atoms: N1_7  and  C7_9 
REMARK       I    between atoms: C7_9  and  N2_11 
REMARK    5  A    between atoms: N2_11  and  C8_13 
ROOT
HETATM    1  C1  UNL     1       7.020   0.820  -1.316  1.00  0.00     0.012 C 
HETATM    2  C2  UNL     1       6.033   0.982  -0.627  1.00  0.00    -0.117 C 
HETATM    3  C3  UNL     1       4.840   1.153   0.201  1.00  0.00     0.093 C 
ENDROOT
BRANCH   3   4
HETATM    4  C4  UNL     1       4.140  -0.180   0.431  1.00  0.00     0.014 C 
BRANCH   4   5
HETATM    5  C5  UNL     1       3.712  -0.797  -0.888  1.00  0.00     0.021 C 
BRANCH   5   6
HETATM    6  C6  UNL     1       3.027  -2.111  -0.584  1.00  0.00     0.124 C 
BRANCH   6   7
HETATM    7  N1  UNL     1       1.876  -1.957   0.249  1.00  0.00    -0.343 N 
HETATM    8  C7  UNL     1       0.752  -1.182  -0.135  1.00  0.00     0.316 C 
HETATM    9  O1  UNL     1       0.772  -0.614  -1.250  1.00  0.00    -0.247 OA
HETATM   10  N2  UNL     1      -0.346  -1.074   0.744  1.00  0.00    -0.334 N 
ATOM     11  H2  UNL     1      -0.289  -1.563   1.637  1.00  0.00     0.165 HD
ATOM     12  H1  UNL     1       1.862  -2.423   1.156  1.00  0.00     0.164 HD
BRANCH  10  13
HETATM   13  C8  UNL     1      -1.537  -0.323   0.468  1.00  0.00     0.035 C 
HETATM   14  C9  UNL     1      -2.217  -0.852  -0.752  1.00  0.00     0.035 C 
HETATM   15  C10 UNL     1      -3.544  -0.147  -0.930  1.00  0.00    -0.012 C 
HETATM   16  C11 UNL     1      -4.395  -0.333   0.304  1.00  0.00     0.009 C 
HETATM   17  C15 UNL     1      -3.315   1.332  -1.171  1.00  0.00     0.009 C 
HETATM   18  C12 UNL     1      -3.709   0.337   1.480  1.00  0.00    -0.012 C 
HETATM   19  C13 UNL     1      -3.396   1.787   1.215  1.00  0.00     0.009 C 
HETATM   20  C17 UNL     1      -2.416  -0.411   1.702  1.00  0.00     0.035 C 
HETATM   21  C14 UNL     1      -2.533   1.894  -0.010  1.00  0.00    -0.012 C 
HETATM   22  C16 UNL     1      -1.250   1.150   0.253  1.00  0.00     0.035 C 
ENDBRANCH  10  13
ENDBRANCH   6   7
ENDBRANCH   5   6
ENDBRANCH   4   5
ENDBRANCH   3   4
TORSDOF 5
