REMARK  5 active torsions:
REMARK  status: ('A' for Active; 'I' for Inactive)
REMARK       I    between atoms: C1_2  and  N1_3 
REMARK       I    between atoms: C1_2  and  N2_11 
REMARK    1  A    between atoms: N1_3  and  C2_5 
REMARK    2  A    between atoms: C2_5  and  C3_6 
REMARK    3  A    between atoms: C3_6  and  C4_7 
REMARK    4  A    between atoms: C4_7  and  C5_8 
REMARK    5  A    between atoms: N2_11  and  C8_13 
ROOT
HETATM    1  C8  UNL     1      -1.496   0.314  -0.267  1.00  0.00     0.108 C 
HETATM    2  C9  UNL     1      -1.903   0.999   0.965  1.00  0.00     0.032 C 
HETATM    3  C10 UNL     1      -3.354   1.029   1.283  1.00  0.00    -0.010 C 
HETATM    4  C11 UNL     1      -4.237   1.503   0.180  1.00  0.00     0.009 C 
HETATM    5  C12 UNL     1      -4.681   0.457  -0.782  1.00  0.00    -0.010 C 
HETATM    6  C13 UNL     1      -5.243  -0.775  -0.099  1.00  0.00     0.029 C 
HETATM    7  C14 UNL     1      -4.156  -1.298   0.811  1.00  0.00     0.077 C 
HETATM    8  C15 UNL     1      -3.866  -0.269   1.869  1.00  0.00     0.029 C 
HETATM    9  N3  UNL     1      -2.949  -1.633   0.146  1.00  0.00    -0.411 N 
ATOM     10  H3  UNL     1      -2.454  -2.502   0.345  1.00  0.00     0.154 HD
HETATM   11  C16 UNL     1      -2.462  -0.705  -0.807  1.00  0.00     0.100 C 
HETATM   12  C17 UNL     1      -3.506   0.009  -1.605  1.00  0.00     0.031 C 
ENDROOT
BRANCH   1  13
HETATM   13  N2  UNL     1      -0.211  -0.360  -0.114  1.00  0.00    -0.337 N 
HETATM   14  C1  UNL     1       0.919  -0.016  -0.903  1.00  0.00     0.316 C 
HETATM   15  O1  UNL     1       0.770   0.915  -1.762  1.00  0.00    -0.247 OA
HETATM   16  N1  UNL     1       2.160  -0.685  -0.737  1.00  0.00    -0.343 N 
ATOM     17  H1  UNL     1       2.269  -1.428  -0.047  1.00  0.00     0.164 HD
ATOM     18  H2  UNL     1      -0.121  -1.101   0.581  1.00  0.00     0.164 HD
BRANCH  16  19
HETATM   19  C2  UNL     1       3.263  -0.280  -1.577  1.00  0.00     0.124 C 
BRANCH  19  20
HETATM   20  C3  UNL     1       4.520  -1.051  -1.316  1.00  0.00     0.020 C 
BRANCH  20  21
HETATM   21  C4  UNL     1       5.029  -0.922   0.091  1.00  0.00     0.006 C 
BRANCH  21  22
HETATM   22  C5  UNL     1       5.354   0.473   0.494  1.00  0.00    -0.014 A 
HETATM   23  C6  UNL     1       6.340   1.315  -0.160  1.00  0.00     0.005 A 
HETATM   24  C7  UNL     1       6.730   0.688   1.152  1.00  0.00     0.005 A 
ENDBRANCH  21  22
ENDBRANCH  20  21
ENDBRANCH  19  20
ENDBRANCH  16  19
ENDBRANCH   1  13
TORSDOF 5
