REMARK  5 active torsions:
REMARK  status: ('A' for Active; 'I' for Inactive)
REMARK    1  A    between atoms: C2_2  and  S1_4 
REMARK    2  A    between atoms: S1_4  and  N1_7 
REMARK    3  A    between atoms: N1_7  and  N2_9 
REMARK    4  A    between atoms: N2_9  and  C3_11 
REMARK    5  A    between atoms: C4_14  and  C5_15 
ROOT
HETATM    1  C3  UNL     1       1.183   0.098  -0.117  1.00  0.00     0.164 A 
HETATM    2  N3  UNL     1       0.121  -0.659  -0.400  1.00  0.00    -0.338 N 
ATOM      3  H3  UNL     1       0.237  -1.558  -0.868  1.00  0.00     0.168 HD
HETATM    4  C4  UNL     1      -1.064  -0.234  -0.071  1.00  0.00     0.022 A 
HETATM    5  C11 UNL     1      -1.147   0.985   0.558  1.00  0.00     0.078 A 
HETATM    6  S2  UNL     1       0.491   1.458   0.641  1.00  0.00    -0.062 SA
ENDROOT
BRANCH   1   7
HETATM    7  N2  UNL     1       2.447  -0.173  -0.376  1.00  0.00    -0.270 N 
ATOM      8  H2  UNL     1       2.732  -1.034  -0.842  1.00  0.00     0.190 HD
BRANCH   7   9
HETATM    9  N1  UNL     1       3.372   0.793   0.028  1.00  0.00    -0.224 N 
ATOM     10  H1  UNL     1       3.256   1.289   0.912  1.00  0.00     0.200 HD
BRANCH   9  11
HETATM   11  S1  UNL     1       4.727   1.131  -1.012  1.00  0.00     0.261 S 
HETATM   12  O1  UNL     1       5.172   2.550  -0.868  1.00  0.00    -0.203 OA
HETATM   13  O2  UNL     1       4.302   0.862  -2.419  1.00  0.00    -0.203 OA
BRANCH  11  14
HETATM   14  C2  UNL     1       6.032   0.014  -0.506  1.00  0.00     0.222 C 
HETATM   15  C1  UNL     1       6.265   0.214   0.972  1.00  0.00     0.045 C 
HETATM   16 CL1  UNL     1       7.514   0.298  -1.434  1.00  0.00    -0.107 Cl
ENDBRANCH  11  14
ENDBRANCH   9  11
ENDBRANCH   7   9
ENDBRANCH   1   7
BRANCH   4  17
HETATM   17  C5  UNL     1      -2.356  -0.997  -0.333  1.00  0.00     0.036 C 
HETATM   18  C6  UNL     1      -3.017  -1.316   0.996  1.00  0.00     0.011 C 
HETATM   19  C7  UNL     1      -4.510  -1.184   0.943  1.00  0.00     0.001 C 
HETATM   20  C8  UNL     1      -4.894   0.220   0.542  1.00  0.00     0.000 C 
HETATM   21  C9  UNL     1      -4.239   0.653  -0.722  1.00  0.00     0.001 C 
HETATM   22  C10 UNL     1      -3.235  -0.278  -1.294  1.00  0.00     0.011 C 
ENDBRANCH   4  17
TORSDOF 5
