REMARK  15 active torsions:
REMARK  status: ('A' for Active; 'I' for Inactive)
REMARK    1  A    between atoms: O1_2  and  C2_3 
REMARK    2  A    between atoms: C4_5  and  C5_6 
REMARK    3  A    between atoms: C6_7  and  O2_8 
REMARK    4  A    between atoms: C8_11  and  O3_12 
REMARK    5  A    between atoms: C12_16  and  O4_17 
REMARK    6  A    between atoms: O4_17  and  C13_18 
REMARK    7  A    between atoms: C13_18  and  C14_20 
REMARK       I    between atoms: C14_20  and  N1_22 
REMARK    8  A    between atoms: N1_22  and  N2_24 
REMARK    9  A    between atoms: C15_27  and  O7_28 
REMARK   10  A    between atoms: O7_28  and  C16_29 
REMARK   11  A    between atoms: C18_32  and  C19_33 
REMARK   12  A    between atoms: C19_33  and  O9_34 
REMARK   13  A    between atoms: C19_33  and  C20_36 
REMARK   14  A    between atoms: C23_41  and  O12_42 
REMARK   15  A    between atoms: C24_44  and  O13_45 
ROOT
HETATM    1  C5  UNL     1       1.008  -0.033  -1.499  1.00  0.00     0.017 A 
HETATM    2  C6  UNL     1       1.346   0.400  -2.788  1.00  0.00     0.080 A 
HETATM    3  C7  UNL     1       0.401   0.919  -3.619  1.00  0.00     0.074 A 
HETATM    4  C8  UNL     1      -0.902   1.001  -3.133  1.00  0.00     0.077 A 
HETATM    5  C10 UNL     1      -1.237   0.593  -1.905  1.00  0.00    -0.014 A 
HETATM    6  C11 UNL     1      -0.278   0.046  -1.020  1.00  0.00    -0.003 A 
HETATM    7  C12 UNL     1      -0.741  -0.413   0.303  1.00  0.00     0.197 C 
HETATM    8  C15 UNL     1      -1.712   0.525   0.969  1.00  0.00     0.173 C 
HETATM    9  C18 UNL     1      -2.217   1.519  -0.008  1.00  0.00     0.062 C 
HETATM   10  C21 UNL     1      -2.569   0.719  -1.291  1.00  0.00     0.052 C 
ENDROOT
BRANCH   1  11
HETATM   11  C4  UNL     1       2.090  -0.529  -0.670  1.00  0.00    -0.017 A 
HETATM   12  C3  UNL     1       2.679   0.205   0.333  1.00  0.00     0.052 A 
HETATM   13  C2  UNL     1       3.725  -0.261   1.094  1.00  0.00     0.104 A 
HETATM   14  C24 UNL     1       4.195  -1.540   0.819  1.00  0.00     0.132 A 
HETATM   15  C23 UNL     1       3.649  -2.326  -0.173  1.00  0.00     0.102 A 
HETATM   16  C22 UNL     1       2.591  -1.784  -0.902  1.00  0.00     0.052 A 
BRANCH  13  17
HETATM   17  O1  UNL     1       4.294   0.509   2.099  1.00  0.00    -0.353 OA
HETATM   18  C1  UNL     1       3.838   1.813   2.400  1.00  0.00     0.210 C 
ENDBRANCH  13  17
BRANCH  14  19
HETATM   19  O13 UNL     1       5.237  -1.998   1.580  1.00  0.00    -0.356 OA
ATOM     20  H13 UNL     1       5.558  -2.872   1.392  1.00  0.00     0.218 HD
ENDBRANCH  14  19
BRANCH  15  21
HETATM   21  O12 UNL     1       4.108  -3.608  -0.460  1.00  0.00    -0.358 OA
ATOM     22  H12 UNL     1       4.829  -3.977   0.037  1.00  0.00     0.217 HD
ENDBRANCH  15  21
ENDBRANCH   1  11
BRANCH   2  23
HETATM   23  O2  UNL     1       2.676   0.292  -3.215  1.00  0.00    -0.360 OA
ATOM     24  H2  UNL     1       2.905   0.586  -4.089  1.00  0.00     0.217 HD
ENDBRANCH   2  23
BRANCH   7  25
HETATM   25  O4  UNL     1      -1.192  -1.713   0.153  1.00  0.00    -0.301 OA
BRANCH  25  26
HETATM   26  C13 UNL     1      -0.735  -2.810   0.801  1.00  0.00     0.353 C 
HETATM   27  O5  UNL     1       0.175  -2.585   1.610  1.00  0.00    -0.254 OA
BRANCH  26  28
HETATM   28  C14 UNL     1      -1.211  -4.164   0.622  1.00  0.00     0.334 C 
HETATM   29  O6  UNL     1      -2.149  -4.367  -0.185  1.00  0.00    -0.260 OA
HETATM   30  N1  UNL     1      -0.642  -5.235   1.330  1.00  0.00    -0.268 N 
ATOM     31  H1  UNL     1       0.121  -5.044   1.980  1.00  0.00     0.190 HD
BRANCH  30  32
HETATM   32  N2  UNL     1      -1.084  -6.560   1.177  1.00  0.00    -0.342 N 
ATOM     33  H22 UNL     1      -1.848  -6.733   0.523  1.00  0.00     0.176 HD
ATOM     34  H21 UNL     1      -0.671  -7.338   1.691  1.00  0.00     0.176 HD
ENDBRANCH  30  32
ENDBRANCH  26  28
ENDBRANCH  25  26
ENDBRANCH   7  25
BRANCH   4  35
HETATM   35  O3  UNL     1      -1.892   1.521  -3.943  1.00  0.00    -0.355 OA
HETATM   36  C9  UNL     1      -1.546   1.952  -5.239  1.00  0.00     0.210 C 
ENDBRANCH   4  35
BRANCH   8  37
HETATM   37  O7  UNL     1      -1.150   1.195   2.059  1.00  0.00    -0.313 OA
BRANCH  37  38
HETATM   38  C16 UNL     1      -1.577   1.092   3.381  1.00  0.00     0.255 C 
HETATM   39  C17 UNL     1      -0.893   1.858   4.438  1.00  0.00     0.126 C 
HETATM   40  O8  UNL     1      -2.543   0.328   3.571  1.00  0.00    -0.266 OA
ENDBRANCH  37  38
ENDBRANCH   8  37
BRANCH   9  41
HETATM   41  C19 UNL     1      -3.381   2.369   0.451  1.00  0.00     0.225 C 
BRANCH  41  42
HETATM   42  O9  UNL     1      -2.869   3.050   1.597  1.00  0.00    -0.384 OA
ATOM     43  H9  UNL     1      -3.600   3.584   1.885  1.00  0.00     0.210 HD
ENDBRANCH  41  42
BRANCH  41  44
HETATM   44  C20 UNL     1      -3.619   3.431  -0.536  1.00  0.00     0.203 C 
HETATM   45  O10 UNL     1      -4.270   3.231  -1.600  1.00  0.00    -0.646 OA
HETATM   46  O11 UNL     1      -3.098   4.715  -0.281  1.00  0.00    -0.646 OA
ENDBRANCH  41  44
ENDBRANCH   9  41
TORSDOF 15
