REMARK  3 active torsions:
REMARK  status: ('A' for Active; 'I' for Inactive)
REMARK    1  A    between atoms: N1_1  and  C1_4 
REMARK    2  A    between atoms: C2_7  and  C3_8 
REMARK    3  A    between atoms: C5_21  and  C6_22 
ROOT
HETATM    1  C1  UNL     1       1.095   2.822  -1.505  1.00  0.00     0.679 A 
HETATM    2  N2  UNL     1      -0.013   2.090  -1.293  1.00  0.00    -0.187 N 
ATOM      3  H2  UNL     1      -0.886   2.405  -1.715  1.00  0.00     0.184 HD
HETATM    4  C2  UNL     1      -0.034   0.955  -0.548  1.00  0.00     0.112 A 
HETATM    5  C5  UNL     1       1.163   0.572  -0.002  1.00  0.00     0.078 A 
HETATM    6  C11 UNL     1       2.326   1.331  -0.217  1.00  0.00     0.273 A 
HETATM    7  O1  UNL     1       3.433   1.000   0.273  1.00  0.00    -0.267 OA
HETATM    8  N10 UNL     1       2.267   2.445  -0.968  1.00  0.00    -0.156 N 
ATOM      9  H10 UNL     1       3.107   3.000  -1.129  1.00  0.00     0.187 HD
ENDROOT
BRANCH   4  10
HETATM   10  C3  UNL     1      -1.297   0.236  -0.369  1.00  0.00     0.166 A 
HETATM   11  N3  UNL     1      -1.531  -0.894   0.327  1.00  0.00    -0.245 N 
HETATM   12  N4  UNL     1      -2.809  -1.245   0.251  1.00  0.00    -0.001 N 
ATOM     13  H3  UNL     1      -0.820  -1.411   0.844  1.00  0.00     0.191 HD
HETATM   14  N5  UNL     1      -3.758  -2.108   0.596  1.00  0.00    -0.191 N 
HETATM   15  C4  UNL     1      -3.409  -0.322  -0.509  1.00  0.00     0.737 A 
HETATM   16  N6  UNL     1      -4.903  -1.727   0.065  1.00  0.00    -0.212 N 
ATOM     17  H5  UNL     1      -3.622  -2.934   1.179  1.00  0.00     0.212 HD
HETATM   18  N7  UNL     1      -4.714  -0.618  -0.628  1.00  0.00    -0.113 N 
ATOM     19  H6  UNL     1      -5.794  -2.212   0.172  1.00  0.00     0.210 HD
ATOM     20  H7  UNL     1      -5.417  -0.093  -1.148  1.00  0.00     0.207 HD
HETATM   21  N8  UNL     1      -2.487   0.577  -0.885  1.00  0.00    -0.168 N 
ATOM     22  H8  UNL     1      -2.663   1.393  -1.472  1.00  0.00     0.186 HD
ENDBRANCH   4  10
BRANCH   5  23
HETATM   23  C6  UNL     1       1.273  -0.638   0.787  1.00  0.00     0.038 A 
HETATM   24  C7  UNL     1       1.436  -1.874   0.190  1.00  0.00     0.018 A 
HETATM   25  C8  UNL     1       1.547  -3.035   0.940  1.00  0.00     0.018 A 
HETATM   26  C9  UNL     1       1.491  -2.932   2.327  1.00  0.00     0.090 A 
HETATM   27  N9  UNL     1       1.333  -1.726   2.883  1.00  0.00    -0.342 N 
HETATM   28  C10 UNL     1       1.223  -0.582   2.160  1.00  0.00     0.199 A 
ATOM     29  H9  UNL     1       1.293  -1.662   3.900  1.00  0.00     0.167 HD
HETATM   30  F1  UNL     1       1.067   0.598   2.849  1.00  0.00    -0.185 F 
ENDBRANCH   5  23
BRANCH   1  31
HETATM   31  N1  UNL     1       0.991   3.895  -2.245  1.00  0.00    -0.234 N 
ATOM     32  H12 UNL     1       0.101   4.181  -2.653  1.00  0.00     0.174 HD
ATOM     33  H11 UNL     1       1.831   4.450  -2.406  1.00  0.00     0.174 HD
ENDBRANCH   1  31
TORSDOF 3
