REMARK  3 active torsions:
REMARK  status: ('A' for Active; 'I' for Inactive)
REMARK    1  A    between atoms: C4_9  and  N4_10 
REMARK    2  A    between atoms: C6_20  and  N8_21 
REMARK    3  A    between atoms: C10_28  and  N9_29 
ROOT
HETATM    1  C1  UNL     1      -3.244  -1.317   1.576  1.00  0.00     0.179 C 
HETATM    2  N1  UNL     1      -2.595  -0.563   0.522  1.00  0.00    -0.279 N 
HETATM    3  N2  UNL     1      -1.292  -0.436   0.380  1.00  0.00    -0.295 N 
ATOM      4  H2  UNL     1      -0.748  -0.925   1.091  1.00  0.00     0.187 HD
HETATM    5  C2  UNL     1      -0.580   0.185  -0.482  1.00  0.00     0.079 A 
HETATM    6  C3  UNL     1       0.845   0.358  -0.624  1.00  0.00     0.095 A 
HETATM    7  N3  UNL     1       1.311   0.763  -1.852  1.00  0.00    -0.189 N 
ATOM      8  H3  UNL     1       0.617   1.013  -2.557  1.00  0.00     0.184 HD
HETATM    9  C4  UNL     1       2.581   0.855  -2.194  1.00  0.00     0.678 A 
HETATM   10  N5  UNL     1       3.519   0.533  -1.286  1.00  0.00    -0.175 N 
ATOM     11  H5  UNL     1       4.512   0.587  -1.515  1.00  0.00     0.186 HD
HETATM   12  C5  UNL     1       3.113   0.141  -0.078  1.00  0.00     0.152 A 
HETATM   13  N6  UNL     1       3.831  -0.221   1.011  1.00  0.00    -0.282 N 
ATOM     14  H6  UNL     1       4.850  -0.261   1.049  1.00  0.00     0.188 HD
HETATM   15  N7  UNL     1       3.046  -0.509   1.995  1.00  0.00    -0.278 N 
ATOM     16  H7  UNL     1       3.359  -0.810   2.918  1.00  0.00     0.189 HD
HETATM   17  C6  UNL     1       1.707  -0.351   1.620  1.00  0.00     0.204 A 
HETATM   18  C7  UNL     1       1.765   0.042   0.311  1.00  0.00     0.091 A 
HETATM   19  C8  UNL     1      -1.354   0.870  -1.469  1.00  0.00     0.079 A 
HETATM   20  C9  UNL     1      -2.715   0.792  -1.398  1.00  0.00     0.163 A 
HETATM   21  F1  UNL     1      -3.482   1.448  -2.351  1.00  0.00    -0.202 F 
HETATM   22  C10 UNL     1      -3.350   0.084  -0.414  1.00  0.00     0.154 A 
ENDROOT
BRANCH   9  23
HETATM   23  N4  UNL     1       2.972   1.250  -3.379  1.00  0.00    -0.234 N 
ATOM     24  H42 UNL     1       2.260   1.494  -4.068  1.00  0.00     0.174 HD
ATOM     25  H41 UNL     1       3.955   1.321  -3.644  1.00  0.00     0.174 HD
ENDBRANCH   9  23
BRANCH  17  26
HETATM   26  N8  UNL     1       0.680  -0.540   2.551  1.00  0.00    -0.095 N 
HETATM   27  O1  UNL     1      -0.249   0.196   2.902  1.00  0.00    -0.530 OA
HETATM   28  O2  UNL     1       0.829  -1.647   3.403  1.00  0.00    -0.530 OA
ENDBRANCH  17  26
BRANCH  22  29
HETATM   29  N9  UNL     1      -4.637   0.013  -0.358  1.00  0.00    -0.382 N 
ATOM     30  H92 UNL     1      -5.110  -0.515   0.375  1.00  0.00     0.157 HD
ATOM     31  H91 UNL     1      -5.201   0.496  -1.057  1.00  0.00     0.157 HD
ENDBRANCH  22  29
TORSDOF 3
