REMARK  8 active torsions:
REMARK  status: ('A' for Active; 'I' for Inactive)
REMARK    1  A    between atoms: C1_2  and  C2_4 
REMARK    2  A    between atoms: C2_4  and  C3_5 
REMARK    3  A    between atoms: C6_8  and  C7_9 
REMARK       I    between atoms: C7_9  and  N1_11 
REMARK    4  A    between atoms: N1_11  and  C8_13 
REMARK    5  A    between atoms: C8_13  and  C9_14 
REMARK    6  A    between atoms: C8_13  and  C10_17 
REMARK    7  A    between atoms: C11_20  and  O8_21 
REMARK    8  A    between atoms: C11_20  and  C12_23 
ROOT
HETATM    1  C3  UNL     1       2.226  -1.334   0.864  1.00  0.00     0.042 C 
HETATM    2  C4  UNL     1       1.956  -1.140   2.323  1.00  0.00     0.010 C 
HETATM    3  C5  UNL     1       0.425  -1.045   2.439  1.00  0.00     0.018 C 
HETATM    4  C6  UNL     1      -0.062  -1.046   1.006  1.00  0.00     0.123 C 
HETATM    5  C11 UNL     1       1.119  -0.432   0.286  1.00  0.00     0.161 C 
ENDROOT
BRANCH   4   6
HETATM    6  C7  UNL     1      -1.302  -0.256   0.844  1.00  0.00     0.226 C 
HETATM    7  O3  UNL     1      -1.765   0.291   1.879  1.00  0.00    -0.273 OA
HETATM    8  N1  UNL     1      -1.986  -0.078  -0.371  1.00  0.00    -0.338 N 
ATOM      9  H1  UNL     1      -1.635  -0.511  -1.226  1.00  0.00     0.163 HD
BRANCH   8  10
HETATM   10  C8  UNL     1      -3.191   0.723  -0.402  1.00  0.00     0.287 C 
BRANCH  10  11
HETATM   11  C9  UNL     1      -4.328  -0.044  -0.949  1.00  0.00     0.207 C 
HETATM   12  O4  UNL     1      -4.148  -1.225  -1.309  1.00  0.00    -0.646 OA
HETATM   13  O5  UNL     1      -5.562   0.548  -1.054  1.00  0.00    -0.646 OA
ENDBRANCH  10  11
BRANCH  10  14
HETATM   14  C10 UNL     1      -3.013   1.901  -1.299  1.00  0.00     0.207 C 
HETATM   15  O6  UNL     1      -1.955   2.120  -1.919  1.00  0.00    -0.646 OA
HETATM   16  O7  UNL     1      -4.096   2.765  -1.418  1.00  0.00    -0.646 OA
ENDBRANCH  10  14
ENDBRANCH   8  10
ENDBRANCH   4   6
BRANCH   5  17
HETATM   17  O8  UNL     1       1.243   0.866   0.758  1.00  0.00    -0.377 OA
ATOM     18  H8  UNL     1       0.560   1.422   0.402  1.00  0.00     0.211 HD
ENDBRANCH   5  17
BRANCH   5  19
HETATM   19  C12 UNL     1       1.061  -0.522  -1.169  1.00  0.00     0.210 C 
HETATM   20  O9  UNL     1       0.991  -1.657  -1.705  1.00  0.00    -0.646 OA
HETATM   21  O10 UNL     1       1.077   0.578  -2.014  1.00  0.00    -0.646 OA
ENDBRANCH   5  19
BRANCH   1  22
HETATM   22  C2  UNL     1       3.561  -0.996   0.355  1.00  0.00     0.121 C 
BRANCH  22  23
HETATM   23  C1  UNL     1       4.037   0.368   0.498  1.00  0.00     0.173 C 
HETATM   24  O1  UNL     1       4.133   0.963   1.597  1.00  0.00    -0.648 OA
HETATM   25  O2  UNL     1       4.416   1.093  -0.629  1.00  0.00    -0.648 OA
ENDBRANCH  22  23
ENDBRANCH   1  22
TORSDOF 8
