REMARK  6 active torsions:
REMARK  status: ('A' for Active; 'I' for Inactive)
REMARK    1  A    between atoms: N1_1  and  N2_4 
REMARK    2  A    between atoms: N2_4  and  C1_5 
REMARK    3  A    between atoms: C2_7  and  O1_8 
REMARK    4  A    between atoms: C2_7  and  C3_10 
REMARK    5  A    between atoms: C5_14  and  N5_15 
REMARK    6  A    between atoms: N5_15  and  N6_17 
ROOT
HETATM    1  C3  UNL     1      -0.543  -0.239   0.359  1.00  0.00     0.034 A 
HETATM    2  C4  UNL     1       0.693   0.163  -0.086  1.00  0.00     0.122 A 
HETATM    3  N4  UNL     1       1.808  -0.001   0.681  1.00  0.00    -0.200 N 
ATOM      4  H4  UNL     1       2.710   0.309   0.319  1.00  0.00     0.183 HD
HETATM    5  C5  UNL     1       1.751  -0.555   1.889  1.00  0.00     0.696 A 
HETATM    6  N7  UNL     1       0.551  -0.950   2.336  1.00  0.00    -0.200 N 
ATOM      7  H7  UNL     1       0.499  -1.375   3.262  1.00  0.00     0.183 HD
HETATM    8  C6  UNL     1      -0.583  -0.820   1.639  1.00  0.00     0.122 A 
ENDROOT
BRANCH   1   9
HETATM    9  C2  UNL     1      -1.747  -0.115  -0.420  1.00  0.00     0.136 C 
HETATM   10  C1  UNL     1      -1.950   0.359  -1.769  1.00  0.00     0.246 C 
HETATM   11  N3  UNL     1      -3.382   0.308  -2.162  1.00  0.00    -0.062 NA
BRANCH  10  12
HETATM   12  N2  UNL     1      -1.217   0.765  -2.598  1.00  0.00    -0.315 NA
BRANCH  12  13
HETATM   13  N1  UNL     1      -0.407   1.213  -3.514  1.00  0.00    -0.279 N 
ATOM     14  H12 UNL     1      -1.034   0.840  -2.801  1.00  0.00     0.191 HD
ATOM     15  H11 UNL     1       0.227   1.564  -4.231  1.00  0.00     0.191 HD
ENDBRANCH  12  13
ENDBRANCH  10  12
BRANCH   9  16
HETATM   16  O1  UNL     1      -2.818  -0.509   0.236  1.00  0.00    -0.356 OA
ATOM     17  H1  UNL     1      -2.684  -0.821   1.123  1.00  0.00     0.218 HD
ENDBRANCH   9  16
ENDBRANCH   1   9
BRANCH   5  18
HETATM   18  N5  UNL     1       2.846  -0.705   2.608  1.00  0.00    -0.139 N 
ATOM     19  H5  UNL     1       2.811  -1.129   3.535  1.00  0.00     0.205 HD
BRANCH  18  20
HETATM   20  N6  UNL     1       4.049  -0.268   2.066  1.00  0.00    -0.331 N 
ATOM     21  H62 UNL     1       4.067   0.154   1.138  1.00  0.00     0.177 HD
ATOM     22  H61 UNL     1       4.896  -0.384   2.622  1.00  0.00     0.177 HD
ENDBRANCH  18  20
ENDBRANCH   5  18
TORSDOF 6
