REMARK  6 active torsions:
REMARK  status: ('A' for Active; 'I' for Inactive)
REMARK    1  A    between atoms: C2_2  and  C3_3 
REMARK    2  A    between atoms: C6_6  and  O1_7 
REMARK    3  A    between atoms: O1_7  and  C7_8 
REMARK    4  A    between atoms: C7_8  and  C8_9 
REMARK    5  A    between atoms: C8_9  and  N1_10 
REMARK    6  A    between atoms: C11_13  and  N3_16 
ROOT
HETATM    1  N1  UNL     1      -1.814   0.201  -1.500  1.00  0.00     0.090 N 
HETATM    2  C9  UNL     1      -3.071   0.162  -2.235  1.00  0.00     0.276 C 
HETATM    3  C10 UNL     1      -4.229   0.581  -1.355  1.00  0.00     0.077 C 
HETATM    4  C11 UNL     1      -4.301  -0.351  -0.129  1.00  0.00     0.129 C 
HETATM    5  C12 UNL     1      -4.388  -1.694  -0.713  1.00  0.00     0.091 C 
HETATM    6  N2  UNL     1      -4.441  -2.776  -1.170  1.00  0.00    -0.195 NA
HETATM    7  C17 UNL     1      -3.010  -0.200   0.577  1.00  0.00     0.077 C 
HETATM    8  C18 UNL     1      -1.992   0.667  -0.153  1.00  0.00     0.276 C 
ENDROOT
BRANCH   4   9
HETATM    9  N3  UNL     1      -5.488  -0.064   0.554  1.00  0.00    -0.311 N 
HETATM   10  C13 UNL     1      -6.493  -1.114   0.692  1.00  0.00     0.139 C 
HETATM   11  C14 UNL     1      -7.800  -0.627   1.196  1.00  0.00     0.123 C 
HETATM   12  C15 UNL     1      -8.081   0.798   1.028  1.00  0.00     0.227 C 
HETATM   13  O2  UNL     1      -9.190   1.271   0.612  1.00  0.00    -0.273 OA
HETATM   14  N4  UNL     1      -7.029   1.720   1.359  1.00  0.00    -0.279 N 
HETATM   15  C16 UNL     1      -5.714   1.232   1.097  1.00  0.00     0.326 C 
ATOM     16  H4  UNL     1      -7.208   2.646   1.749  1.00  0.00     0.173 HD
HETATM   17  O3  UNL     1      -4.724   1.914   1.333  1.00  0.00    -0.247 OA
ENDBRANCH   4   9
BRANCH   1  18
HETATM   18  C8  UNL     1      -0.950   1.112  -2.226  1.00  0.00     0.299 C 
BRANCH  18  19
HETATM   19  C7  UNL     1       0.395   1.265  -1.586  1.00  0.00     0.206 C 
BRANCH  19  20
HETATM   20  O1  UNL     1       1.091   0.029  -1.505  1.00  0.00    -0.348 OA
BRANCH  20  21
HETATM   21  C6  UNL     1       2.350  -0.081  -0.955  1.00  0.00     0.090 A 
HETATM   22  C5  UNL     1       3.037   0.994  -0.442  1.00  0.00     0.039 A 
HETATM   23  C4  UNL     1       4.290   0.778   0.084  1.00  0.00     0.013 A 
HETATM   24  C3  UNL     1       4.875  -0.470   0.114  1.00  0.00    -0.021 A 
HETATM   25  C20 UNL     1       4.188  -1.541  -0.398  1.00  0.00     0.036 A 
HETATM   26  C19 UNL     1       2.928  -1.339  -0.930  1.00  0.00     0.068 A 
HETATM   27 CL1  UNL     1       2.055  -2.713  -1.583  1.00  0.00    -0.081 Cl
BRANCH  24  28
HETATM   28  C2  UNL     1       6.214  -0.646   0.686  1.00  0.00     0.116 C 
HETATM   29  C1  UNL     1       6.712  -2.062   0.447  1.00  0.00     0.052 C 
HETATM   30  N5  UNL     1       6.128  -0.455   2.122  1.00  0.00    -0.360 N 
HETATM   31  C21 UNL     1       7.383   0.055   2.529  1.00  0.00     0.078 C 
ATOM     32  H5  UNL     1       5.324  -0.650   2.718  1.00  0.00     0.162 HD
HETATM   33  N6  UNL     1       7.832   0.019   3.753  1.00  0.00    -0.389 N 
HETATM   34  C22 UNL     1       8.120   0.637   1.376  1.00  0.00     0.157 C 
ATOM     35  H62 UNL     1       7.326  -0.380   4.544  1.00  0.00     0.157 HD
ATOM     36  H61 UNL     1       8.737   0.387   4.046  1.00  0.00     0.157 HD
HETATM   37  C23 UNL     1       7.182   0.367   0.253  1.00  0.00     0.166 C 
HETATM   38  O4  UNL     1       7.238   0.919  -0.845  1.00  0.00    -0.294 OA
ENDBRANCH  24  28
ENDBRANCH  20  21
ENDBRANCH  19  20
ENDBRANCH  18  19
ENDBRANCH   1  18
TORSDOF 6
