REMARK  9 active torsions:
REMARK  status: ('A' for Active; 'I' for Inactive)
REMARK    1  A    between atoms: C2_3  and  C3_4 
REMARK    2  A    between atoms: C3_4  and  C4_5 
REMARK    3  A    between atoms: C4_5  and  C5_6 
REMARK    4  A    between atoms: C5_6  and  C6_7 
REMARK    5  A    between atoms: C6_7  and  C7_8 
REMARK    6  A    between atoms: C7_8  and  C8_9 
REMARK    7  A    between atoms: C8_9  and  C9_10 
REMARK    8  A    between atoms: C9_10  and  C10_11 
REMARK    9  A    between atoms: C10_11  and  C11_12 
ROOT
HETATM    1  N1  UNL     1       6.369   1.913   1.018  1.00  0.00    -0.197 NA
HETATM    2  C1  UNL     1       5.883   1.308   0.166  1.00  0.00     0.059 C 
HETATM    3  C2  UNL     1       5.271   0.565  -0.908  1.00  0.00     0.124 C 
ENDROOT
BRANCH   3   4
HETATM    4  C3  UNL     1       4.409  -0.577  -0.415  1.00  0.00     0.014 C 
BRANCH   4   5
HETATM    5  C4  UNL     1       3.289  -0.115   0.458  1.00  0.00     0.001 C 
BRANCH   5   6
HETATM    6  C5  UNL     1       2.385   0.831  -0.274  1.00  0.00     0.000 C 
BRANCH   6   7
HETATM    7  C6  UNL     1       1.249   1.308   0.590  1.00  0.00     0.000 C 
BRANCH   7   8
HETATM    8  C7  UNL     1       0.380   0.195   1.082  1.00  0.00     0.000 C 
BRANCH   8   9
HETATM    9  C8  UNL     1      -0.254  -0.584  -0.034  1.00  0.00     0.000 C 
BRANCH   9  10
HETATM   10  C9  UNL     1      -1.130  -1.691   0.420  1.00  0.00     0.002 C 
BRANCH  10  11
HETATM   11  C10 UNL     1      -2.312  -1.337   1.233  1.00  0.00     0.033 C 
BRANCH  11  12
HETATM   12  C11 UNL     1      -3.344  -0.478   0.632  1.00  0.00     0.186 C 
HETATM   13  C12 UNL     1      -3.984  -1.055  -0.612  1.00  0.00     0.034 C 
HETATM   14  C13 UNL     1      -4.865   0.115  -1.040  1.00  0.00     0.029 C 
HETATM   15  C14 UNL     1      -3.941   1.284  -0.743  1.00  0.00     0.233 C 
HETATM   16  N2  UNL     1      -2.978   0.826   0.212  1.00  0.00    -0.071 N 
ATOM     17  H22 UNL     1      -2.865   1.471   0.994  1.00  0.00     0.277 HD
ATOM     18  H21 UNL     1      -2.023   0.869  -0.144  1.00  0.00     0.277 HD
ENDBRANCH  11  12
ENDBRANCH  10  11
ENDBRANCH   9  10
ENDBRANCH   8   9
ENDBRANCH   7   8
ENDBRANCH   6   7
ENDBRANCH   5   6
ENDBRANCH   4   5
ENDBRANCH   3   4
TORSDOF 9
