REMARK  8 active torsions:
REMARK  status: ('A' for Active; 'I' for Inactive)
REMARK    1  A    between atoms: O1_2  and  C2_3 
REMARK    2  A    between atoms: C2_3  and  C3_4 
REMARK    3  A    between atoms: C3_4  and  C4_5 
REMARK    4  A    between atoms: C4_5  and  N1_6 
REMARK    5  A    between atoms: N1_6  and  C5_8 
REMARK    6  A    between atoms: C6_11  and  N3_12 
REMARK    7  A    between atoms: C11_20  and  S1_21 
REMARK    8  A    between atoms: S1_21  and  C12_22 
ROOT
HETATM    1  C5  UNL     1       0.643   0.144  -0.834  1.00  0.00     0.694 A 
HETATM    2  N2  UNL     1       0.777   1.445  -0.607  1.00  0.00    -0.022 N 
ATOM      3  H2  UNL     1       1.575   1.926  -1.021  1.00  0.00     0.203 HD
HETATM    4  C6  UNL     1      -0.083   2.166   0.141  1.00  0.00     0.697 A 
HETATM    5  N4  UNL     1      -1.116   1.495   0.665  1.00  0.00    -0.169 N 
ATOM      6  H4  UNL     1      -1.787   2.008   1.236  1.00  0.00     0.186 HD
HETATM    7  C11 UNL     1      -1.313   0.178   0.476  1.00  0.00     0.174 A 
HETATM    8  N6  UNL     1      -0.412  -0.483  -0.284  1.00  0.00    -0.169 N 
ATOM      9  H6  UNL     1      -0.535  -1.483  -0.445  1.00  0.00     0.186 HD
ENDROOT
BRANCH   7  10
HETATM   10  S1  UNL     1      -2.725  -0.602   1.229  1.00  0.00    -0.086 SA
BRANCH  10  11
HETATM   11  C12 UNL     1      -2.790  -2.363   0.847  1.00  0.00     0.082 C 
HETATM   12  C13 UNL     1      -3.037  -2.545  -0.648  1.00  0.00     0.045 C 
HETATM   13  C14 UNL     1      -4.452  -3.060  -0.742  1.00  0.00     0.233 C 
HETATM   14  N5  UNL     1      -4.607  -3.844   0.466  1.00  0.00    -0.074 N 
HETATM   15  C15 UNL     1      -3.995  -2.986   1.477  1.00  0.00     0.247 C 
ATOM     16  H52 UNL     1      -5.563  -4.134   0.670  1.00  0.00     0.277 HD
ATOM     17  H51 UNL     1      -4.226  -4.789   0.417  1.00  0.00     0.277 HD
ENDBRANCH  10  11
ENDBRANCH   7  10
BRANCH   4  18
HETATM   18  N3  UNL     1       0.159   3.541   0.313  1.00  0.00    -0.213 N 
HETATM   19  C7  UNL     1      -0.752   4.334   1.095  1.00  0.00     0.167 C 
HETATM   20  C8  UNL     1      -0.078   5.380   1.925  1.00  0.00     0.188 C 
HETATM   21  O2  UNL     1       1.274   5.510   1.726  1.00  0.00    -0.388 OA
HETATM   22  C9  UNL     1       1.628   5.504   0.379  1.00  0.00     0.188 C 
HETATM   23  C10 UNL     1       1.301   4.179  -0.276  1.00  0.00     0.167 C 
ENDBRANCH   4  18
BRANCH   1  24
HETATM   24  N1  UNL     1       1.478  -0.507  -1.548  1.00  0.00    -0.225 N 
ATOM     25  H1  UNL     1       2.255   0.028  -1.935  1.00  0.00     0.177 HD
BRANCH  24  26
HETATM   26  C4  UNL     1       1.448  -1.897  -1.866  1.00  0.00     0.140 C 
BRANCH  26  27
HETATM   27  C3  UNL     1       2.855  -2.347  -2.269  1.00  0.00     0.046 C 
BRANCH  27  28
HETATM   28  C2  UNL     1       3.814  -2.115  -1.131  1.00  0.00     0.168 C 
BRANCH  28  29
HETATM   29  O1  UNL     1       3.439  -2.829   0.014  1.00  0.00    -0.396 OA
HETATM   30  C1  UNL     1       4.349  -2.589   1.040  1.00  0.00     0.201 C 
ENDBRANCH  28  29
ENDBRANCH  27  28
ENDBRANCH  26  27
ENDBRANCH  24  26
ENDBRANCH   1  24
TORSDOF 8
