REMARK  7 active torsions:
REMARK  status: ('A' for Active; 'I' for Inactive)
REMARK    1  A    between atoms: C2_2  and  C3_3 
REMARK    2  A    between atoms: C3_3  and  C12_12 
REMARK    3  A    between atoms: C4_4  and  C5_5 
REMARK    4  A    between atoms: C12_12  and  O1_13 
REMARK    5  A    between atoms: C12_12  and  C13_15 
REMARK    6  A    between atoms: N1_19  and  C15_20 
REMARK    7  A    between atoms: C19_24  and  O2_25 
ROOT
HETATM    1  C12 UNL     1       0.629   0.048  -0.050  1.00  0.00     0.093 C 
ENDROOT
BRANCH   1   2
HETATM    2  C3  UNL     1       1.280  -0.695  -1.059  1.00  0.00    -0.023 C 
HETATM    3  C4  UNL     1       2.627  -0.597  -1.169  1.00  0.00     0.021 C 
BRANCH   2   4
HETATM    4  C2  UNL     1       0.711  -1.754  -1.968  1.00  0.00     0.037 C 
HETATM    5  C1  UNL     1       0.246  -2.968  -1.242  1.00  0.00     0.010 C 
ENDBRANCH   2   4
BRANCH   3   6
HETATM    6  C5  UNL     1       3.576   0.240  -0.539  1.00  0.00    -0.035 A 
HETATM    7  C6  UNL     1       3.623   1.628  -0.666  1.00  0.00     0.011 A 
HETATM    8  C7  UNL     1       4.547   2.426  -0.049  1.00  0.00     0.001 A 
HETATM    9  C8  UNL     1       5.510   1.856   0.758  1.00  0.00     0.007 A 
HETATM   10  C9  UNL     1       5.498   0.484   0.909  1.00  0.00    -0.061 A 
HETATM   11  C10 UNL     1       6.538  -0.156   1.787  1.00  0.00     0.048 C 
HETATM   12  C11 UNL     1       4.570  -0.312   0.289  1.00  0.00     0.018 A 
ENDBRANCH   3   6
ENDBRANCH   1   2
BRANCH   1  13
HETATM   13  O1  UNL     1       1.491   0.637   0.800  1.00  0.00    -0.359 OA
ATOM     14  H1  UNL     1       1.053   1.137   1.479  1.00  0.00     0.217 HD
ENDBRANCH   1  13
BRANCH   1  15
HETATM   15  C13 UNL     1      -0.744   0.358   0.323  1.00  0.00     0.092 A 
HETATM   16  S1  UNL     1      -1.123   1.242   1.817  1.00  0.00    -0.053 SA
HETATM   17  C14 UNL     1      -2.802   1.222   1.702  1.00  0.00     0.148 A 
HETATM   18  S2  UNL     1      -3.921   1.862   2.768  1.00  0.00    -0.052 SA
HETATM   19  N1  UNL     1      -3.042   0.564   0.561  1.00  0.00    -0.303 N 
HETATM   20  C19 UNL     1      -1.991   0.133  -0.126  1.00  0.00     0.165 A 
BRANCH  19  21
HETATM   21  C15 UNL     1      -4.465   0.410   0.186  1.00  0.00     0.030 C 
HETATM   22  C16 UNL     1      -5.168  -0.469   1.211  1.00  0.00     0.038 C 
HETATM   23  C17 UNL     1      -5.146   1.773   0.202  1.00  0.00     0.038 C 
HETATM   24  C18 UNL     1      -4.719  -0.178  -1.156  1.00  0.00     0.038 C 
ENDBRANCH  19  21
BRANCH  20  25
HETATM   25  O2  UNL     1      -2.189  -0.574  -1.360  1.00  0.00    -0.345 OA
ATOM     26  H2  UNL     1      -3.070  -0.733  -1.677  1.00  0.00     0.219 HD
ENDBRANCH  20  25
ENDBRANCH   1  15
TORSDOF 7
