REMARK  0 active torsions:
REMARK  status: ('A' for Active; 'I' for Inactive)
ROOT
HETATM    1  C1  UNL     1      -1.792  -0.788   0.984  1.00  0.00     0.272 C 
HETATM    2  N1  UNL     1      -0.785  -0.163   0.093  1.00  0.00    -0.074 N 
HETATM    3  C2  UNL     1      -1.544   0.224  -1.086  1.00  0.00     0.272 C 
HETATM    4  C3  UNL     1      -0.308   0.947   0.847  1.00  0.00     0.246 C 
HETATM    5  C4  UNL     1       0.496   1.958   0.134  1.00  0.00     0.107 C 
HETATM    6  S1  UNL     1       2.278   1.556   0.196  1.00  0.00    -0.091 SA
HETATM    7  C5  UNL     1       2.361  -0.057  -0.639  1.00  0.00     0.293 C 
HETATM    8  F1  UNL     1       3.686  -0.457  -0.632  1.00  0.00    -0.194 F 
HETATM    9  F2  UNL     1       1.953   0.004  -1.932  1.00  0.00    -0.194 F 
HETATM   10  C6  UNL     1       1.545  -1.004   0.215  1.00  0.00     0.119 C 
HETATM   11  C7  UNL     1       0.148  -1.182  -0.226  1.00  0.00     0.243 C 
ENDROOT
TORSDOF 0
