REMARK  1 active torsions:
REMARK  status: ('A' for Active; 'I' for Inactive)
REMARK    1  A    between atoms: C2_2  and  C3_3 
ROOT
HETATM    1  C1  UNL     1      -1.806   0.258  -0.980  1.00  0.00     0.039 C 
HETATM    2  C2  UNL     1      -0.727  -0.073   0.062  1.00  0.00     0.134 C 
HETATM    3  C4  UNL     1       0.197  -1.047  -0.538  1.00  0.00     0.059 C 
HETATM    4  C5  UNL     1       1.644  -0.859  -0.299  1.00  0.00     0.235 C 
HETATM    5  N1  UNL     1       2.150   0.456  -0.429  1.00  0.00    -0.065 N 
ATOM      6  H11 UNL     1       1.880   0.879  -1.317  1.00  0.00     0.278 HD
ATOM      7  H12 UNL     1       3.162   0.461  -0.558  1.00  0.00     0.278 HD
HETATM    8  C6  UNL     1       1.748   1.271   0.699  1.00  0.00     0.341 C 
HETATM    9  S1  UNL     1      -0.016   1.440   0.578  1.00  0.00     0.058 S 
HETATM   10  O1  UNL     1      -0.447   2.715  -0.415  1.00  0.00    -0.255 OA
ENDROOT
BRANCH   2  11
HETATM   11  C3  UNL     1      -1.512  -0.641   1.252  1.00  0.00     0.406 C 
HETATM   12  F1  UNL     1      -0.700  -0.993   2.284  1.00  0.00    -0.169 F 
HETATM   13  F2  UNL     1      -2.372   0.396   1.640  1.00  0.00    -0.169 F 
HETATM   14  F3  UNL     1      -2.307  -1.653   0.784  1.00  0.00    -0.169 F 
ENDBRANCH   2  11
TORSDOF 1
