REMARK  5 active torsions:
REMARK  status: ('A' for Active; 'I' for Inactive)
REMARK    1  A    between atoms: C2_2  and  C3_3 
REMARK    2  A    between atoms: C3_3  and  C4_4 
REMARK    3  A    between atoms: C4_4  and  C5_5 
REMARK    4  A    between atoms: C10_13  and  C11_14 
REMARK    5  A    between atoms: C13_16  and  N1_17 
ROOT
HETATM    1  C11 UNL     1      -4.030  -0.166  -0.317  1.00  0.00     0.039 A 
HETATM    2  C12 UNL     1      -4.425   1.058  -0.817  1.00  0.00     0.072 A 
HETATM    3  C13 UNL     1      -5.784   1.129  -0.784  1.00  0.00     0.175 A 
HETATM    4  N2  UNL     1      -6.218  -0.038  -0.271  1.00  0.00    -0.328 N 
ATOM      5  H2  UNL     1      -7.198  -0.281  -0.124  1.00  0.00     0.168 HD
HETATM    6  C14 UNL     1      -5.178  -0.838   0.020  1.00  0.00     0.128 A 
HETATM    7  C15 UNL     1      -5.277  -2.165   0.586  1.00  0.00     0.118 C 
HETATM    8  N3  UNL     1      -5.346  -3.229   1.057  1.00  0.00    -0.190 NA
ENDROOT
BRANCH   1   9
HETATM    9  C10 UNL     1      -2.695  -0.703  -0.152  1.00  0.00     0.094 A 
HETATM   10  O3  UNL     1      -2.477  -1.893   0.342  1.00  0.00    -0.274 OA
HETATM   11  C9  UNL     1      -1.293  -2.426   0.513  1.00  0.00     0.304 A 
HETATM   12  C8  UNL     1      -0.119  -1.739   0.168  1.00  0.00     0.107 A 
HETATM   13  O2  UNL     1      -1.208  -3.582   0.998  1.00  0.00    -0.259 OA
HETATM   14  C7  UNL     1       1.114  -2.317   0.356  1.00  0.00     0.190 A 
HETATM   15  C17 UNL     1      -0.316  -0.479  -0.356  1.00  0.00     0.028 A 
HETATM   16  C6  UNL     1       2.329  -1.764   0.066  1.00  0.00     0.070 A 
HETATM   17  O1  UNL     1       1.084  -3.496   0.856  1.00  0.00    -0.287 OA
HETATM   18  C5  UNL     1       2.535  -0.512  -0.473  1.00  0.00    -0.013 A 
HETATM   19  S1  UNL     1       1.118   0.375  -0.783  1.00  0.00    -0.094 SA
HETATM   20  C16 UNL     1      -1.585   0.029  -0.512  1.00  0.00     0.058 A 
BRANCH  18  21
HETATM   21  C4  UNL     1       3.891   0.033  -0.766  1.00  0.00     0.046 C 
BRANCH  21  22
HETATM   22  C3  UNL     1       4.376   0.767   0.476  1.00  0.00     0.005 C 
BRANCH  22  23
HETATM   23  C2  UNL     1       5.738   1.321   0.198  1.00  0.00    -0.004 C 
HETATM   24  C1  UNL     1       6.197   2.051   1.459  1.00  0.00     0.005 C 
ENDBRANCH  22  23
ENDBRANCH  21  22
ENDBRANCH  18  21
ENDBRANCH   1   9
BRANCH   3  25
HETATM   25  N1  UNL     1      -6.588   2.228  -1.212  1.00  0.00    -0.098 N 
HETATM   26  O4  UNL     1      -7.827   2.149  -1.122  1.00  0.00    -0.531 OA
HETATM   27  O5  UNL     1      -5.991   3.352  -1.715  1.00  0.00    -0.531 OA
ENDBRANCH   3  25
TORSDOF 5
