REMARK  6 active torsions:
REMARK  status: ('A' for Active; 'I' for Inactive)
REMARK    1  A    between atoms: C2_2  and  O1_3 
REMARK    2  A    between atoms: O1_3  and  C3_4 
REMARK    3  A    between atoms: C3_4  and  C4_6 
REMARK    4  A    between atoms: N1_9  and  C7_10 
REMARK    5  A    between atoms: C11_19  and  N5_20 
REMARK    6  A    between atoms: N5_20  and  C12_22 
ROOT
HETATM    1  C7  UNL     1      -0.030  -1.738   0.267  1.00  0.00     0.134 A 
HETATM    2  N2  UNL     1       0.414  -2.773   1.020  1.00  0.00    -0.337 N 
ATOM      3  H2  UNL     1       1.157  -2.579   1.691  1.00  0.00     0.168 HD
HETATM    4  C8  UNL     1      -0.038  -4.019   0.956  1.00  0.00     0.183 A 
HETATM    5  N3  UNL     1      -1.008  -4.261   0.072  1.00  0.00    -0.342 N 
ATOM      6  H3  UNL     1      -1.380  -5.207  -0.008  1.00  0.00     0.167 HD
HETATM    7  C9  UNL     1      -1.520  -3.275  -0.733  1.00  0.00     0.145 A 
HETATM    8  C10 UNL     1      -2.513  -3.734  -1.676  1.00  0.00     0.120 C 
HETATM    9  N4  UNL     1      -3.273  -4.109  -2.433  1.00  0.00    -0.190 NA
HETATM   10  C11 UNL     1      -1.049  -1.997  -0.652  1.00  0.00     0.111 A 
ENDROOT
BRANCH  10  11
HETATM   11  N5  UNL     1      -1.577  -0.955  -1.417  1.00  0.00    -0.380 N 
ATOM     12  H5  UNL     1      -1.123  -0.805  -2.318  1.00  0.00     0.160 HD
BRANCH  11  13
HETATM   13  C12 UNL     1      -2.666  -0.061  -1.124  1.00  0.00     0.082 C 
HETATM   14  C13 UNL     1      -3.993  -0.672  -1.366  1.00  0.00     0.025 C 
HETATM   15  C14 UNL     1      -5.150   0.286  -1.422  1.00  0.00     0.002 C 
HETATM   16  C15 UNL     1      -4.791   1.730  -1.417  1.00  0.00     0.000 C 
HETATM   17  C16 UNL     1      -4.362   2.222  -0.055  1.00  0.00     0.000 C 
HETATM   18  C17 UNL     1      -3.895   1.074   0.773  1.00  0.00     0.002 C 
HETATM   19  C18 UNL     1      -2.590   0.530   0.277  1.00  0.00     0.025 C 
ENDBRANCH  11  13
ENDBRANCH  10  11
BRANCH   1  20
HETATM   20  N1  UNL     1       0.638  -0.496   0.402  1.00  0.00    -0.365 N 
HETATM   21  C6  UNL     1       1.006   0.058   1.694  1.00  0.00     0.125 C 
HETATM   22  C5  UNL     1       2.472   0.181   1.892  1.00  0.00     0.034 C 
HETATM   23  C4  UNL     1       3.157   0.211   0.563  1.00  0.00     0.088 C 
HETATM   24  C20 UNL     1       2.354   0.955  -0.482  1.00  0.00     0.034 C 
HETATM   25  C19 UNL     1       1.037   0.247  -0.767  1.00  0.00     0.125 C 
BRANCH  23  26
HETATM   26  C3  UNL     1       4.491   0.855   0.627  1.00  0.00     0.263 C 
HETATM   27  O2  UNL     1       4.901   1.290   1.727  1.00  0.00    -0.265 OA
BRANCH  26  28
HETATM   28  O1  UNL     1       5.276   0.980  -0.481  1.00  0.00    -0.322 OA
BRANCH  28  29
HETATM   29  C2  UNL     1       6.573   1.599  -0.448  1.00  0.00     0.174 C 
HETATM   30  C1  UNL     1       7.396   0.778   0.523  1.00  0.00     0.034 C 
ENDBRANCH  28  29
ENDBRANCH  26  28
ENDBRANCH  23  26
ENDBRANCH   1  20
TORSDOF 6
