REMARK  2 active torsions:
REMARK  status: ('A' for Active; 'I' for Inactive)
REMARK    1  A    between atoms: C2_2  and  N2_5 
REMARK    2  A    between atoms: N2_5  and  C4_7 
ROOT
HETATM    1  C1  UNL     1      -3.182   0.551   0.493  1.00  0.00     0.080 C 
HETATM    2  C2  UNL     1      -2.152  -0.149  -0.355  1.00  0.00     0.083 C 
HETATM    3  C3  UNL     1      -2.211  -1.565  -0.093  1.00  0.00     0.112 C 
HETATM    4  N1  UNL     1      -2.276  -2.727   0.097  1.00  0.00    -0.190 NA
ENDROOT
BRANCH   2   5
HETATM    5  N2  UNL     1      -0.910   0.427  -0.467  1.00  0.00    -0.380 N 
ATOM      6  H2  UNL     1      -0.610   0.685  -1.407  1.00  0.00     0.160 HD
BRANCH   5   7
HETATM    7  C4  UNL     1      -0.021   0.695   0.562  1.00  0.00     0.082 C 
HETATM    8  C5  UNL     1       0.503  -0.547   1.213  1.00  0.00     0.025 C 
HETATM    9  C6  UNL     1       1.344  -1.383   0.278  1.00  0.00     0.002 C 
HETATM   10  C7  UNL     1       2.532  -0.555  -0.173  1.00  0.00     0.000 C 
HETATM   11  C8  UNL     1       2.162   0.786  -0.710  1.00  0.00     0.002 C 
HETATM   12  C9  UNL     1       1.161   1.524   0.099  1.00  0.00     0.025 C 
ENDBRANCH   5   7
ENDBRANCH   2   5
TORSDOF 2
