REMARK  3 active torsions:
REMARK  status: ('A' for Active; 'I' for Inactive)
REMARK       I    between atoms: C3_3  and  N1_5 
REMARK    1  A    between atoms: C8_12  and  C9_13 
REMARK    2  A    between atoms: C9_13  and  C10_14 
REMARK       I    between atoms: C10_14  and  N3_16 
REMARK    3  A    between atoms: N3_16  and  C11_18 
ROOT
HETATM    1  C1  UNL     1       0.615   5.065  -2.266  1.00  0.00     0.022 C 
HETATM    2  C2  UNL     1       0.447   3.872  -2.251  1.00  0.00    -0.016 C 
HETATM    3  C3  UNL     1       0.223   2.419  -2.215  1.00  0.00     0.302 C 
HETATM    4  O1  UNL     1       0.904   1.778  -2.990  1.00  0.00    -0.258 OA
HETATM    5  N1  UNL     1      -0.715   1.959  -1.323  1.00  0.00    -0.300 N 
HETATM    6  C4  UNL     1      -1.022   0.633  -0.849  1.00  0.00     0.068 A 
HETATM    7  C5  UNL     1      -2.384   0.600  -0.639  1.00  0.00     0.039 A 
HETATM    8  N2  UNL     1      -2.965  -0.499  -0.194  1.00  0.00    -0.360 N 
ATOM      9  H2  UNL     1      -3.974  -0.507  -0.043  1.00  0.00     0.165 HD
HETATM   10  C6  UNL     1      -2.234  -1.634   0.070  1.00  0.00     0.016 A 
HETATM   11  C7  UNL     1      -0.884  -1.628  -0.132  1.00  0.00    -0.026 A 
HETATM   12  C8  UNL     1      -0.218  -0.472  -0.606  1.00  0.00    -0.012 A 
HETATM   13  C13 UNL     1       0.131  -2.679   0.024  1.00  0.00     0.041 C 
HETATM   14  C14 UNL     1      -0.291  -4.058   0.361  1.00  0.00     0.005 C 
HETATM   15  C15 UNL     1      -1.484  -4.233   1.224  1.00  0.00     0.001 C 
HETATM   16  C16 UNL     1      -2.724  -4.044   0.338  1.00  0.00     0.006 C 
HETATM   17  C17 UNL     1      -3.182  -2.674   0.581  1.00  0.00     0.057 C 
HETATM   18  C18 UNL     1      -2.958   1.938  -0.974  1.00  0.00     0.084 C 
HETATM   19  C19 UNL     1      -1.746   2.819  -0.691  1.00  0.00     0.095 C 
HETATM   20  C20 UNL     1      -1.510   3.075   0.750  1.00  0.00     0.033 C 
ENDROOT
BRANCH  12  21
HETATM   21  C9  UNL     1       1.229  -0.388  -0.823  1.00  0.00     0.144 C 
BRANCH  21  22
HETATM   22  C10 UNL     1       1.941   0.451   0.214  1.00  0.00     0.221 C 
HETATM   23  O2  UNL     1       1.325   0.962   1.164  1.00  0.00    -0.273 OA
HETATM   24  N3  UNL     1       3.332   0.657   0.098  1.00  0.00    -0.361 N 
ATOM     25  H3  UNL     1       3.850   0.244  -0.677  1.00  0.00     0.162 HD
BRANCH  24  26
HETATM   26  C11 UNL     1       4.013   1.455   1.083  1.00  0.00     0.118 C 
HETATM   27  C12 UNL     1       5.493   1.572   0.805  1.00  0.00     0.026 C 
ENDBRANCH  24  26
ENDBRANCH  21  22
ENDBRANCH  12  21
TORSDOF 3
