REMARK  5 active torsions:
REMARK  status: ('A' for Active; 'I' for Inactive)
REMARK       I    between atoms: C2_2  and  N1_4 
REMARK    1  A    between atoms: N1_4  and  C3_6 
REMARK    2  A    between atoms: C7_15  and  C8_16 
REMARK    3  A    between atoms: C8_16  and  C9_18 
REMARK    4  A    between atoms: C9_18  and  C12_21 
REMARK    5  A    between atoms: C12_21  and  C13_23 
ROOT
HETATM    1  C3  UNL     1       2.882  -1.254   2.218  1.00  0.00     0.219 C 
HETATM    2  C4  UNL     1       1.513  -1.775   1.853  1.00  0.00     0.249 C 
HETATM    3  O2  UNL     1       1.056  -2.944   1.946  1.00  0.00    -0.271 OA
HETATM    4  N2  UNL     1       1.057  -0.519   1.423  1.00  0.00    -0.308 N 
HETATM    5  C5  UNL     1       2.190   0.083   2.160  1.00  0.00     0.222 C 
HETATM    6  N3  UNL     1       2.662   1.024   1.174  1.00  0.00    -0.335 N 
ATOM      7  H3  UNL     1       3.581   1.467   1.169  1.00  0.00     0.164 HD
HETATM    8  C6  UNL     1       1.621   1.237   0.193  1.00  0.00     0.247 C 
HETATM    9  O3  UNL     1       1.846   1.771  -0.897  1.00  0.00    -0.271 OA
HETATM   10  C7  UNL     1       0.412   0.678   0.864  1.00  0.00     0.219 C 
ENDROOT
BRANCH  10  11
HETATM   11  C8  UNL     1      -0.705   0.307  -0.033  1.00  0.00     0.014 C 
HETATM   12 BR1  UNL     1      -0.080  -0.717  -1.535  1.00  0.00    -0.056 Br
BRANCH  11  13
HETATM   13  C9  UNL     1      -1.725   1.334  -0.347  1.00  0.00     0.046 C 
HETATM   14  C10 UNL     1      -2.408   1.808   0.934  1.00  0.00     0.029 C 
HETATM   15  C11 UNL     1      -1.142   2.597  -0.942  1.00  0.00     0.029 C 
BRANCH  13  16
HETATM   16  C12 UNL     1      -2.727   0.820  -1.328  1.00  0.00     0.143 C 
HETATM   17  O4  UNL     1      -2.845   1.426  -2.377  1.00  0.00    -0.296 OA
BRANCH  16  18
HETATM   18  C13 UNL     1      -3.573  -0.368  -1.098  1.00  0.00     0.048 C 
HETATM   19  C14 UNL     1      -4.459  -0.611  -2.316  1.00  0.00     0.017 C 
HETATM   20  C15 UNL     1      -4.515  -0.244   0.071  1.00  0.00     0.017 C 
ENDBRANCH  16  18
ENDBRANCH  13  16
ENDBRANCH  11  13
ENDBRANCH  10  11
BRANCH   1  21
HETATM   21  N1  UNL     1       3.897  -1.499   1.248  1.00  0.00    -0.345 N 
HETATM   22  C2  UNL     1       5.152  -2.112   1.543  1.00  0.00     0.214 C 
HETATM   23  C1  UNL     1       6.184  -2.355   0.529  1.00  0.00     0.117 C 
HETATM   24  O1  UNL     1       5.373  -2.455   2.730  1.00  0.00    -0.274 OA
ATOM     25  H1  UNL     1       3.716  -1.219   0.284  1.00  0.00     0.163 HD
ENDBRANCH   1  21
TORSDOF 5
