REMARK  8 active torsions:
REMARK  status: ('A' for Active; 'I' for Inactive)
REMARK    1  A    between atoms: C3_5  and  N2_6 
REMARK    2  A    between atoms: N2_6  and  C4_8 
REMARK    3  A    between atoms: C4_8  and  C5_9 
REMARK    4  A    between atoms: C9_16  and  N4_17 
REMARK    5  A    between atoms: N4_17  and  C10_19 
REMARK    6  A    between atoms: C10_19  and  C11_20 
REMARK    7  A    between atoms: C11_20  and  N5_21 
REMARK    8  A    between atoms: N5_21  and  C12_23 
ROOT
HETATM    1  C1  UNL     1       3.719  -4.566   0.159  1.00  0.00     0.069 C 
HETATM    2  C2  UNL     1       3.256  -3.161   0.017  1.00  0.00     0.032 A 
HETATM    3  N1  UNL     1       4.101  -2.100   0.100  1.00  0.00    -0.195 N 
ATOM      4  H1  UNL     1       5.093  -2.267   0.265  1.00  0.00     0.184 HD
HETATM    5  C3  UNL     1       3.664  -0.838  -0.030  1.00  0.00     0.679 A 
HETATM    6  N3  UNL     1       2.359  -0.590  -0.249  1.00  0.00    -0.176 N 
ATOM      7  H3  UNL     1       2.046   0.376  -0.345  1.00  0.00     0.186 HD
HETATM    8  C9  UNL     1       1.457  -1.583  -0.345  1.00  0.00     0.124 A 
HETATM    9  C20 UNL     1       1.926  -2.872  -0.208  1.00  0.00     0.005 A 
HETATM   10  C21 UNL     1       0.935  -3.994  -0.311  1.00  0.00     0.054 C 
ENDROOT
BRANCH   8  11
HETATM   11  N4  UNL     1       0.224  -1.374  -0.551  1.00  0.00    -0.374 N 
ATOM     12  H4  UNL     1      -0.372  -2.200  -0.606  1.00  0.00     0.161 HD
BRANCH  11  13
HETATM   13  C10 UNL     1      -0.425  -0.115  -0.715  1.00  0.00     0.141 C 
BRANCH  13  14
HETATM   14  C11 UNL     1      -0.840   0.360   0.684  1.00  0.00     0.141 C 
BRANCH  14  15
HETATM   15  N5  UNL     1      -1.734  -0.650   1.210  1.00  0.00    -0.369 N 
ATOM     16  H5  UNL     1      -1.383  -1.386   1.823  1.00  0.00     0.161 HD
BRANCH  15  17
HETATM   17  C12 UNL     1      -3.008  -0.602   0.883  1.00  0.00     0.145 A 
HETATM   18  N6  UNL     1      -3.617   0.286   0.101  1.00  0.00    -0.339 N 
HETATM   19  C13 UNL     1      -4.895   0.173  -0.111  1.00  0.00     0.025 A 
ATOM     20  H6  UNL     1      -3.088   1.046  -0.327  1.00  0.00     0.168 HD
HETATM   21  C14 UNL     1      -5.551  -0.872   0.495  1.00  0.00     0.009 A 
HETATM   22  C19 UNL     1      -5.828   1.047  -0.951  1.00  0.00     0.062 C 
HETATM   23  S1  UNL     1      -4.283  -1.641   1.342  1.00  0.00    -0.057 SA
HETATM   24  C15 UNL     1      -7.029  -1.095   0.313  1.00  0.00     0.048 C 
HETATM   25  C16 UNL     1      -7.813   0.148   0.128  1.00  0.00     0.010 C 
HETATM   26  C17 UNL     1      -6.941   1.376   0.053  1.00  0.00    -0.013 C 
HETATM   27  C18 UNL     1      -7.722   2.586  -0.393  1.00  0.00     0.010 C 
ENDBRANCH  15  17
ENDBRANCH  14  15
ENDBRANCH  13  14
ENDBRANCH  11  13
ENDBRANCH   8  11
BRANCH   5  28
HETATM   28  N2  UNL     1       4.488   0.146   0.053  1.00  0.00    -0.224 N 
ATOM     29  H2  UNL     1       5.474  -0.054   0.219  1.00  0.00     0.177 HD
BRANCH  28  30
HETATM   30  C4  UNL     1       4.070   1.529  -0.080  1.00  0.00     0.170 C 
BRANCH  30  31
HETATM   31  C5  UNL     1       5.237   2.473   0.133  1.00  0.00     0.139 C 
HETATM   32  C6  UNL     1       6.359   2.198  -0.838  1.00  0.00     0.035 C 
HETATM   33  C7  UNL     1       7.562   2.690  -0.089  1.00  0.00     0.029 C 
HETATM   34  C8  UNL     1       7.081   2.795   1.325  1.00  0.00     0.168 C 
HETATM   35  O1  UNL     1       5.787   2.327   1.381  1.00  0.00    -0.384 OA
ENDBRANCH  30  31
ENDBRANCH  28  30
ENDBRANCH   5  28
TORSDOF 8
