REMARK  6 active torsions:
REMARK  status: ('A' for Active; 'I' for Inactive)
REMARK    1  A    between atoms: C2_2  and  C3_3 
REMARK    2  A    between atoms: C2_2  and  N3_21 
REMARK    3  A    between atoms: C3_3  and  C4_4 
REMARK       I    between atoms: C4_4  and  N1_6 
REMARK    4  A    between atoms: C8_10  and  C9_11 
REMARK       I    between atoms: C9_11  and  N2_13 
REMARK    5  A    between atoms: N2_13  and  C10_15 
REMARK       I    between atoms: N3_21  and  C14_23 
REMARK    6  A    between atoms: C14_23  and  C15_25 
ROOT
HETATM    1  C4  UNL     1      -0.135  -0.656  -0.593  1.00  0.00     0.222 C 
HETATM    2  O1  UNL     1      -0.574   0.210  -1.394  1.00  0.00    -0.273 OA
HETATM    3  N1  UNL     1      -0.997  -1.619  -0.016  1.00  0.00    -0.339 N 
HETATM    4  C5  UNL     1      -0.598  -2.657   0.915  1.00  0.00     0.127 C 
HETATM    5  C6  UNL     1      -1.616  -3.747   0.589  1.00  0.00     0.022 C 
HETATM    6  C7  UNL     1      -2.899  -2.912   0.533  1.00  0.00     0.037 C 
HETATM    7  C8  UNL     1      -2.417  -1.715  -0.269  1.00  0.00     0.179 C 
ENDROOT
BRANCH   1   8
HETATM    8  C3  UNL     1       1.326  -0.615  -0.285  1.00  0.00     0.127 C 
BRANCH   8   9
HETATM    9  C2  UNL     1       2.006   0.507  -1.033  1.00  0.00     0.089 C 
HETATM   10  C1  UNL     1       1.793   0.243  -2.523  1.00  0.00     0.032 C 
BRANCH   9  11
HETATM   11  N3  UNL     1       3.428   0.419  -0.706  1.00  0.00    -0.356 N 
HETATM   12  C14 UNL     1       4.113   1.516  -0.120  1.00  0.00     0.225 C 
HETATM   13  O3  UNL     1       3.469   2.575   0.115  1.00  0.00    -0.273 OA
ATOM     14  H3  UNL     1       3.936  -0.444  -0.902  1.00  0.00     0.162 HD
BRANCH  12  15
HETATM   15  C15 UNL     1       5.538   1.474   0.225  1.00  0.00     0.030 C 
HETATM   16  C16 UNL     1       6.423   1.211  -0.996  1.00  0.00     0.024 C 
HETATM   17  C17 UNL     1       5.845   0.370   1.217  1.00  0.00     0.024 C 
HETATM   18  C18 UNL     1       6.004   2.781   0.827  1.00  0.00     0.024 C 
ENDBRANCH  12  15
ENDBRANCH   9  11
ENDBRANCH   8   9
ENDBRANCH   1   8
BRANCH   7  19
HETATM   19  C9  UNL     1      -3.170  -0.538   0.230  1.00  0.00     0.241 C 
HETATM   20  O2  UNL     1      -2.490   0.364   0.791  1.00  0.00    -0.271 OA
HETATM   21  N2  UNL     1      -4.557  -0.485   0.059  1.00  0.00    -0.354 N 
ATOM     22  H2  UNL     1      -5.010  -1.270  -0.409  1.00  0.00     0.162 HD
BRANCH  21  23
HETATM   23  C10 UNL     1      -5.393   0.611   0.503  1.00  0.00     0.095 C 
HETATM   24  C11 UNL     1      -6.390   1.108  -0.523  1.00  0.00     0.104 C 
HETATM   25  C12 UNL     1      -7.401   1.213   0.608  1.00  0.00     0.247 C 
HETATM   26  F1  UNL     1      -8.677   0.828   0.276  1.00  0.00    -0.206 F 
HETATM   27  F2  UNL     1      -7.304   2.478   1.172  1.00  0.00    -0.206 F 
HETATM   28  C13 UNL     1      -6.597   0.156   1.337  1.00  0.00     0.104 C 
ENDBRANCH  21  23
ENDBRANCH   7  19
TORSDOF 6
