REMARK  17 active torsions:
REMARK  status: ('A' for Active; 'I' for Inactive)
REMARK       I    between atoms: C2_2  and  N1_4 
REMARK    1  A    between atoms: N1_4  and  N2_6 
REMARK    2  A    between atoms: C5_11  and  C6_12 
REMARK    3  A    between atoms: C6_12  and  N4_13 
REMARK    4  A    between atoms: N4_13  and  C7_15 
REMARK    5  A    between atoms: C7_15  and  O2_16 
REMARK    6  A    between atoms: C7_15  and  N5_18 
REMARK       I    between atoms: N5_18  and  C8_20 
REMARK    7  A    between atoms: C8_20  and  C9_22 
REMARK    8  A    between atoms: C10_28  and  C11_29 
REMARK       I    between atoms: C11_29  and  N8_31 
REMARK    9  A    between atoms: N8_31  and  C12_33 
REMARK   10  A    between atoms: C12_33  and  N9_34 
REMARK   11  A    between atoms: C12_33  and  C13_38 
REMARK   12  A    between atoms: C13_38  and  O6_39 
REMARK   13  A    between atoms: C13_38  and  C14_41 
REMARK   14  A    between atoms: C14_41  and  O7_42 
REMARK   15  A    between atoms: C14_41  and  C15_44 
REMARK   16  A    between atoms: C15_44  and  O8_45 
REMARK   17  A    between atoms: C19_51  and  N11_52 
ROOT
HETATM    1  N5  UNL     1       1.268   1.451  -1.270  1.00  0.00    -0.287 N 
ATOM      2  H5  UNL     1       1.325   2.462  -1.144  1.00  0.00     0.172 HD
HETATM    3  C8  UNL     1       2.163   0.956  -2.193  1.00  0.00     0.279 C 
HETATM    4  O3  UNL     1       3.003   1.784  -2.734  1.00  0.00    -0.265 OA
ENDROOT
BRANCH   1   5
HETATM    5  C7  UNL     1       0.300   0.841  -0.475  1.00  0.00     0.220 C 
BRANCH   5   6
HETATM    6  N4  UNL     1      -0.056  -0.516  -0.407  1.00  0.00    -0.352 N 
ATOM      7  H4  UNL     1       0.430  -1.199  -0.988  1.00  0.00     0.163 HD
BRANCH   6   8
HETATM    8  C6  UNL     1      -1.108  -0.945   0.483  1.00  0.00     0.165 C 
BRANCH   8   9
HETATM    9  C5  UNL     1      -2.404  -0.379   0.039  1.00  0.00     0.004 A 
HETATM   10  C4  UNL     1      -3.560  -0.620   0.777  1.00  0.00     0.073 A 
HETATM   11  N3  UNL     1      -3.808  -1.289   1.906  1.00  0.00    -0.348 N 
HETATM   12  C18 UNL     1      -4.589   0.014   0.115  1.00  0.00     0.107 A 
HETATM   13  C3  UNL     1      -5.061  -1.367   2.434  1.00  0.00     0.209 A 
ATOM     14  H3  UNL     1      -3.038  -1.754   2.386  1.00  0.00     0.167 HD
HETATM   15  N2  UNL     1      -6.094  -0.778   1.846  1.00  0.00    -0.231 N 
HETATM   16  C19 UNL     1      -5.861  -0.080   0.676  1.00  0.00     0.151 A 
HETATM   17  N10 UNL     1      -4.088   0.620  -0.984  1.00  0.00    -0.356 N 
HETATM   18  C16 UNL     1      -2.747   0.384  -1.038  1.00  0.00     0.102 A 
HETATM   19  C17 UNL     1      -4.805   1.384  -1.964  1.00  0.00     0.156 C 
BRANCH  15  20
HETATM   20  N1  UNL     1      -7.411  -0.790   2.310  1.00  0.00    -0.261 N 
HETATM   21  C2  UNL     1      -7.917  -1.395   3.464  1.00  0.00     0.232 C 
HETATM   22  C1  UNL     1      -9.388  -1.293   3.785  1.00  0.00     0.119 C 
HETATM   23  O1  UNL     1      -7.236  -2.035   4.280  1.00  0.00    -0.272 OA
ATOM     24  H1  UNL     1      -8.090  -0.294   1.733  1.00  0.00     0.190 HD
ENDBRANCH  15  20
BRANCH  16  25
HETATM   25  N11 UNL     1      -6.839   0.481   0.114  1.00  0.00    -0.382 N 
ATOM     26 2H11 UNL     1      -7.770   0.412   0.525  1.00  0.00     0.157 HD
ATOM     27 1H11 UNL     1      -6.667   0.996  -0.749  1.00  0.00     0.157 HD
ENDBRANCH  16  25
ENDBRANCH   8   9
ENDBRANCH   6   8
ENDBRANCH   5   6
BRANCH   5  28
HETATM   28  O2  UNL     1      -0.352   1.675   0.309  1.00  0.00    -0.332 OA
ATOM     29  H2  UNL     1      -0.111   2.593   0.263  1.00  0.00     0.220 HD
ENDBRANCH   5  28
ENDBRANCH   1   5
BRANCH   3  30
HETATM   30  C9  UNL     1       2.298  -0.398  -2.658  1.00  0.00     0.158 A 
HETATM   31  N6  UNL     1       1.516  -0.937  -3.640  1.00  0.00    -0.234 N 
HETATM   32  O4  UNL     1       1.906  -2.137  -3.834  1.00  0.00    -0.156 OA
ATOM     33  H6  UNL     1       0.756  -0.465  -4.130  1.00  0.00     0.197 HD
HETATM   34  N7  UNL     1       2.881  -2.455  -3.072  1.00  0.00    -0.234 N 
HETATM   35  C10 UNL     1       3.192  -1.373  -2.276  1.00  0.00     0.158 A 
ATOM     36  H7  UNL     1       3.352  -3.360  -3.055  1.00  0.00     0.197 HD
BRANCH  35  37
HETATM   37  C11 UNL     1       4.228  -1.357  -1.260  1.00  0.00     0.274 C 
HETATM   38  O5  UNL     1       4.956  -2.428  -1.246  1.00  0.00    -0.266 OA
HETATM   39  N8  UNL     1       4.489  -0.333  -0.340  1.00  0.00    -0.326 N 
ATOM     40  H8  UNL     1       3.930   0.520  -0.340  1.00  0.00     0.165 HD
BRANCH  39  41
HETATM   41  C12 UNL     1       5.559  -0.507   0.603  1.00  0.00     0.316 C 
BRANCH  41  42
HETATM   42  N9  UNL     1       4.920  -1.002   1.841  1.00  0.00    -0.056 N 
ATOM     43  H93 UNL     1       4.167  -0.403   2.181  1.00  0.00     0.276 HD
ATOM     44  H92 UNL     1       4.355  -1.840   1.704  1.00  0.00     0.276 HD
ATOM     45  H91 UNL     1       5.680  -1.126   2.510  1.00  0.00     0.276 HD
ENDBRANCH  41  42
BRANCH  41  46
HETATM   46  C13 UNL     1       6.361   0.666   0.970  1.00  0.00     0.199 C 
BRANCH  46  47
HETATM   47  O6  UNL     1       5.610   1.722   1.500  1.00  0.00    -0.389 OA
ATOM     48  H6  UNL     1       6.129   2.481   1.738  1.00  0.00     0.210 HD
ENDBRANCH  46  47
BRANCH  46  49
HETATM   49  C14 UNL     1       7.418   1.145   0.047  1.00  0.00     0.174 C 
BRANCH  49  50
HETATM   50  O7  UNL     1       8.221   0.197  -0.529  1.00  0.00    -0.391 OA
ATOM     51  H7  UNL     1       8.898   0.504  -1.120  1.00  0.00     0.210 HD
ENDBRANCH  49  50
BRANCH  49  52
HETATM   52  C15 UNL     1       6.936   2.197  -0.948  1.00  0.00     0.198 C 
BRANCH  52  53
HETATM   53  O8  UNL     1       6.264   1.581  -2.000  1.00  0.00    -0.398 OA
ATOM     54  H8  UNL     1       5.964   2.236  -2.619  1.00  0.00     0.209 HD
ENDBRANCH  52  53
ENDBRANCH  49  52
ENDBRANCH  46  49
ENDBRANCH  41  46
ENDBRANCH  39  41
ENDBRANCH  35  37
ENDBRANCH   3  30
TORSDOF 17
