REMARK  3 active torsions:
REMARK  status: ('A' for Active; 'I' for Inactive)
REMARK    1  A    between atoms: C1_4  and  N2_5 
REMARK    2  A    between atoms: N2_5  and  N3_7 
REMARK    3  A    between atoms: C2_9  and  C3_10 
ROOT
HETATM    1  N3  UNL     1       1.676  -0.477   0.927  1.00  0.00    -0.313 N 
ATOM      2  H3  UNL     1       2.203  -0.725   1.765  1.00  0.00     0.185 HD
HETATM    3  C2  UNL     1       0.467  -0.022   1.061  1.00  0.00     0.113 C 
ENDROOT
BRANCH   1   4
HETATM    4  N2  UNL     1       2.274  -0.638  -0.303  1.00  0.00    -0.297 N 
ATOM      5  H2  UNL     1       1.705  -0.660  -1.149  1.00  0.00     0.187 HD
BRANCH   4   6
HETATM    6  C1  UNL     1       3.687  -0.774  -0.391  1.00  0.00     0.190 C 
HETATM    7  N1  UNL     1       4.469   0.220  -0.168  1.00  0.00    -0.394 N 
ATOM      8  H12 UNL     1       4.052   1.118   0.076  1.00  0.00     0.156 HD
ATOM      9  H11 UNL     1       5.482   0.122  -0.231  1.00  0.00     0.156 HD
ENDBRANCH   4   6
ENDBRANCH   1   4
BRANCH   3  10
HETATM   10  C3  UNL     1      -0.311   0.342  -0.115  1.00  0.00     0.225 C 
HETATM   11  C4  UNL     1      -1.384   1.354   0.230  1.00  0.00     0.040 C 
HETATM   12  C5  UNL     1      -2.670   0.587   0.208  1.00  0.00     0.030 C 
HETATM   13  C6  UNL     1      -2.341  -0.765  -0.323  1.00  0.00     0.233 C 
HETATM   14  N4  UNL     1      -0.971  -0.756  -0.766  1.00  0.00    -0.066 N 
ATOM     15  H42 UNL     1      -0.882  -0.727  -1.782  1.00  0.00     0.278 HD
ATOM     16  H41 UNL     1      -0.499  -1.648  -0.616  1.00  0.00     0.278 HD
ENDBRANCH   3  10
TORSDOF 3
