REMARK  8 active torsions:
REMARK  status: ('A' for Active; 'I' for Inactive)
REMARK    1  A    between atoms: C2_2  and  C3_3 
REMARK    2  A    between atoms: C3_3  and  N1_4 
REMARK    3  A    between atoms: N1_4  and  C4_6 
REMARK    4  A    between atoms: C7_14  and  N4_15 
REMARK    5  A    between atoms: N6_23  and  C10_24 
REMARK    6  A    between atoms: C10_24  and  C11_25 
REMARK    7  A    between atoms: C11_25  and  N7_26 
REMARK    8  A    between atoms: N7_26  and  C12_28 
ROOT
HETATM    1  C4  UNL     1       0.528  -0.463  -0.522  1.00  0.00     0.684 A 
HETATM    2  N2  UNL     1       0.896  -1.725  -0.411  1.00  0.00    -0.154 N 
ATOM      3  H2  UNL     1       1.869  -2.001  -0.542  1.00  0.00     0.187 HD
HETATM    4  C5  UNL     1      -0.044  -2.633  -0.121  1.00  0.00     0.289 A 
HETATM    5  O1  UNL     1       0.304  -3.838  -0.015  1.00  0.00    -0.265 OA
HETATM    6  C6  UNL     1      -1.354  -2.238   0.051  1.00  0.00     0.150 A 
HETATM    7  N3  UNL     1      -2.310  -3.145   0.341  1.00  0.00    -0.184 N 
ATOM      8  H3  UNL     1      -2.059  -4.129   0.435  1.00  0.00     0.184 HD
HETATM    9  C7  UNL     1      -3.590  -2.768   0.508  1.00  0.00     0.679 A 
HETATM   10  N5  UNL     1      -3.947  -1.479   0.391  1.00  0.00    -0.154 N 
ATOM     11  H5  UNL     1      -4.925  -1.220   0.523  1.00  0.00     0.187 HD
HETATM   12  C8  UNL     1      -3.038  -0.510   0.101  1.00  0.00     0.289 A 
HETATM   13  O2  UNL     1      -3.425   0.679   0.002  1.00  0.00    -0.265 OA
HETATM   14  C9  UNL     1      -1.734  -0.884  -0.071  1.00  0.00     0.153 A 
HETATM   15  N6  UNL     1      -0.763  -0.016  -0.360  1.00  0.00    -0.174 N 
ENDROOT
BRANCH  15  16
HETATM   16  C10 UNL     1      -1.020   1.388  -0.511  1.00  0.00     0.167 C 
BRANCH  16  17
HETATM   17  C11 UNL     1      -0.852   2.137   0.796  1.00  0.00     0.143 C 
BRANCH  17  18
HETATM   18  N7  UNL     1      -1.136   3.538   0.727  1.00  0.00    -0.367 N 
ATOM     19  H7  UNL     1      -1.896   3.914   1.294  1.00  0.00     0.161 HD
BRANCH  18  20
HETATM   20  C12 UNL     1      -0.407   4.415  -0.093  1.00  0.00     0.348 C 
HETATM   21  O3  UNL     1       0.548   4.075  -0.828  1.00  0.00    -0.284 OA
ENDBRANCH  18  20
ENDBRANCH  17  18
ENDBRANCH  16  17
ENDBRANCH  15  16
BRANCH   1  22
HETATM   22  N1  UNL     1       1.406   0.429  -0.798  1.00  0.00    -0.226 N 
ATOM     23  H1  UNL     1       1.069   1.389  -0.873  1.00  0.00     0.177 HD
BRANCH  22  24
HETATM   24  C3  UNL     1       2.798   0.228  -1.011  1.00  0.00     0.137 C 
BRANCH  24  25
HETATM   25  C2  UNL     1       3.611   0.133   0.257  1.00  0.00     0.016 C 
HETATM   26  C1  UNL     1       5.063  -0.080  -0.150  1.00  0.00     0.006 C 
ENDBRANCH  24  25
ENDBRANCH  22  24
ENDBRANCH   1  22
BRANCH   9  27
HETATM   27  N4  UNL     1      -4.487  -3.656   0.785  1.00  0.00    -0.234 N 
ATOM     28  H42 UNL     1      -4.216  -4.635   0.874  1.00  0.00     0.174 HD
ATOM     29  H41 UNL     1      -5.458  -3.370   0.912  1.00  0.00     0.174 HD
ENDBRANCH   9  27
TORSDOF 8
