REMARK  6 active torsions:
REMARK  status: ('A' for Active; 'I' for Inactive)
REMARK    1  A    between atoms: N1_1  and  N2_4 
REMARK       I    between atoms: N2_4  and  C1_6 
REMARK    2  A    between atoms: C1_6  and  C2_8 
REMARK    3  A    between atoms: C2_8  and  C3_9 
REMARK    4  A    between atoms: C2_8  and  N3_12 
REMARK    5  A    between atoms: C5_17  and  C6_18 
REMARK    6  A    between atoms: C8_22  and  N6_23 
ROOT
HETATM    1  N3  UNL     1       0.684  -0.343  -0.449  1.00  0.00    -0.227 N 
HETATM    2  C4  UNL     1       0.065  -0.530   0.809  1.00  0.00     0.332 C 
HETATM    3  O4  UNL     1       0.825  -1.039   1.665  1.00  0.00    -0.246 OA
HETATM    4  N4  UNL     1      -1.240  -0.261   1.302  1.00  0.00    -0.304 N 
ATOM      5  H4  UNL     1      -1.339  -0.562   2.272  1.00  0.00     0.171 HD
HETATM    6  C5  UNL     1      -2.443   0.312   0.814  1.00  0.00     0.101 C 
HETATM    7  C7  UNL     1      -2.701   0.950  -0.321  1.00  0.00     0.061 C 
HETATM    8  C8  UNL     1      -2.145   1.421  -1.568  1.00  0.00     0.311 C 
HETATM    9  N7  UNL     1      -0.967   0.844  -2.073  1.00  0.00    -0.311 N 
ATOM     10  H7  UNL     1      -0.924   1.035  -3.074  1.00  0.00     0.166 HD
HETATM   11  C9  UNL     1       0.185   0.096  -1.717  1.00  0.00     0.329 C 
HETATM   12  O6  UNL     1       0.924  -0.260  -2.686  1.00  0.00    -0.247 OA
ENDROOT
BRANCH   1  13
HETATM   13  C2  UNL     1       2.109  -0.652  -0.487  1.00  0.00     0.293 C 
BRANCH  13  14
HETATM   14  C1  UNL     1       2.904   0.284   0.306  1.00  0.00     0.269 C 
HETATM   15  N2  UNL     1       4.284   0.259   0.515  1.00  0.00    -0.274 N 
ATOM     16  H2  UNL     1       4.831  -0.483   0.078  1.00  0.00     0.189 HD
HETATM   17  O1  UNL     1       2.275   1.244   0.881  1.00  0.00    -0.269 OA
BRANCH  15  18
HETATM   18  N1  UNL     1       4.953   1.215   1.304  1.00  0.00    -0.343 N 
ATOM     19  H12 UNL     1       4.391   1.950   1.733  1.00  0.00     0.176 HD
ATOM     20  H11 UNL     1       5.961   1.197   1.457  1.00  0.00     0.176 HD
ENDBRANCH  15  18
ENDBRANCH  13  14
BRANCH  13  21
HETATM   21  C3  UNL     1       2.381  -2.077  -0.308  1.00  0.00     0.207 C 
HETATM   22  O2  UNL     1       3.558  -2.484  -0.207  1.00  0.00    -0.646 OA
HETATM   23  O3  UNL     1       1.379  -3.030  -0.245  1.00  0.00    -0.646 OA
ENDBRANCH  13  21
ENDBRANCH   1  13
BRANCH   6  24
HETATM   24  C6  UNL     1      -3.584   0.178   1.706  1.00  0.00     0.281 C 
HETATM   25  N5  UNL     1      -3.419  -0.488   2.948  1.00  0.00    -0.056 NA
HETATM   26  O5  UNL     1      -4.718   0.631   1.420  1.00  0.00    -0.269 OA
ENDBRANCH   6  24
BRANCH   8  27
HETATM   27  N6  UNL     1      -3.185   1.268  -2.604  1.00  0.00    -0.055 N 
ATOM     28  H63 UNL     1      -3.549   0.317  -2.665  1.00  0.00     0.277 HD
ATOM     29  H62 UNL     1      -4.061   1.730  -2.359  1.00  0.00     0.277 HD
ATOM     30  H61 UNL     1      -2.792   1.601  -3.485  1.00  0.00     0.277 HD
ENDBRANCH   8  27
TORSDOF 6
