REMARK  2 active torsions:
REMARK  status: ('A' for Active; 'I' for Inactive)
REMARK    1  A    between atoms: C2_3  and  C3_4 
REMARK    2  A    between atoms: C5_7  and  C6_8 
ROOT
HETATM    1  N1  UNL     1      -2.248   1.081  -2.118  1.00  0.00    -0.197 NA
HETATM    2  C1  UNL     1      -2.313   0.514  -1.126  1.00  0.00     0.059 C 
HETATM    3  C2  UNL     1      -2.414  -0.210   0.118  1.00  0.00     0.130 C 
ENDROOT
BRANCH   3   4
HETATM    4  C3  UNL     1      -1.099  -0.266   0.831  1.00  0.00     0.025 C 
HETATM    5  C4  UNL     1      -0.538   1.075   1.179  1.00  0.00     0.173 C 
HETATM    6  O1  UNL     1       0.837   1.018   1.036  1.00  0.00    -0.385 OA
HETATM    7  C5  UNL     1       1.200  -0.265   0.746  1.00  0.00     0.132 C 
HETATM    8  C7  UNL     1       0.010  -0.824  -0.039  1.00  0.00     0.040 C 
BRANCH   7   9
HETATM    9  C6  UNL     1       2.444  -0.402  -0.068  1.00  0.00     0.118 C 
HETATM   10  S1  UNL     1       2.303   0.417  -1.666  1.00  0.00    -0.095 SA
ENDBRANCH   7   9
ENDBRANCH   3   4
TORSDOF 2
