REMARK  7 active torsions:
REMARK  status: ('A' for Active; 'I' for Inactive)
REMARK    1  A    between atoms: C2_2  and  C3_3 
REMARK    2  A    between atoms: C2_2  and  C4_6 
REMARK    3  A    between atoms: C3_3  and  O1_4 
REMARK    4  A    between atoms: C4_6  and  C6_8 
REMARK    5  A    between atoms: C7_9  and  C8_10 
REMARK    6  A    between atoms: C8_10  and  C10_12 
REMARK    7  A    between atoms: C12_16  and  C13_17 
ROOT
HETATM    1  C10 UNL     1       0.774  -0.362   1.314  1.00  0.00     0.207 A 
HETATM    2  O2  UNL     1       0.607  -1.292   0.279  1.00  0.00    -0.279 OA
HETATM    3  C11 UNL     1      -0.780  -1.524   0.178  1.00  0.00     0.270 C 
HETATM    4  O3  UNL     1      -1.325  -2.639  -0.106  1.00  0.00    -0.265 OA
HETATM    5  C12 UNL     1      -1.392  -0.209   0.471  1.00  0.00     0.143 C 
HETATM    6  C22 UNL     1      -0.448   0.356   1.498  1.00  0.00     0.204 A 
HETATM    7  O5  UNL     1       0.068  -0.472   2.484  1.00  0.00    -0.340 OA
ENDROOT
BRANCH   5   8
HETATM    8  C13 UNL     1      -2.789  -0.407   0.986  1.00  0.00     0.100 C 
HETATM    9  C14 UNL     1      -3.589  -1.103  -0.081  1.00  0.00     0.044 C 
HETATM   10  C15 UNL     1      -4.980  -0.598  -0.269  1.00  0.00     0.029 C 
HETATM   11  C16 UNL     1      -5.923  -1.093   0.775  1.00  0.00     0.024 C 
HETATM   12  C17 UNL     1      -5.445  -1.082  -1.602  1.00  0.00     0.136 C 
HETATM   13  C20 UNL     1      -5.044   0.900  -0.480  1.00  0.00     0.068 C 
HETATM   14  O4  UNL     1      -5.878  -2.200  -1.787  1.00  0.00    -0.297 OA
HETATM   15  C18 UNL     1      -5.298  -0.012  -2.627  1.00  0.00     0.080 C 
HETATM   16  C19 UNL     1      -4.529   1.056  -1.871  1.00  0.00     0.021 C 
HETATM   17  C21 UNL     1      -4.218   1.554   0.562  1.00  0.00     0.076 C 
HETATM   18  N1  UNL     1      -4.264   2.836   0.653  1.00  0.00    -0.389 N 
HETATM   19  N2  UNL     1      -3.388   0.826   1.456  1.00  0.00    -0.374 N 
ATOM     20  H12 UNL     1      -4.860   3.359   0.011  1.00  0.00     0.157 HD
ATOM     21  H11 UNL     1      -3.695   3.286   1.370  1.00  0.00     0.157 HD
ATOM     22  H2  UNL     1      -3.218   1.162   2.404  1.00  0.00     0.161 HD
ENDBRANCH   5   8
BRANCH   1  23
HETATM   23  C8  UNL     1       2.164   0.226   1.482  1.00  0.00     0.070 C 
HETATM   24  C9  UNL     1       3.020  -0.796   2.108  1.00  0.00     0.020 C 
BRANCH  23  25
HETATM   25  C7  UNL     1       2.626   0.937   0.300  1.00  0.00    -0.020 C 
HETATM   26  C6  UNL     1       3.622   0.795  -0.504  1.00  0.00    -0.022 C 
BRANCH  26  27
HETATM   27  C4  UNL     1       4.728  -0.161  -0.568  1.00  0.00     0.034 C 
HETATM   28  C5  UNL     1       4.670  -0.910  -1.925  1.00  0.00     0.019 C 
BRANCH  27  29
HETATM   29  C2  UNL     1       6.062   0.497  -0.550  1.00  0.00    -0.059 C 
HETATM   30  C1  UNL     1       6.163   1.802  -0.481  1.00  0.00     0.017 C 
BRANCH  29  31
HETATM   31  C3  UNL     1       7.273  -0.342  -0.611  1.00  0.00     0.198 C 
BRANCH  31  32
HETATM   32  O1  UNL     1       8.409   0.454  -0.584  1.00  0.00    -0.397 OA
ATOM     33  H1  UNL     1       9.189  -0.087  -0.623  1.00  0.00     0.209 HD
ENDBRANCH  31  32
ENDBRANCH  29  31
ENDBRANCH  27  29
ENDBRANCH  26  27
ENDBRANCH  23  25
ENDBRANCH   1  23
TORSDOF 7
