REMARK  14 active torsions:
REMARK  status: ('A' for Active; 'I' for Inactive)
REMARK    1  A    between atoms: N1_1  and  C1_5 
REMARK    2  A    between atoms: C1_5  and  C2_6 
REMARK    3  A    between atoms: C3_8  and  O2_9 
REMARK    4  A    between atoms: O2_9  and  C4_10 
REMARK    5  A    between atoms: C5_11  and  O3_12 
REMARK    6  A    between atoms: C6_14  and  N2_15 
REMARK    7  A    between atoms: C7_19  and  O4_20 
REMARK    8  A    between atoms: N3_23  and  N4_24 
REMARK    9  A    between atoms: C10_26  and  C11_27 
REMARK       I    between atoms: C11_27  and  N5_29 
REMARK       I    between atoms: N5_29  and  C12_31 
REMARK       I    between atoms: C12_31  and  N6_32 
REMARK       I    between atoms: C12_31  and  N7_36 
REMARK   10  A    between atoms: C13_40  and  N8_41 
REMARK   11  A    between atoms: N8_41  and  O6_43 
REMARK   12  A    between atoms: C14_45  and  O7_46 
REMARK   13  A    between atoms: C15_48  and  O8_49 
REMARK   14  A    between atoms: C16_51  and  O9_52 
ROOT
HETATM    1  C4  UNL     1      -1.700  -0.560  -0.072  1.00  0.00     0.205 C 
HETATM    2  C5  UNL     1      -2.154  -1.859  -0.667  1.00  0.00     0.184 C 
HETATM    3  C6  UNL     1      -1.188  -2.972  -0.730  1.00  0.00     0.244 C 
HETATM    4  C7  UNL     1       0.199  -2.560  -1.155  1.00  0.00     0.170 C 
HETATM    5  C8  UNL     1       1.064  -2.192   0.014  1.00  0.00     0.180 C 
HETATM    6  N3  UNL     1       0.597  -0.905   0.547  1.00  0.00    -0.286 N 
HETATM    7  C15 UNL     1      -0.732  -0.639   1.030  1.00  0.00     0.267 C 
ENDROOT
BRANCH   6   8
HETATM    8  N4  UNL     1       1.617   0.043   0.579  1.00  0.00    -0.242 N 
HETATM    9  C9  UNL     1       2.907  -0.265   0.943  1.00  0.00     0.138 A 
HETATM   10  C10 UNL     1       3.707   0.848   0.845  1.00  0.00     0.082 A 
HETATM   11  C13 UNL     1       2.873   1.844   0.414  1.00  0.00     0.123 A 
HETATM   12  C14 UNL     1       1.581   1.337   0.252  1.00  0.00     0.191 A 
BRANCH  10  13
HETATM   13  C11 UNL     1       5.151   0.924   1.096  1.00  0.00     0.258 C 
HETATM   14  O5  UNL     1       5.571   1.602   2.062  1.00  0.00    -0.267 OA
HETATM   15  N5  UNL     1       6.066   0.244   0.271  1.00  0.00    -0.307 N 
HETATM   16  C12 UNL     1       7.478   0.311   0.519  1.00  0.00     0.483 C 
ATOM     17  H5  UNL     1       5.720  -0.305  -0.516  1.00  0.00     0.166 HD
HETATM   18  N6  UNL     1       8.198   0.823  -0.644  1.00  0.00    -0.033 N 
HETATM   19  N7  UNL     1       8.060  -0.982   0.825  1.00  0.00    -0.033 N 
ATOM     20  H63 UNL     1       7.991   0.279  -1.482  1.00  0.00     0.278 HD
ATOM     21  H62 UNL     1       7.828   1.724  -0.946  1.00  0.00     0.278 HD
ATOM     22  H61 UNL     1       9.202   0.871  -0.468  1.00  0.00     0.278 HD
ATOM     23  H73 UNL     1       7.574  -1.425   1.604  1.00  0.00     0.278 HD
ATOM     24  H72 UNL     1       7.850  -1.659   0.091  1.00  0.00     0.278 HD
ATOM     25  H71 UNL     1       9.064  -0.934   1.001  1.00  0.00     0.278 HD
ENDBRANCH  10  13
BRANCH  11  26
HETATM   26  N8  UNL     1       3.258   3.211   0.175  1.00  0.00    -0.264 N 
ATOM     27  H8  UNL     1       3.355   3.550  -0.782  1.00  0.00     0.194 HD
BRANCH  26  28
HETATM   28  O6  UNL     1       3.472   3.978   1.123  1.00  0.00    -0.289 OA
ATOM     29  H6  UNL     1       3.726   4.880   0.965  1.00  0.00     0.244 HD
ENDBRANCH  26  28
ENDBRANCH  11  26
BRANCH  12  30
HETATM   30  O7  UNL     1       0.533   2.139  -0.179  1.00  0.00    -0.343 OA
ATOM     31  H7  UNL     1       0.507   3.060  -0.412  1.00  0.00     0.219 HD
ENDBRANCH  12  30
ENDBRANCH   6   8
BRANCH   7  32
HETATM   32  O8  UNL     1      -0.731   0.561   1.751  1.00  0.00    -0.373 OA
ATOM     33  H8  UNL     1      -0.105   0.510   2.464  1.00  0.00     0.212 HD
ENDBRANCH   7  32
BRANCH   4  34
HETATM   34  O4  UNL     1       0.095  -1.542  -2.064  1.00  0.00    -0.392 OA
ATOM     35  H4  UNL     1       0.969  -1.282  -2.332  1.00  0.00     0.210 HD
ENDBRANCH   4  34
BRANCH   1  36
HETATM   36  O2  UNL     1      -2.899   0.033   0.410  1.00  0.00    -0.346 OA
BRANCH  36  37
HETATM   37  C3  UNL     1      -3.216   1.214  -0.221  1.00  0.00     0.297 C 
HETATM   38  O1  UNL     1      -4.270   1.046  -1.131  1.00  0.00    -0.344 OA
HETATM   39  C2  UNL     1      -5.377   1.690  -0.680  1.00  0.00     0.222 C 
HETATM   40  C17 UNL     1      -4.968   2.667   0.330  1.00  0.00     0.190 C 
HETATM   41  C16 UNL     1      -3.562   2.274   0.716  1.00  0.00     0.245 C 
HETATM   42  O10 UNL     1      -5.612   3.594   0.770  1.00  0.00    -0.292 OA
BRANCH  39  43
HETATM   43  C1  UNL     1      -6.432   0.738  -0.145  1.00  0.00     0.269 C 
BRANCH  43  44
HETATM   44  N1  UNL     1      -7.600   1.387   0.327  1.00  0.00    -0.076 N 
ATOM     45  H13 UNL     1      -7.363   2.091   1.026  1.00  0.00     0.274 HD
ATOM     46  H12 UNL     1      -7.993   1.990  -0.396  1.00  0.00     0.274 HD
ATOM     47  H11 UNL     1      -8.309   0.747   0.686  1.00  0.00     0.274 HD
ENDBRANCH  43  44
ENDBRANCH  39  43
BRANCH  41  48
HETATM   48  O9  UNL     1      -3.684   1.898   2.062  1.00  0.00    -0.383 OA
ATOM     49  H9  UNL     1      -3.910   2.589   2.673  1.00  0.00     0.210 HD
ENDBRANCH  41  48
ENDBRANCH  36  37
ENDBRANCH   1  36
BRANCH   3  50
HETATM   50  N2  UNL     1      -1.130  -3.751   0.518  1.00  0.00    -0.070 N 
ATOM     51  H23 UNL     1      -0.938  -3.146   1.317  1.00  0.00     0.274 HD
ATOM     52  H22 UNL     1      -2.056  -4.086   0.782  1.00  0.00     0.274 HD
ATOM     53  H21 UNL     1      -0.462  -4.521   0.474  1.00  0.00     0.274 HD
ENDBRANCH   3  50
BRANCH   2  54
HETATM   54  O3  UNL     1      -2.646  -1.630  -1.950  1.00  0.00    -0.391 OA
ATOM     55  H3  UNL     1      -2.934  -2.453  -2.327  1.00  0.00     0.210 HD
ENDBRANCH   2  54
TORSDOF 14
