REMARK  8 active torsions:
REMARK  status: ('A' for Active; 'I' for Inactive)
REMARK    1  A    between atoms: C2_2  and  C3_3 
REMARK    2  A    between atoms: C3_3  and  C4_4 
REMARK    3  A    between atoms: C4_4  and  C5_5 
REMARK    4  A    between atoms: C5_5  and  O1_6 
REMARK    5  A    between atoms: O1_6  and  C6_7 
REMARK    6  A    between atoms: C9_10  and  O2_11 
REMARK    7  A    between atoms: C10_13  and  O3_14 
REMARK    8  A    between atoms: C11_16  and  O4_17 
ROOT
HETATM    1  C6  UNL     1      -0.812  -0.471  -0.129  1.00  0.00     0.152 C 
HETATM    2  C7  UNL     1      -0.787   1.017   0.035  1.00  0.00     0.037 C 
HETATM    3  C8  UNL     1      -1.710   1.311   1.228  1.00  0.00     0.037 C 
HETATM    4  C9  UNL     1      -3.113   1.279   0.635  1.00  0.00     0.149 C 
HETATM    5  C10 UNL     1      -3.238   0.189  -0.407  1.00  0.00     0.178 C 
HETATM    6  C11 UNL     1      -2.256  -0.933  -0.175  1.00  0.00     0.178 C 
ENDROOT
BRANCH   1   7
HETATM    7  O1  UNL     1      -0.069  -0.983  -1.165  1.00  0.00    -0.383 OA
BRANCH   7   8
HETATM    8  C5  UNL     1       0.907  -1.869  -0.871  1.00  0.00     0.168 C 
BRANCH   8   9
HETATM    9  C4  UNL     1       2.032  -1.351  -0.019  1.00  0.00     0.026 C 
BRANCH   9  10
HETATM   10  C3  UNL     1       2.825  -0.238  -0.619  1.00  0.00     0.002 C 
BRANCH  10  11
HETATM   11  C2  UNL     1       3.902   0.151   0.378  1.00  0.00    -0.004 C 
HETATM   12  C1  UNL     1       4.758   1.277  -0.146  1.00  0.00     0.005 C 
ENDBRANCH  10  11
ENDBRANCH   9  10
ENDBRANCH   8   9
ENDBRANCH   7   8
ENDBRANCH   1   7
BRANCH   6  13
HETATM   13  O4  UNL     1      -2.433  -1.855  -1.209  1.00  0.00    -0.390 OA
ATOM     14  H4  UNL     1      -3.337  -2.144  -1.238  1.00  0.00     0.210 HD
ENDBRANCH   6  13
BRANCH   5  15
HETATM   15  O3  UNL     1      -4.513  -0.358  -0.266  1.00  0.00    -0.390 OA
ATOM     16  H3  UNL     1      -4.591  -1.042  -0.920  1.00  0.00     0.210 HD
ENDBRANCH   5  15
BRANCH   4  17
HETATM   17  O2  UNL     1      -4.088   1.144   1.615  1.00  0.00    -0.393 OA
ATOM     18  H2  UNL     1      -4.963   1.124   1.245  1.00  0.00     0.210 HD
ENDBRANCH   4  17
TORSDOF 8
