REMARK  3 active torsions:
REMARK  status: ('A' for Active; 'I' for Inactive)
REMARK    1  A    between atoms: O1_2  and  C2_3 
REMARK    2  A    between atoms: C3_4  and  C4_5 
REMARK    3  A    between atoms: C13_19  and  N2_20 
ROOT
HETATM    1  C2  UNL     1       4.305  -0.287  -0.258  1.00  0.00     0.117 C 
HETATM    2  C3  UNL     1       3.856   1.044  -0.274  1.00  0.00     0.016 C 
HETATM    3  C5  UNL     1       2.582   1.445   0.063  1.00  0.00     0.030 C 
HETATM    4  C6  UNL     1       1.376   0.754   0.031  1.00  0.00     0.001 A 
HETATM    5  C7  UNL     1       0.279   1.579  -0.070  1.00  0.00     0.052 A 
HETATM    6 CL1  UNL     1       0.523   3.311  -0.137  1.00  0.00    -0.083 Cl
HETATM    7  C8  UNL     1      -1.004   1.027  -0.114  1.00  0.00    -0.027 A 
HETATM    8  C9  UNL     1      -1.171  -0.311  -0.058  1.00  0.00    -0.022 A 
HETATM    9  C10 UNL     1      -0.038  -1.120   0.044  1.00  0.00     0.026 A 
HETATM   10  C11 UNL     1       1.242  -0.616   0.090  1.00  0.00     0.029 A 
HETATM   11  C12 UNL     1       2.212  -1.600   0.191  1.00  0.00     0.218 C 
HETATM   12  O2  UNL     1       1.821  -2.727   0.580  1.00  0.00    -0.285 OA
HETATM   13  C13 UNL     1       3.558  -1.440  -0.098  1.00  0.00     0.187 C 
HETATM   14  C14 UNL     1      -2.364  -1.178  -0.081  1.00  0.00     0.047 C 
HETATM   15  C15 UNL     1      -2.460  -1.785   1.329  1.00  0.00     0.043 C 
HETATM   16  C16 UNL     1      -2.001  -2.360  -0.989  1.00  0.00     0.043 C 
HETATM   17  N3  UNL     1      -3.566  -0.654  -0.539  1.00  0.00    -0.401 N 
ATOM     18  H3  UNL     1      -4.112  -1.183  -1.219  1.00  0.00     0.155 HD
HETATM   19  C17 UNL     1      -4.048   0.586  -0.090  1.00  0.00     0.019 C 
HETATM   20  C18 UNL     1      -4.134   0.765   1.399  1.00  0.00     0.037 C 
HETATM   21  C19 UNL     1      -5.491   0.697  -0.584  1.00  0.00     0.037 C 
HETATM   22  C20 UNL     1      -3.320   1.690  -0.789  1.00  0.00     0.034 C 
HETATM   23  C21 UNL     1      -2.022   2.083  -0.225  1.00  0.00     0.043 C 
ENDROOT
BRANCH   2  24
HETATM   24  C4  UNL     1       4.838   2.020  -0.674  1.00  0.00     0.094 C 
HETATM   25  N1  UNL     1       4.570   3.252  -0.740  1.00  0.00    -0.407 N 
ATOM     26  H12 UNL     1       3.624   3.549  -0.499  1.00  0.00     0.155 HD
ATOM     27  H11 UNL     1       5.265   3.943  -1.023  1.00  0.00     0.155 HD
ENDBRANCH   2  24
BRANCH   1  28
HETATM   28  O1  UNL     1       5.677  -0.403  -0.428  1.00  0.00    -0.352 OA
HETATM   29  C1  UNL     1       6.618  -0.402   0.611  1.00  0.00     0.210 C 
ENDBRANCH   1  28
BRANCH  13  30
HETATM   30  N2  UNL     1       4.299  -2.647  -0.259  1.00  0.00    -0.108 N 
HETATM   31  O3  UNL     1       4.630  -2.979  -1.402  1.00  0.00    -0.532 OA
HETATM   32  O4  UNL     1       4.659  -3.454   0.785  1.00  0.00    -0.532 OA
ENDBRANCH  13  30
TORSDOF 3
