REMARK  7 active torsions:
REMARK  status: ('A' for Active; 'I' for Inactive)
REMARK    1  A    between atoms: C2_2  and  C3_3 
REMARK    2  A    between atoms: C4_4  and  C5_5 
REMARK    3  A    between atoms: C5_5  and  C8_8 
REMARK    4  A    between atoms: C11_16  and  N3_17 
REMARK    5  A    between atoms: N3_17  and  C12_19 
REMARK    6  A    between atoms: C17_25  and  O1_26 
REMARK    7  A    between atoms: C20_29  and  N4_30 
ROOT
HETATM    1  C8  UNL     1       1.727  -1.467  -0.441  1.00  0.00     0.039 A 
HETATM    2  S1  UNL     1       1.178  -2.338  -1.804  1.00  0.00    -0.072 SA
HETATM    3  C9  UNL     1      -0.395  -1.678  -1.952  1.00  0.00     0.092 A 
HETATM    4  N1  UNL     1      -1.413  -1.905  -2.830  1.00  0.00    -0.346 N 
ATOM      5  H1  UNL     1      -1.302  -2.589  -3.578  1.00  0.00     0.167 HD
HETATM    6  C10 UNL     1      -2.574  -1.217  -2.703  1.00  0.00     0.182 A 
HETATM    7  N2  UNL     1      -2.648  -0.340  -1.702  1.00  0.00    -0.338 N 
ATOM      8  H2  UNL     1      -3.518   0.182  -1.597  1.00  0.00     0.168 HD
HETATM    9  C11 UNL     1      -1.669  -0.091  -0.823  1.00  0.00     0.122 A 
HETATM   10  C19 UNL     1      -0.449  -0.785  -0.921  1.00  0.00     0.076 A 
HETATM   11  C20 UNL     1       0.653  -0.678  -0.138  1.00  0.00     0.134 A 
ENDROOT
BRANCH   9  12
HETATM   12  N3  UNL     1      -1.878   0.795   0.108  1.00  0.00    -0.339 N 
ATOM     13  H3  UNL     1      -1.135   0.988   0.780  1.00  0.00     0.167 HD
BRANCH  12  14
HETATM   14  C12 UNL     1      -3.100   1.500   0.221  1.00  0.00     0.067 A 
HETATM   15  C13 UNL     1      -3.193   2.856  -0.029  1.00  0.00     0.035 A 
HETATM   16  C14 UNL     1      -4.365   3.558   0.075  1.00  0.00     0.044 A 
HETATM   17  C15 UNL     1      -5.513   2.914   0.441  1.00  0.00     0.119 A 
HETATM   18  F1  UNL     1      -6.712   3.569   0.561  1.00  0.00    -0.206 F 
HETATM   19  C16 UNL     1      -5.469   1.567   0.700  1.00  0.00     0.081 A 
HETATM   20  C17 UNL     1      -4.263   0.859   0.590  1.00  0.00     0.097 A 
BRANCH  20  21
HETATM   21  O1  UNL     1      -4.232  -0.490   0.852  1.00  0.00    -0.354 OA
HETATM   22  C18 UNL     1      -5.343  -1.251   1.235  1.00  0.00     0.210 C 
ENDBRANCH  20  21
ENDBRANCH  12  14
ENDBRANCH   9  12
BRANCH  11  23
HETATM   23  N4  UNL     1       0.720   0.202   1.012  1.00  0.00    -0.113 N 
HETATM   24  O2  UNL     1       1.271   1.283   1.047  1.00  0.00    -0.532 OA
HETATM   25  O3  UNL     1       0.071  -0.259   2.142  1.00  0.00    -0.532 OA
ENDBRANCH  11  23
BRANCH   1  26
HETATM   26  C5  UNL     1       3.069  -1.599   0.168  1.00  0.00     0.052 C 
HETATM   27  C6  UNL     1       3.804  -2.700  -0.631  1.00  0.00     0.035 C 
HETATM   28  C7  UNL     1       3.067  -2.023   1.595  1.00  0.00     0.035 C 
BRANCH  26  29
HETATM   29  C4  UNL     1       3.871  -0.376   0.006  1.00  0.00    -0.092 C 
HETATM   30  C3  UNL     1       4.556   0.609  -0.139  1.00  0.00    -0.106 C 
BRANCH  30  31
HETATM   31  C2  UNL     1       5.394   1.803  -0.331  1.00  0.00     0.089 C 
HETATM   32  C1  UNL     1       6.464   1.923   0.704  1.00  0.00     0.018 C 
ENDBRANCH  30  31
ENDBRANCH  26  29
ENDBRANCH   1  26
TORSDOF 7
