REMARK  6 active torsions:
REMARK  status: ('A' for Active; 'I' for Inactive)
REMARK    1  A    between atoms: C2_2  and  C3_3 
REMARK    2  A    between atoms: C3_3  and  C4_4 
REMARK    3  A    between atoms: C4_4  and  C5_5 
REMARK    4  A    between atoms: C8_8  and  N1_9 
REMARK    5  A    between atoms: C12_16  and  O1_17 
REMARK    6  A    between atoms: C15_22  and  C16_23 
ROOT
HETATM    1  C5  UNL     1      -0.061   0.852  -0.599  1.00  0.00     0.025 A 
HETATM    2  C6  UNL     1       0.313   2.155  -1.024  1.00  0.00    -0.011 A 
HETATM    3  C7  UNL     1       0.720   2.410  -2.432  1.00  0.00     0.052 C 
HETATM    4  C8  UNL     1       0.255   3.247  -0.193  1.00  0.00     0.057 A 
HETATM    5  C9  UNL     1      -0.184   3.033   1.090  1.00  0.00     0.101 A 
HETATM    6  C10 UNL     1      -0.261   4.135   2.007  1.00  0.00     0.104 C 
HETATM    7  N2  UNL     1      -0.309   5.075   2.722  1.00  0.00    -0.191 NA
HETATM    8  C11 UNL     1      -0.551   1.770   1.489  1.00  0.00     0.096 A 
HETATM    9  C12 UNL     1      -0.897   1.589   2.789  1.00  0.00     0.096 A 
HETATM   10  C13 UNL     1      -1.200   0.335   3.246  1.00  0.00     0.065 A 
HETATM   11  C14 UNL     1      -1.158  -0.723   2.368  1.00  0.00     0.060 A 
HETATM   12 CL1  UNL     1      -1.344  -2.362   2.968  1.00  0.00    -0.082 Cl
HETATM   13  C15 UNL     1      -0.817  -0.592   1.000  1.00  0.00     0.046 A 
HETATM   14  N3  UNL     1      -0.505   0.666   0.643  1.00  0.00    -0.312 N 
ENDROOT
BRANCH   4  15
HETATM   15  N1  UNL     1       0.582   4.440  -0.540  1.00  0.00    -0.397 N 
ATOM     16  H12 UNL     1       0.908   4.599  -1.493  1.00  0.00     0.156 HD
ATOM     17  H11 UNL     1       0.539   5.251   0.077  1.00  0.00     0.156 HD
ENDBRANCH   4  15
BRANCH   9  18
HETATM   18  O1  UNL     1      -0.967   2.621   3.716  1.00  0.00    -0.358 OA
ATOM     19  H1  UNL     1      -1.209   2.494   4.626  1.00  0.00     0.217 HD
ENDBRANCH   9  18
BRANCH   1  20
HETATM   20  C4  UNL     1       0.437  -0.172  -1.389  1.00  0.00     0.058 C 
BRANCH  20  21
HETATM   21  C3  UNL     1       1.962  -0.077  -0.901  1.00  0.00     0.006 C 
BRANCH  21  22
HETATM   22  C2  UNL     1       2.877  -0.955  -1.617  1.00  0.00    -0.004 C 
HETATM   23  C1  UNL     1       2.710  -2.414  -1.618  1.00  0.00     0.005 C 
ENDBRANCH  21  22
ENDBRANCH  20  21
ENDBRANCH   1  20
BRANCH  13  24
HETATM   24  C16 UNL     1      -1.157  -1.705   0.076  1.00  0.00    -0.006 C 
HETATM   25  C17 UNL     1      -0.459  -3.007   0.411  1.00  0.00     0.021 C 
HETATM   26  C18 UNL     1      -2.493  -2.197   0.809  1.00  0.00     0.021 C 
HETATM   27  C19 UNL     1      -1.967  -1.608  -1.156  1.00  0.00     0.021 C 
ENDBRANCH  13  24
TORSDOF 6
