REMARK  18 active torsions:
REMARK  status: ('A' for Active; 'I' for Inactive)
REMARK    1  A    between atoms: C2_2  and  C4_4 
REMARK    2  A    between atoms: C4_4  and  C5_5 
REMARK    3  A    between atoms: C5_5  and  C6_6 
REMARK    4  A    between atoms: C5_5  and  N1_8 
REMARK       I    between atoms: N1_8  and  C7_10 
REMARK    5  A    between atoms: C7_10  and  C8_12 
REMARK    6  A    between atoms: C8_12  and  C9_13 
REMARK    7  A    between atoms: C8_12  and  N3_40 
REMARK    8  A    between atoms: C9_13  and  C10_14 
REMARK    9  A    between atoms: C11_15  and  O3_16 
REMARK   10  A    between atoms: O3_16  and  C12_17 
REMARK       I    between atoms: C12_17  and  N2_19 
REMARK   11  A    between atoms: N2_19  and  C13_21 
REMARK   12  A    between atoms: C13_21  and  C14_22 
REMARK   13  A    between atoms: C13_21  and  C19_27 
REMARK   14  A    between atoms: C14_22  and  C15_23 
REMARK   15  A    between atoms: C19_27  and  O5_28 
REMARK   16  A    between atoms: C19_27  and  C20_30 
REMARK       I    between atoms: N3_40  and  C29_42 
REMARK   17  A    between atoms: C29_42  and  O8_44 
REMARK   18  A    between atoms: O8_44  and  C30_45 
ROOT
HETATM    1  C10 UNL     1      -1.050   0.672   1.367  1.00  0.00     0.024 C 
HETATM    2  C11 UNL     1       0.243   0.271   2.147  1.00  0.00     0.143 C 
HETATM    3  C24 UNL     1      -0.026   0.899   3.451  1.00  0.00     0.039 C 
HETATM    4  C25 UNL     1      -1.493   0.726   3.721  1.00  0.00     0.068 C 
HETATM    5  C26 UNL     1      -1.421   2.036   4.367  1.00  0.00     0.137 C 
HETATM    6  O6  UNL     1      -1.790   2.677   5.325  1.00  0.00    -0.297 OA
HETATM    7  C27 UNL     1      -0.599   2.233   3.178  1.00  0.00     0.068 C 
HETATM    8  C28 UNL     1      -1.687   1.478   2.437  1.00  0.00     0.016 C 
ENDROOT
BRANCH   1   9
HETATM    9  C9  UNL     1      -1.691  -0.613   1.026  1.00  0.00     0.042 C 
BRANCH   9  10
HETATM   10  C8  UNL     1      -2.934  -0.650   0.204  1.00  0.00     0.179 C 
BRANCH  10  11
HETATM   11  C7  UNL     1      -4.050   0.066   0.808  1.00  0.00     0.241 C 
HETATM   12  N1  UNL     1      -4.515   1.272   0.240  1.00  0.00    -0.348 N 
ATOM     13  H1  UNL     1      -4.028   1.627  -0.583  1.00  0.00     0.163 HD
HETATM   14  O2  UNL     1      -4.607  -0.393   1.822  1.00  0.00    -0.271 OA
BRANCH  12  15
HETATM   15  C5  UNL     1      -5.627   2.035   0.739  1.00  0.00     0.146 C 
BRANCH  15  16
HETATM   16  C4  UNL     1      -5.225   3.377   1.192  1.00  0.00     0.036 C 
BRANCH  16  17
HETATM   17  C2  UNL     1      -4.775   4.369   0.181  1.00  0.00    -0.020 C 
HETATM   18  C1  UNL     1      -5.804   4.700  -0.884  1.00  0.00     0.009 C 
HETATM   19  C3  UNL     1      -3.392   4.173  -0.358  1.00  0.00     0.009 C 
ENDBRANCH  16  17
ENDBRANCH  15  16
BRANCH  15  20
HETATM   20  C6  UNL     1      -6.773   2.030  -0.210  1.00  0.00     0.256 C 
HETATM   21  O1  UNL     1      -6.685   1.436  -1.266  1.00  0.00    -0.305 OA
ENDBRANCH  15  20
ENDBRANCH  12  15
ENDBRANCH  10  11
BRANCH  10  22
HETATM   22  N3  UNL     1      -3.262  -2.104   0.134  1.00  0.00    -0.324 N 
HETATM   23  C29 UNL     1      -3.123  -2.742  -1.105  1.00  0.00     0.362 C 
HETATM   24  O7  UNL     1      -2.735  -2.132  -2.135  1.00  0.00    -0.238 OA
ATOM     25  H3  UNL     1      -3.576  -2.615   0.959  1.00  0.00     0.165 HD
BRANCH  23  26
HETATM   26  O8  UNL     1      -3.414  -4.087  -1.236  1.00  0.00    -0.294 OA
BRANCH  26  27
HETATM   27  C30 UNL     1      -3.303  -4.818  -2.435  1.00  0.00     0.061 C 
HETATM   28  C31 UNL     1      -1.886  -4.812  -2.969  1.00  0.00     0.046 C 
HETATM   29  C32 UNL     1      -4.268  -4.281  -3.456  1.00  0.00     0.046 C 
HETATM   30  C33 UNL     1      -3.697  -6.260  -2.095  1.00  0.00     0.046 C 
ENDBRANCH  26  27
ENDBRANCH  23  26
ENDBRANCH  10  22
ENDBRANCH   9  10
ENDBRANCH   1   9
BRANCH   2  31
HETATM   31  O3  UNL     1       1.348   0.900   1.523  1.00  0.00    -0.298 OA
BRANCH  31  32
HETATM   32  C12 UNL     1       2.372   0.104   1.031  1.00  0.00     0.361 C 
HETATM   33  O4  UNL     1       2.255  -1.141   1.174  1.00  0.00    -0.238 OA
HETATM   34  N2  UNL     1       3.530   0.613   0.381  1.00  0.00    -0.330 N 
ATOM     35  H2  UNL     1       3.646   1.618   0.254  1.00  0.00     0.165 HD
BRANCH  34  36
HETATM   36  C13 UNL     1       4.546  -0.303  -0.101  1.00  0.00     0.116 C 
BRANCH  36  37
HETATM   37  C14 UNL     1       5.868   0.102   0.476  1.00  0.00     0.032 C 
BRANCH  37  38
HETATM   38  C15 UNL     1       5.821   0.054   1.979  1.00  0.00    -0.013 C 
HETATM   39  C16 UNL     1       7.182   0.459   2.574  1.00  0.00     0.005 C 
HETATM   40  C17 UNL     1       6.454   1.273   3.618  1.00  0.00     0.001 C 
HETATM   41  C18 UNL     1       5.250   1.266   2.668  1.00  0.00     0.005 C 
ENDBRANCH  37  38
ENDBRANCH  36  37
BRANCH  36  42
HETATM   42  C19 UNL     1       4.496  -0.205  -1.613  1.00  0.00     0.145 C 
BRANCH  42  43
HETATM   43  O5  UNL     1       3.190  -0.586  -1.973  1.00  0.00    -0.393 OA
ATOM     44  H5  UNL     1       3.159  -0.525  -2.920  1.00  0.00     0.210 HD
ENDBRANCH  42  43
BRANCH  42  45
HETATM   45  C20 UNL     1       5.444  -1.107  -2.324  1.00  0.00     0.016 C 
HETATM   46  C21 UNL     1       5.281  -0.913  -3.832  1.00  0.00     0.007 C 
HETATM   47  C22 UNL     1       6.750  -0.653  -3.976  1.00  0.00     0.001 C 
HETATM   48  C23 UNL     1       6.861  -0.639  -2.475  1.00  0.00     0.007 C 
ENDBRANCH  42  45
ENDBRANCH  36  42
ENDBRANCH  34  36
ENDBRANCH  31  32
ENDBRANCH   2  31
TORSDOF 18
