REMARK  8 active torsions:
REMARK  status: ('A' for Active; 'I' for Inactive)
REMARK    1  A    between atoms: C2_5  and  O2_6 
REMARK    2  A    between atoms: O2_6  and  C3_7 
REMARK    3  A    between atoms: C3_7  and  C4_8 
REMARK    4  A    between atoms: C4_8  and  O3_9 
REMARK    5  A    between atoms: O3_9  and  C5_10 
REMARK    6  A    between atoms: C8_13  and  C9_14 
REMARK    7  A    between atoms: N2_15  and  N3_17 
REMARK    8  A    between atoms: N3_17  and  C10_19 
ROOT
HETATM    1  C5  UNL     1      -1.144  -0.059  -0.402  1.00  0.00     0.068 A 
HETATM    2  C6  UNL     1      -0.036   0.730  -0.089  1.00  0.00     0.037 A 
HETATM    3  C7  UNL     1       1.197   0.162   0.174  1.00  0.00     0.015 A 
HETATM    4  C8  UNL     1       1.379  -1.192   0.140  1.00  0.00    -0.019 A 
HETATM    5  C13 UNL     1       0.282  -1.990  -0.171  1.00  0.00     0.015 A 
HETATM    6  C14 UNL     1      -0.947  -1.419  -0.434  1.00  0.00     0.037 A 
ENDROOT
BRANCH   1   7
HETATM    7  O3  UNL     1      -2.364   0.533  -0.662  1.00  0.00    -0.349 OA
BRANCH   7   8
HETATM    8  C4  UNL     1      -3.557  -0.067  -0.990  1.00  0.00     0.202 C 
BRANCH   8   9
HETATM    9  C3  UNL     1      -4.713   0.854  -1.193  1.00  0.00     0.205 C 
BRANCH   9  10
HETATM   10  O2  UNL     1      -5.111   1.634  -0.145  1.00  0.00    -0.320 OA
BRANCH  10  11
HETATM   11  C2  UNL     1      -4.606   2.607   0.602  1.00  0.00     0.230 C 
HETATM   12  N1  UNL     1      -5.385   3.119   1.602  1.00  0.00    -0.274 N 
HETATM   13  C1  UNL     1      -5.258   4.296   2.278  1.00  0.00     0.330 C 
ATOM     14  H1  UNL     1      -6.174   2.537   1.882  1.00  0.00     0.174 HD
HETATM   15  O1  UNL     1      -6.326   4.778   2.743  1.00  0.00    -0.246 OA
HETATM   16  N7  UNL     1      -4.139   4.983   2.498  1.00  0.00    -0.271 N 
HETATM   17  C16 UNL     1      -3.011   5.001   1.727  1.00  0.00     0.317 C 
ATOM     18  H7  UNL     1      -4.122   5.562   3.338  1.00  0.00     0.174 HD
HETATM   19  C15 UNL     1      -2.764   4.227   0.613  1.00  0.00     0.316 C 
HETATM   20  O5  UNL     1      -2.111   5.790   2.054  1.00  0.00    -0.262 OA
HETATM   21  N6  UNL     1      -3.361   3.044   0.353  1.00  0.00    -0.284 N 
HETATM   22  O4  UNL     1      -1.927   4.651  -0.217  1.00  0.00    -0.262 OA
ATOM     23  H6  UNL     1      -2.762   2.364  -0.114  1.00  0.00     0.172 HD
ENDBRANCH  10  11
ENDBRANCH   9  10
ENDBRANCH   8   9
ENDBRANCH   7   8
ENDBRANCH   1   7
BRANCH   4  24
HETATM   24  C9  UNL     1       2.683  -1.793   0.431  1.00  0.00     0.118 C 
HETATM   25  N2  UNL     1       2.751  -3.090   0.388  1.00  0.00    -0.308 N 
ATOM     26  H2  UNL     1       1.926  -3.646   0.160  1.00  0.00     0.186 HD
BRANCH  25  27
HETATM   27  N3  UNL     1       3.955  -3.701   0.655  1.00  0.00    -0.272 N 
ATOM     28  H3  UNL     1       4.027  -4.369   1.422  1.00  0.00     0.190 HD
BRANCH  27  29
HETATM   29  C10 UNL     1       5.096  -3.405  -0.133  1.00  0.00     0.190 C 
HETATM   30  N4  UNL     1       5.660  -2.249  -0.338  1.00  0.00    -0.360 N 
HETATM   31  C11 UNL     1       6.807  -2.369  -1.207  1.00  0.00     0.142 C 
ATOM     32  H4  UNL     1       5.333  -1.371   0.064  1.00  0.00     0.162 HD
HETATM   33  C12 UNL     1       6.563  -3.710  -1.872  1.00  0.00     0.142 C 
HETATM   34  N5  UNL     1       5.820  -4.420  -0.847  1.00  0.00    -0.360 N 
ATOM     35  H5  UNL     1       5.813  -5.425  -0.671  1.00  0.00     0.162 HD
ENDBRANCH  27  29
ENDBRANCH  25  27
ENDBRANCH   4  24
TORSDOF 8
