REMARK  12 active torsions:
REMARK  status: ('A' for Active; 'I' for Inactive)
REMARK    1  A    between atoms: C2_2  and  C3_3 
REMARK    2  A    between atoms: C2_2  and  C9_11 
REMARK    3  A    between atoms: C12_15  and  N1_16 
REMARK    4  A    between atoms: C14_21  and  C15_22 
REMARK    5  A    between atoms: C15_22  and  C17_24 
REMARK    6  A    between atoms: C18_25  and  C20_27 
REMARK    7  A    between atoms: C21_28  and  C22_29 
REMARK    8  A    between atoms: C25_32  and  C26_33 
REMARK    9  A    between atoms: C26_33  and  O4_34 
REMARK   10  A    between atoms: O4_34  and  S1_35 
REMARK   11  A    between atoms: C28_39  and  O7_40 
REMARK   12  A    between atoms: C29_42  and  O8_43 
ROOT
HETATM    1  C15 UNL     1      -1.216  -2.011   1.126  1.00  0.00     0.011 C 
HETATM    2  C16 UNL     1      -0.883  -3.466   1.529  1.00  0.00     0.015 C 
ENDROOT
BRANCH   1   3
HETATM    3  C14 UNL     1      -2.488  -2.111   0.327  1.00  0.00     0.028 C 
HETATM    4  C9  UNL     1      -3.069  -0.861  -0.201  1.00  0.00     0.157 C 
HETATM    5  O3  UNL     1      -4.035  -1.207  -1.141  1.00  0.00    -0.374 OA
HETATM    6  C10 UNL     1      -4.859  -2.236  -0.908  1.00  0.00     0.148 C 
HETATM    7  C11 UNL     1      -6.129  -1.903  -0.110  1.00  0.00     0.042 C 
HETATM    8  C12 UNL     1      -4.269  -3.520  -0.400  1.00  0.00     0.212 C 
HETATM    9  C13 UNL     1      -3.449  -3.112   0.843  1.00  0.00     0.043 C 
BRANCH   4  10
HETATM   10  C2  UNL     1      -3.504   0.180   0.723  1.00  0.00    -0.031 C 
HETATM   11  C1  UNL     1      -3.665   0.050   2.042  1.00  0.00     0.019 C 
BRANCH  10  12
HETATM   12  C3  UNL     1      -3.818   1.533   0.195  1.00  0.00     0.167 C 
HETATM   13  O1  UNL     1      -4.191   2.439   1.227  1.00  0.00    -0.311 OA
HETATM   14  C4  UNL     1      -5.557   2.577   1.277  1.00  0.00     0.263 C 
HETATM   15  O2  UNL     1      -6.285   2.925   2.267  1.00  0.00    -0.265 OA
HETATM   16  C5  UNL     1      -6.109   2.254  -0.034  1.00  0.00     0.088 C 
HETATM   17  C6  UNL     1      -6.667   3.471  -0.726  1.00  0.00     0.021 C 
HETATM   18  C7  UNL     1      -4.894   1.686  -0.786  1.00  0.00     0.029 C 
HETATM   19  C8  UNL     1      -4.471   2.753  -1.820  1.00  0.00     0.014 C 
ENDBRANCH  10  12
ENDBRANCH   4  10
BRANCH   8  20
HETATM   20  N1  UNL     1      -5.305  -4.417  -0.004  1.00  0.00    -0.073 N 
ATOM     21  H13 UNL     1      -5.936  -3.993   0.676  1.00  0.00     0.274 HD
ATOM     22  H12 UNL     1      -5.977  -4.577  -0.754  1.00  0.00     0.274 HD
ATOM     23  H11 UNL     1      -4.904  -5.289   0.341  1.00  0.00     0.274 HD
ENDBRANCH   8  20
ENDBRANCH   1   3
BRANCH   1  24
HETATM   24  C17 UNL     1      -0.068  -1.600   0.307  1.00  0.00    -0.015 C 
HETATM   25  C18 UNL     1       0.709  -0.601   0.688  1.00  0.00    -0.065 C 
HETATM   26  C19 UNL     1       0.414   0.090   1.940  1.00  0.00     0.048 C 
BRANCH  25  27
HETATM   27  C20 UNL     1       1.854  -0.199  -0.148  1.00  0.00     0.007 C 
HETATM   28  C21 UNL     1       2.689   0.760   0.110  1.00  0.00     0.010 C 
BRANCH  28  29
HETATM   29  C22 UNL     1       3.831   1.203  -0.667  1.00  0.00    -0.031 C 
HETATM   30  C23 UNL     1       4.553   2.251  -0.168  1.00  0.00    -0.016 C 
HETATM   31  C24 UNL     1       5.714   2.706  -0.956  1.00  0.00     0.037 C 
HETATM   32  C25 UNL     1       6.602   1.579  -1.436  1.00  0.00     0.046 C 
HETATM   33  C28 UNL     1       5.842   0.336  -1.756  1.00  0.00     0.158 C 
HETATM   34  C29 UNL     1       4.351   0.685  -1.932  1.00  0.00     0.180 C 
BRANCH  32  35
HETATM   35  C26 UNL     1       7.649   1.319  -0.373  1.00  0.00     0.197 C 
BRANCH  35  36
HETATM   36  O4  UNL     1       8.510   0.292  -0.733  1.00  0.00    -0.276 OA
BRANCH  36  37
HETATM   37  S1  UNL     1       9.621   0.089   0.500  1.00  0.00     0.261 S 
HETATM   38  C27 UNL     1       9.138   1.021   1.934  1.00  0.00     0.194 C 
HETATM   39  O5  UNL     1      10.952   0.638   0.027  1.00  0.00    -0.199 OA
HETATM   40  O6  UNL     1       9.759  -1.352   0.907  1.00  0.00    -0.199 OA
ENDBRANCH  36  37
ENDBRANCH  35  36
ENDBRANCH  32  35
BRANCH  33  41
HETATM   41  O7  UNL     1       6.270  -0.172  -2.977  1.00  0.00    -0.392 OA
ATOM     42  H7  UNL     1       5.786  -0.964  -3.181  1.00  0.00     0.210 HD
ENDBRANCH  33  41
BRANCH  34  43
HETATM   43  O8  UNL     1       3.760  -0.441  -2.433  1.00  0.00    -0.388 OA
ATOM     44  H8  UNL     1       4.098  -0.777  -3.255  1.00  0.00     0.210 HD
ENDBRANCH  34  43
ENDBRANCH  28  29
ENDBRANCH  25  27
ENDBRANCH   1  24
TORSDOF 12
