REMARK  11 active torsions:
REMARK  status: ('A' for Active; 'I' for Inactive)
REMARK    1  A    between atoms: S1_2  and  C2_3 
REMARK       I    between atoms: C2_3  and  N1_5 
REMARK    2  A    between atoms: N1_5  and  C3_6 
REMARK    3  A    between atoms: C4_7  and  O2_8 
REMARK    4  A    between atoms: C5_10  and  N2_11 
REMARK       I    between atoms: N2_11  and  C6_13 
REMARK    5  A    between atoms: C8_16  and  O4_17 
REMARK    6  A    between atoms: C9_19  and  S2_20 
REMARK    7  A    between atoms: S2_20  and  C10_21 
REMARK    8  A    between atoms: C12_23  and  N3_24 
REMARK    9  A    between atoms: C15_27  and  O5_28 
REMARK   10  A    between atoms: C16_30  and  C17_31 
REMARK   11  A    between atoms: C17_31  and  O6_32 
ROOT
HETATM    1  C3  UNL     1      -2.455   0.577  -0.458  1.00  0.00     0.214 C 
HETATM    2  C4  UNL     1      -3.452  -0.097  -1.364  1.00  0.00     0.180 C 
HETATM    3  C5  UNL     1      -3.169  -1.564  -1.212  1.00  0.00     0.146 C 
HETATM    4  C8  UNL     1      -1.793  -1.686  -0.610  1.00  0.00     0.160 C 
HETATM    5  C9  UNL     1      -1.194  -0.333  -0.684  1.00  0.00     0.119 C 
ENDROOT
BRANCH   5   6
HETATM    6  S2  UNL     1      -0.125   0.081   0.714  1.00  0.00    -0.127 SA
BRANCH   6   7
HETATM    7  C10 UNL     1       1.471  -0.792   0.642  1.00  0.00     0.185 C 
HETATM    8  C11 UNL     1       2.300  -0.313  -0.507  1.00  0.00     0.070 C 
HETATM    9  C12 UNL     1       3.739  -0.038  -0.216  1.00  0.00     0.112 C 
HETATM   10  C15 UNL     1       4.223  -0.431   1.134  1.00  0.00     0.171 C 
HETATM   11  C16 UNL     1       3.276  -1.221   1.960  1.00  0.00     0.177 C 
HETATM   12  O7  UNL     1       2.023  -0.679   1.882  1.00  0.00    -0.365 OA
BRANCH   9  13
HETATM   13  N3  UNL     1       4.130   1.317  -0.486  1.00  0.00    -0.414 N 
HETATM   14  C13 UNL     1       3.523   2.356   0.229  1.00  0.00     0.143 C 
HETATM   15  C14 UNL     1       5.374   1.530  -1.105  1.00  0.00     0.143 C 
ENDBRANCH   9  13
BRANCH  10  16
HETATM   16  O5  UNL     1       4.595   0.709   1.881  1.00  0.00    -0.391 OA
ATOM     17  H5  UNL     1       4.904   0.458   2.743  1.00  0.00     0.210 HD
ENDBRANCH  10  16
BRANCH  11  18
HETATM   18  C17 UNL     1       3.356  -2.702   1.692  1.00  0.00     0.198 C 
BRANCH  18  19
HETATM   19  O6  UNL     1       2.608  -3.408   2.613  1.00  0.00    -0.398 OA
ATOM     20  H6  UNL     1       2.658  -4.341   2.444  1.00  0.00     0.209 HD
ENDBRANCH  18  19
ENDBRANCH  11  18
ENDBRANCH   6   7
ENDBRANCH   5   6
BRANCH   1  21
HETATM   21  N1  UNL     1      -2.240   1.887  -0.634  1.00  0.00    -0.396 NA
HETATM   22  C2  UNL     1      -2.017   3.242  -0.817  1.00  0.00     0.349 C 
HETATM   23  O1  UNL     1      -1.172   3.786  -1.539  1.00  0.00    -0.244 OA
BRANCH  22  24
HETATM   24  S1  UNL     1      -3.144   4.308   0.153  1.00  0.00    -0.059 SA
HETATM   25  C1  UNL     1      -2.666   6.016  -0.056  1.00  0.00     0.101 C 
ENDBRANCH  22  24
ENDBRANCH   1  21
BRANCH   4  26
HETATM   26  O4  UNL     1      -1.903  -2.140   0.702  1.00  0.00    -0.392 OA
ATOM     27  H4  UNL     1      -1.036  -2.217   1.082  1.00  0.00     0.210 HD
ENDBRANCH   4  26
BRANCH   2  28
HETATM   28  O2  UNL     1      -4.779   0.194  -1.012  1.00  0.00    -0.390 OA
ATOM     29  H2  UNL     1      -5.408  -0.231  -1.583  1.00  0.00     0.210 HD
ENDBRANCH   2  28
BRANCH   3  30
HETATM   30  N2  UNL     1      -4.174  -2.138  -0.314  1.00  0.00    -0.352 N 
HETATM   31  C6  UNL     1      -5.116  -3.065  -0.769  1.00  0.00     0.214 C 
HETATM   32  C7  UNL     1      -6.128  -3.651   0.107  1.00  0.00     0.117 C 
HETATM   33  O3  UNL     1      -5.094  -3.412  -1.988  1.00  0.00    -0.274 OA
ATOM     34  H2  UNL     1      -4.187  -1.855   0.666  1.00  0.00     0.163 HD
ENDBRANCH   3  30
TORSDOF 11
