REMARK  10 active torsions:
REMARK  status: ('A' for Active; 'I' for Inactive)
REMARK    1  A    between atoms: C2_2  and  C3_3 
REMARK    2  A    between atoms: C3_3  and  C4_4 
REMARK    3  A    between atoms: C4_4  and  C5_5 
REMARK    4  A    between atoms: C5_5  and  C6_6 
REMARK    5  A    between atoms: C6_6  and  C7_7 
REMARK    6  A    between atoms: C7_7  and  N1_9 
REMARK    7  A    between atoms: N1_9  and  C9_11 
REMARK    8  A    between atoms: C11_15  and  C12_16 
REMARK    9  A    between atoms: C12_16  and  C13_17 
REMARK   10  A    between atoms: C17_23  and  C18_24 
ROOT
HETATM    1  C9  UNL     1       0.950  -1.532   0.615  1.00  0.00     0.681 A 
HETATM    2  N2  UNL     1       0.447  -1.560   1.860  1.00  0.00    -0.201 N 
ATOM      3  H2  UNL     1       1.087  -1.690   2.644  1.00  0.00     0.183 HD
HETATM    4  C10 UNL     1      -0.865  -1.423   2.114  1.00  0.00     0.119 A 
HETATM    5  C11 UNL     1      -1.777  -1.240   1.056  1.00  0.00     0.031 A 
HETATM    6  C22 UNL     1      -1.216  -1.219  -0.181  1.00  0.00     0.267 A 
HETATM    7  O1  UNL     1      -1.911  -1.061  -1.235  1.00  0.00    -0.267 OA
HETATM    8  N3  UNL     1       0.107  -1.360  -0.407  1.00  0.00    -0.156 N 
ATOM      9  H3  UNL     1       0.465  -1.335  -1.362  1.00  0.00     0.187 HD
ENDROOT
BRANCH   5  10
HETATM   10  C12 UNL     1      -3.207  -1.148   1.299  1.00  0.00     0.086 C 
BRANCH  10  11
HETATM   11  C13 UNL     1      -3.887   0.117   0.958  1.00  0.00    -0.025 A 
HETATM   12  C14 UNL     1      -3.565   1.303   1.584  1.00  0.00     0.044 A 
HETATM   13 CL1  UNL     1      -2.320   1.398   2.805  1.00  0.00    -0.084 Cl
HETATM   14  C15 UNL     1      -4.227   2.485   1.274  1.00  0.00     0.067 A 
HETATM   15  C16 UNL     1      -5.221   2.485   0.331  1.00  0.00     0.124 A 
HETATM   16  F1  UNL     1      -5.880   3.601   0.005  1.00  0.00    -0.205 F 
HETATM   17  C17 UNL     1      -5.589   1.313  -0.332  1.00  0.00    -0.013 A 
HETATM   18  C20 UNL     1      -4.917   0.161  -0.000  1.00  0.00    -0.044 A 
HETATM   19  C21 UNL     1      -5.382  -1.104  -0.606  1.00  0.00     0.049 C 
BRANCH  17  20
HETATM   20  C18 UNL     1      -6.639   1.326  -1.344  1.00  0.00     0.038 C 
HETATM   21  C19 UNL     1      -8.038   1.344  -0.816  1.00  0.00     0.010 C 
ENDBRANCH  17  20
ENDBRANCH  10  11
ENDBRANCH   5  10
BRANCH   1  22
HETATM   22  N1  UNL     1       2.181  -1.658   0.348  1.00  0.00    -0.222 N 
ATOM     23  H1  UNL     1       2.411  -1.615  -0.645  1.00  0.00     0.178 HD
BRANCH  22  24
HETATM   24  C7  UNL     1       3.290  -1.849   1.210  1.00  0.00     0.095 C 
HETATM   25  C8  UNL     1       3.900  -3.243   1.033  1.00  0.00     0.032 C 
BRANCH  24  26
HETATM   26  C6  UNL     1       4.377  -0.858   0.774  1.00  0.00     0.025 C 
BRANCH  26  27
HETATM   27  C5  UNL     1       4.709  -1.156  -0.670  1.00  0.00     0.002 C 
BRANCH  27  28
HETATM   28  C4  UNL     1       5.771  -0.254  -1.222  1.00  0.00     0.000 C 
BRANCH  28  29
HETATM   29  C3  UNL     1       5.326   1.180  -1.158  1.00  0.00    -0.000 C 
BRANCH  29  30
HETATM   30  C2  UNL     1       6.437   2.052  -1.729  1.00  0.00    -0.005 C 
HETATM   31  C1  UNL     1       5.974   3.475  -1.657  1.00  0.00     0.005 C 
ENDBRANCH  29  30
ENDBRANCH  28  29
ENDBRANCH  27  28
ENDBRANCH  26  27
ENDBRANCH  24  26
ENDBRANCH  22  24
ENDBRANCH   1  22
TORSDOF 10
