REMARK  5 active torsions:
REMARK  status: ('A' for Active; 'I' for Inactive)
REMARK    1  A    between atoms: O1_2  and  C2_3 
REMARK    2  A    between atoms: C5_6  and  N1_7 
REMARK    3  A    between atoms: N1_7  and  C6_9 
REMARK    4  A    between atoms: C6_9  and  N2_11 
REMARK    5  A    between atoms: N2_11  and  C7_13 
ROOT
HETATM    1  C6  UNL     1      -0.532  -0.177   1.049  1.00  0.00     0.172 C 
HETATM    2  S1  UNL     1      -1.287   0.469   2.367  1.00  0.00    -0.041 SA
ENDROOT
BRANCH   1   3
HETATM    3  N1  UNL     1       0.804  -0.573   1.179  1.00  0.00    -0.362 N 
ATOM      4  H1  UNL     1       1.255  -0.450   2.085  1.00  0.00     0.162 HD
BRANCH   3   5
HETATM    5  C5  UNL     1       1.590  -1.153   0.092  1.00  0.00     0.084 C 
HETATM    6  C4  UNL     1       1.717  -0.114  -0.967  1.00  0.00     0.028 C 
HETATM    7  C3  UNL     1       3.073   0.397  -1.262  1.00  0.00     0.034 C 
HETATM    8  C2  UNL     1       4.131   0.084  -0.249  1.00  0.00     0.120 C 
HETATM    9  C15 UNL     1       4.097  -1.444  -0.094  1.00  0.00     0.034 C 
HETATM   10  C14 UNL     1       2.822  -1.722   0.661  1.00  0.00     0.028 C 
BRANCH   8  11
HETATM   11  O1  UNL     1       5.369   0.415  -0.777  1.00  0.00    -0.391 OA
HETATM   12  C1  UNL     1       6.070   1.276   0.065  1.00  0.00     0.202 C 
ENDBRANCH   8  11
ENDBRANCH   3   5
ENDBRANCH   1   3
BRANCH   1  13
HETATM   13  N2  UNL     1      -1.314  -0.278  -0.125  1.00  0.00    -0.330 N 
ATOM     14  H2  UNL     1      -0.882  -0.674  -0.960  1.00  0.00     0.168 HD
BRANCH  13  15
HETATM   15  C7  UNL     1      -2.665   0.142  -0.204  1.00  0.00     0.080 A 
HETATM   16  C8  UNL     1      -3.726  -0.703   0.079  1.00  0.00     0.075 A 
HETATM   17  N3  UNL     1      -3.446  -2.043   0.463  1.00  0.00    -0.100 NA
HETATM   18  C9  UNL     1      -5.039  -0.287  -0.001  1.00  0.00     0.035 A 
HETATM   19  C10 UNL     1      -5.339   1.010  -0.372  1.00  0.00    -0.059 A 
HETATM   20  C11 UNL     1      -6.760   1.477  -0.463  1.00  0.00     0.048 C 
HETATM   21  C12 UNL     1      -4.273   1.846  -0.653  1.00  0.00     0.033 A 
HETATM   22  C13 UNL     1      -2.958   1.442  -0.577  1.00  0.00     0.063 A 
HETATM   23 CL1  UNL     1      -1.653   2.574  -0.952  1.00  0.00    -0.082 Cl
ENDBRANCH  13  15
ENDBRANCH   1  13
TORSDOF 5
