REMARK  5 active torsions:
REMARK  status: ('A' for Active; 'I' for Inactive)
REMARK    1  A    between atoms: C4_6  and  C5_7 
REMARK    2  A    between atoms: C6_8  and  C7_9 
REMARK    3  A    between atoms: C15_18  and  O1_19 
REMARK    4  A    between atoms: C15_18  and  C16_21 
REMARK    5  A    between atoms: C16_21  and  O2_22 
ROOT
HETATM    1  C5  UNL     1       0.096   0.398   0.775  1.00  0.00     0.045 C 
HETATM    2  C6  UNL     1      -0.339   1.828   0.465  1.00  0.00    -0.063 C 
HETATM    3  C8  UNL     1      -1.439   2.188  -0.206  1.00  0.00    -0.022 C 
HETATM    4  C9  UNL     1      -2.541   1.490  -0.841  1.00  0.00     0.035 C 
HETATM    5  C10 UNL     1      -3.069   0.206  -0.311  1.00  0.00     0.026 C 
HETATM    6  C11 UNL     1      -2.888  -0.862  -1.388  1.00  0.00     0.008 C 
HETATM    7  C12 UNL     1      -2.037  -2.027  -1.157  1.00  0.00     0.001 C 
HETATM    8  C13 UNL     1      -0.824  -1.853  -0.220  1.00  0.00     0.008 C 
HETATM    9  C14 UNL     1      -0.913  -0.453   0.178  1.00  0.00     0.033 C 
HETATM   10  C15 UNL     1      -2.225  -0.292   0.846  1.00  0.00     0.087 C 
ENDROOT
BRANCH   1  11
HETATM   11  C4  UNL     1       1.523   0.210   0.377  1.00  0.00     0.089 C 
HETATM   12  N1  UNL     1       1.965  -1.106   0.735  1.00  0.00    -0.393 N 
HETATM   13  C3  UNL     1       3.280  -1.468   0.351  1.00  0.00     0.085 C 
ATOM     14  H1  UNL     1       1.361  -1.752   1.243  1.00  0.00     0.159 HD
HETATM   15  C2  UNL     1       3.905  -0.722  -0.538  1.00  0.00    -0.069 C 
HETATM   16  C1  UNL     1       5.307  -1.087  -0.963  1.00  0.00     0.044 C 
HETATM   17  C18 UNL     1       3.331   0.488  -1.182  1.00  0.00     0.037 C 
HETATM   18  C17 UNL     1       1.797   0.420  -1.083  1.00  0.00     0.030 C 
ENDBRANCH   1  11
BRANCH   2  19
HETATM   19  C7  UNL     1       0.555   2.903   0.961  1.00  0.00     0.149 C 
HETATM   20 CL1  UNL     1      -0.134   4.474   0.492  1.00  0.00    -0.126 Cl
ENDBRANCH   2  19
BRANCH  10  21
HETATM   21  O1  UNL     1      -2.876  -1.542   1.131  1.00  0.00    -0.387 OA
ATOM     22  H1  UNL     1      -2.347  -1.854   1.856  1.00  0.00     0.210 HD
ENDBRANCH  10  21
BRANCH  10  23
HETATM   23  C16 UNL     1      -2.405   0.373   2.117  1.00  0.00     0.202 C 
BRANCH  23  24
HETATM   24  O2  UNL     1      -1.829  -0.369   3.166  1.00  0.00    -0.398 OA
ATOM     25  H2  UNL     1      -1.947   0.068   4.001  1.00  0.00     0.209 HD
ENDBRANCH  23  24
ENDBRANCH  10  23
TORSDOF 5
