REMARK  16 active torsions:
REMARK  status: ('A' for Active; 'I' for Inactive)
REMARK    1  A    between atoms: N1_1  and  C1_5 
REMARK    2  A    between atoms: C1_5  and  C2_6 
REMARK    3  A    between atoms: C3_8  and  O2_9 
REMARK    4  A    between atoms: O2_9  and  C4_10 
REMARK    5  A    between atoms: C5_11  and  O3_12 
REMARK    6  A    between atoms: O3_12  and  C6_13 
REMARK    7  A    between atoms: C8_15  and  N2_16 
REMARK    8  A    between atoms: C10_21  and  N3_22 
REMARK    9  A    between atoms: C11_26  and  O4_27 
REMARK   10  A    between atoms: O4_27  and  C12_28 
REMARK   11  A    between atoms: C19_36  and  N4_37 
REMARK   12  A    between atoms: C20_41  and  C21_42 
REMARK   13  A    between atoms: C21_42  and  N5_43 
REMARK   14  A    between atoms: C22_47  and  O6_48 
REMARK   15  A    between atoms: C23_50  and  N6_51 
REMARK   16  A    between atoms: C24_55  and  O7_56 
ROOT
HETATM    1  C4  UNL     1       1.531  -0.708  -1.325  1.00  0.00     0.190 C 
HETATM    2  C5  UNL     1       0.730  -1.917  -1.002  1.00  0.00     0.292 C 
HETATM    3  O5  UNL     1       1.693  -2.936  -0.813  1.00  0.00    -0.326 OA
HETATM    4  C19 UNL     1       2.625  -2.729  -1.827  1.00  0.00     0.329 C 
HETATM    5  C20 UNL     1       2.474  -1.360  -2.392  1.00  0.00     0.101 C 
ENDROOT
BRANCH   2   6
HETATM    6  O3  UNL     1      -0.233  -1.857  -0.061  1.00  0.00    -0.351 OA
BRANCH   6   7
HETATM    7  C6  UNL     1      -1.460  -2.311  -0.523  1.00  0.00     0.157 C 
HETATM    8  C7  UNL     1      -1.922  -3.516   0.265  1.00  0.00     0.067 C 
HETATM    9  C8  UNL     1      -3.394  -3.550   0.493  1.00  0.00     0.188 C 
HETATM   10  C9  UNL     1      -4.232  -2.994  -0.614  1.00  0.00     0.068 C 
HETATM   11  C10 UNL     1      -3.670  -1.793  -1.296  1.00  0.00     0.216 C 
HETATM   12  C11 UNL     1      -2.463  -1.209  -0.527  1.00  0.00     0.181 C 
BRANCH   9  13
HETATM   13  N2  UNL     1      -3.764  -4.973   0.619  1.00  0.00    -0.075 N 
ATOM     14  H23 UNL     1      -3.465  -5.540  -0.174  1.00  0.00     0.274 HD
ATOM     15  H22 UNL     1      -3.232  -5.467   1.336  1.00  0.00     0.274 HD
ATOM     16  H21 UNL     1      -4.772  -4.996   0.775  1.00  0.00     0.274 HD
ENDBRANCH   9  13
BRANCH  11  17
HETATM   17  N3  UNL     1      -3.145  -2.199  -2.586  1.00  0.00    -0.072 N 
ATOM     18  H33 UNL     1      -2.469  -2.959  -2.512  1.00  0.00     0.274 HD
ATOM     19  H32 UNL     1      -3.838  -2.684  -3.156  1.00  0.00     0.274 HD
ATOM     20  H31 UNL     1      -2.761  -1.377  -3.053  1.00  0.00     0.274 HD
ENDBRANCH  11  17
BRANCH  12  21
HETATM   21  O4  UNL     1      -2.843  -0.909   0.767  1.00  0.00    -0.376 OA
BRANCH  21  22
HETATM   22  C12 UNL     1      -2.828   0.412   1.078  1.00  0.00     0.122 C 
HETATM   23  C13 UNL     1      -2.188   0.844   2.341  1.00  0.00     0.032 C 
HETATM   24  C14 UNL     1      -1.831   2.327   2.163  1.00  0.00     0.002 C 
HETATM   25  C15 UNL     1      -2.838   3.247   2.765  1.00  0.00     0.000 C 
HETATM   26  C16 UNL     1      -4.251   3.041   2.315  1.00  0.00     0.000 C 
HETATM   27  C17 UNL     1      -4.383   2.287   1.012  1.00  0.00     0.002 C 
HETATM   28  C18 UNL     1      -4.321   0.806   1.213  1.00  0.00     0.032 C 
ENDBRANCH  21  22
ENDBRANCH  12  21
ENDBRANCH   6   7
ENDBRANCH   2   6
BRANCH   1  29
HETATM   29  O2  UNL     1       2.418  -0.287  -0.349  1.00  0.00    -0.348 OA
BRANCH  29  30
HETATM   30  C3  UNL     1       2.418   1.107  -0.145  1.00  0.00     0.291 C 
HETATM   31  O1  UNL     1       3.511   1.707  -0.685  1.00  0.00    -0.349 OA
HETATM   32  C2  UNL     1       4.438   2.314   0.067  1.00  0.00     0.181 C 
HETATM   33  C24 UNL     1       3.903   3.002   1.305  1.00  0.00     0.182 C 
HETATM   34  C23 UNL     1       3.093   2.029   2.121  1.00  0.00     0.247 C 
HETATM   35  C22 UNL     1       2.041   1.436   1.243  1.00  0.00     0.206 C 
BRANCH  32  36
HETATM   36  C1  UNL     1       5.062   3.440  -0.773  1.00  0.00     0.264 C 
BRANCH  36  37
HETATM   37  N1  UNL     1       3.994   4.340  -1.127  1.00  0.00    -0.077 N 
ATOM     38  H13 UNL     1       3.216   3.875  -1.594  1.00  0.00     0.274 HD
ATOM     39  H12 UNL     1       3.474   4.683  -0.319  1.00  0.00     0.274 HD
ATOM     40  H11 UNL     1       4.408   5.087  -1.684  1.00  0.00     0.274 HD
ENDBRANCH  36  37
ENDBRANCH  32  36
BRANCH  33  41
HETATM   41  O7  UNL     1       5.005   3.381   2.073  1.00  0.00    -0.391 OA
ATOM     42  H7  UNL     1       4.669   3.813   2.850  1.00  0.00     0.210 HD
ENDBRANCH  33  41
BRANCH  34  43
HETATM   43  N6  UNL     1       4.009   1.021   2.625  1.00  0.00    -0.070 N 
ATOM     44  H63 UNL     1       3.509   0.270   3.101  1.00  0.00     0.274 HD
ATOM     45  H62 UNL     1       4.422   0.481   1.864  1.00  0.00     0.274 HD
ATOM     46  H61 UNL     1       4.728   1.426   3.225  1.00  0.00     0.274 HD
ENDBRANCH  34  43
BRANCH  35  47
HETATM   47  O6  UNL     1       1.500   0.291   1.858  1.00  0.00    -0.388 OA
ATOM     48  H6  UNL     1       1.257   0.503   2.752  1.00  0.00     0.210 HD
ENDBRANCH  35  47
ENDBRANCH  29  30
ENDBRANCH   1  29
BRANCH   5  49
HETATM   49  C21 UNL     1       1.847  -1.303  -3.753  1.00  0.00     0.241 C 
BRANCH  49  50
HETATM   50  N5  UNL     1       2.803  -1.933  -4.666  1.00  0.00    -0.079 N 
ATOM     51  H53 UNL     1       3.734  -1.518  -4.630  1.00  0.00     0.274 HD
ATOM     52  H52 UNL     1       3.076  -2.874  -4.383  1.00  0.00     0.274 HD
ATOM     53  H51 UNL     1       2.377  -1.894  -5.592  1.00  0.00     0.274 HD
ENDBRANCH  49  50
ENDBRANCH   5  49
BRANCH   4  54
HETATM   54  N4  UNL     1       3.958  -3.028  -1.346  1.00  0.00    -0.052 N 
ATOM     55  H43 UNL     1       4.187  -2.501  -0.503  1.00  0.00     0.277 HD
ATOM     56  H42 UNL     1       4.021  -3.968  -0.956  1.00  0.00     0.277 HD
ATOM     57  H41 UNL     1       4.641  -2.876  -2.089  1.00  0.00     0.277 HD
ENDBRANCH   4  54
TORSDOF 16
