REMARK  2 active torsions:
REMARK  status: ('A' for Active; 'I' for Inactive)
REMARK    1  A    between atoms: O1_1  and  C1_3 
REMARK    2  A    between atoms: C1_3  and  C2_4 
ROOT
HETATM    1  C2  UNL     1       1.093   0.212   0.080  1.00  0.00     0.145 C 
HETATM    2  C3  UNL     1       0.578  -1.142  -0.315  1.00  0.00     0.035 C 
HETATM    3  C4  UNL     1      -0.496  -1.854   0.356  1.00  0.00     0.014 C 
HETATM    4  C5  UNL     1      -1.944  -1.297   0.158  1.00  0.00     0.080 C 
HETATM    5  C6  UNL     1      -1.776   0.096   0.080  1.00  0.00    -0.181 C 
HETATM    6  C7  UNL     1      -1.960   1.485  -0.054  1.00  0.00     0.106 C 
HETATM    7  C8  UNL     1      -0.475   2.032   0.006  1.00  0.00     0.179 C 
HETATM    8  O2  UNL     1       0.396   1.224  -0.627  1.00  0.00    -0.383 OA
ENDROOT
BRANCH   1   9
HETATM    9  C1  UNL     1       2.510   0.316  -0.464  1.00  0.00     0.196 C 
BRANCH   9  10
HETATM   10  O1  UNL     1       3.358  -0.622   0.127  1.00  0.00    -0.398 OA
ATOM     11  H1  UNL     1       4.243  -0.557  -0.213  1.00  0.00     0.209 HD
ENDBRANCH   9  10
ENDBRANCH   1   9
TORSDOF 2
