REMARK  2 active torsions:
REMARK  status: ('A' for Active; 'I' for Inactive)
REMARK    1  A    between atoms: O1_1  and  C1_3 
REMARK    2  A    between atoms: C2_4  and  O2_5 
ROOT
HETATM    1  C1  UNL     1      -1.294   0.061  -0.411  1.00  0.00     0.164 C 
HETATM    2  C2  UNL     1      -0.744   0.875   0.772  1.00  0.00     0.164 C 
HETATM    3  C3  UNL     1       0.563   0.163   0.990  1.00  0.00     0.112 C 
HETATM    4  C4  UNL     1       0.336  -1.274   0.618  1.00  0.00     0.040 C 
HETATM    5  C5  UNL     1      -0.110  -0.768  -0.761  1.00  0.00     0.112 C 
HETATM    6  S1  UNL     1       1.448   0.413  -0.763  1.00  0.00     0.029 S 
HETATM    7  O3  UNL     1       3.129  -0.599  -0.891  1.00  0.00    -0.257 OA
ENDROOT
BRANCH   1   8
HETATM    8  O1  UNL     1      -2.304  -0.817   0.036  1.00  0.00    -0.392 OA
ATOM      9  H1  UNL     1      -2.644  -1.320  -0.695  1.00  0.00     0.210 HD
ENDBRANCH   1   8
BRANCH   2  10
HETATM   10  O2  UNL     1      -1.582   0.867   1.849  1.00  0.00    -0.392 OA
ATOM     11  H2  UNL     1      -1.242   1.370   2.580  1.00  0.00     0.210 HD
ENDBRANCH   2  10
TORSDOF 2
