REMARK  3 active torsions:
REMARK  status: ('A' for Active; 'I' for Inactive)
REMARK    1  A    between atoms: C1_4  and  C2_6 
REMARK    2  A    between atoms: C2_6  and  N3_7 
REMARK    3  A    between atoms: N3_7  and  C3_10 
ROOT
HETATM    1  C3  UNL     1       0.259   0.468   0.148  1.00  0.00     0.127 C 
HETATM    2  C4  UNL     1      -0.225   1.773   0.722  1.00  0.00     0.039 C 
HETATM    3  C5  UNL     1      -1.643   1.855   1.103  1.00  0.00     0.007 C 
HETATM    4  C6  UNL     1      -2.588   0.826   0.589  1.00  0.00    -0.014 C 
HETATM    5  C7  UNL     1      -2.619   0.652  -0.893  1.00  0.00     0.009 C 
HETATM    6  C8  UNL     1      -1.576  -0.307  -1.401  1.00  0.00    -0.012 C 
HETATM    7  C9  UNL     1      -1.613  -1.605  -0.673  1.00  0.00     0.009 C 
HETATM    8  C10 UNL     1      -1.357  -1.348   0.785  1.00  0.00    -0.012 C 
HETATM    9  C11 UNL     1      -2.462  -0.514   1.328  1.00  0.00     0.009 C 
HETATM   10  C12 UNL     1      -0.037  -0.667   1.038  1.00  0.00     0.043 C 
HETATM   11  C13 UNL     1      -0.246   0.343  -1.278  1.00  0.00     0.043 C 
ENDROOT
BRANCH   1  12
HETATM   12  N3  UNL     1       1.710   0.609   0.007  1.00  0.00    -0.060 N 
ATOM     13  H32 UNL     1       2.104   1.107   0.806  1.00  0.00     0.278 HD
ATOM     14  H31 UNL     1       1.938   1.271  -0.735  1.00  0.00     0.278 HD
BRANCH  12  15
HETATM   15  C2  UNL     1       2.388  -0.637  -0.199  1.00  0.00     0.305 C 
BRANCH  15  16
HETATM   16  C1  UNL     1       3.799  -0.368  -0.642  1.00  0.00     0.112 C 
HETATM   17  N1  UNL     1       4.221   0.815  -0.899  1.00  0.00    -0.390 N 
ATOM     18  H12 UNL     1       5.178   0.998  -1.200  1.00  0.00     0.157 HD
ATOM     19  H11 UNL     1       3.571   1.592  -0.778  1.00  0.00     0.157 HD
HETATM   20  N2  UNL     1       4.709  -1.455  -0.812  1.00  0.00    -0.086 NA
ENDBRANCH  15  16
ENDBRANCH  12  15
ENDBRANCH   1  12
TORSDOF 3
