REMARK  3 active torsions:
REMARK  status: ('A' for Active; 'I' for Inactive)
REMARK    1  A    between atoms: C4_6  and  C5_7 
REMARK    2  A    between atoms: C5_7  and  N2_8 
REMARK    3  A    between atoms: N2_8  and  C6_11 
ROOT
HETATM    1  N2  UNL     1       0.739  -0.903  -0.535  1.00  0.00    -0.067 N 
ATOM      2  H21 UNL     1       0.245  -0.695  -1.403  1.00  0.00     0.277 HD
ATOM      3  H22 UNL     1       0.533  -1.900  -0.465  1.00  0.00     0.277 HD
ENDROOT
BRANCH   1   4
HETATM    4  C5  UNL     1       0.175  -0.181   0.566  1.00  0.00     0.257 C 
BRANCH   4   5
HETATM    5  C4  UNL     1      -1.323  -0.484   0.643  1.00  0.00     0.102 C 
HETATM    6  N1  UNL     1      -1.867   0.231   1.729  1.00  0.00    -0.415 N 
HETATM    7  C3  UNL     1      -3.071   0.963   1.470  1.00  0.00     0.114 C 
ATOM      8  H1  UNL     1      -1.427   0.227   2.649  1.00  0.00     0.153 HD
HETATM    9  C2  UNL     1      -4.232   0.110   1.065  1.00  0.00     0.019 C 
HETATM   10  C1  UNL     1      -4.289   0.120  -0.455  1.00  0.00     0.002 C 
HETATM   11  C12 UNL     1      -3.245  -0.879  -0.917  1.00  0.00     0.002 C 
HETATM   12  C11 UNL     1      -1.899  -0.222  -0.694  1.00  0.00     0.026 C 
ENDBRANCH   4   5
ENDBRANCH   1   4
BRANCH   1  13
HETATM   13  C6  UNL     1       2.143  -0.676  -0.675  1.00  0.00     0.211 C 
HETATM   14  C7  UNL     1       2.490   0.758  -0.969  1.00  0.00     0.036 C 
HETATM   15  C8  UNL     1       4.021   0.860  -0.934  1.00  0.00     0.029 C 
HETATM   16  C9  UNL     1       4.432   0.762   0.509  1.00  0.00     0.232 C 
HETATM   17  N3  UNL     1       3.452   0.020   1.258  1.00  0.00    -0.073 N 
HETATM   18  C10 UNL     1       2.928  -1.122   0.523  1.00  0.00     0.265 C 
ATOM     19  H32 UNL     1       3.824  -0.267   2.163  1.00  0.00     0.277 HD
ATOM     20  H31 UNL     1       2.697   0.628   1.575  1.00  0.00     0.277 HD
ENDBRANCH   1  13
TORSDOF 3
