REMARK  3 active torsions:
REMARK  status: ('A' for Active; 'I' for Inactive)
REMARK    1  A    between atoms: C5_5  and  N1_6 
REMARK    2  A    between atoms: N1_6  and  C6_8 
REMARK    3  A    between atoms: C6_8  and  C7_9 
ROOT
HETATM    1  N1  UNL     1      -0.033  -1.466   0.246  1.00  0.00    -0.397 N 
ATOM      2  H1  UNL     1      -0.094  -2.129  -0.527  1.00  0.00     0.159 HD
ENDROOT
BRANCH   1   3
HETATM    3  C5  UNL     1      -1.211  -0.873   0.632  1.00  0.00     0.080 C 
HETATM    4  C4  UNL     1      -1.462   0.578   0.556  1.00  0.00     0.025 C 
HETATM    5  C3  UNL     1      -1.882   1.095  -0.803  1.00  0.00     0.002 C 
HETATM    6  C2  UNL     1      -3.390   1.245  -0.864  1.00  0.00     0.000 C 
HETATM    7  C1  UNL     1      -4.121  -0.047  -0.861  1.00  0.00     0.000 C 
HETATM    8  C13 UNL     1      -3.675  -1.032   0.202  1.00  0.00     0.002 C 
HETATM    9  C12 UNL     1      -2.339  -1.574  -0.169  1.00  0.00     0.025 C 
ENDBRANCH   1   3
BRANCH   1  10
HETATM   10  C6  UNL     1       1.232  -1.268   0.786  1.00  0.00     0.060 C 
BRANCH  10  11
HETATM   11  C7  UNL     1       1.865   0.027   0.421  1.00  0.00     0.027 C 
HETATM   12  C8  UNL     1       3.247   0.023   1.129  1.00  0.00     0.037 C 
HETATM   13  C9  UNL     1       3.864   1.350   0.778  1.00  0.00     0.233 C 
HETATM   14  N2  UNL     1       4.256   1.331  -0.604  1.00  0.00    -0.075 N 
HETATM   15  C10 UNL     1       3.612   0.295  -1.366  1.00  0.00     0.233 C 
ATOM     16  H22 UNL     1       4.106   2.243  -1.035  1.00  0.00     0.277 HD
ATOM     17  H21 UNL     1       5.270   1.267  -0.691  1.00  0.00     0.277 HD
HETATM   18  C11 UNL     1       2.161   0.132  -1.066  1.00  0.00     0.037 C 
ENDBRANCH  10  11
ENDBRANCH   1  10
TORSDOF 3
