REMARK  11 active torsions:
REMARK  status: ('A' for Active; 'I' for Inactive)
REMARK    1  A    between atoms: N1_1  and  C1_5 
REMARK    2  A    between atoms: C1_5  and  C2_6 
REMARK    3  A    between atoms: C2_6  and  C3_7 
REMARK    4  A    between atoms: C3_7  and  C4_8 
REMARK    5  A    between atoms: C5_9  and  C6_10 
REMARK    6  A    between atoms: C5_9  and  C7_15 
REMARK    7  A    between atoms: C6_10  and  N2_11 
REMARK    8  A    between atoms: C7_15  and  N3_16 
REMARK    9  A    between atoms: N4_19  and  C10_20 
REMARK   10  A    between atoms: C10_20  and  C11_21 
REMARK   11  A    between atoms: C11_21  and  N5_22 
ROOT
HETATM    1  C4  UNL     1       2.463  -0.837  -0.978  1.00  0.00    -0.021 C 
HETATM    2  C5  UNL     1       1.500  -1.375  -0.298  1.00  0.00    -0.041 C 
ENDROOT
BRANCH   2   3
HETATM    3  C6  UNL     1       1.714  -1.990   1.028  1.00  0.00     0.265 C 
BRANCH   3   4
HETATM    4  N2  UNL     1       1.343  -3.404   1.030  1.00  0.00    -0.076 N 
ATOM      5  H23 UNL     1       0.385  -3.539   0.707  1.00  0.00     0.274 HD
ATOM      6  H22 UNL     1       1.831  -3.919   0.297  1.00  0.00     0.274 HD
ATOM      7  H21 UNL     1       1.491  -3.829   1.946  1.00  0.00     0.274 HD
ENDBRANCH   3   4
ENDBRANCH   2   3
BRANCH   2   8
HETATM    8  C7  UNL     1       0.093  -1.391  -0.859  1.00  0.00     0.153 C 
BRANCH   8   9
HETATM    9  N3  UNL     1      -0.844  -0.713  -0.021  1.00  0.00    -0.403 N 
HETATM   10  C8  UNL     1      -0.675   0.687   0.063  1.00  0.00     0.137 C 
HETATM   11  C9  UNL     1      -1.858   1.469   0.534  1.00  0.00     0.146 C 
HETATM   12  N4  UNL     1      -3.130   0.937   0.198  1.00  0.00    -0.369 N 
HETATM   13  C12 UNL     1      -3.199  -0.225  -0.552  1.00  0.00     0.082 C 
HETATM   14  C13 UNL     1      -2.169  -1.212  -0.072  1.00  0.00     0.162 C 
BRANCH  12  15
HETATM   15  C10 UNL     1      -4.226   1.369   0.957  1.00  0.00     0.090 C 
BRANCH  15  16
HETATM   16  C11 UNL     1      -5.568   0.820   0.582  1.00  0.00     0.274 C 
BRANCH  16  17
HETATM   17  N5  UNL     1      -5.848   1.204  -0.793  1.00  0.00    -0.075 N 
ATOM     18  H53 UNL     1      -5.779   2.211  -0.942  1.00  0.00     0.274 HD
ATOM     19  H52 UNL     1      -5.112   0.919  -1.439  1.00  0.00     0.274 HD
ATOM     20  H51 UNL     1      -6.762   0.830  -1.048  1.00  0.00     0.274 HD
ENDBRANCH  16  17
ENDBRANCH  15  16
ENDBRANCH  12  15
ENDBRANCH   8   9
ENDBRANCH   2   8
BRANCH   1  21
HETATM   21  C3  UNL     1       3.880  -0.725  -0.611  1.00  0.00     0.029 C 
BRANCH  21  22
HETATM   22  C2  UNL     1       4.226   0.756  -0.589  1.00  0.00     0.031 C 
BRANCH  22  23
HETATM   23  C1  UNL     1       5.673   0.979  -0.215  1.00  0.00     0.230 C 
BRANCH  23  24
HETATM   24  N1  UNL     1       5.918   2.408  -0.222  1.00  0.00    -0.079 N 
ATOM     25  H13 UNL     1       5.666   2.848  -1.107  1.00  0.00     0.274 HD
ATOM     26  H12 UNL     1       5.271   2.923   0.375  1.00  0.00     0.274 HD
ATOM     27  H11 UNL     1       6.895   2.559   0.030  1.00  0.00     0.274 HD
ENDBRANCH  23  24
ENDBRANCH  22  23
ENDBRANCH  21  22
ENDBRANCH   1  21
TORSDOF 11
