REMARK  6 active torsions:
REMARK  status: ('A' for Active; 'I' for Inactive)
REMARK    1  A    between atoms: N2_6  and  C3_7 
REMARK    2  A    between atoms: C3_7  and  C4_8 
REMARK    3  A    between atoms: C4_8  and  C5_9 
REMARK    4  A    between atoms: C5_9  and  N3_10 
REMARK    5  A    between atoms: N3_10  and  C6_12 
REMARK    6  A    between atoms: C6_12  and  C7_13 
ROOT
HETATM    1  N1  UNL     1      -5.741  -0.801  -0.619  1.00  0.00    -0.382 N 
ATOM      2  H11 UNL     1      -6.414  -0.449  -1.300  1.00  0.00     0.158 HD
ATOM      3  H12 UNL     1      -5.919  -1.670  -0.116  1.00  0.00     0.158 HD
HETATM    4  C1  UNL     1      -4.665  -0.139  -0.398  1.00  0.00     0.129 C 
HETATM    5  C2  UNL     1      -3.699  -0.645   0.580  1.00  0.00     0.205 C 
HETATM    6  N2  UNL     1      -2.476   0.074   0.667  1.00  0.00    -0.384 N 
HETATM    7  C10 UNL     1      -2.524   1.418   0.230  1.00  0.00     0.149 C 
HETATM    8  C11 UNL     1      -3.066   1.484  -1.191  1.00  0.00     0.197 C 
HETATM    9  O1  UNL     1      -4.425   1.035  -1.078  1.00  0.00    -0.337 OA
ENDROOT
BRANCH   6  10
HETATM   10  C3  UNL     1      -1.395  -0.737   0.281  1.00  0.00     0.060 C 
BRANCH  10  11
HETATM   11  C4  UNL     1      -0.055  -0.051   0.260  1.00  0.00     0.063 C 
BRANCH  11  12
HETATM   12  C5  UNL     1       0.957  -1.090  -0.167  1.00  0.00     0.118 C 
BRANCH  12  13
HETATM   13  N3  UNL     1       2.293  -0.526  -0.264  1.00  0.00    -0.420 N 
ATOM     14  H3  UNL     1       2.779  -0.416  -1.154  1.00  0.00     0.153 HD
BRANCH  13  15
HETATM   15  C6  UNL     1       2.870  -0.140   0.977  1.00  0.00     0.118 C 
BRANCH  15  16
HETATM   16  C7  UNL     1       4.268   0.393   0.764  1.00  0.00     0.003 A 
HETATM   17  C8  UNL     1       5.336  -0.431   0.174  1.00  0.00     0.007 A 
HETATM   18  C9  UNL     1       4.689   0.627  -0.666  1.00  0.00     0.007 A 
ENDBRANCH  15  16
ENDBRANCH  13  15
ENDBRANCH  12  13
ENDBRANCH  11  12
ENDBRANCH  10  11
ENDBRANCH   6  10
TORSDOF 6
