REMARK  9 active torsions:
REMARK  status: ('A' for Active; 'I' for Inactive)
REMARK    1  A    between atoms: C1_4  and  N2_5 
REMARK    2  A    between atoms: N2_5  and  C2_7 
REMARK    3  A    between atoms: C5_10  and  C6_11 
REMARK       I    between atoms: C6_11  and  N3_13 
REMARK    4  A    between atoms: N3_13  and  C7_15 
REMARK    5  A    between atoms: C7_15  and  C8_16 
REMARK    6  A    between atoms: C7_15  and  C11_21 
REMARK    7  A    between atoms: C8_16  and  C9_17 
REMARK    8  A    between atoms: C9_17  and  C10_18 
REMARK    9  A    between atoms: C11_21  and  C12_22 
ROOT
HETATM    1  C6  UNL     1       0.233  -0.568   0.771  1.00  0.00     0.252 C 
HETATM    2  O1  UNL     1      -0.200  -1.155   1.807  1.00  0.00    -0.268 OA
HETATM    3  N3  UNL     1      -0.564  -0.273  -0.337  1.00  0.00    -0.352 N 
ATOM      4  H3  UNL     1      -0.167   0.199  -1.149  1.00  0.00     0.163 HD
ENDROOT
BRANCH   3   5
HETATM    5  C7  UNL     1      -1.987  -0.654  -0.316  1.00  0.00     0.090 C 
BRANCH   5   6
HETATM    6  C8  UNL     1      -2.181  -1.641  -1.419  1.00  0.00     0.034 C 
BRANCH   6   7
HETATM    7  C9  UNL     1      -3.602  -2.136  -1.533  1.00  0.00     0.101 C 
BRANCH   7   8
HETATM    8  C10 UNL     1      -3.659  -3.108  -2.663  1.00  0.00     0.231 C 
HETATM    9  N4  UNL     1      -4.887  -3.732  -2.993  1.00  0.00    -0.062 NA
HETATM   10  O2  UNL     1      -2.623  -3.394  -3.345  1.00  0.00    -0.277 OA
ENDBRANCH   7   8
ENDBRANCH   6   7
ENDBRANCH   5   6
BRANCH   5  11
HETATM   11  C11 UNL     1      -2.770   0.613  -0.472  1.00  0.00     0.083 C 
BRANCH  11  12
HETATM   12  C12 UNL     1      -2.424   1.504   0.666  1.00  0.00     0.027 A 
HETATM   13  C13 UNL     1      -1.386   2.421   0.646  1.00  0.00     0.114 A 
HETATM   14  N5  UNL     1      -1.362   3.049   1.834  1.00  0.00    -0.360 N 
HETATM   15  C14 UNL     1      -2.359   2.529   2.559  1.00  0.00     0.180 A 
ATOM     16  H5  UNL     1      -0.712   3.779   2.126  1.00  0.00     0.166 HD
HETATM   17  N6  UNL     1      -3.017   1.590   1.870  1.00  0.00    -0.355 N 
ATOM     18  H6  UNL     1      -3.815   1.044   2.195  1.00  0.00     0.166 HD
ENDBRANCH  11  12
ENDBRANCH   5  11
ENDBRANCH   3   5
BRANCH   1  19
HETATM   19  C5  UNL     1       1.652  -0.198   0.774  1.00  0.00     0.032 A 
HETATM   20  C4  UNL     1       2.505  -0.812   1.686  1.00  0.00     0.019 A 
HETATM   21  C3  UNL     1       3.826  -0.462   1.694  1.00  0.00     0.030 A 
HETATM   22  C2  UNL     1       4.354   0.475   0.838  1.00  0.00     0.032 A 
HETATM   23  C16 UNL     1       3.480   1.060  -0.048  1.00  0.00     0.030 A 
HETATM   24  C15 UNL     1       2.136   0.740  -0.095  1.00  0.00     0.019 A 
BRANCH  22  25
HETATM   25  N2  UNL     1       5.726   0.823   0.864  1.00  0.00    -0.353 N 
ATOM     26  H2  UNL     1       6.360   0.378   1.528  1.00  0.00     0.166 HD
BRANCH  25  27
HETATM   27  C1  UNL     1       6.205   1.796  -0.044  1.00  0.00     0.173 C 
HETATM   28  N1  UNL     1       6.517   1.435  -1.234  1.00  0.00    -0.395 N 
ATOM     29  H12 UNL     1       6.415   0.457  -1.506  1.00  0.00     0.156 HD
ATOM     30  H11 UNL     1       6.862   2.137  -1.889  1.00  0.00     0.156 HD
ENDBRANCH  25  27
ENDBRANCH  22  25
ENDBRANCH   1  19
TORSDOF 9
