REMARK  9 active torsions:
REMARK  status: ('A' for Active; 'I' for Inactive)
REMARK    1  A    between atoms: C2_2  and  C3_3 
REMARK    2  A    between atoms: C4_4  and  C5_5 
REMARK    3  A    between atoms: C5_5  and  N1_6 
REMARK    4  A    between atoms: C11_12  and  N2_13 
REMARK    5  A    between atoms: N2_13  and  C12_15 
REMARK    6  A    between atoms: C16_23  and  O1_24 
REMARK    7  A    between atoms: O1_24  and  C17_25 
REMARK    8  A    between atoms: C19_27  and  O2_28 
REMARK    9  A    between atoms: O2_28  and  C20_29 
ROOT
HETATM    1  C12 UNL     1      -0.890  -1.130  -0.529  1.00  0.00     0.119 A 
HETATM    2  N3  UNL     1      -0.482  -2.346  -0.937  1.00  0.00    -0.338 N 
ATOM      3  H3  UNL     1       0.437  -2.464  -1.364  1.00  0.00     0.168 HD
HETATM    4  C13 UNL     1      -1.297  -3.404  -0.776  1.00  0.00     0.182 A 
HETATM    5  N4  UNL     1      -2.515  -3.288  -0.216  1.00  0.00    -0.351 N 
ATOM      6  H4  UNL     1      -3.103  -4.115  -0.111  1.00  0.00     0.166 HD
HETATM    7  C14 UNL     1      -2.963  -2.099   0.204  1.00  0.00     0.050 A 
HETATM    8  C15 UNL     1      -4.210  -1.942   0.784  1.00  0.00     0.070 A 
HETATM    9  C16 UNL     1      -4.601  -0.684   1.192  1.00  0.00     0.104 A 
HETATM   10  C19 UNL     1      -3.783   0.414   1.037  1.00  0.00     0.103 A 
HETATM   11  C22 UNL     1      -2.524   0.267   0.453  1.00  0.00     0.057 A 
HETATM   12  C23 UNL     1      -2.136  -1.002   0.044  1.00  0.00     0.038 A 
ENDROOT
BRANCH   1  13
HETATM   13  N2  UNL     1      -0.102  -0.101  -0.684  1.00  0.00    -0.337 N 
ATOM     14  H2  UNL     1      -0.414   0.819  -0.374  1.00  0.00     0.167 HD
BRANCH  13  15
HETATM   15  C11 UNL     1       1.182  -0.239  -1.277  1.00  0.00     0.108 A 
HETATM   16  C9  UNL     1       1.391   0.014  -2.613  1.00  0.00    -0.028 A 
HETATM   17  C8  UNL     1       2.656  -0.136  -3.135  1.00  0.00     0.034 A 
HETATM   18  C10 UNL     1       0.233   0.444  -3.456  1.00  0.00     0.050 C 
HETATM   19  C6  UNL     1       3.746  -0.537  -2.355  1.00  0.00     0.012 A 
HETATM   20  N1  UNL     1       3.502  -0.775  -1.053  1.00  0.00    -0.313 N 
HETATM   21  C7  UNL     1       5.100  -0.688  -2.955  1.00  0.00     0.068 C 
HETATM   22  C24 UNL     1       2.279  -0.636  -0.521  1.00  0.00     0.275 A 
HETATM   23  O3  UNL     1       2.070  -0.863   0.696  1.00  0.00    -0.265 OA
BRANCH  20  24
HETATM   24  C5  UNL     1       4.578  -1.187  -0.209  1.00  0.00     0.159 C 
BRANCH  24  25
HETATM   25  C4  UNL     1       5.301  -0.064   0.435  1.00  0.00    -0.011 C 
HETATM   26  C3  UNL     1       4.977   1.203   0.246  1.00  0.00    -0.029 C 
BRANCH  26  27
HETATM   27  C2  UNL     1       5.716   2.289   0.902  1.00  0.00     0.022 C 
HETATM   28  C1  UNL     1       6.839   1.726   1.774  1.00  0.00     0.009 C 
ENDBRANCH  26  27
ENDBRANCH  24  25
ENDBRANCH  20  24
ENDBRANCH  13  15
ENDBRANCH   1  13
BRANCH  10  29
HETATM   29  O2  UNL     1      -4.246   1.647   1.472  1.00  0.00    -0.349 OA
BRANCH  29  30
HETATM   30  C20 UNL     1      -3.395   2.765   1.306  1.00  0.00     0.171 C 
HETATM   31  C21 UNL     1      -4.028   4.029   1.822  1.00  0.00     0.034 C 
ENDBRANCH  29  30
ENDBRANCH  10  29
BRANCH   9  32
HETATM   32  O1  UNL     1      -5.845  -0.505   1.775  1.00  0.00    -0.349 OA
BRANCH  32  33
HETATM   33  C17 UNL     1      -6.716  -1.630   1.949  1.00  0.00     0.171 C 
HETATM   34  C18 UNL     1      -8.009  -1.215   2.597  1.00  0.00     0.034 C 
ENDBRANCH  32  33
ENDBRANCH   9  32
TORSDOF 9
