REMARK  8 active torsions:
REMARK  status: ('A' for Active; 'I' for Inactive)
REMARK    1  A    between atoms: N1_2  and  C2_5 
REMARK    2  A    between atoms: C2_5  and  C3_6 
REMARK    3  A    between atoms: C3_6  and  C4_7 
REMARK    4  A    between atoms: C13_18  and  C14_19 
REMARK    5  A    between atoms: C14_19  and  C15_21 
REMARK    6  A    between atoms: C15_21  and  N2_22 
REMARK    7  A    between atoms: C18_30  and  C19_31 
REMARK    8  A    between atoms: C22_34  and  N4_35 
ROOT
HETATM    1  C4  UNL     1       4.078   0.465  -0.815  1.00  0.00     0.122 C 
HETATM    2  C5  UNL     1       3.088  -0.572  -1.234  1.00  0.00     0.032 C 
HETATM    3  C6  UNL     1       3.605  -1.940  -1.447  1.00  0.00     0.008 C 
HETATM    4  C7  UNL     1       2.600  -2.990  -0.958  1.00  0.00     0.079 C 
HETATM    5  C8  UNL     1       1.485  -3.218  -1.932  1.00  0.00     0.243 C 
HETATM    6  F1  UNL     1       1.576  -2.531  -3.100  1.00  0.00    -0.206 F 
HETATM    7  F2  UNL     1       1.505  -4.580  -2.257  1.00  0.00    -0.206 F 
HETATM    8  C9  UNL     1       0.123  -2.904  -1.295  1.00  0.00     0.079 C 
HETATM    9  C10 UNL     1      -0.962  -2.749  -2.314  1.00  0.00     0.006 C 
HETATM   10  C11 UNL     1      -2.120  -1.907  -1.866  1.00  0.00     0.003 C 
HETATM   11  C12 UNL     1      -2.136  -1.696  -0.367  1.00  0.00     0.033 C 
HETATM   12  C13 UNL     1      -3.522  -1.427   0.178  1.00  0.00     0.158 C 
HETATM   13  N3  UNL     1      -3.756  -0.070   0.606  1.00  0.00    -0.344 N 
HETATM   14  C16 UNL     1      -5.163   0.145   1.037  1.00  0.00     0.153 C 
HETATM   15  C17 UNL     1      -2.890   1.009   0.689  1.00  0.00     0.226 C 
HETATM   16  O2  UNL     1      -2.736   1.470   1.892  1.00  0.00    -0.273 OA
HETATM   17  C18 UNL     1      -2.102   1.745  -0.323  1.00  0.00     0.103 C 
HETATM   18  C22 UNL     1      -0.982   2.534   0.255  1.00  0.00     0.089 C 
HETATM   19  C24 UNL     1       0.269   1.663   0.426  1.00  0.00     0.028 C 
HETATM   20  C25 UNL     1       1.487   2.510   0.547  1.00  0.00     0.028 C 
HETATM   21  C26 UNL     1       2.707   1.621   0.693  1.00  0.00     0.168 C 
HETATM   22  O3  UNL     1       3.483   1.653  -0.416  1.00  0.00    -0.386 OA
ENDROOT
BRANCH  12  23
HETATM   23  C14 UNL     1      -3.728  -2.455   1.218  1.00  0.00     0.174 C 
HETATM   24  O1  UNL     1      -3.805  -3.624   0.837  1.00  0.00    -0.294 OA
BRANCH  23  25
HETATM   25  C15 UNL     1      -3.839  -2.182   2.651  1.00  0.00     0.309 C 
BRANCH  25  26
HETATM   26  N2  UNL     1      -3.905  -3.424   3.430  1.00  0.00    -0.073 N 
ATOM     27  H23 UNL     1      -4.659  -4.029   3.105  1.00  0.00     0.274 HD
ATOM     28  H22 UNL     1      -3.114  -4.035   3.226  1.00  0.00     0.274 HD
ATOM     29  H21 UNL     1      -3.982  -3.234   4.429  1.00  0.00     0.274 HD
ENDBRANCH  25  26
ENDBRANCH  23  25
ENDBRANCH  12  23
BRANCH  17  30
HETATM   30  C19 UNL     1      -2.930   2.637  -1.223  1.00  0.00    -0.008 C 
HETATM   31  C20 UNL     1      -3.960   1.830  -1.996  1.00  0.00     0.010 C 
HETATM   32  C21 UNL     1      -1.991   3.236  -2.270  1.00  0.00     0.010 C 
ENDBRANCH  17  30
BRANCH  18  33
HETATM   33  N4  UNL     1      -1.186   3.347   1.374  1.00  0.00    -0.420 N 
HETATM   34  C23 UNL     1      -2.009   4.484   1.323  1.00  0.00     0.140 C 
ATOM     35  H4  UNL     1      -0.724   3.108   2.252  1.00  0.00     0.153 HD
ENDBRANCH  18  33
BRANCH   1  36
HETATM   36  C3  UNL     1       5.220   0.021   0.002  1.00  0.00     0.059 C 
BRANCH  36  37
HETATM   37  C2  UNL     1       4.975  -0.602   1.309  1.00  0.00     0.234 C 
BRANCH  37  38
HETATM   38  N1  UNL     1       6.272  -0.958   1.907  1.00  0.00    -0.079 N 
HETATM   39  C1  UNL     1       7.054   0.182   2.269  1.00  0.00     0.266 C 
ATOM     40  H12 UNL     1       6.798  -1.579   1.292  1.00  0.00     0.276 HD
ATOM     41  H11 UNL     1       6.146  -1.581   2.705  1.00  0.00     0.276 HD
ENDBRANCH  37  38
ENDBRANCH  36  37
ENDBRANCH   1  36
TORSDOF 8
