REMARK  8 active torsions:
REMARK  status: ('A' for Active; 'I' for Inactive)
REMARK    1  A    between atoms: N1_1  and  C1_4 
REMARK    2  A    between atoms: C2_5  and  N2_6 
REMARK    3  A    between atoms: C3_9  and  C4_10 
REMARK    4  A    between atoms: N3_11  and  N4_13 
REMARK    5  A    between atoms: N4_13  and  C5_15 
REMARK    6  A    between atoms: C6_18  and  O3_19 
REMARK    7  A    between atoms: C6_18  and  C7_21 
REMARK    8  A    between atoms: N8_29  and  N9_30 
ROOT
HETATM    1  C1  UNL     1      -4.125  -0.259  -0.921  1.00  0.00     0.156 A 
HETATM    2  C2  UNL     1      -2.838   0.123  -1.297  1.00  0.00     0.159 A 
HETATM    3  C3  UNL     1      -1.871   0.354  -0.346  1.00  0.00     0.021 A 
HETATM    4  C9  UNL     1      -2.250   0.188   0.983  1.00  0.00     0.062 A 
HETATM    5  C10 UNL     1      -3.519  -0.189   1.357  1.00  0.00     0.140 A 
HETATM    6  N7  UNL     1      -3.894  -0.354   2.711  1.00  0.00    -0.081 NA
HETATM    7  N8  UNL     1      -4.434  -0.406   0.398  1.00  0.00    -0.230 N 
ENDROOT
BRANCH   3   8
HETATM    8  C4  UNL     1      -0.522   0.745  -0.713  1.00  0.00     0.121 C 
HETATM    9  N3  UNL     1       0.402   0.961   0.161  1.00  0.00    -0.310 N 
ATOM     10  H3  UNL     1       0.169   0.852   1.148  1.00  0.00     0.186 HD
BRANCH   9  11
HETATM   11  N4  UNL     1       1.694   1.333  -0.172  1.00  0.00    -0.289 N 
ATOM     12  H4  UNL     1       1.847   2.176  -0.726  1.00  0.00     0.188 HD
BRANCH  11  13
HETATM   13  C5  UNL     1       2.846   0.534   0.260  1.00  0.00     0.104 C 
HETATM   14  N5  UNL     1       3.994   0.991   0.257  1.00  0.00    -0.330 N 
HETATM   15  C6  UNL     1       5.093   0.225   0.671  1.00  0.00     0.266 C 
ATOM     16  H5  UNL     1       4.146   1.950  -0.055  1.00  0.00     0.165 HD
HETATM   17  S1  UNL     1       4.347  -1.434   0.836  1.00  0.00    -0.092 SA
HETATM   18  C8  UNL     1       2.637  -0.855   0.716  1.00  0.00     0.157 C 
BRANCH  15  19
HETATM   19  O3  UNL     1       5.483   0.624   1.935  1.00  0.00    -0.355 OA
ATOM     20  H3  UNL     1       6.228   0.105   2.216  1.00  0.00     0.214 HD
ENDBRANCH  15  19
BRANCH  15  21
HETATM   21  C7  UNL     1       6.249   0.203  -0.249  1.00  0.00     0.298 C 
HETATM   22  N6  UNL     1       6.204  -0.164  -1.609  1.00  0.00    -0.057 NA
HETATM   23  O4  UNL     1       7.377   0.537   0.209  1.00  0.00    -0.270 OA
ENDBRANCH  15  21
ENDBRANCH  11  13
ENDBRANCH   9  11
ENDBRANCH   3   8
BRANCH   2  24
HETATM   24  N2  UNL     1      -2.552   0.270  -2.687  1.00  0.00    -0.111 N 
HETATM   25  O1  UNL     1      -2.431  -0.764  -3.381  1.00  0.00    -0.532 OA
HETATM   26  O2  UNL     1      -2.422   1.528  -3.221  1.00  0.00    -0.532 OA
ENDBRANCH   2  24
BRANCH   1  27
HETATM   27  N1  UNL     1      -5.004  -0.467  -1.845  1.00  0.00    -0.382 N 
ATOM     28  H12 UNL     1      -4.773  -0.357  -2.832  1.00  0.00     0.157 HD
ATOM     29  H11 UNL     1      -5.946  -0.746  -1.570  1.00  0.00     0.157 HD
ENDBRANCH   1  27
BRANCH   7  30
HETATM   30  N9  UNL     1      -5.727  -0.788   0.731  1.00  0.00    -0.336 N 
ATOM     31  H92 UNL     1      -6.422  -0.953   0.003  1.00  0.00     0.177 HD
ATOM     32  H91 UNL     1      -5.958  -0.898   1.718  1.00  0.00     0.177 HD
ENDBRANCH   7  30
TORSDOF 8
