REMARK  11 active torsions:
REMARK  status: ('A' for Active; 'I' for Inactive)
REMARK    1  A    between atoms: C6_6  and  S1_7 
REMARK    2  A    between atoms: S1_7  and  N1_10 
REMARK    3  A    between atoms: N1_10  and  C7_12 
REMARK    4  A    between atoms: C7_12  and  C8_13 
REMARK    5  A    between atoms: C8_13  and  O3_14 
REMARK    6  A    between atoms: O3_14  and  C9_15 
REMARK    7  A    between atoms: C9_15  and  C10_16 
REMARK    8  A    between atoms: C10_16  and  N2_17 
REMARK    9  A    between atoms: N2_17  and  C11_19 
REMARK   10  A    between atoms: C11_19  and  C12_21 
REMARK   11  A    between atoms: C15_24  and  C16_25 
ROOT
HETATM    1  C9  UNL     1       0.047   0.392  -0.952  1.00  0.00     0.187 C 
ENDROOT
BRANCH   1   2
HETATM    2  O3  UNL     1       0.612   1.544  -1.596  1.00  0.00    -0.388 OA
BRANCH   2   3
HETATM    3  C8  UNL     1       1.745   1.902  -0.832  1.00  0.00     0.188 C 
BRANCH   3   4
HETATM    4  C7  UNL     1       2.685   0.783  -0.586  1.00  0.00     0.158 C 
BRANCH   4   5
HETATM    5  N1  UNL     1       3.781   1.290   0.266  1.00  0.00    -0.313 N 
ATOM      6  H1  UNL     1       3.901   2.247   0.598  1.00  0.00     0.172 HD
BRANCH   5   7
HETATM    7  S1  UNL     1       4.796  -0.022   0.583  1.00  0.00     0.258 S 
HETATM    8  O1  UNL     1       4.934  -0.112   2.116  1.00  0.00    -0.201 OA
HETATM    9  O2  UNL     1       4.210  -1.334   0.091  1.00  0.00    -0.201 OA
BRANCH   7  10
HETATM   10  C6  UNL     1       6.406   0.087  -0.021  1.00  0.00     0.080 A 
HETATM   11  C5  UNL     1       6.891   1.034  -0.883  1.00  0.00     0.025 A 
HETATM   12  C4  UNL     1       8.203   1.020  -1.319  1.00  0.00     0.002 A 
HETATM   13  C3  UNL     1       9.103   0.031  -0.900  1.00  0.00     0.007 A 
HETATM   14  C2  UNL     1       8.626  -0.924  -0.035  1.00  0.00    -0.060 A 
HETATM   15  C1  UNL     1       9.585  -2.001   0.401  1.00  0.00     0.048 C 
HETATM   16  C22 UNL     1       7.338  -0.893   0.381  1.00  0.00     0.032 A 
ENDBRANCH   7  10
ENDBRANCH   5   7
ENDBRANCH   4   5
ENDBRANCH   3   4
ENDBRANCH   2   3
ENDBRANCH   1   2
BRANCH   1  17
HETATM   17  C10 UNL     1      -0.207   0.616   0.494  1.00  0.00     0.146 C 
BRANCH  17  18
HETATM   18  N2  UNL     1      -0.719  -0.543   1.152  1.00  0.00    -0.378 N 
ATOM     19  H2  UNL     1       0.004  -1.031   1.680  1.00  0.00     0.160 HD
BRANCH  18  20
HETATM   20  C11 UNL     1      -1.925  -1.161   1.253  1.00  0.00     0.106 C 
HETATM   21  S2  UNL     1      -1.967  -2.590   2.149  1.00  0.00    -0.060 SA
BRANCH  20  22
HETATM   22  C12 UNL     1      -3.203  -0.806   0.728  1.00  0.00     0.002 A 
HETATM   23  C13 UNL     1      -4.181  -0.520   1.728  1.00  0.00     0.015 A 
HETATM   24  C14 UNL     1      -5.467  -0.220   1.390  1.00  0.00     0.009 A 
HETATM   25  C15 UNL     1      -5.858  -0.184   0.071  1.00  0.00    -0.051 A 
HETATM   26  C20 UNL     1      -4.963  -0.446  -0.920  1.00  0.00     0.009 A 
HETATM   27  C21 UNL     1      -3.643  -0.753  -0.548  1.00  0.00     0.015 A 
BRANCH  25  28
HETATM   28  C16 UNL     1      -7.279   0.110  -0.189  1.00  0.00    -0.024 C 
HETATM   29  C17 UNL     1      -7.542   0.522  -1.590  1.00  0.00     0.019 C 
HETATM   30  C18 UNL     1      -8.041  -1.173   0.079  1.00  0.00     0.019 C 
HETATM   31  C19 UNL     1      -7.787   1.191   0.765  1.00  0.00     0.019 C 
ENDBRANCH  25  28
ENDBRANCH  20  22
ENDBRANCH  18  20
ENDBRANCH  17  18
ENDBRANCH   1  17
TORSDOF 11
