REMARK  15 active torsions:
REMARK  status: ('A' for Active; 'I' for Inactive)
REMARK    1  A    between atoms: C2_2  and  C3_3 
REMARK    2  A    between atoms: C3_3  and  C5_5 
REMARK    3  A    between atoms: C5_5  and  C6_6 
REMARK    4  A    between atoms: C6_6  and  C7_7 
REMARK    5  A    between atoms: C7_7  and  O1_8 
REMARK    6  A    between atoms: C7_7  and  C8_10 
REMARK    7  A    between atoms: C10_13  and  C11_14 
REMARK    8  A    between atoms: C11_14  and  C13_16 
REMARK    9  A    between atoms: C13_16  and  C14_17 
REMARK   10  A    between atoms: C15_18  and  N1_19 
REMARK   11  A    between atoms: C16_23  and  O3_24 
REMARK   12  A    between atoms: C17_26  and  O4_27 
REMARK   13  A    between atoms: C19_31  and  O6_32 
REMARK   14  A    between atoms: C22_36  and  C23_37 
REMARK   15  A    between atoms: C23_37  and  C24_38 
ROOT
HETATM    1  C8  UNL     1      -0.431   0.112   0.805  1.00  0.00     0.128 C 
HETATM    2  C9  UNL     1       0.871  -0.678   0.946  1.00  0.00     0.166 C 
HETATM    3  O2  UNL     1       1.110  -1.849   0.946  1.00  0.00    -0.294 OA
HETATM    4  C10 UNL     1       1.945   0.314   1.105  1.00  0.00     0.196 C 
HETATM    5  O5  UNL     1       1.399   1.521   0.900  1.00  0.00    -0.363 OA
HETATM    6  C18 UNL     1      -0.007   1.415   1.222  1.00  0.00     0.104 C 
HETATM    7  C19 UNL     1      -0.094   1.872   2.619  1.00  0.00     0.154 C 
HETATM    8  C20 UNL     1      -1.084   3.014   2.699  1.00  0.00     0.035 C 
HETATM    9  C21 UNL     1      -1.634   3.190   1.278  1.00  0.00     0.010 C 
HETATM   10  C22 UNL     1      -0.529   2.627   0.465  1.00  0.00     0.024 C 
ENDROOT
BRANCH   4  11
HETATM   11  C11 UNL     1       3.061   0.009   0.106  1.00  0.00     0.018 C 
HETATM   12  C12 UNL     1       2.637   0.019  -1.295  1.00  0.00     0.013 C 
BRANCH  11  13
HETATM   13  C13 UNL     1       4.014  -1.022   0.539  1.00  0.00     0.016 C 
BRANCH  13  14
HETATM   14  C14 UNL     1       5.092  -1.358  -0.428  1.00  0.00     0.050 C 
HETATM   15  C15 UNL     1       6.078  -2.342   0.289  1.00  0.00     0.221 C 
HETATM   16  C16 UNL     1       5.274  -3.462  -0.262  1.00  0.00     0.178 C 
HETATM   17  C17 UNL     1       4.881  -2.488  -1.398  1.00  0.00     0.155 C 
BRANCH  15  18
HETATM   18  N1  UNL     1       6.023  -2.219   1.729  1.00  0.00    -0.072 N 
ATOM     19  H13 UNL     1       6.184  -1.256   2.023  1.00  0.00     0.274 HD
ATOM     20  H12 UNL     1       5.070  -2.336   2.073  1.00  0.00     0.274 HD
ATOM     21  H11 UNL     1       6.665  -2.860   2.196  1.00  0.00     0.274 HD
ENDBRANCH  15  18
BRANCH  16  22
HETATM   22  O3  UNL     1       6.000  -4.540  -0.768  1.00  0.00    -0.391 OA
ATOM     23  H3  UNL     1       5.486  -5.257  -1.121  1.00  0.00     0.210 HD
ENDBRANCH  16  22
BRANCH  17  24
HETATM   24  O4  UNL     1       3.659  -2.793  -1.900  1.00  0.00    -0.392 OA
ATOM     25  H4  UNL     1       3.526  -3.507  -2.513  1.00  0.00     0.210 HD
ENDBRANCH  17  24
ENDBRANCH  13  14
ENDBRANCH  11  13
ENDBRANCH   4  11
BRANCH   1  26
HETATM   26  C7  UNL     1      -1.441  -0.757   1.403  1.00  0.00     0.155 C 
BRANCH  26  27
HETATM   27  C6  UNL     1      -2.846  -0.408   1.530  1.00  0.00     0.006 C 
BRANCH  27  28
HETATM   28  C5  UNL     1      -3.829  -0.131   0.531  1.00  0.00     0.001 C 
BRANCH  28  29
HETATM   29  C3  UNL     1      -4.384  -0.936  -0.529  1.00  0.00    -0.084 C 
HETATM   30  C4  UNL     1      -5.324  -2.062  -0.111  1.00  0.00     0.043 C 
BRANCH  29  31
HETATM   31  C2  UNL     1      -3.564  -1.490  -1.642  1.00  0.00     0.029 C 
HETATM   32  C1  UNL     1      -4.504  -1.868  -2.818  1.00  0.00     0.010 C 
ENDBRANCH  29  31
ENDBRANCH  28  29
ENDBRANCH  27  28
ENDBRANCH  26  27
BRANCH  26  33
HETATM   33  O1  UNL     1      -1.374  -1.960   0.691  1.00  0.00    -0.391 OA
ATOM     34  H1  UNL     1      -0.456  -2.188   0.608  1.00  0.00     0.210 HD
ENDBRANCH  26  33
ENDBRANCH   1  26
BRANCH   7  35
HETATM   35  O6  UNL     1      -0.323   0.912   3.590  1.00  0.00    -0.392 OA
ATOM     36  H6  UNL     1      -0.379   1.207   4.491  1.00  0.00     0.210 HD
ENDBRANCH   7  35
BRANCH  10  37
HETATM   37  C23 UNL     1      -0.808   2.366  -0.970  1.00  0.00     0.012 C 
BRANCH  37  38
HETATM   38  C24 UNL     1      -1.308   3.574  -1.729  1.00  0.00    -0.014 A 
HETATM   39  C25 UNL     1      -2.564   4.280  -1.367  1.00  0.00     0.005 A 
HETATM   40  C26 UNL     1      -2.469   3.476  -2.652  1.00  0.00     0.005 A 
ENDBRANCH  37  38
ENDBRANCH  10  37
TORSDOF 15
