REMARK  4 active torsions:
REMARK  status: ('A' for Active; 'I' for Inactive)
REMARK    1  A    between atoms: N1_1  and  C1_4 
REMARK    2  A    between atoms: C2_9  and  N4_10 
REMARK    3  A    between atoms: C3_13  and  N5_14 
REMARK    4  A    between atoms: N5_14  and  N6_16 
ROOT
HETATM    1  C1  UNL     1      -1.723  -0.526  -0.125  1.00  0.00     0.692 A 
HETATM    2  N2  UNL     1      -1.938   0.798  -0.233  1.00  0.00    -0.131 N 
ATOM      3  H2  UNL     1      -2.895   1.133  -0.342  1.00  0.00     0.205 HD
HETATM    4  N3  UNL     1      -0.953   1.682  -0.203  1.00  0.00    -0.263 N 
ATOM      5  H3  UNL     1      -1.179   2.673  -0.290  1.00  0.00     0.189 HD
HETATM    6  C2  UNL     1       0.337   1.321  -0.062  1.00  0.00     0.234 A 
HETATM    7  C3  UNL     1       0.575  -0.040   0.051  1.00  0.00     0.187 A 
HETATM    8  N7  UNL     1      -0.447  -0.926   0.017  1.00  0.00    -0.170 N 
ATOM      9  H7  UNL     1      -0.245  -1.922   0.101  1.00  0.00     0.186 HD
ENDROOT
BRANCH   7  10
HETATM   10  N5  UNL     1       1.804  -0.415   0.187  1.00  0.00    -0.288 N 
ATOM     11  H5  UNL     1       2.543   0.287   0.206  1.00  0.00     0.188 HD
BRANCH  10  12
HETATM   12  N6  UNL     1       2.137  -1.767   0.308  1.00  0.00    -0.344 N 
ATOM     13  H62 UNL     1       1.385  -2.456   0.287  1.00  0.00     0.176 HD
ATOM     14  H61 UNL     1       3.107  -2.063   0.415  1.00  0.00     0.176 HD
ENDBRANCH  10  12
ENDBRANCH   7  10
BRANCH   6  15
HETATM   15  N4  UNL     1       1.407   2.261  -0.027  1.00  0.00    -0.092 N 
HETATM   16  O1  UNL     1       1.329   3.374  -0.602  1.00  0.00    -0.530 OA
HETATM   17  O2  UNL     1       2.582   2.000   0.636  1.00  0.00    -0.530 OA
ENDBRANCH   6  15
BRANCH   1  18
HETATM   18  N1  UNL     1      -2.708  -1.382  -0.158  1.00  0.00    -0.233 N 
ATOM     19  H12 UNL     1      -3.676  -1.079  -0.266  1.00  0.00     0.174 HD
ATOM     20  H11 UNL     1      -2.545  -2.386  -0.076  1.00  0.00     0.174 HD
ENDBRANCH   1  18
TORSDOF 4
