MODEL 1
REMARK VINA RESULT: -6.537718486      0.000      0.000
REMARK  3 active torsions:
REMARK  status: ('A' for Active; 'I' for Inactive)
REMARK    1  A    between atoms: C1_1  and  C2_2 
REMARK    2  A    between atoms: C1_1  and  C6_6 
REMARK    3  A    between atoms: C2_2  and  C3_3 
ROOT
HETATM    1  C6  UNL     1      27.670   8.503   4.467  1.00  0.00    -0.004 C 
HETATM    2  C7  UNL     1      26.465   8.981   3.686  1.00  0.00     0.005 C 
HETATM    3  C8  UNL     1      27.072   9.263   2.333  1.00  0.00     0.000 C 
HETATM    4  C9  UNL     1      27.988   8.081   2.133  1.00  0.00     0.000 C 
HETATM    5  C10 UNL     1      28.342   7.568   3.515  1.00  0.00     0.005 C 
ENDROOT
BRANCH   1   6
HETATM    6  C1  UNL     1      27.202   7.772   5.716  1.00  0.00     0.084 C 
BRANCH   6   7
HETATM    7  C2  UNL     1      26.532   6.741   5.593  1.00  0.00    -0.178 C 
BRANCH   7   8
HETATM    8  C3  UNL     1      25.764   5.559   5.450  1.00  0.00     0.052 A 
HETATM    9  C4  UNL     1      26.088   4.566   4.281  1.00  0.00     0.017 A 
HETATM   10  C5  UNL     1      24.837   5.307   4.303  1.00  0.00     0.017 A 
ENDBRANCH   7   8
ENDBRANCH   6   7
ENDBRANCH   1   6
TORSDOF 3
ENDMDL
MODEL 2
REMARK VINA RESULT: -6.451099855      0.876      1.189
REMARK  3 active torsions:
REMARK  status: ('A' for Active; 'I' for Inactive)
REMARK    1  A    between atoms: C1_1  and  C2_2 
REMARK    2  A    between atoms: C1_1  and  C6_6 
REMARK    3  A    between atoms: C2_2  and  C3_3 
ROOT
HETATM    1  C6  UNL     1      28.104   8.694   3.444  1.00  0.00    -0.004 C 
HETATM    2  C7  UNL     1      27.044   9.479   2.702  1.00  0.00     0.005 C 
HETATM    3  C8  UNL     1      27.598   9.485   1.298  1.00  0.00     0.000 C 
HETATM    4  C9  UNL     1      28.089   8.068   1.134  1.00  0.00     0.000 C 
HETATM    5  C10 UNL     1      28.379   7.546   2.527  1.00  0.00     0.005 C 
ENDROOT
BRANCH   1   6
HETATM    6  C1  UNL     1      27.536   8.213   4.771  1.00  0.00     0.084 C 
BRANCH   6   7
HETATM    7  C2  UNL     1      26.666   7.335   4.769  1.00  0.00    -0.178 C 
BRANCH   7   8
HETATM    8  C3  UNL     1      25.669   6.329   4.766  1.00  0.00     0.052 A 
HETATM    9  C4  UNL     1      25.685   5.224   5.879  1.00  0.00     0.017 A 
HETATM   10  C5  UNL     1      25.950   4.885   4.490  1.00  0.00     0.017 A 
ENDBRANCH   7   8
ENDBRANCH   6   7
ENDBRANCH   1   6
TORSDOF 3
ENDMDL
MODEL 3
REMARK VINA RESULT: -6.433767293      1.304      4.481
REMARK  3 active torsions:
REMARK  status: ('A' for Active; 'I' for Inactive)
REMARK    1  A    between atoms: C1_1  and  C2_2 
REMARK    2  A    between atoms: C1_1  and  C6_6 
REMARK    3  A    between atoms: C2_2  and  C3_3 
ROOT
HETATM    1  C6  UNL     1      26.477   6.407   3.820  1.00  0.00    -0.004 C 
HETATM    2  C7  UNL     1      27.172   7.051   5.000  1.00  0.00     0.005 C 
HETATM    3  C8  UNL     1      26.174   6.811   6.108  1.00  0.00     0.000 C 
HETATM    4  C9  UNL     1      25.743   5.387   5.857  1.00  0.00     0.000 C 
HETATM    5  C10 UNL     1      25.977   5.117   4.384  1.00  0.00     0.005 C 
ENDROOT
BRANCH   1   6
HETATM    6  C1  UNL     1      27.490   6.165   2.711  1.00  0.00     0.084 C 
BRANCH   6   7
HETATM    7  C2  UNL     1      27.808   7.106   1.974  1.00  0.00    -0.178 C 
BRANCH   7   8
HETATM    8  C3  UNL     1      28.172   8.183   1.129  1.00  0.00     0.052 A 
HETATM    9  C4  UNL     1      27.615   9.618   1.428  1.00  0.00     0.017 A 
HETATM   10  C5  UNL     1      27.208   8.895   0.234  1.00  0.00     0.017 A 
ENDBRANCH   7   8
ENDBRANCH   6   7
ENDBRANCH   1   6
TORSDOF 3
ENDMDL
MODEL 4
REMARK VINA RESULT: -6.404450160      1.068      4.231
REMARK  3 active torsions:
REMARK  status: ('A' for Active; 'I' for Inactive)
REMARK    1  A    between atoms: C1_1  and  C2_2 
REMARK    2  A    between atoms: C1_1  and  C6_6 
REMARK    3  A    between atoms: C2_2  and  C3_3 
ROOT
HETATM    1  C6  UNL     1      26.905   7.005   5.014  1.00  0.00    -0.004 C 
HETATM    2  C7  UNL     1      26.220   6.335   3.842  1.00  0.00     0.005 C 
HETATM    3  C8  UNL     1      26.021   4.934   4.366  1.00  0.00     0.000 C 
HETATM    4  C9  UNL     1      25.565   5.177   5.784  1.00  0.00     0.000 C 
HETATM    5  C10 UNL     1      26.106   6.534   6.187  1.00  0.00     0.005 C 
ENDROOT
BRANCH   1   6
HETATM    6  C1  UNL     1      26.811   8.514   4.857  1.00  0.00     0.084 C 
BRANCH   6   7
HETATM    7  C2  UNL     1      26.718   8.995   3.721  1.00  0.00    -0.178 C 
BRANCH   7   8
HETATM    8  C3  UNL     1      26.612   9.545   2.420  1.00  0.00     0.052 A 
HETATM    9  C4  UNL     1      27.342   8.842   1.224  1.00  0.00     0.017 A 
HETATM   10  C5  UNL     1      27.762  10.156   1.683  1.00  0.00     0.017 A 
ENDBRANCH   7   8
ENDBRANCH   6   7
ENDBRANCH   1   6
TORSDOF 3
ENDMDL
MODEL 5
REMARK VINA RESULT: -6.316905522      1.217      2.139
REMARK  3 active torsions:
REMARK  status: ('A' for Active; 'I' for Inactive)
REMARK    1  A    between atoms: C1_1  and  C2_2 
REMARK    2  A    between atoms: C1_1  and  C6_6 
REMARK    3  A    between atoms: C2_2  and  C3_3 
ROOT
HETATM    1  C6  UNL     1      28.148   7.791   2.368  1.00  0.00    -0.004 C 
HETATM    2  C7  UNL     1      27.115   8.822   2.770  1.00  0.00     0.005 C 
HETATM    3  C8  UNL     1      27.569  10.028   1.983  1.00  0.00     0.000 C 
HETATM    4  C9  UNL     1      27.916   9.432   0.642  1.00  0.00     0.000 C 
HETATM    5  C10 UNL     1      28.253   7.975   0.889  1.00  0.00     0.005 C 
ENDROOT
BRANCH   1   6
HETATM    6  C1  UNL     1      27.632   6.402   2.713  1.00  0.00     0.084 C 
BRANCH   6   7
HETATM    7  C2  UNL     1      26.789   6.280   3.610  1.00  0.00    -0.178 C 
BRANCH   7   8
HETATM    8  C3  UNL     1      25.822   6.141   4.636  1.00  0.00     0.052 A 
HETATM    9  C4  UNL     1      26.171   6.609   6.091  1.00  0.00     0.017 A 
HETATM   10  C5  UNL     1      25.970   5.200   5.790  1.00  0.00     0.017 A 
ENDBRANCH   7   8
ENDBRANCH   6   7
ENDBRANCH   1   6
TORSDOF 3
ENDMDL
