MODEL 1
REMARK VINA RESULT: -7.045812296      0.000      0.000
REMARK  2 active torsions:
REMARK  status: ('A' for Active; 'I' for Inactive)
REMARK    1  A    between atoms: C2_2  and  C3_3 
REMARK    2  A    between atoms: C4_4  and  C5_5 
ROOT
HETATM    1  C5  UNL     1      27.240   6.649   3.679  1.00  0.00     0.008 C 
HETATM    2  C6  UNL     1      26.486   5.400   3.395  1.00  0.00     0.008 C 
HETATM    3  C7  UNL     1      25.975   4.687   4.607  1.00  0.00     0.001 C 
HETATM    4  C8  UNL     1      25.512   5.598   5.710  1.00  0.00     0.000 C 
HETATM    5  C9  UNL     1      26.557   6.630   5.991  1.00  0.00     0.001 C 
HETATM    6  C10 UNL     1      26.568   7.516   4.733  1.00  0.00     0.008 C 
ENDROOT
BRANCH   1   7
HETATM    7  C4  UNL     1      27.535   7.433   2.462  1.00  0.00    -0.022 C 
HETATM    8  C3  UNL     1      27.408   8.718   2.311  1.00  0.00    -0.004 C 
BRANCH   8   9
HETATM    9  C2  UNL     1      27.739   9.378   1.040  1.00  0.00    -0.011 C 
HETATM   10  C1  UNL     1      27.292   8.907  -0.114  1.00  0.00     0.011 C 
ENDBRANCH   8   9
ENDBRANCH   1   7
TORSDOF 2
ENDMDL
MODEL 2
REMARK VINA RESULT: -6.960674989      0.948      4.987
REMARK  2 active torsions:
REMARK  status: ('A' for Active; 'I' for Inactive)
REMARK    1  A    between atoms: C2_2  and  C3_3 
REMARK    2  A    between atoms: C4_4  and  C5_5 
ROOT
HETATM    1  C5  UNL     1      27.746   7.908   3.056  1.00  0.00     0.008 C 
HETATM    2  C6  UNL     1      27.140   9.264   3.005  1.00  0.00     0.008 C 
HETATM    3  C7  UNL     1      27.572  10.100   1.842  1.00  0.00     0.001 C 
HETATM    4  C8  UNL     1      27.772   9.329   0.567  1.00  0.00     0.000 C 
HETATM    5  C9  UNL     1      28.631   8.132   0.825  1.00  0.00     0.001 C 
HETATM    6  C10 UNL     1      27.758   7.217   1.701  1.00  0.00     0.008 C 
ENDROOT
BRANCH   1   7
HETATM    7  C4  UNL     1      27.133   7.041   4.084  1.00  0.00    -0.022 C 
HETATM    8  C3  UNL     1      26.676   7.409   5.244  1.00  0.00    -0.004 C 
BRANCH   8   9
HETATM    9  C2  UNL     1      26.086   6.441   6.179  1.00  0.00    -0.011 C 
HETATM   10  C1  UNL     1      25.609   5.281   5.755  1.00  0.00     0.011 C 
ENDBRANCH   8   9
ENDBRANCH   1   7
TORSDOF 2
ENDMDL
MODEL 3
REMARK VINA RESULT: -6.740347836      0.809      1.751
REMARK  2 active torsions:
REMARK  status: ('A' for Active; 'I' for Inactive)
REMARK    1  A    between atoms: C2_2  and  C3_3 
REMARK    2  A    between atoms: C4_4  and  C5_5 
ROOT
HETATM    1  C5  UNL     1      26.358   7.237   4.009  1.00  0.00     0.008 C 
HETATM    2  C6  UNL     1      26.735   7.492   5.424  1.00  0.00     0.008 C 
HETATM    3  C7  UNL     1      26.148   6.533   6.411  1.00  0.00     0.001 C 
HETATM    4  C8  UNL     1      26.049   5.118   5.913  1.00  0.00     0.000 C 
HETATM    5  C9  UNL     1      25.401   5.095   4.565  1.00  0.00     0.001 C 
HETATM    6  C10 UNL     1      26.430   5.764   3.636  1.00  0.00     0.008 C 
ENDROOT
BRANCH   1   7
HETATM    7  C4  UNL     1      27.126   8.060   3.051  1.00  0.00    -0.022 C 
HETATM    8  C3  UNL     1      26.830   9.257   2.638  1.00  0.00    -0.004 C 
BRANCH   8   9
HETATM    9  C2  UNL     1      27.684   9.971   1.678  1.00  0.00    -0.011 C 
HETATM   10  C1  UNL     1      28.031   9.418   0.527  1.00  0.00     0.011 C 
ENDBRANCH   8   9
ENDBRANCH   1   7
TORSDOF 2
ENDMDL
MODEL 4
REMARK VINA RESULT: -6.528020360      0.806      1.803
REMARK  2 active torsions:
REMARK  status: ('A' for Active; 'I' for Inactive)
REMARK    1  A    between atoms: C2_2  and  C3_3 
REMARK    2  A    between atoms: C4_4  and  C5_5 
ROOT
HETATM    1  C5  UNL     1      26.463   7.215   3.937  1.00  0.00     0.008 C 
HETATM    2  C6  UNL     1      26.920   7.544   5.312  1.00  0.00     0.008 C 
HETATM    3  C7  UNL     1      26.308   6.710   6.393  1.00  0.00     0.001 C 
HETATM    4  C8  UNL     1      26.082   5.274   6.010  1.00  0.00     0.000 C 
HETATM    5  C9  UNL     1      25.375   5.202   4.694  1.00  0.00     0.001 C 
HETATM    6  C10 UNL     1      26.408   5.718   3.677  1.00  0.00     0.008 C 
ENDROOT
BRANCH   1   7
HETATM    7  C4  UNL     1      27.246   7.904   2.889  1.00  0.00    -0.022 C 
HETATM    8  C3  UNL     1      27.789   7.364   1.839  1.00  0.00    -0.004 C 
BRANCH   8   9
HETATM    9  C2  UNL     1      28.546   8.166   0.868  1.00  0.00    -0.011 C 
HETATM   10  C1  UNL     1      28.016   9.242   0.307  1.00  0.00     0.011 C 
ENDBRANCH   8   9
ENDBRANCH   1   7
TORSDOF 2
ENDMDL
MODEL 5
REMARK VINA RESULT: -6.078315751      1.029      4.824
REMARK  2 active torsions:
REMARK  status: ('A' for Active; 'I' for Inactive)
REMARK    1  A    between atoms: C2_2  and  C3_3 
REMARK    2  A    between atoms: C4_4  and  C5_5 
ROOT
HETATM    1  C5  UNL     1      26.925   7.746   2.693  1.00  0.00     0.008 C 
HETATM    2  C6  UNL     1      28.087   7.387   1.838  1.00  0.00     0.008 C 
HETATM    3  C7  UNL     1      28.326   8.310   0.686  1.00  0.00     0.001 C 
HETATM    4  C8  UNL     1      28.043   9.756   0.984  1.00  0.00     0.000 C 
HETATM    5  C9  UNL     1      26.696   9.892   1.619  1.00  0.00     0.001 C 
HETATM    6  C10 UNL     1      26.857   9.233   3.001  1.00  0.00     0.008 C 
ENDROOT
BRANCH   1   7
HETATM    7  C4  UNL     1      26.855   6.947   3.934  1.00  0.00    -0.022 C 
HETATM    8  C3  UNL     1      26.490   7.362   5.111  1.00  0.00    -0.004 C 
BRANCH   8   9
HETATM    9  C2  UNL     1      26.463   6.459   6.270  1.00  0.00    -0.011 C 
HETATM   10  C1  UNL     1      25.969   5.234   6.173  1.00  0.00     0.011 C 
ENDBRANCH   8   9
ENDBRANCH   1   7
TORSDOF 2
ENDMDL
