MODEL 1
REMARK VINA RESULT: -6.446974280      0.000      0.000
REMARK  2 active torsions:
REMARK  status: ('A' for Active; 'I' for Inactive)
REMARK    1  A    between atoms: C2_2  and  C3_3 
REMARK    2  A    between atoms: C3_3  and  C5_5 
ROOT
HETATM    1  C5  UNL     1      26.583   7.055   4.293  1.00  0.00    -0.026 A 
HETATM    2  C6  UNL     1      26.618   8.454   4.023  1.00  0.00     0.016 A 
HETATM    3  C7  UNL     1      26.826   8.111   5.405  1.00  0.00    -0.004 A 
HETATM    4  C8  UNL     1      27.147   6.895   6.163  1.00  0.00     0.010 C 
HETATM    5  C9  UNL     1      25.929   6.335   5.394  1.00  0.00    -0.009 C 
HETATM    6  C10 UNL     1      25.814   4.879   5.384  1.00  0.00     0.011 C 
ENDROOT
BRANCH   1   7
HETATM    7  C3  UNL     1      27.702   6.378   3.592  1.00  0.00     0.012 C 
HETATM    8  C4  UNL     1      28.508   7.301   2.662  1.00  0.00     0.015 C 
BRANCH   7   9
HETATM    9  C2  UNL     1      26.994   5.487   2.577  1.00  0.00    -0.032 C 
HETATM   10  C1  UNL     1      27.534   4.397   2.107  1.00  0.00     0.007 C 
ENDBRANCH   7   9
ENDBRANCH   1   7
TORSDOF 2
ENDMDL
MODEL 2
REMARK VINA RESULT: -6.296230839      1.168      1.552
REMARK  2 active torsions:
REMARK  status: ('A' for Active; 'I' for Inactive)
REMARK    1  A    between atoms: C2_2  and  C3_3 
REMARK    2  A    between atoms: C3_3  and  C5_5 
ROOT
HETATM    1  C5  UNL     1      26.563   6.937   4.502  1.00  0.00    -0.026 A 
HETATM    2  C6  UNL     1      26.360   8.256   5.004  1.00  0.00     0.016 A 
HETATM    3  C7  UNL     1      26.342   7.228   6.012  1.00  0.00    -0.004 A 
HETATM    4  C8  UNL     1      26.745   5.819   6.101  1.00  0.00     0.010 C 
HETATM    5  C9  UNL     1      25.860   5.693   4.842  1.00  0.00    -0.009 C 
HETATM    6  C10 UNL     1      26.056   4.475   4.060  1.00  0.00     0.011 C 
ENDROOT
BRANCH   1   7
HETATM    7  C3  UNL     1      27.920   6.825   3.913  1.00  0.00     0.012 C 
HETATM    8  C4  UNL     1      28.777   8.093   4.071  1.00  0.00     0.015 C 
BRANCH   7   9
HETATM    9  C2  UNL     1      27.653   6.839   2.411  1.00  0.00    -0.032 C 
HETATM   10  C1  UNL     1      28.023   7.828   1.645  1.00  0.00     0.007 C 
ENDBRANCH   7   9
ENDBRANCH   1   7
TORSDOF 2
ENDMDL
MODEL 3
REMARK VINA RESULT: -6.239497347      0.880      2.611
REMARK  2 active torsions:
REMARK  status: ('A' for Active; 'I' for Inactive)
REMARK    1  A    between atoms: C2_2  and  C3_3 
REMARK    2  A    between atoms: C3_3  and  C5_5 
ROOT
HETATM    1  C5  UNL     1      27.114   6.693   4.716  1.00  0.00    -0.026 A 
HETATM    2  C6  UNL     1      26.711   6.573   6.078  1.00  0.00     0.016 A 
HETATM    3  C7  UNL     1      26.645   7.913   5.556  1.00  0.00    -0.004 A 
HETATM    4  C8  UNL     1      26.673   8.539   4.229  1.00  0.00     0.010 C 
HETATM    5  C9  UNL     1      27.967   7.708   4.083  1.00  0.00    -0.009 C 
HETATM    6  C10 UNL     1      28.453   7.543   2.716  1.00  0.00     0.011 C 
ENDROOT
BRANCH   1   7
HETATM    7  C3  UNL     1      26.184   5.932   3.847  1.00  0.00     0.012 C 
HETATM    8  C4  UNL     1      25.004   5.293   4.600  1.00  0.00     0.015 C 
BRANCH   7   9
HETATM    9  C2  UNL     1      26.992   4.695   3.466  1.00  0.00    -0.032 C 
HETATM   10  C1  UNL     1      27.277   4.401   2.229  1.00  0.00     0.007 C 
ENDBRANCH   7   9
ENDBRANCH   1   7
TORSDOF 2
ENDMDL
MODEL 4
REMARK VINA RESULT: -6.007558425      0.930      3.190
REMARK  2 active torsions:
REMARK  status: ('A' for Active; 'I' for Inactive)
REMARK    1  A    between atoms: C2_2  and  C3_3 
REMARK    2  A    between atoms: C3_3  and  C5_5 
ROOT
HETATM    1  C5  UNL     1      27.877   6.964   3.731  1.00  0.00    -0.026 A 
HETATM    2  C6  UNL     1      28.723   8.052   4.097  1.00  0.00     0.016 A 
HETATM    3  C7  UNL     1      28.518   7.910   2.679  1.00  0.00    -0.004 A 
HETATM    4  C8  UNL     1      27.584   7.188   1.807  1.00  0.00     0.010 C 
HETATM    5  C9  UNL     1      28.040   5.979   2.654  1.00  0.00    -0.009 C 
HETATM    6  C10 UNL     1      27.183   4.800   2.570  1.00  0.00     0.011 C 
ENDROOT
BRANCH   1   7
HETATM    7  C3  UNL     1      26.510   7.188   4.262  1.00  0.00     0.012 C 
HETATM    8  C4  UNL     1      26.199   8.660   4.589  1.00  0.00     0.015 C 
BRANCH   7   9
HETATM    9  C2  UNL     1      26.574   6.586   5.662  1.00  0.00    -0.032 C 
HETATM   10  C1  UNL     1      25.858   5.553   6.011  1.00  0.00     0.007 C 
ENDBRANCH   7   9
ENDBRANCH   1   7
TORSDOF 2
ENDMDL
MODEL 5
REMARK VINA RESULT: -5.997343563      1.221      1.913
REMARK  2 active torsions:
REMARK  status: ('A' for Active; 'I' for Inactive)
REMARK    1  A    between atoms: C2_2  and  C3_3 
REMARK    2  A    between atoms: C3_3  and  C5_5 
ROOT
HETATM    1  C5  UNL     1      27.072   7.632   3.722  1.00  0.00    -0.026 A 
HETATM    2  C6  UNL     1      27.237   8.365   2.510  1.00  0.00     0.016 A 
HETATM    3  C7  UNL     1      28.078   8.808   3.592  1.00  0.00    -0.004 A 
HETATM    4  C8  UNL     1      28.502   8.281   4.894  1.00  0.00     0.010 C 
HETATM    5  C9  UNL     1      26.979   8.124   5.103  1.00  0.00    -0.009 C 
HETATM    6  C10 UNL     1      26.587   7.240   6.197  1.00  0.00     0.011 C 
ENDROOT
BRANCH   1   7
HETATM    7  C3  UNL     1      27.481   6.221   3.518  1.00  0.00     0.012 C 
HETATM    8  C4  UNL     1      27.788   5.864   2.052  1.00  0.00     0.015 C 
BRANCH   7   9
HETATM    9  C2  UNL     1      26.188   5.443   3.742  1.00  0.00    -0.032 C 
HETATM   10  C1  UNL     1      26.180   4.205   4.150  1.00  0.00     0.007 C 
ENDBRANCH   7   9
ENDBRANCH   1   7
TORSDOF 2
ENDMDL
