MODEL 1
REMARK VINA RESULT: -5.880842822      0.000      0.000
REMARK  3 active torsions:
REMARK  status: ('A' for Active; 'I' for Inactive)
REMARK    1  A    between atoms: C2_2  and  C3_3 
REMARK    2  A    between atoms: C3_3  and  C4_4 
REMARK    3  A    between atoms: C4_4  and  C5_5 
ROOT
HETATM    1  C4  UNL     1      27.059   7.453   4.247  1.00  0.00    -0.020 C 
HETATM    2  C7  UNL     1      26.266   8.652   3.830  1.00  0.00     0.014 C 
HETATM    3  C8  UNL     1      27.105   9.231   2.716  1.00  0.00     0.001 C 
HETATM    4  C9  UNL     1      28.516   9.093   3.258  1.00  0.00     0.001 C 
HETATM    5  C10 UNL     1      28.503   7.731   3.899  1.00  0.00     0.014 C 
ENDROOT
BRANCH   1   6
HETATM    6  C3  UNL     1      26.656   6.186   3.560  1.00  0.00     0.039 C 
BRANCH   6   7
HETATM    7  C2  UNL     1      27.667   5.610   2.681  1.00  0.00    -0.036 C 
HETATM    8  C1  UNL     1      27.483   4.423   2.146  1.00  0.00     0.007 C 
ENDBRANCH   6   7
ENDBRANCH   1   6
BRANCH   1   9
HETATM    9  C5  UNL     1      26.935   7.323   5.737  1.00  0.00    -0.027 C 
HETATM   10  C6  UNL     1      26.182   6.381   6.275  1.00  0.00     0.007 C 
ENDBRANCH   1   9
TORSDOF 3
ENDMDL
MODEL 2
REMARK VINA RESULT: -5.848301328      0.878      3.417
REMARK  3 active torsions:
REMARK  status: ('A' for Active; 'I' for Inactive)
REMARK    1  A    between atoms: C2_2  and  C3_3 
REMARK    2  A    between atoms: C3_3  and  C4_4 
REMARK    3  A    between atoms: C4_4  and  C5_5 
ROOT
HETATM    1  C4  UNL     1      27.119   7.361   3.918  1.00  0.00    -0.020 C 
HETATM    2  C7  UNL     1      26.109   6.361   4.388  1.00  0.00     0.014 C 
HETATM    3  C8  UNL     1      25.940   6.723   5.844  1.00  0.00     0.001 C 
HETATM    4  C9  UNL     1      27.365   7.001   6.284  1.00  0.00     0.001 C 
HETATM    5  C10 UNL     1      27.938   7.766   5.121  1.00  0.00     0.014 C 
ENDROOT
BRANCH   1   6
HETATM    6  C3  UNL     1      26.522   8.600   3.329  1.00  0.00     0.039 C 
BRANCH   6   7
HETATM    7  C2  UNL     1      27.459   9.462   2.620  1.00  0.00    -0.036 C 
HETATM    8  C1  UNL     1      27.273   9.742   1.348  1.00  0.00     0.007 C 
ENDBRANCH   6   7
ENDBRANCH   1   6
BRANCH   1   9
HETATM    9  C5  UNL     1      28.013   6.670   2.930  1.00  0.00    -0.027 C 
HETATM   10  C6  UNL     1      27.713   5.473   2.463  1.00  0.00     0.007 C 
ENDBRANCH   1   9
TORSDOF 3
ENDMDL
MODEL 3
REMARK VINA RESULT: -5.821248909      0.851      3.097
REMARK  3 active torsions:
REMARK  status: ('A' for Active; 'I' for Inactive)
REMARK    1  A    between atoms: C2_2  and  C3_3 
REMARK    2  A    between atoms: C3_3  and  C4_4 
REMARK    3  A    between atoms: C4_4  and  C5_5 
ROOT
HETATM    1  C4  UNL     1      27.121   7.449   3.985  1.00  0.00    -0.020 C 
HETATM    2  C7  UNL     1      28.374   6.957   3.330  1.00  0.00     0.014 C 
HETATM    3  C8  UNL     1      27.850   5.959   2.326  1.00  0.00     0.001 C 
HETATM    4  C9  UNL     1      26.770   5.236   3.108  1.00  0.00     0.001 C 
HETATM    5  C10 UNL     1      26.093   6.349   3.863  1.00  0.00     0.014 C 
ENDROOT
BRANCH   1   6
HETATM    6  C3  UNL     1      26.551   8.684   3.361  1.00  0.00     0.039 C 
BRANCH   6   7
HETATM    7  C2  UNL     1      27.499   9.487   2.600  1.00  0.00    -0.036 C 
HETATM    8  C1  UNL     1      27.308   9.703   1.317  1.00  0.00     0.007 C 
ENDBRANCH   6   7
ENDBRANCH   1   6
BRANCH   1   9
HETATM    9  C5  UNL     1      27.427   7.669   5.438  1.00  0.00    -0.027 C 
HETATM   10  C6  UNL     1      26.688   7.112   6.380  1.00  0.00     0.007 C 
ENDBRANCH   1   9
TORSDOF 3
ENDMDL
MODEL 4
REMARK VINA RESULT: -5.739181114      1.319      3.157
REMARK  3 active torsions:
REMARK  status: ('A' for Active; 'I' for Inactive)
REMARK    1  A    between atoms: C2_2  and  C3_3 
REMARK    2  A    between atoms: C3_3  and  C4_4 
REMARK    3  A    between atoms: C4_4  and  C5_5 
ROOT
HETATM    1  C4  UNL     1      27.577   7.846   3.229  1.00  0.00    -0.020 C 
HETATM    2  C7  UNL     1      26.439   7.300   4.035  1.00  0.00     0.014 C 
HETATM    3  C8  UNL     1      26.584   8.033   5.347  1.00  0.00     0.001 C 
HETATM    4  C9  UNL     1      28.083   8.012   5.576  1.00  0.00     0.001 C 
HETATM    5  C10 UNL     1      28.641   8.291   4.205  1.00  0.00     0.014 C 
ENDROOT
BRANCH   1   6
HETATM    6  C3  UNL     1      27.212   9.022   2.378  1.00  0.00     0.039 C 
BRANCH   6   7
HETATM    7  C2  UNL     1      27.840   9.052   1.063  1.00  0.00    -0.036 C 
HETATM    8  C1  UNL     1      27.102   9.046  -0.026  1.00  0.00     0.007 C 
ENDBRANCH   6   7
ENDBRANCH   1   6
BRANCH   1   9
HETATM    9  C5  UNL     1      28.121   6.723   2.395  1.00  0.00    -0.027 C 
HETATM   10  C6  UNL     1      27.630   5.502   2.497  1.00  0.00     0.007 C 
ENDBRANCH   1   9
TORSDOF 3
ENDMDL
MODEL 5
REMARK VINA RESULT: -5.685617234      1.114      3.040
REMARK  3 active torsions:
REMARK  status: ('A' for Active; 'I' for Inactive)
REMARK    1  A    between atoms: C2_2  and  C3_3 
REMARK    2  A    between atoms: C3_3  and  C4_4 
REMARK    3  A    between atoms: C4_4  and  C5_5 
ROOT
HETATM    1  C4  UNL     1      27.604   8.217   3.096  1.00  0.00    -0.020 C 
HETATM    2  C7  UNL     1      28.604   8.640   4.128  1.00  0.00     0.014 C 
HETATM    3  C8  UNL     1      28.135   7.905   5.360  1.00  0.00     0.001 C 
HETATM    4  C9  UNL     1      26.628   8.067   5.290  1.00  0.00     0.001 C 
HETATM    5  C10 UNL     1      26.331   7.863   3.828  1.00  0.00     0.014 C 
ENDROOT
BRANCH   1   6
HETATM    6  C3  UNL     1      28.022   7.024   2.295  1.00  0.00     0.039 C 
BRANCH   6   7
HETATM    7  C2  UNL     1      27.153   5.861   2.419  1.00  0.00    -0.036 C 
HETATM    8  C1  UNL     1      27.664   4.649   2.438  1.00  0.00     0.007 C 
ENDBRANCH   6   7
ENDBRANCH   1   6
BRANCH   1   9
HETATM    9  C5  UNL     1      27.342   9.399   2.208  1.00  0.00    -0.027 C 
HETATM   10  C6  UNL     1      27.648   9.365   0.925  1.00  0.00     0.007 C 
ENDBRANCH   1   9
TORSDOF 3
ENDMDL
