MODEL 1
REMARK VINA RESULT: -5.319969391      0.000      0.000
REMARK  1 active torsions:
REMARK  status: ('A' for Active; 'I' for Inactive)
REMARK    1  A    between atoms: O1_1  and  C1_3 
ROOT
HETATM    1  C1  UNL     1      27.309   7.775   4.486  1.00  0.00     0.118 C 
HETATM    2  C2  UNL     1      26.837   7.476   5.869  1.00  0.00     0.032 C 
HETATM    3  C3  UNL     1      26.689   6.006   6.133  1.00  0.00     0.002 C 
HETATM    4  C4  UNL     1      25.484   5.485   5.437  1.00  0.00     0.000 C 
HETATM    5  C5  UNL     1      25.411   5.678   3.987  1.00  0.00     0.000 C 
HETATM    6  C6  UNL     1      26.679   5.696   3.222  1.00  0.00     0.002 C 
HETATM    7  C7  UNL     1      27.754   6.575   3.711  1.00  0.00     0.032 C 
ENDROOT
BRANCH   1   8
HETATM    8  O1  UNL     1      26.400   8.477   3.715  1.00  0.00    -0.396 OA
ATOM      9  H1  UNL     1      25.597   8.704   4.170  1.00  0.00     0.210 HD
ENDBRANCH   1   8
TORSDOF 1
ENDMDL
MODEL 2
REMARK VINA RESULT: -5.275567205      1.420      3.074
REMARK  1 active torsions:
REMARK  status: ('A' for Active; 'I' for Inactive)
REMARK    1  A    between atoms: O1_1  and  C1_3 
ROOT
HETATM    1  C1  UNL     1      25.812   5.017   4.336  1.00  0.00     0.118 C 
HETATM    2  C2  UNL     1      26.585   5.444   3.133  1.00  0.00     0.032 C 
HETATM    3  C3  UNL     1      27.820   6.224   3.477  1.00  0.00     0.002 C 
HETATM    4  C4  UNL     1      27.447   7.592   3.922  1.00  0.00     0.000 C 
HETATM    5  C5  UNL     1      26.532   7.702   5.059  1.00  0.00     0.000 C 
HETATM    6  C6  UNL     1      26.575   6.644   6.094  1.00  0.00     0.002 C 
HETATM    7  C7  UNL     1      26.515   5.245   5.637  1.00  0.00     0.032 C 
ENDROOT
BRANCH   1   8
HETATM    8  O1  UNL     1      24.547   5.570   4.423  1.00  0.00    -0.396 OA
ATOM      9  H1  UNL     1      24.218   5.650   5.311  1.00  0.00     0.210 HD
ENDBRANCH   1   8
TORSDOF 1
ENDMDL
MODEL 3
REMARK VINA RESULT: -5.232603212      1.209      2.420
REMARK  1 active torsions:
REMARK  status: ('A' for Active; 'I' for Inactive)
REMARK    1  A    between atoms: O1_1  and  C1_3 
ROOT
HETATM    1  C1  UNL     1      27.031   6.611   3.256  1.00  0.00     0.118 C 
HETATM    2  C2  UNL     1      26.276   5.353   3.525  1.00  0.00     0.032 C 
HETATM    3  C3  UNL     1      25.309   5.482   4.665  1.00  0.00     0.002 C 
HETATM    4  C4  UNL     1      26.047   5.504   5.955  1.00  0.00     0.000 C 
HETATM    5  C5  UNL     1      27.066   6.541   6.127  1.00  0.00     0.000 C 
HETATM    6  C6  UNL     1      26.863   7.839   5.443  1.00  0.00     0.002 C 
HETATM    7  C7  UNL     1      26.534   7.805   4.008  1.00  0.00     0.032 C 
ENDROOT
BRANCH   1   8
HETATM    8  O1  UNL     1      28.396   6.508   3.459  1.00  0.00    -0.396 OA
ATOM      9  H1  UNL     1      28.678   6.742   4.336  1.00  0.00     0.210 HD
ENDBRANCH   1   8
TORSDOF 1
ENDMDL
MODEL 4
REMARK VINA RESULT: -5.203559755      1.781      2.743
REMARK  1 active torsions:
REMARK  status: ('A' for Active; 'I' for Inactive)
REMARK    1  A    between atoms: O1_1  and  C1_3 
ROOT
HETATM    1  C1  UNL     1      25.592   4.801   5.092  1.00  0.00     0.118 C 
HETATM    2  C2  UNL     1      26.198   5.376   6.327  1.00  0.00     0.032 C 
HETATM    3  C3  UNL     1      26.295   6.873   6.290  1.00  0.00     0.002 C 
HETATM    4  C4  UNL     1      27.387   7.287   5.369  1.00  0.00     0.000 C 
HETATM    5  C5  UNL     1      27.309   6.820   3.983  1.00  0.00     0.000 C 
HETATM    6  C6  UNL     1      25.967   6.614   3.391  1.00  0.00     0.002 C 
HETATM    7  C7  UNL     1      25.001   5.813   4.162  1.00  0.00     0.032 C 
ENDROOT
BRANCH   1   8
HETATM    8  O1  UNL     1      26.447   3.991   4.364  1.00  0.00    -0.396 OA
ATOM      9  H1  UNL     1      26.313   3.061   4.502  1.00  0.00     0.210 HD
ENDBRANCH   1   8
TORSDOF 1
ENDMDL
MODEL 5
REMARK VINA RESULT: -5.099238634      1.628      2.653
REMARK  1 active torsions:
REMARK  status: ('A' for Active; 'I' for Inactive)
REMARK    1  A    between atoms: O1_1  and  C1_3 
ROOT
HETATM    1  C1  UNL     1      25.945   6.027   5.731  1.00  0.00     0.118 C 
HETATM    2  C2  UNL     1      26.755   7.279   5.744  1.00  0.00     0.032 C 
HETATM    3  C3  UNL     1      26.871   7.916   4.390  1.00  0.00     0.002 C 
HETATM    4  C4  UNL     1      27.805   7.131   3.540  1.00  0.00     0.000 C 
HETATM    5  C5  UNL     1      27.493   5.716   3.331  1.00  0.00     0.000 C 
HETATM    6  C6  UNL     1      26.069   5.309   3.325  1.00  0.00     0.002 C 
HETATM    7  C7  UNL     1      25.228   5.766   4.444  1.00  0.00     0.032 C 
ENDROOT
BRANCH   1   8
HETATM    8  O1  UNL     1      26.655   4.888   6.070  1.00  0.00    -0.396 OA
ATOM      9  H1  UNL     1      26.112   4.162   6.355  1.00  0.00     0.210 HD
ENDBRANCH   1   8
TORSDOF 1
ENDMDL
