MODEL 1
REMARK VINA RESULT: -6.154548658      0.000      0.000
REMARK  0 active torsions:
REMARK  status: ('A' for Active; 'I' for Inactive)
ROOT
HETATM    1  C1  UNL     1      26.999   4.913   2.738  1.00  0.00     0.001 C 
HETATM    2  C2  UNL     1      26.263   4.372   3.970  1.00  0.00     0.005 C 
HETATM    3  C3  UNL     1      25.620   5.605   4.571  1.00  0.00    -0.010 C 
HETATM    4  C4  UNL     1      25.918   5.748   6.040  1.00  0.00     0.005 C 
HETATM    5  C5  UNL     1      26.940   6.852   6.180  1.00  0.00     0.001 C 
HETATM    6  C6  UNL     1      26.663   7.751   5.010  1.00  0.00     0.005 C 
HETATM    7  C7  UNL     1      26.267   6.798   3.911  1.00  0.00    -0.010 C 
HETATM    8  C8  UNL     1      27.559   6.202   3.360  1.00  0.00     0.005 C 
ENDROOT
TORSDOF 0
ENDMDL
MODEL 2
REMARK VINA RESULT: -5.806935312      0.734      2.989
REMARK  0 active torsions:
REMARK  status: ('A' for Active; 'I' for Inactive)
ROOT
HETATM    1  C1  UNL     1      25.836   5.706   6.211  1.00  0.00     0.001 C 
HETATM    2  C2  UNL     1      26.678   6.916   5.789  1.00  0.00     0.005 C 
HETATM    3  C3  UNL     1      26.450   7.006   4.294  1.00  0.00    -0.010 C 
HETATM    4  C4  UNL     1      27.740   7.088   3.522  1.00  0.00     0.005 C 
HETATM    5  C5  UNL     1      27.958   5.737   2.880  1.00  0.00     0.001 C 
HETATM    6  C6  UNL     1      26.569   5.209   2.670  1.00  0.00     0.005 C 
HETATM    7  C7  UNL     1      25.810   5.705   3.874  1.00  0.00    -0.010 C 
HETATM    8  C8  UNL     1      26.168   4.779   5.032  1.00  0.00     0.005 C 
ENDROOT
TORSDOF 0
ENDMDL
MODEL 3
REMARK VINA RESULT: -5.668528096      0.908      1.475
REMARK  0 active torsions:
REMARK  status: ('A' for Active; 'I' for Inactive)
ROOT
HETATM    1  C1  UNL     1      27.962   6.903   2.842  1.00  0.00     0.001 C 
HETATM    2  C2  UNL     1      27.142   5.609   2.914  1.00  0.00     0.005 C 
HETATM    3  C3  UNL     1      26.005   5.958   3.852  1.00  0.00    -0.010 C 
HETATM    4  C4  UNL     1      25.848   4.950   4.960  1.00  0.00     0.005 C 
HETATM    5  C5  UNL     1      26.389   5.588   6.219  1.00  0.00     0.001 C 
HETATM    6  C6  UNL     1      26.154   7.055   6.010  1.00  0.00     0.005 C 
HETATM    7  C7  UNL     1      26.386   7.249   4.533  1.00  0.00    -0.010 C 
HETATM    8  C8  UNL     1      27.897   7.292   4.327  1.00  0.00     0.005 C 
ENDROOT
TORSDOF 0
ENDMDL
MODEL 4
REMARK VINA RESULT: -5.658026709      0.748      2.948
REMARK  0 active torsions:
REMARK  status: ('A' for Active; 'I' for Inactive)
ROOT
HETATM    1  C1  UNL     1      27.435   7.858   5.241  1.00  0.00     0.001 C 
HETATM    2  C2  UNL     1      27.896   7.279   3.898  1.00  0.00     0.005 C 
HETATM    3  C3  UNL     1      26.676   6.537   3.391  1.00  0.00    -0.010 C 
HETATM    4  C4  UNL     1      26.995   5.123   2.984  1.00  0.00     0.005 C 
HETATM    5  C5  UNL     1      26.451   4.218   4.065  1.00  0.00     0.001 C 
HETATM    6  C6  UNL     1      25.281   4.978   4.617  1.00  0.00     0.005 C 
HETATM    7  C7  UNL     1      25.727   6.416   4.558  1.00  0.00    -0.010 C 
HETATM    8  C8  UNL     1      26.650   6.640   5.752  1.00  0.00     0.005 C 
ENDROOT
TORSDOF 0
ENDMDL
MODEL 5
REMARK VINA RESULT: -5.635660353      0.531      3.172
REMARK  0 active torsions:
REMARK  status: ('A' for Active; 'I' for Inactive)
ROOT
HETATM    1  C1  UNL     1      26.490   7.103   6.448  1.00  0.00     0.001 C 
HETATM    2  C2  UNL     1      27.231   7.502   5.166  1.00  0.00     0.005 C 
HETATM    3  C3  UNL     1      26.407   6.866   4.065  1.00  0.00    -0.010 C 
HETATM    4  C4  UNL     1      27.248   6.053   3.118  1.00  0.00     0.005 C 
HETATM    5  C5  UNL     1      26.991   4.598   3.435  1.00  0.00     0.001 C 
HETATM    6  C6  UNL     1      25.586   4.587   3.963  1.00  0.00     0.005 C 
HETATM    7  C7  UNL     1      25.481   5.879   4.732  1.00  0.00    -0.010 C 
HETATM    8  C8  UNL     1      26.166   5.648   6.076  1.00  0.00     0.005 C 
ENDROOT
TORSDOF 0
ENDMDL
