MODEL 1
REMARK VINA RESULT: 8.254390277      0.000      0.000
REMARK  5 active torsions:
REMARK  status: ('A' for Active; 'I' for Inactive)
REMARK    1  A    between atoms: C2_2  and  C4_4 
REMARK    2  A    between atoms: C7_7  and  C8_8 
REMARK    3  A    between atoms: C9_9  and  C10_10 
REMARK    4  A    between atoms: C11_11  and  C12_12 
REMARK    5  A    between atoms: C13_13  and  C14_14 
ROOT
HETATM    1  C10 UNL     1      23.168   9.397  64.008  1.00  0.00     0.073 C 
HETATM    2  C11 UNL     1      22.578   8.513  64.788  1.00  0.00     0.073 C 
ENDROOT
BRANCH   2   3
HETATM    3  C12 UNL     1      22.931   8.280  66.153  1.00  0.00    -0.072 C 
HETATM    4  C13 UNL     1      23.239   8.097  67.306  1.00  0.00    -0.060 C 
BRANCH   4   5
HETATM    5  C14 UNL     1      23.626   7.895  68.676  1.00  0.00     0.047 A 
HETATM    6  C15 UNL     1      23.760   6.638  69.231  1.00  0.00     0.023 A 
HETATM    7  C16 UNL     1      24.129   6.432  70.540  1.00  0.00     0.004 A 
HETATM    8  C17 UNL     1      24.374   7.536  71.326  1.00  0.00     0.040 A 
HETATM    9  C18 UNL     1      24.253   8.830  70.815  1.00  0.00     0.104 A 
HETATM   10  O1  UNL     1      24.417  10.012  71.311  1.00  0.00    -0.304 OA
HETATM   11  C20 UNL     1      23.878   8.979  69.489  1.00  0.00     0.086 A 
HETATM   12  C19 UNL     1      24.183  10.934  70.427  1.00  0.00     0.234 A 
HETATM   13  N1  UNL     1      23.842  10.308  69.271  1.00  0.00    -0.343 N 
ATOM     14  H1  UNL     1      23.600  10.763  68.391  1.00  0.00     0.167 HD
ENDBRANCH   4   5
ENDBRANCH   2   3
BRANCH   1  15
HETATM   15  C9  UNL     1      22.794   9.610  62.641  1.00  0.00    -0.072 C 
HETATM   16  C8  UNL     1      22.494   9.803  61.484  1.00  0.00    -0.062 C 
BRANCH  16  17
HETATM   17  C7  UNL     1      22.148  10.046  60.111  1.00  0.00     0.018 A 
HETATM   18  C6  UNL     1      22.173   9.058  59.143  1.00  0.00     0.021 A 
HETATM   19  C5  UNL     1      21.839   9.305  57.827  1.00  0.00     0.009 A 
HETATM   20  C4  UNL     1      21.463  10.569  57.434  1.00  0.00    -0.055 A 
HETATM   21  C22 UNL     1      21.438  11.548  58.394  1.00  0.00     0.009 A 
HETATM   22  C21 UNL     1      21.776  11.302  59.725  1.00  0.00     0.021 A 
BRANCH  20  23
HETATM   23  C2  UNL     1      21.103  10.842  56.022  1.00  0.00     0.010 C 
HETATM   24  C1  UNL     1      20.467  12.219  55.978  1.00  0.00     0.015 C 
HETATM   25  C3  UNL     1      22.304  10.771  55.108  1.00  0.00     0.015 C 
ENDBRANCH  20  23
ENDBRANCH  16  17
ENDBRANCH   1  15
TORSDOF 5
ENDMDL
MODEL 2
REMARK VINA RESULT: 10.024709029      3.777      6.807
REMARK  5 active torsions:
REMARK  status: ('A' for Active; 'I' for Inactive)
REMARK    1  A    between atoms: C2_2  and  C4_4 
REMARK    2  A    between atoms: C7_7  and  C8_8 
REMARK    3  A    between atoms: C9_9  and  C10_10 
REMARK    4  A    between atoms: C11_11  and  C12_12 
REMARK    5  A    between atoms: C13_13  and  C14_14 
ROOT
HETATM    1  C10 UNL     1      21.595  11.420  58.104  1.00  0.00     0.073 C 
HETATM    2  C11 UNL     1      21.285  10.275  58.680  1.00  0.00     0.073 C 
ENDROOT
BRANCH   2   3
HETATM    3  C12 UNL     1      21.519   9.977  60.057  1.00  0.00    -0.072 C 
HETATM    4  C13 UNL     1      21.720   9.710  61.217  1.00  0.00    -0.060 C 
BRANCH   4   5
HETATM    5  C14 UNL     1      21.955   9.366  62.594  1.00  0.00     0.047 A 
HETATM    6  C15 UNL     1      21.271   9.962  63.635  1.00  0.00     0.023 A 
HETATM    7  C16 UNL     1      21.488   9.641  64.955  1.00  0.00     0.004 A 
HETATM    8  C17 UNL     1      22.433   8.681  65.242  1.00  0.00     0.040 A 
HETATM    9  C18 UNL     1      23.153   8.047  64.228  1.00  0.00     0.104 A 
HETATM   10  O1  UNL     1      24.071   7.138  64.210  1.00  0.00    -0.304 OA
HETATM   11  C20 UNL     1      22.894   8.409  62.916  1.00  0.00     0.086 A 
HETATM   12  C19 UNL     1      24.444   6.864  62.996  1.00  0.00     0.234 A 
HETATM   13  N1  UNL     1      23.717   7.653  62.163  1.00  0.00    -0.343 N 
ATOM     14  H1  UNL     1      23.781   7.669  61.145  1.00  0.00     0.167 HD
ENDBRANCH   4   5
ENDBRANCH   2   3
BRANCH   1  15
HETATM   15  C9  UNL     1      21.350  11.692  56.719  1.00  0.00    -0.072 C 
HETATM   16  C8  UNL     1      21.137  11.901  55.545  1.00  0.00    -0.062 C 
BRANCH  16  17
HETATM   17  C7  UNL     1      20.883  12.133  54.151  1.00  0.00     0.018 A 
HETATM   18  C6  UNL     1      20.027  13.120  53.695  1.00  0.00     0.021 A 
HETATM   19  C5  UNL     1      19.792  13.332  52.352  1.00  0.00     0.009 A 
HETATM   20  C4  UNL     1      20.417  12.549  51.408  1.00  0.00    -0.055 A 
HETATM   21  C22 UNL     1      21.266  11.571  51.860  1.00  0.00     0.009 A 
HETATM   22  C21 UNL     1      21.505  11.354  53.216  1.00  0.00     0.021 A 
BRANCH  20  23
HETATM   23  C2  UNL     1      20.169  12.770  49.963  1.00  0.00     0.010 C 
HETATM   24  C1  UNL     1      21.283  12.075  49.203  1.00  0.00     0.015 C 
HETATM   25  C3  UNL     1      18.816  12.251  49.535  1.00  0.00     0.015 C 
ENDBRANCH  20  23
ENDBRANCH  16  17
ENDBRANCH   1  15
TORSDOF 5
ENDMDL
MODEL 3
REMARK VINA RESULT: 10.187006826      3.754      6.617
REMARK  5 active torsions:
REMARK  status: ('A' for Active; 'I' for Inactive)
REMARK    1  A    between atoms: C2_2  and  C4_4 
REMARK    2  A    between atoms: C7_7  and  C8_8 
REMARK    3  A    between atoms: C9_9  and  C10_10 
REMARK    4  A    between atoms: C11_11  and  C12_12 
REMARK    5  A    between atoms: C13_13  and  C14_14 
ROOT
HETATM    1  C10 UNL     1      21.786  10.799  58.014  1.00  0.00     0.073 C 
HETATM    2  C11 UNL     1      21.974   9.547  58.385  1.00  0.00     0.073 C 
ENDROOT
BRANCH   2   3
HETATM    3  C12 UNL     1      22.230   9.135  59.729  1.00  0.00    -0.072 C 
HETATM    4  C13 UNL     1      22.431   8.786  60.867  1.00  0.00    -0.060 C 
BRANCH   4   5
HETATM    5  C14 UNL     1      22.646   8.380  62.230  1.00  0.00     0.047 A 
HETATM    6  C15 UNL     1      23.651   7.506  62.594  1.00  0.00     0.023 A 
HETATM    7  C16 UNL     1      23.866   7.111  63.894  1.00  0.00     0.004 A 
HETATM    8  C17 UNL     1      23.036   7.614  64.870  1.00  0.00     0.040 A 
HETATM    9  C18 UNL     1      22.003   8.500  64.557  1.00  0.00     0.104 A 
HETATM   10  O1  UNL     1      21.100   9.110  65.251  1.00  0.00    -0.304 OA
HETATM   11  C20 UNL     1      21.832   8.865  63.231  1.00  0.00     0.086 A 
HETATM   12  C19 UNL     1      20.342   9.850  64.498  1.00  0.00     0.234 A 
HETATM   13  N1  UNL     1      20.784   9.712  63.222  1.00  0.00    -0.343 N 
ATOM     14  H1  UNL     1      20.392  10.169  62.399  1.00  0.00     0.167 HD
ENDBRANCH   4   5
ENDBRANCH   2   3
BRANCH   1  15
HETATM   15  C9  UNL     1      21.532  11.184  56.658  1.00  0.00    -0.072 C 
HETATM   16  C8  UNL     1      21.300  11.497  55.511  1.00  0.00    -0.062 C 
BRANCH  16  17
HETATM   17  C7  UNL     1      21.015  11.854  54.150  1.00  0.00     0.018 A 
HETATM   18  C6  UNL     1      20.240  12.947  53.805  1.00  0.00     0.021 A 
HETATM   19  C5  UNL     1      19.973  13.279  52.492  1.00  0.00     0.009 A 
HETATM   20  C4  UNL     1      20.482  12.514  51.468  1.00  0.00    -0.055 A 
HETATM   21  C22 UNL     1      21.251  11.430  51.810  1.00  0.00     0.009 A 
HETATM   22  C21 UNL     1      21.521  11.092  53.136  1.00  0.00     0.021 A 
BRANCH  20  23
HETATM   23  C2  UNL     1      20.200  12.864  50.055  1.00  0.00     0.010 C 
HETATM   24  C1  UNL     1      21.263  12.194  49.204  1.00  0.00     0.015 C 
HETATM   25  C3  UNL     1      18.816  12.432  49.631  1.00  0.00     0.015 C 
ENDBRANCH  20  23
ENDBRANCH  16  17
ENDBRANCH   1  15
TORSDOF 5
ENDMDL
MODEL 4
REMARK VINA RESULT: 11.328451397      1.592      1.791
REMARK  5 active torsions:
REMARK  status: ('A' for Active; 'I' for Inactive)
REMARK    1  A    between atoms: C2_2  and  C4_4 
REMARK    2  A    between atoms: C7_7  and  C8_8 
REMARK    3  A    between atoms: C9_9  and  C10_10 
REMARK    4  A    between atoms: C11_11  and  C12_12 
REMARK    5  A    between atoms: C13_13  and  C14_14 
ROOT
HETATM    1  C10 UNL     1      22.610   9.879  64.097  1.00  0.00     0.073 C 
HETATM    2  C11 UNL     1      22.654   8.675  64.633  1.00  0.00     0.073 C 
ENDROOT
BRANCH   2   3
HETATM    3  C12 UNL     1      22.868   8.419  66.022  1.00  0.00    -0.072 C 
HETATM    4  C13 UNL     1      23.042   8.218  67.200  1.00  0.00    -0.060 C 
BRANCH   4   5
HETATM    5  C14 UNL     1      23.249   8.004  68.607  1.00  0.00     0.047 A 
HETATM    6  C15 UNL     1      24.508   7.935  69.170  1.00  0.00     0.023 A 
HETATM    7  C16 UNL     1      24.718   7.730  70.514  1.00  0.00     0.004 A 
HETATM    8  C17 UNL     1      23.616   7.588  71.328  1.00  0.00     0.040 A 
HETATM    9  C18 UNL     1      22.320   7.650  70.811  1.00  0.00     0.104 A 
HETATM   10  O1  UNL     1      21.140   7.552  71.327  1.00  0.00    -0.304 OA
HETATM   11  C20 UNL     1      22.168   7.858  69.449  1.00  0.00     0.086 A 
HETATM   12  C19 UNL     1      20.215   7.679  70.424  1.00  0.00     0.234 A 
HETATM   13  N1  UNL     1      20.838   7.872  69.233  1.00  0.00    -0.343 N 
ATOM     14  H1  UNL     1      20.380   8.005  68.331  1.00  0.00     0.167 HD
ENDBRANCH   4   5
ENDBRANCH   2   3
BRANCH   1  15
HETATM   15  C9  UNL     1      22.394  10.106  62.699  1.00  0.00    -0.072 C 
HETATM   16  C8  UNL     1      22.232  10.295  61.513  1.00  0.00    -0.062 C 
BRANCH  16  17
HETATM   17  C7  UNL     1      22.057  10.520  60.106  1.00  0.00     0.018 A 
HETATM   18  C6  UNL     1      21.890   9.492  59.195  1.00  0.00     0.021 A 
HETATM   19  C5  UNL     1      21.723   9.722  57.844  1.00  0.00     0.009 A 
HETATM   20  C4  UNL     1      21.719  11.009  57.357  1.00  0.00    -0.055 A 
HETATM   21  C22 UNL     1      21.884  12.028  58.260  1.00  0.00     0.009 A 
HETATM   22  C21 UNL     1      22.054  11.798  59.625  1.00  0.00     0.021 A 
BRANCH  20  23
HETATM   23  C2  UNL     1      21.540  11.264  55.907  1.00  0.00     0.010 C 
HETATM   24  C1  UNL     1      20.591  12.439  55.770  1.00  0.00     0.015 C 
HETATM   25  C3  UNL     1      22.854  11.546  55.217  1.00  0.00     0.015 C 
ENDBRANCH  20  23
ENDBRANCH  16  17
ENDBRANCH   1  15
TORSDOF 5
ENDMDL
MODEL 5
REMARK VINA RESULT: 11.590783313      8.440     14.164
REMARK  5 active torsions:
REMARK  status: ('A' for Active; 'I' for Inactive)
REMARK    1  A    between atoms: C2_2  and  C4_4 
REMARK    2  A    between atoms: C7_7  and  C8_8 
REMARK    3  A    between atoms: C9_9  and  C10_10 
REMARK    4  A    between atoms: C11_11  and  C12_12 
REMARK    5  A    between atoms: C13_13  and  C14_14 
ROOT
HETATM    1  C10 UNL     1      26.403   9.949  55.252  1.00  0.00     0.073 C 
HETATM    2  C11 UNL     1      27.405   9.108  55.097  1.00  0.00     0.073 C 
ENDROOT
BRANCH   2   3
HETATM    3  C12 UNL     1      28.116   8.918  53.873  1.00  0.00    -0.072 C 
HETATM    4  C13 UNL     1      28.706   8.748  52.833  1.00  0.00    -0.060 C 
BRANCH   4   5
HETATM    5  C14 UNL     1      29.396   8.521  51.592  1.00  0.00     0.047 A 
HETATM    6  C15 UNL     1      29.680   9.539  50.704  1.00  0.00     0.023 A 
HETATM    7  C16 UNL     1      30.340   9.334  49.515  1.00  0.00     0.004 A 
HETATM    8  C17 UNL     1      30.732   8.051  49.203  1.00  0.00     0.040 A 
HETATM    9  C18 UNL     1      30.470   6.984  50.065  1.00  0.00     0.104 A 
HETATM   10  O1  UNL     1      30.715   5.716  50.028  1.00  0.00    -0.304 OA
HETATM   11  C20 UNL     1      29.802   7.248  51.250  1.00  0.00     0.086 A 
HETATM   12  C19 UNL     1      30.267   5.115  51.089  1.00  0.00     0.234 A 
HETATM   13  N1  UNL     1      29.687   6.059  51.874  1.00  0.00    -0.343 N 
ATOM     14  H1  UNL     1      29.243   5.897  52.777  1.00  0.00     0.167 HD
ENDBRANCH   4   5
ENDBRANCH   2   3
BRANCH   1  15
HETATM   15  C9  UNL     1      25.706  10.118  56.493  1.00  0.00    -0.072 C 
HETATM   16  C8  UNL     1      25.114  10.240  57.543  1.00  0.00    -0.062 C 
BRANCH  16  17
HETATM   17  C7  UNL     1      24.407  10.368  58.786  1.00  0.00     0.018 A 
HETATM   18  C6  UNL     1      23.996  11.587  59.295  1.00  0.00     0.021 A 
HETATM   19  C5  UNL     1      23.316  11.697  60.492  1.00  0.00     0.009 A 
HETATM   20  C4  UNL     1      23.023  10.571  61.226  1.00  0.00    -0.055 A 
HETATM   21  C22 UNL     1      23.430   9.362  60.721  1.00  0.00     0.009 A 
HETATM   22  C21 UNL     1      24.117   9.249  59.513  1.00  0.00     0.021 A 
BRANCH  20  23
HETATM   23  C2  UNL     1      22.294  10.680  62.513  1.00  0.00     0.010 C 
HETATM   24  C1  UNL     1      21.031   9.849  62.387  1.00  0.00     0.015 C 
HETATM   25  C3  UNL     1      23.134  10.216  63.680  1.00  0.00     0.015 C 
ENDBRANCH  20  23
ENDBRANCH  16  17
ENDBRANCH   1  15
TORSDOF 5
ENDMDL
