MODEL 1
REMARK VINA RESULT: -5.431995909      0.000      0.000
REMARK  0 active torsions:
REMARK  status: ('A' for Active; 'I' for Inactive)
ROOT
HETATM    1  C1  UNL     1      25.039   6.854  62.516  1.00  0.00     0.001 A 
HETATM    2  C2  UNL     1      24.003   7.555  63.097  1.00  0.00     0.002 A 
HETATM    3  C3  UNL     1      23.398   8.629  62.423  1.00  0.00     0.032 A 
HETATM    4  C4  UNL     1      23.881   8.943  61.189  1.00  0.00     0.069 A 
HETATM    5  C5  UNL     1      24.910   8.238  60.598  1.00  0.00    -0.007 A 
HETATM    6  C6  UNL     1      25.497   7.190  61.262  1.00  0.00     0.014 A 
HETATM    7  C7  UNL     1      25.339   8.315  59.267  1.00  0.00     0.016 C 
HETATM    8  C8  UNL     1      24.480   8.682  58.205  1.00  0.00     0.035 C 
HETATM    9  C9  UNL     1      23.520   9.692  58.283  1.00  0.00     0.088 A 
HETATM   10  C10 UNL     1      22.998  10.394  57.244  1.00  0.00     0.023 A 
HETATM   11  C11 UNL     1      23.127  10.249  55.900  1.00  0.00     0.016 A 
HETATM   12  C12 UNL     1      22.453  11.148  55.101  1.00  0.00     0.001 A 
HETATM   13  C13 UNL     1      21.673  12.161  55.675  1.00  0.00     0.002 A 
HETATM   14  C14 UNL     1      21.562  12.282  57.051  1.00  0.00     0.032 A 
HETATM   15  C15 UNL     1      22.225  11.398  57.844  1.00  0.00     0.071 A 
HETATM   16  N1  UNL     1      22.304  11.268  59.199  1.00  0.00    -0.232 N 
HETATM   17  C16 UNL     1      21.999  11.741  60.420  1.00  0.00     0.087 A 
HETATM   18  C17 UNL     1      21.272  12.842  60.776  1.00  0.00     0.034 A 
HETATM   19  C18 UNL     1      21.163  13.174  62.091  1.00  0.00     0.002 A 
HETATM   20  C19 UNL     1      21.791  12.389  63.045  1.00  0.00     0.002 A 
HETATM   21  C20 UNL     1      22.528  11.277  62.715  1.00  0.00     0.034 A 
HETATM   22  C21 UNL     1      22.636  10.938  61.400  1.00  0.00     0.087 A 
HETATM   23  N2  UNL     1      23.269  10.025  60.687  1.00  0.00    -0.232 N 
HETATM   24  N3  UNL     1      23.072  10.248  59.383  1.00  0.00    -0.181 N 
ENDROOT
TORSDOF 0
ENDMDL
MODEL 2
REMARK VINA RESULT: -4.471107605      1.456      2.057
REMARK  0 active torsions:
REMARK  status: ('A' for Active; 'I' for Inactive)
ROOT
HETATM    1  C1  UNL     1      23.249   6.793  64.213  1.00  0.00     0.001 A 
HETATM    2  C2  UNL     1      22.165   7.627  64.036  1.00  0.00     0.002 A 
HETATM    3  C3  UNL     1      22.187   8.630  63.053  1.00  0.00     0.032 A 
HETATM    4  C4  UNL     1      23.316   8.742  62.299  1.00  0.00     0.069 A 
HETATM    5  C5  UNL     1      24.399   7.903  62.465  1.00  0.00    -0.007 A 
HETATM    6  C6  UNL     1      24.372   6.925  63.428  1.00  0.00     0.014 A 
HETATM    7  C7  UNL     1      25.508   7.770  61.621  1.00  0.00     0.016 C 
HETATM    8  C8  UNL     1      25.451   8.035  60.233  1.00  0.00     0.035 C 
HETATM    9  C9  UNL     1      24.752   9.101  59.664  1.00  0.00     0.088 A 
HETATM   10  C10 UNL     1      24.999   9.681  58.461  1.00  0.00     0.023 A 
HETATM   11  C11 UNL     1      25.842   9.343  57.452  1.00  0.00     0.016 A 
HETATM   12  C12 UNL     1      25.856  10.161  56.341  1.00  0.00     0.001 A 
HETATM   13  C13 UNL     1      25.024  11.287  56.279  1.00  0.00     0.002 A 
HETATM   14  C14 UNL     1      24.174  11.604  57.328  1.00  0.00     0.032 A 
HETATM   15  C15 UNL     1      24.157  10.802  58.426  1.00  0.00     0.071 A 
HETATM   16  N1  UNL     1      23.443  10.856  59.585  1.00  0.00    -0.232 N 
HETATM   17  C16 UNL     1      22.567  11.511  60.367  1.00  0.00     0.087 A 
HETATM   18  C17 UNL     1      21.912  12.691  60.152  1.00  0.00     0.034 A 
HETATM   19  C18 UNL     1      21.125  13.208  61.134  1.00  0.00     0.002 A 
HETATM   20  C19 UNL     1      21.002  12.528  62.335  1.00  0.00     0.002 A 
HETATM   21  C20 UNL     1      21.648  11.340  62.578  1.00  0.00     0.034 A 
HETATM   22  C21 UNL     1      22.433  10.816  61.596  1.00  0.00     0.087 A 
HETATM   23  N2  UNL     1      23.236   9.777  61.452  1.00  0.00    -0.232 N 
HETATM   24  N3  UNL     1      23.837   9.828  60.259  1.00  0.00    -0.181 N 
ENDROOT
TORSDOF 0
ENDMDL
MODEL 3
REMARK VINA RESULT: -4.251221800      1.465      6.160
REMARK  0 active torsions:
REMARK  status: ('A' for Active; 'I' for Inactive)
ROOT
HETATM    1  C1  UNL     1      22.114  11.269  55.738  1.00  0.00     0.001 A 
HETATM    2  C2  UNL     1      22.965  10.191  55.864  1.00  0.00     0.002 A 
HETATM    3  C3  UNL     1      23.297   9.685  57.130  1.00  0.00     0.032 A 
HETATM    4  C4  UNL     1      22.752  10.305  58.214  1.00  0.00     0.069 A 
HETATM    5  C5  UNL     1      21.892  11.378  58.093  1.00  0.00    -0.007 A 
HETATM    6  C6  UNL     1      21.571  11.868  56.852  1.00  0.00     0.014 A 
HETATM    7  C7  UNL     1      21.102  11.951  59.098  1.00  0.00     0.016 C 
HETATM    8  C8  UNL     1      20.633  11.220  60.214  1.00  0.00     0.035 C 
HETATM    9  C9  UNL     1      21.391  10.278  60.912  1.00  0.00     0.088 A 
HETATM   10  C10 UNL     1      21.209   9.886  62.200  1.00  0.00     0.023 A 
HETATM   11  C11 UNL     1      20.226  10.158  63.096  1.00  0.00     0.016 A 
HETATM   12  C12 UNL     1      20.341   9.593  64.349  1.00  0.00     0.001 A 
HETATM   13  C13 UNL     1      21.436   8.776  64.661  1.00  0.00     0.002 A 
HETATM   14  C14 UNL     1      22.423   8.518  63.722  1.00  0.00     0.032 A 
HETATM   15  C15 UNL     1      22.315   9.073  62.485  1.00  0.00     0.071 A 
HETATM   16  N1  UNL     1      23.109   9.002  61.380  1.00  0.00    -0.232 N 
HETATM   17  C16 UNL     1      24.249   8.575  60.807  1.00  0.00     0.087 A 
HETATM   18  C17 UNL     1      25.270   7.836  61.335  1.00  0.00     0.034 A 
HETATM   19  C18 UNL     1      26.376   7.591  60.580  1.00  0.00     0.002 A 
HETATM   20  C19 UNL     1      26.446   8.097  59.292  1.00  0.00     0.002 A 
HETATM   21  C20 UNL     1      25.434   8.842  58.737  1.00  0.00     0.034 A 
HETATM   22  C21 UNL     1      24.323   9.085  59.487  1.00  0.00     0.087 A 
HETATM   23  N2  UNL     1      23.203   9.774  59.358  1.00  0.00    -0.232 N 
HETATM   24  N3  UNL     1      22.505   9.724  60.498  1.00  0.00    -0.181 N 
ENDROOT
TORSDOF 0
ENDMDL
MODEL 4
REMARK VINA RESULT: -3.411573581      1.787      6.469
REMARK  0 active torsions:
REMARK  status: ('A' for Active; 'I' for Inactive)
ROOT
HETATM    1  C1  UNL     1      20.676  12.725  54.663  1.00  0.00     0.001 A 
HETATM    2  C2  UNL     1      21.776  11.951  54.362  1.00  0.00     0.002 A 
HETATM    3  C3  UNL     1      22.499  11.307  55.380  1.00  0.00     0.032 A 
HETATM    4  C4  UNL     1      22.071  11.488  56.660  1.00  0.00     0.069 A 
HETATM    5  C5  UNL     1      20.964  12.254  56.966  1.00  0.00    -0.007 A 
HETATM    6  C6  UNL     1      20.262  12.880  55.967  1.00  0.00     0.014 A 
HETATM    7  C7  UNL     1      20.300  12.334  58.196  1.00  0.00     0.016 C 
HETATM    8  C8  UNL     1      20.292  11.274  59.133  1.00  0.00     0.035 C 
HETATM    9  C9  UNL     1      21.398  10.475  59.427  1.00  0.00     0.088 A 
HETATM   10  C10 UNL     1      21.613   9.779  60.574  1.00  0.00     0.023 A 
HETATM   11  C11 UNL     1      20.818   9.545  61.650  1.00  0.00     0.016 A 
HETATM   12  C12 UNL     1      21.348   8.785  62.671  1.00  0.00     0.001 A 
HETATM   13  C13 UNL     1      22.655   8.286  62.580  1.00  0.00     0.002 A 
HETATM   14  C14 UNL     1      23.440   8.544  61.467  1.00  0.00     0.032 A 
HETATM   15  C15 UNL     1      22.923   9.294  60.456  1.00  0.00     0.071 A 
HETATM   16  N1  UNL     1      23.442   9.703  59.265  1.00  0.00    -0.232 N 
HETATM   17  C16 UNL     1      24.495   9.770  58.431  1.00  0.00     0.087 A 
HETATM   18  C17 UNL     1      25.760   9.276  58.577  1.00  0.00     0.034 A 
HETATM   19  C18 UNL     1      26.695   9.541  57.624  1.00  0.00     0.002 A 
HETATM   20  C19 UNL     1      26.347  10.309  56.524  1.00  0.00     0.002 A 
HETATM   21  C20 UNL     1      25.082  10.817  56.352  1.00  0.00     0.034 A 
HETATM   22  C21 UNL     1      24.141  10.550  57.301  1.00  0.00     0.087 A 
HETATM   23  N2  UNL     1      22.885  10.883  57.536  1.00  0.00    -0.232 N 
HETATM   24  N3  UNL     1      22.494  10.383  58.713  1.00  0.00    -0.181 N 
ENDROOT
TORSDOF 0
ENDMDL
MODEL 5
REMARK VINA RESULT: -2.793893317      0.849      5.139
REMARK  0 active torsions:
REMARK  status: ('A' for Active; 'I' for Inactive)
ROOT
HETATM    1  C1  UNL     1      22.597  11.627  55.451  1.00  0.00     0.001 A 
HETATM    2  C2  UNL     1      22.579  12.610  56.417  1.00  0.00     0.002 A 
HETATM    3  C3  UNL     1      22.595  12.275  57.781  1.00  0.00     0.032 A 
HETATM    4  C4  UNL     1      22.623  10.951  58.098  1.00  0.00     0.069 A 
HETATM    5  C5  UNL     1      22.652   9.963  57.135  1.00  0.00    -0.007 A 
HETATM    6  C6  UNL     1      22.636  10.297  55.804  1.00  0.00     0.014 A 
HETATM    7  C7  UNL     1      22.904   8.598  57.324  1.00  0.00     0.016 C 
HETATM    8  C8  UNL     1      23.695   8.106  58.389  1.00  0.00     0.035 C 
HETATM    9  C9  UNL     1      23.654   8.600  59.693  1.00  0.00     0.088 A 
HETATM   10  C10 UNL     1      24.007   7.933  60.823  1.00  0.00     0.023 A 
HETATM   11  C11 UNL     1      24.599   6.726  61.011  1.00  0.00     0.016 A 
HETATM   12  C12 UNL     1      24.823   6.329  62.313  1.00  0.00     0.001 A 
HETATM   13  C13 UNL     1      24.448   7.156  63.381  1.00  0.00     0.002 A 
HETATM   14  C14 UNL     1      23.845   8.383  63.154  1.00  0.00     0.032 A 
HETATM   15  C15 UNL     1      23.621   8.779  61.872  1.00  0.00     0.071 A 
HETATM   16  N1  UNL     1      23.061   9.906  61.349  1.00  0.00    -0.232 N 
HETATM   17  C16 UNL     1      22.433  11.079  61.549  1.00  0.00     0.087 A 
HETATM   18  C17 UNL     1      22.063  11.685  62.716  1.00  0.00     0.034 A 
HETATM   19  C18 UNL     1      21.354  12.846  62.670  1.00  0.00     0.002 A 
HETATM   20  C19 UNL     1      21.021  13.391  61.440  1.00  0.00     0.002 A 
HETATM   21  C20 UNL     1      21.380  12.802  60.252  1.00  0.00     0.034 A 
HETATM   22  C21 UNL     1      22.094  11.642  60.293  1.00  0.00     0.087 A 
HETATM   23  N2  UNL     1      22.563  10.766  59.424  1.00  0.00    -0.232 N 
HETATM   24  N3  UNL     1      23.119   9.736  60.071  1.00  0.00    -0.181 N 
ENDROOT
TORSDOF 0
ENDMDL
