MODEL 1
REMARK VINA RESULT: -8.222054665      0.000      0.000
REMARK  10 active torsions:
REMARK  status: ('A' for Active; 'I' for Inactive)
REMARK    1  A    between atoms: C1_2  and  O2_4 
REMARK    2  A    between atoms: O2_4  and  C2_5 
REMARK    3  A    between atoms: C2_5  and  C3_6 
REMARK    4  A    between atoms: C4_7  and  O3_8 
REMARK    5  A    between atoms: C7_12  and  O4_13 
REMARK    6  A    between atoms: C8_15  and  N2_16 
REMARK    7  A    between atoms: N2_16  and  N3_18 
REMARK    8  A    between atoms: N3_18  and  N4_19 
REMARK       I    between atoms: N4_19  and  C9_21 
REMARK       I    between atoms: C9_21  and  N5_23 
REMARK    9  A    between atoms: C10_25  and  C11_26 
REMARK   10  A    between atoms: C13_34  and  N10_35 
ROOT
HETATM    1  C3  UNL     1     104.169  27.453  -1.293  1.00  0.00     0.052 A 
HETATM    2  C4  UNL     1     104.421  28.794  -1.563  1.00  0.00     0.107 A 
HETATM    3  C5  UNL     1     105.276  29.477  -0.664  1.00  0.00     0.083 A 
HETATM    4  C6  UNL     1     105.848  28.891   0.426  1.00  0.00     0.067 A 
HETATM    5  C7  UNL     1     105.576  27.554   0.661  1.00  0.00     0.110 A 
HETATM    6  C8  UNL     1     104.754  26.837  -0.175  1.00  0.00     0.095 A 
HETATM    7  C12 UNL     1     106.569  29.834   1.006  1.00  0.00     0.145 A 
HETATM    8  O6  UNL     1     107.363  30.075   2.019  1.00  0.00    -0.233 OA
HETATM    9  N9  UNL     1     107.767  31.322   2.004  1.00  0.00    -0.237 N 
ATOM     10  H9  UNL     1     108.392  31.738   2.695  1.00  0.00     0.197 HD
HETATM   11  C13 UNL     1     107.246  31.976   0.955  1.00  0.00     0.223 A 
HETATM   12  C14 UNL     1     106.470  31.025   0.302  1.00  0.00     0.122 A 
HETATM   13  N11 UNL     1     105.688  30.846  -0.724  1.00  0.00    -0.348 N 
ATOM     14  H11 UNL     1     105.424  31.538  -1.426  1.00  0.00     0.166 HD
ENDROOT
BRANCH   6  15
HETATM   15  N2  UNL     1     104.492  25.451   0.071  1.00  0.00    -0.280 N 
ATOM     16  H2  UNL     1     104.731  24.774  -0.654  1.00  0.00     0.184 HD
BRANCH  15  17
HETATM   17  N3  UNL     1     103.929  24.988   1.251  1.00  0.00    -0.018 NA
BRANCH  17  18
HETATM   18  N4  UNL     1     102.590  24.727   1.061  1.00  0.00    -0.235 N 
HETATM   19  C9  UNL     1     102.185  23.442   0.619  1.00  0.00     0.337 C 
HETATM   20  O5  UNL     1     103.007  22.506   0.388  1.00  0.00    -0.246 OA
HETATM   21  N5  UNL     1     100.802  23.171   0.420  1.00  0.00    -0.319 N 
HETATM   22  C10 UNL     1     100.347  22.643  -0.664  1.00  0.00     0.106 C 
ATOM     23  H5  UNL     1     100.146  23.406   1.163  1.00  0.00     0.169 HD
ATOM     24  H4  UNL     1     101.895  25.453   1.236  1.00  0.00     0.189 HD
BRANCH  22  25
HETATM   25  C11 UNL     1     101.286  22.302  -1.746  1.00  0.00     0.245 C 
HETATM   26  N6  UNL     1     101.031  23.016  -2.993  1.00  0.00    -0.102 NA
HETATM   27  N7  UNL     1     100.150  21.995  -3.346  1.00  0.00    -0.036 NA
HETATM   28  N8  UNL     1     100.843  21.130  -2.471  1.00  0.00    -0.102 NA
ENDBRANCH  22  25
ENDBRANCH  17  18
ENDBRANCH  15  17
ENDBRANCH   6  15
BRANCH   1  29
HETATM   29  C2  UNL     1     103.353  26.702  -1.980  1.00  0.00     0.163 C 
BRANCH  29  30
HETATM   30  O2  UNL     1     102.278  25.941  -1.570  1.00  0.00    -0.275 OA
BRANCH  30  31
HETATM   31  C1  UNL     1     101.005  26.154  -2.169  1.00  0.00     0.377 C 
HETATM   32  N1  UNL     1     100.878  26.657  -3.470  1.00  0.00    -0.032 NA
HETATM   33  O1  UNL     1     100.013  25.867  -1.467  1.00  0.00    -0.242 OA
ENDBRANCH  30  31
ENDBRANCH  29  30
ENDBRANCH   1  29
BRANCH   5  34
HETATM   34  O4  UNL     1     106.152  26.936   1.769  1.00  0.00    -0.357 OA
ATOM     35  H4  UNL     1     106.127  27.383   2.607  1.00  0.00     0.217 HD
ENDBRANCH   5  34
BRANCH   2  36
HETATM   36  O3  UNL     1     103.913  29.467  -2.620  1.00  0.00    -0.357 OA
ATOM     37  H3  UNL     1     104.380  30.140  -3.101  1.00  0.00     0.217 HD
ENDBRANCH   2  36
BRANCH  11  38
HETATM   38  N10 UNL     1     107.409  33.329   0.548  1.00  0.00    -0.094 N 
HETATM   39  O7  UNL     1     106.888  33.678  -0.530  1.00  0.00    -0.530 OA
HETATM   40  O8  UNL     1     108.102  34.272   1.259  1.00  0.00    -0.530 OA
ENDBRANCH  11  38
TORSDOF 10
ENDMDL
MODEL 2
REMARK VINA RESULT: -7.811426133      2.385      2.745
REMARK  10 active torsions:
REMARK  status: ('A' for Active; 'I' for Inactive)
REMARK    1  A    between atoms: C1_2  and  O2_4 
REMARK    2  A    between atoms: O2_4  and  C2_5 
REMARK    3  A    between atoms: C2_5  and  C3_6 
REMARK    4  A    between atoms: C4_7  and  O3_8 
REMARK    5  A    between atoms: C7_12  and  O4_13 
REMARK    6  A    between atoms: C8_15  and  N2_16 
REMARK    7  A    between atoms: N2_16  and  N3_18 
REMARK    8  A    between atoms: N3_18  and  N4_19 
REMARK       I    between atoms: N4_19  and  C9_21 
REMARK       I    between atoms: C9_21  and  N5_23 
REMARK    9  A    between atoms: C10_25  and  C11_26 
REMARK   10  A    between atoms: C13_34  and  N10_35 
ROOT
HETATM    1  C3  UNL     1     103.115  27.555  -0.631  1.00  0.00     0.052 A 
HETATM    2  C4  UNL     1     104.033  28.282  -1.384  1.00  0.00     0.107 A 
HETATM    3  C5  UNL     1     105.385  28.231  -0.964  1.00  0.00     0.083 A 
HETATM    4  C6  UNL     1     105.813  27.519   0.117  1.00  0.00     0.067 A 
HETATM    5  C7  UNL     1     104.871  26.807   0.839  1.00  0.00     0.110 A 
HETATM    6  C8  UNL     1     103.544  26.816   0.483  1.00  0.00     0.095 A 
HETATM    7  C12 UNL     1     107.118  27.713   0.183  1.00  0.00     0.145 A 
HETATM    8  O6  UNL     1     108.192  27.411   0.869  1.00  0.00    -0.233 OA
HETATM    9  N9  UNL     1     109.250  27.986   0.351  1.00  0.00    -0.237 N 
ATOM     10  H9  UNL     1     110.198  27.895   0.717  1.00  0.00     0.197 HD
HETATM   11  C13 UNL     1     108.914  28.713  -0.726  1.00  0.00     0.223 A 
HETATM   12  C14 UNL     1     107.539  28.545  -0.845  1.00  0.00     0.122 A 
HETATM   13  N11 UNL     1     106.508  28.881  -1.566  1.00  0.00    -0.348 N 
ATOM     14  H11 UNL     1     106.502  29.483  -2.389  1.00  0.00     0.166 HD
ENDROOT
BRANCH   6  15
HETATM   15  N2  UNL     1     102.581  26.064   1.230  1.00  0.00    -0.280 N 
ATOM     16  H2  UNL     1     101.823  26.565   1.692  1.00  0.00     0.184 HD
BRANCH  15  17
HETATM   17  N3  UNL     1     102.635  24.683   1.353  1.00  0.00    -0.018 NA
BRANCH  17  18
HETATM   18  N4  UNL     1     102.139  24.091   0.213  1.00  0.00    -0.235 N 
HETATM   19  C9  UNL     1     101.111  23.120   0.320  1.00  0.00     0.337 C 
HETATM   20  O5  UNL     1     100.618  22.764   1.433  1.00  0.00    -0.246 OA
HETATM   21  N5  UNL     1     100.600  22.505  -0.856  1.00  0.00    -0.319 N 
HETATM   22  C10 UNL     1     100.488  21.228  -0.981  1.00  0.00     0.106 C 
ATOM     23  H5  UNL     1     100.310  23.100  -1.632  1.00  0.00     0.169 HD
ATOM     24  H4  UNL     1     102.508  24.350  -0.703  1.00  0.00     0.189 HD
BRANCH  22  25
HETATM   25  C11 UNL     1     100.905  20.358   0.132  1.00  0.00     0.245 C 
HETATM   26  N6  UNL     1     102.154  19.645  -0.114  1.00  0.00    -0.102 NA
HETATM   27  N7  UNL     1     101.407  18.632  -0.712  1.00  0.00    -0.036 NA
HETATM   28  N8  UNL     1     100.286  19.054   0.036  1.00  0.00    -0.102 NA
ENDBRANCH  22  25
ENDBRANCH  17  18
ENDBRANCH  15  17
ENDBRANCH   6  15
BRANCH   1  29
HETATM   29  C2  UNL     1     101.827  27.551  -0.842  1.00  0.00     0.163 C 
BRANCH  29  30
HETATM   30  O2  UNL     1     100.997  26.545  -1.290  1.00  0.00    -0.275 OA
BRANCH  30  31
HETATM   31  C1  UNL     1     101.201  25.999  -2.588  1.00  0.00     0.377 C 
HETATM   32  N1  UNL     1     100.695  26.622  -3.736  1.00  0.00    -0.032 NA
HETATM   33  O1  UNL     1     101.856  24.938  -2.641  1.00  0.00    -0.242 OA
ENDBRANCH  30  31
ENDBRANCH  29  30
ENDBRANCH   1  29
BRANCH   5  34
HETATM   34  O4  UNL     1     105.289  26.071   1.946  1.00  0.00    -0.357 OA
ATOM     35  H4  UNL     1     105.955  25.404   1.828  1.00  0.00     0.217 HD
ENDBRANCH   5  34
BRANCH   2  36
HETATM   36  O3  UNL     1     103.715  29.010  -2.477  1.00  0.00    -0.357 OA
ATOM     37  H3  UNL     1     103.708  29.960  -2.503  1.00  0.00     0.217 HD
ENDBRANCH   2  36
BRANCH  11  38
HETATM   38  N10 UNL     1     109.727  29.497  -1.589  1.00  0.00    -0.094 N 
HETATM   39  O7  UNL     1     109.154  30.251  -2.401  1.00  0.00    -0.530 OA
HETATM   40  O8  UNL     1     111.097  29.477  -1.591  1.00  0.00    -0.530 OA
ENDBRANCH  11  38
TORSDOF 10
ENDMDL
MODEL 3
REMARK VINA RESULT: -7.734472762      2.823      3.387
REMARK  10 active torsions:
REMARK  status: ('A' for Active; 'I' for Inactive)
REMARK    1  A    between atoms: C1_2  and  O2_4 
REMARK    2  A    between atoms: O2_4  and  C2_5 
REMARK    3  A    between atoms: C2_5  and  C3_6 
REMARK    4  A    between atoms: C4_7  and  O3_8 
REMARK    5  A    between atoms: C7_12  and  O4_13 
REMARK    6  A    between atoms: C8_15  and  N2_16 
REMARK    7  A    between atoms: N2_16  and  N3_18 
REMARK    8  A    between atoms: N3_18  and  N4_19 
REMARK       I    between atoms: N4_19  and  C9_21 
REMARK       I    between atoms: C9_21  and  N5_23 
REMARK    9  A    between atoms: C10_25  and  C11_26 
REMARK   10  A    between atoms: C13_34  and  N10_35 
ROOT
HETATM    1  C3  UNL     1     104.228  26.855  -0.688  1.00  0.00     0.052 A 
HETATM    2  C4  UNL     1     105.493  27.407  -0.869  1.00  0.00     0.107 A 
HETATM    3  C5  UNL     1     106.402  27.286   0.211  1.00  0.00     0.083 A 
HETATM    4  C6  UNL     1     106.099  26.668   1.388  1.00  0.00     0.067 A 
HETATM    5  C7  UNL     1     104.831  26.130   1.529  1.00  0.00     0.110 A 
HETATM    6  C8  UNL     1     103.904  26.214   0.519  1.00  0.00     0.095 A 
HETATM    7  C12 UNL     1     107.187  26.754   2.131  1.00  0.00     0.145 A 
HETATM    8  O6  UNL     1     107.689  26.440   3.299  1.00  0.00    -0.233 OA
HETATM    9  N9  UNL     1     108.927  26.857   3.399  1.00  0.00    -0.237 N 
ATOM     10  H9  UNL     1     109.520  26.726   4.220  1.00  0.00     0.197 HD
HETATM   11  C13 UNL     1     109.308  27.482   2.275  1.00  0.00     0.223 A 
HETATM   12  C14 UNL     1     108.193  27.423   1.448  1.00  0.00     0.122 A 
HETATM   13  N11 UNL     1     107.750  27.763   0.271  1.00  0.00    -0.348 N 
ATOM     14  H11 UNL     1     108.258  28.264  -0.457  1.00  0.00     0.166 HD
ENDROOT
BRANCH   6  15
HETATM   15  N2  UNL     1     102.601  25.640   0.672  1.00  0.00    -0.280 N 
ATOM     16  H2  UNL     1     101.787  26.222   0.479  1.00  0.00     0.184 HD
BRANCH  15  17
HETATM   17  N3  UNL     1     102.399  24.327   1.072  1.00  0.00    -0.018 NA
BRANCH  17  18
HETATM   18  N4  UNL     1     101.619  23.670   0.147  1.00  0.00    -0.235 N 
HETATM   19  C9  UNL     1     100.987  22.452   0.504  1.00  0.00     0.337 C 
HETATM   20  O5  UNL     1     101.105  21.930   1.654  1.00  0.00    -0.246 OA
HETATM   21  N5  UNL     1     100.183  21.770  -0.451  1.00  0.00    -0.319 N 
HETATM   22  C10 UNL     1     100.327  20.517  -0.712  1.00  0.00     0.106 C 
ATOM     23  H5  UNL     1      99.465  22.295  -0.950  1.00  0.00     0.169 HD
ATOM     24  H4  UNL     1     101.498  24.056  -0.790  1.00  0.00     0.189 HD
BRANCH  22  25
HETATM   25  C11 UNL     1     101.362  19.749  -0.000  1.00  0.00     0.245 C 
HETATM   26  N6  UNL     1     102.334  19.111  -0.882  1.00  0.00    -0.102 NA
HETATM   27  N7  UNL     1     101.479  18.013  -0.958  1.00  0.00    -0.036 NA
HETATM   28  N8  UNL     1     100.914  18.400   0.276  1.00  0.00    -0.102 NA
ENDBRANCH  22  25
ENDBRANCH  17  18
ENDBRANCH  15  17
ENDBRANCH   6  15
BRANCH   1  29
HETATM   29  C2  UNL     1     103.256  26.940  -1.554  1.00  0.00     0.163 C 
BRANCH  29  30
HETATM   30  O2  UNL     1     102.530  25.950  -2.184  1.00  0.00    -0.275 OA
BRANCH  30  31
HETATM   31  C1  UNL     1     101.154  26.169  -2.469  1.00  0.00     0.377 C 
HETATM   32  N1  UNL     1     100.722  26.579  -3.737  1.00  0.00    -0.032 NA
HETATM   33  O1  UNL     1     100.360  25.975  -1.526  1.00  0.00    -0.242 OA
ENDBRANCH  30  31
ENDBRANCH  29  30
ENDBRANCH   1  29
BRANCH   5  34
HETATM   34  O4  UNL     1     104.502  25.493   2.724  1.00  0.00    -0.357 OA
ATOM     35  H4  UNL     1     104.585  24.547   2.776  1.00  0.00     0.217 HD
ENDBRANCH   5  34
BRANCH   2  36
HETATM   36  O3  UNL     1     105.898  28.030  -1.997  1.00  0.00    -0.357 OA
ATOM     37  H3  UNL     1     105.399  28.702  -2.447  1.00  0.00     0.217 HD
ENDBRANCH   2  36
BRANCH  11  38
HETATM   38  N10 UNL     1     110.551  28.087   1.942  1.00  0.00    -0.094 N 
HETATM   39  O7  UNL     1     111.470  28.029   2.784  1.00  0.00    -0.530 OA
HETATM   40  O8  UNL     1     110.806  28.732   0.760  1.00  0.00    -0.530 OA
ENDBRANCH  11  38
TORSDOF 10
ENDMDL
MODEL 4
REMARK VINA RESULT: -7.647307524      4.697      6.674
REMARK  10 active torsions:
REMARK  status: ('A' for Active; 'I' for Inactive)
REMARK    1  A    between atoms: C1_2  and  O2_4 
REMARK    2  A    between atoms: O2_4  and  C2_5 
REMARK    3  A    between atoms: C2_5  and  C3_6 
REMARK    4  A    between atoms: C4_7  and  O3_8 
REMARK    5  A    between atoms: C7_12  and  O4_13 
REMARK    6  A    between atoms: C8_15  and  N2_16 
REMARK    7  A    between atoms: N2_16  and  N3_18 
REMARK    8  A    between atoms: N3_18  and  N4_19 
REMARK       I    between atoms: N4_19  and  C9_21 
REMARK       I    between atoms: C9_21  and  N5_23 
REMARK    9  A    between atoms: C10_25  and  C11_26 
REMARK   10  A    between atoms: C13_34  and  N10_35 
ROOT
HETATM    1  C3  UNL     1     103.193  34.736  -1.916  1.00  0.00     0.052 A 
HETATM    2  C4  UNL     1     103.726  36.009  -2.094  1.00  0.00     0.107 A 
HETATM    3  C5  UNL     1     105.132  36.134  -1.973  1.00  0.00     0.083 A 
HETATM    4  C6  UNL     1     105.962  35.089  -1.698  1.00  0.00     0.067 A 
HETATM    5  C7  UNL     1     105.395  33.837  -1.530  1.00  0.00     0.110 A 
HETATM    6  C8  UNL     1     104.038  33.650  -1.635  1.00  0.00     0.095 A 
HETATM    7  C12 UNL     1     107.182  35.594  -1.670  1.00  0.00     0.145 A 
HETATM    8  O6  UNL     1     108.442  35.288  -1.488  1.00  0.00    -0.233 OA
HETATM    9  N9  UNL     1     109.200  36.351  -1.609  1.00  0.00    -0.237 N 
ATOM     10  H9  UNL     1     110.215  36.355  -1.508  1.00  0.00     0.197 HD
HETATM   11  C13 UNL     1     108.455  37.434  -1.882  1.00  0.00     0.223 A 
HETATM   12  C14 UNL     1     107.150  36.958  -1.923  1.00  0.00     0.122 A 
HETATM   13  N11 UNL     1     105.914  37.324  -2.113  1.00  0.00    -0.348 N 
ATOM     14  H11 UNL     1     105.575  38.263  -2.319  1.00  0.00     0.166 HD
ENDROOT
BRANCH   6  15
HETATM   15  N2  UNL     1     103.465  32.347  -1.473  1.00  0.00    -0.280 N 
ATOM     16  H2  UNL     1     102.550  32.269  -1.030  1.00  0.00     0.184 HD
BRANCH  15  17
HETATM   17  N3  UNL     1     104.100  31.188  -1.893  1.00  0.00    -0.018 NA
BRANCH  17  18
HETATM   18  N4  UNL     1     103.953  30.202  -0.943  1.00  0.00    -0.235 N 
HETATM   19  C9  UNL     1     103.992  28.841  -1.336  1.00  0.00     0.337 C 
HETATM   20  O5  UNL     1     104.158  28.479  -2.540  1.00  0.00    -0.246 OA
HETATM   21  N5  UNL     1     103.838  27.821  -0.356  1.00  0.00    -0.319 N 
HETATM   22  C10 UNL     1     103.002  26.850  -0.488  1.00  0.00     0.106 C 
ATOM     23  H5  UNL     1     104.413  27.861   0.486  1.00  0.00     0.169 HD
ATOM     24  H4  UNL     1     103.818  30.451   0.038  1.00  0.00     0.189 HD
BRANCH  22  25
HETATM   25  C11 UNL     1     102.165  26.783  -1.698  1.00  0.00     0.245 C 
HETATM   26  N6  UNL     1     100.750  26.554  -1.423  1.00  0.00    -0.102 NA
HETATM   27  N7  UNL     1     101.012  25.185  -1.449  1.00  0.00    -0.036 NA
HETATM   28  N8  UNL     1     102.147  25.444  -2.247  1.00  0.00    -0.102 NA
ENDBRANCH  22  25
ENDBRANCH  17  18
ENDBRANCH  15  17
ENDBRANCH   6  15
BRANCH   1  29
HETATM   29  C2  UNL     1     101.917  34.462  -1.926  1.00  0.00     0.163 C 
BRANCH  29  30
HETATM   30  O2  UNL     1     100.836  35.251  -2.262  1.00  0.00    -0.275 OA
BRANCH  30  31
HETATM   31  C1  UNL     1      99.674  34.642  -2.814  1.00  0.00     0.377 C 
HETATM   32  N1  UNL     1      98.479  35.354  -2.980  1.00  0.00    -0.032 NA
HETATM   33  O1  UNL     1      99.784  33.442  -3.138  1.00  0.00    -0.242 OA
ENDBRANCH  30  31
ENDBRANCH  29  30
ENDBRANCH   1  29
BRANCH   5  34
HETATM   34  O4  UNL     1     106.227  32.755  -1.251  1.00  0.00    -0.357 OA
ATOM     35  H4  UNL     1     106.015  31.906  -1.623  1.00  0.00     0.217 HD
ENDBRANCH   5  34
BRANCH   2  36
HETATM   36  O3  UNL     1     102.994  37.108  -2.378  1.00  0.00    -0.357 OA
ATOM     37  H3  UNL     1     102.874  37.460  -3.252  1.00  0.00     0.217 HD
ENDBRANCH   2  36
BRANCH  11  38
HETATM   38  N10 UNL     1     108.849  38.784  -2.090  1.00  0.00    -0.094 N 
HETATM   39  O7  UNL     1     108.071  39.682  -1.708  1.00  0.00    -0.530 OA
HETATM   40  O8  UNL     1     110.022  39.165  -2.685  1.00  0.00    -0.530 OA
ENDBRANCH  11  38
TORSDOF 10
ENDMDL
MODEL 5
REMARK VINA RESULT: -7.629933297      2.400      9.435
REMARK  10 active torsions:
REMARK  status: ('A' for Active; 'I' for Inactive)
REMARK    1  A    between atoms: C1_2  and  O2_4 
REMARK    2  A    between atoms: O2_4  and  C2_5 
REMARK    3  A    between atoms: C2_5  and  C3_6 
REMARK    4  A    between atoms: C4_7  and  O3_8 
REMARK    5  A    between atoms: C7_12  and  O4_13 
REMARK    6  A    between atoms: C8_15  and  N2_16 
REMARK    7  A    between atoms: N2_16  and  N3_18 
REMARK    8  A    between atoms: N3_18  and  N4_19 
REMARK       I    between atoms: N4_19  and  C9_21 
REMARK       I    between atoms: C9_21  and  N5_23 
REMARK    9  A    between atoms: C10_25  and  C11_26 
REMARK   10  A    between atoms: C13_34  and  N10_35 
ROOT
HETATM    1  C3  UNL     1     103.087  26.633   0.320  1.00  0.00     0.052 A 
HETATM    2  C4  UNL     1     102.896  25.324   0.754  1.00  0.00     0.107 A 
HETATM    3  C5  UNL     1     102.188  24.460  -0.118  1.00  0.00     0.083 A 
HETATM    4  C6  UNL     1     101.701  24.846  -1.331  1.00  0.00     0.067 A 
HETATM    5  C7  UNL     1     101.913  26.155  -1.729  1.00  0.00     0.110 A 
HETATM    6  C8  UNL     1     102.592  27.042  -0.928  1.00  0.00     0.095 A 
HETATM    7  C12 UNL     1     101.115  23.778  -1.841  1.00  0.00     0.145 A 
HETATM    8  O6  UNL     1     100.457  23.338  -2.884  1.00  0.00    -0.233 OA
HETATM    9  N9  UNL     1     100.142  22.074  -2.734  1.00  0.00    -0.237 N 
ATOM     10  H9  UNL     1      99.628  21.519  -3.418  1.00  0.00     0.197 HD
HETATM   11  C13 UNL     1     100.588  21.612  -1.556  1.00  0.00     0.223 A 
HETATM   12  C14 UNL     1     101.218  22.703  -0.969  1.00  0.00     0.122 A 
HETATM   13  N11 UNL     1     101.867  23.082   0.095  1.00  0.00    -0.348 N 
ATOM     14  H11 UNL     1     102.099  22.515   0.910  1.00  0.00     0.166 HD
ENDROOT
BRANCH   6  15
HETATM   15  N2  UNL     1     102.818  28.389  -1.358  1.00  0.00    -0.280 N 
ATOM     16  H2  UNL     1     102.267  29.135  -0.933  1.00  0.00     0.184 HD
BRANCH  15  17
HETATM   17  N3  UNL     1     103.753  28.725  -2.326  1.00  0.00    -0.018 NA
BRANCH  17  18
HETATM   18  N4  UNL     1     104.825  29.361  -1.741  1.00  0.00    -0.235 N 
HETATM   19  C9  UNL     1     104.761  30.756  -1.494  1.00  0.00     0.337 C 
HETATM   20  O5  UNL     1     103.747  31.458  -1.789  1.00  0.00    -0.246 OA
HETATM   21  N5  UNL     1     105.868  31.415  -0.893  1.00  0.00    -0.319 N 
HETATM   22  C10 UNL     1     106.387  32.488  -1.382  1.00  0.00     0.106 C 
ATOM     23  H5  UNL     1     106.268  31.022  -0.041  1.00  0.00     0.169 HD
ATOM     24  H4  UNL     1     105.661  28.832  -1.488  1.00  0.00     0.189 HD
BRANCH  22  25
HETATM   25  C11 UNL     1     105.821  33.064  -2.613  1.00  0.00     0.245 C 
HETATM   26  N6  UNL     1     106.801  33.748  -3.449  1.00  0.00    -0.102 NA
HETATM   27  N7  UNL     1     106.553  34.907  -2.716  1.00  0.00    -0.036 NA
HETATM   28  N8  UNL     1     105.286  34.387  -2.373  1.00  0.00    -0.102 NA
ENDBRANCH  22  25
ENDBRANCH  17  18
ENDBRANCH  15  17
ENDBRANCH   6  15
BRANCH   1  29
HETATM   29  C2  UNL     1     103.656  27.569   1.030  1.00  0.00     0.163 C 
BRANCH  29  30
HETATM   30  O2  UNL     1     104.913  28.129   0.929  1.00  0.00    -0.275 OA
BRANCH  30  31
HETATM   31  C1  UNL     1     106.051  27.278   0.852  1.00  0.00     0.377 C 
HETATM   32  N1  UNL     1     106.948  27.344  -0.221  1.00  0.00    -0.032 NA
HETATM   33  O1  UNL     1     106.199  26.474   1.795  1.00  0.00    -0.242 OA
ENDBRANCH  30  31
ENDBRANCH  29  30
ENDBRANCH   1  29
BRANCH   5  34
HETATM   34  O4  UNL     1     101.424  26.569  -2.966  1.00  0.00    -0.357 OA
ATOM     35  H4  UNL     1     102.034  26.917  -3.607  1.00  0.00     0.217 HD
ENDBRANCH   5  34
BRANCH   2  36
HETATM   36  O3  UNL     1     103.346  24.838   1.932  1.00  0.00    -0.357 OA
ATOM     37  H3  UNL     1     103.408  23.914   2.141  1.00  0.00     0.217 HD
ENDBRANCH   2  36
BRANCH  11  38
HETATM   38  N10 UNL     1     100.475  20.317  -0.980  1.00  0.00    -0.094 N 
HETATM   39  O7  UNL     1      99.447  20.061  -0.321  1.00  0.00    -0.530 OA
HETATM   40  O8  UNL     1     101.420  19.332  -1.099  1.00  0.00    -0.530 OA
ENDBRANCH  11  38
TORSDOF 10
ENDMDL
