MODEL 1
REMARK VINA RESULT: -7.052149228      0.000      0.000
REMARK  17 active torsions:
REMARK  status: ('A' for Active; 'I' for Inactive)
REMARK    1  A    between atoms: C2_2  and  C3_3 
REMARK    2  A    between atoms: C3_3  and  N1_4 
REMARK    3  A    between atoms: N1_4  and  C4_6 
REMARK    4  A    between atoms: C4_6  and  O1_7 
REMARK    5  A    between atoms: C4_6  and  C5_9 
REMARK    6  A    between atoms: C5_9  and  C6_11 
REMARK       I    between atoms: C6_11  and  N2_13 
REMARK    7  A    between atoms: N2_13  and  C7_15 
REMARK    8  A    between atoms: C9_17  and  C10_18 
REMARK    9  A    between atoms: C10_18  and  C11_19 
REMARK   10  A    between atoms: C13_21  and  N3_22 
REMARK   11  A    between atoms: N3_22  and  C14_23 
REMARK   12  A    between atoms: C14_23  and  O4_24 
REMARK   13  A    between atoms: C14_23  and  C15_26 
REMARK   14  A    between atoms: C19_32  and  C20_33 
REMARK   15  A    between atoms: C19_32  and  C23_38 
REMARK   16  A    between atoms: C20_33  and  C21_34 
REMARK   17  A    between atoms: C21_34  and  C22_35 
ROOT
HETATM    1  C7  UNL     1      16.316 -15.998  22.192  1.00  0.00     0.137 C 
HETATM    2  C8  UNL     1      17.723 -16.189  22.669  1.00  0.00     0.028 C 
HETATM    3  C9  UNL     1      18.360 -15.359  23.652  1.00  0.00     0.104 C 
HETATM    4  C13 UNL     1      19.794 -15.844  23.542  1.00  0.00     0.164 C 
HETATM    5  C18 UNL     1      19.711 -17.118  22.745  1.00  0.00     0.286 C 
HETATM    6  O5  UNL     1      20.739 -17.617  22.284  1.00  0.00    -0.265 OA
HETATM    7  N4  UNL     1      18.312 -17.493  22.702  1.00  0.00    -0.296 N 
HETATM    8  C19 UNL     1      17.572 -18.726  22.605  1.00  0.00     0.133 C 
HETATM    9  C24 UNL     1      16.603 -18.407  21.454  1.00  0.00     0.041 C 
HETATM   10  C25 UNL     1      15.748 -17.222  21.635  1.00  0.00     0.030 C 
HETATM   11  C26 UNL     1      15.015 -17.215  20.322  1.00  0.00    -0.037 C 
HETATM   12  C27 UNL     1      15.744 -17.040  19.061  1.00  0.00     0.015 C 
HETATM   13  C28 UNL     1      13.728 -16.430  20.399  1.00  0.00     0.015 C 
HETATM   14  C29 UNL     1      14.572 -18.711  20.316  1.00  0.00     0.003 A 
HETATM   15  C30 UNL     1      15.442 -19.667  19.580  1.00  0.00     0.016 A 
HETATM   16  C31 UNL     1      15.626 -19.462  21.115  1.00  0.00    -0.032 A 
HETATM   17  C32 UNL     1      15.073 -20.498  22.004  1.00  0.00     0.016 C 
ENDROOT
BRANCH   1  18
HETATM   18  N2  UNL     1      16.402 -14.869  21.284  1.00  0.00    -0.344 N 
HETATM   19  C6  UNL     1      15.888 -13.571  21.337  1.00  0.00     0.296 C 
HETATM   20  O3  UNL     1      15.194 -13.070  22.267  1.00  0.00    -0.264 OA
ATOM     21  H2  UNL     1      16.944 -15.061  20.441  1.00  0.00     0.163 HD
BRANCH  19  22
HETATM   22  C5  UNL     1      16.198 -12.676  20.211  1.00  0.00     0.289 C 
HETATM   23  O2  UNL     1      15.820 -11.440  20.345  1.00  0.00    -0.278 OA
BRANCH  22  24
HETATM   24  C4  UNL     1      16.840 -12.986  18.998  1.00  0.00     0.193 C 
BRANCH  24  25
HETATM   25  N1  UNL     1      18.276 -13.009  18.868  1.00  0.00    -0.364 N 
ATOM     26  H1  UNL     1      18.790 -12.129  18.830  1.00  0.00     0.162 HD
BRANCH  25  27
HETATM   27  C3  UNL     1      19.007 -14.268  18.791  1.00  0.00     0.148 C 
BRANCH  27  28
HETATM   28  C2  UNL     1      19.779 -14.464  20.063  1.00  0.00    -0.018 C 
HETATM   29  C1  UNL     1      20.229 -13.431  20.759  1.00  0.00     0.008 C 
ENDBRANCH  27  28
ENDBRANCH  25  27
ENDBRANCH  24  25
BRANCH  24  30
HETATM   30  O1  UNL     1      16.248 -13.285  17.870  1.00  0.00    -0.343 OA
ATOM     31  H1  UNL     1      15.615 -12.623  17.618  1.00  0.00     0.219 HD
ENDBRANCH  24  30
ENDBRANCH  22  24
ENDBRANCH  19  22
ENDBRANCH   1  18
BRANCH   3  32
HETATM   32  C10 UNL     1      18.014 -15.134  25.038  1.00  0.00     0.018 C 
BRANCH  32  33
HETATM   33  C11 UNL     1      17.586 -16.112  26.032  1.00  0.00    -0.004 C 
HETATM   34  C12 UNL     1      18.614 -17.078  26.556  1.00  0.00     0.005 C 
ENDBRANCH  32  33
ENDBRANCH   3  32
BRANCH   4  35
HETATM   35  N3  UNL     1      20.795 -15.360  23.968  1.00  0.00    -0.383 NA
BRANCH  35  36
HETATM   36  C14 UNL     1      21.888 -14.827  24.460  1.00  0.00     0.193 C 
BRANCH  36  37
HETATM   37  O4  UNL     1      22.920 -14.728  23.639  1.00  0.00    -0.339 OA
ATOM     38  H4  UNL     1      23.153 -15.510  23.151  1.00  0.00     0.220 HD
ENDBRANCH  36  37
BRANCH  36  39
HETATM   39  C15 UNL     1      22.167 -14.299  25.805  1.00  0.00     0.067 C 
HETATM   40  C16 UNL     1      21.178 -13.257  26.199  1.00  0.00     0.019 C 
HETATM   41  C17 UNL     1      22.004 -15.436  26.839  1.00  0.00     0.019 C 
ENDBRANCH  36  39
ENDBRANCH  35  36
ENDBRANCH   4  35
BRANCH   8  42
HETATM   42  C20 UNL     1      18.389 -19.856  22.126  1.00  0.00     0.054 C 
BRANCH  42  43
HETATM   43  C21 UNL     1      18.897 -19.967  20.753  1.00  0.00     0.116 C 
BRANCH  43  44
HETATM   44  C22 UNL     1      20.137 -20.657  20.595  1.00  0.00     0.172 C 
HETATM   45  O6  UNL     1      20.269 -21.280  19.378  1.00  0.00    -0.648 OA
HETATM   46  O7  UNL     1      21.231 -20.866  21.327  1.00  0.00    -0.648 OA
ENDBRANCH  43  44
ENDBRANCH  42  43
ENDBRANCH   8  42
BRANCH   8  47
HETATM   47  C23 UNL     1      16.828 -18.988  23.832  1.00  0.00     0.203 C 
HETATM   48  O8  UNL     1      15.838 -18.306  24.247  1.00  0.00    -0.646 OA
HETATM   49  O9  UNL     1      17.127 -20.015  24.678  1.00  0.00    -0.646 OA
ENDBRANCH   8  47
TORSDOF 17
ENDMDL
MODEL 2
REMARK VINA RESULT: -6.959562730      2.472      6.253
REMARK  17 active torsions:
REMARK  status: ('A' for Active; 'I' for Inactive)
REMARK    1  A    between atoms: C2_2  and  C3_3 
REMARK    2  A    between atoms: C3_3  and  N1_4 
REMARK    3  A    between atoms: N1_4  and  C4_6 
REMARK    4  A    between atoms: C4_6  and  O1_7 
REMARK    5  A    between atoms: C4_6  and  C5_9 
REMARK    6  A    between atoms: C5_9  and  C6_11 
REMARK       I    between atoms: C6_11  and  N2_13 
REMARK    7  A    between atoms: N2_13  and  C7_15 
REMARK    8  A    between atoms: C9_17  and  C10_18 
REMARK    9  A    between atoms: C10_18  and  C11_19 
REMARK   10  A    between atoms: C13_21  and  N3_22 
REMARK   11  A    between atoms: N3_22  and  C14_23 
REMARK   12  A    between atoms: C14_23  and  O4_24 
REMARK   13  A    between atoms: C14_23  and  C15_26 
REMARK   14  A    between atoms: C19_32  and  C20_33 
REMARK   15  A    between atoms: C19_32  and  C23_38 
REMARK   16  A    between atoms: C20_33  and  C21_34 
REMARK   17  A    between atoms: C21_34  and  C22_35 
ROOT
HETATM    1  C7  UNL     1      16.720 -16.096  21.289  1.00  0.00     0.137 C 
HETATM    2  C8  UNL     1      17.032 -16.679  22.634  1.00  0.00     0.028 C 
HETATM    3  C9  UNL     1      16.795 -18.048  22.994  1.00  0.00     0.104 C 
HETATM    4  C13 UNL     1      17.049 -17.993  24.489  1.00  0.00     0.164 C 
HETATM    5  C18 UNL     1      17.722 -16.667  24.719  1.00  0.00     0.286 C 
HETATM    6  O5  UNL     1      17.834 -16.230  25.865  1.00  0.00    -0.265 OA
HETATM    7  N4  UNL     1      18.117 -16.170  23.416  1.00  0.00    -0.296 N 
HETATM    8  C19 UNL     1      19.167 -15.325  22.904  1.00  0.00     0.133 C 
HETATM    9  C24 UNL     1      18.363 -14.324  22.056  1.00  0.00     0.041 C 
HETATM   10  C25 UNL     1      17.510 -14.903  21.004  1.00  0.00     0.030 C 
HETATM   11  C26 UNL     1      16.870 -13.656  20.459  1.00  0.00    -0.037 C 
HETATM   12  C27 UNL     1      16.014 -12.823  21.310  1.00  0.00     0.015 C 
HETATM   13  C28 UNL     1      16.333 -13.862  19.064  1.00  0.00     0.015 C 
HETATM   14  C29 UNL     1      18.171 -12.814  20.268  1.00  0.00     0.003 A 
HETATM   15  C30 UNL     1      18.539 -11.885  21.369  1.00  0.00     0.016 A 
HETATM   16  C31 UNL     1      19.152 -13.318  21.316  1.00  0.00    -0.032 A 
HETATM   17  C32 UNL     1      20.536 -13.441  20.824  1.00  0.00     0.016 C 
ENDROOT
BRANCH   1  18
HETATM   18  N2  UNL     1      15.280 -15.913  21.311  1.00  0.00    -0.344 N 
HETATM   19  C6  UNL     1      14.219 -16.702  20.858  1.00  0.00     0.296 C 
HETATM   20  O3  UNL     1      14.302 -17.832  20.298  1.00  0.00    -0.264 OA
ATOM     21  H2  UNL     1      14.985 -15.037  21.742  1.00  0.00     0.163 HD
BRANCH  19  22
HETATM   22  C5  UNL     1      12.858 -16.185  21.067  1.00  0.00     0.289 C 
HETATM   23  O2  UNL     1      11.920 -17.078  21.174  1.00  0.00    -0.278 OA
BRANCH  22  24
HETATM   24  C4  UNL     1      12.433 -14.846  21.151  1.00  0.00     0.193 C 
BRANCH  24  25
HETATM   25  N1  UNL     1      12.576 -14.065  22.356  1.00  0.00    -0.364 N 
ATOM     26  H1  UNL     1      13.206 -14.387  23.089  1.00  0.00     0.162 HD
BRANCH  25  27
HETATM   27  C3  UNL     1      11.834 -12.824  22.543  1.00  0.00     0.148 C 
BRANCH  27  28
HETATM   28  C2  UNL     1      12.788 -11.668  22.463  1.00  0.00    -0.018 C 
HETATM   29  C1  UNL     1      12.758 -10.823  21.444  1.00  0.00     0.008 C 
ENDBRANCH  27  28
ENDBRANCH  25  27
ENDBRANCH  24  25
BRANCH  24  30
HETATM   30  O1  UNL     1      11.876 -14.154  20.190  1.00  0.00    -0.343 OA
ATOM     31  H1  UNL     1      11.340 -14.701  19.628  1.00  0.00     0.219 HD
ENDBRANCH  24  30
ENDBRANCH  22  24
ENDBRANCH  19  22
ENDBRANCH   1  18
BRANCH   3  32
HETATM   32  C10 UNL     1      17.350 -19.261  22.437  1.00  0.00     0.018 C 
BRANCH  32  33
HETATM   33  C11 UNL     1      18.748 -19.675  22.388  1.00  0.00    -0.004 C 
HETATM   34  C12 UNL     1      19.438 -19.665  21.051  1.00  0.00     0.005 C 
ENDBRANCH  32  33
ENDBRANCH   3  32
BRANCH   4  35
HETATM   35  N3  UNL     1      16.789 -18.791  25.335  1.00  0.00    -0.383 NA
BRANCH  35  36
HETATM   36  C14 UNL     1      16.517 -19.686  26.254  1.00  0.00     0.193 C 
BRANCH  36  37
HETATM   37  O4  UNL     1      17.206 -19.607  27.380  1.00  0.00    -0.339 OA
ATOM     38  H4  UNL     1      17.803 -20.323  27.565  1.00  0.00     0.220 HD
ENDBRANCH  36  37
BRANCH  36  39
HETATM   39  C15 UNL     1      15.544 -20.790  26.249  1.00  0.00     0.067 C 
HETATM   40  C16 UNL     1      14.988 -21.036  27.609  1.00  0.00     0.019 C 
HETATM   41  C17 UNL     1      14.333 -20.394  25.372  1.00  0.00     0.019 C 
ENDBRANCH  36  39
ENDBRANCH  35  36
ENDBRANCH   4  35
BRANCH   8  42
HETATM   42  C20 UNL     1      19.821 -14.515  23.948  1.00  0.00     0.054 C 
BRANCH  42  43
HETATM   43  C21 UNL     1      21.278 -14.423  24.110  1.00  0.00     0.116 C 
BRANCH  43  44
HETATM   44  C22 UNL     1      21.738 -13.740  25.278  1.00  0.00     0.172 C 
HETATM   45  O6  UNL     1      23.104 -13.609  25.334  1.00  0.00    -0.648 OA
HETATM   46  O7  UNL     1      21.187 -13.180  26.354  1.00  0.00    -0.648 OA
ENDBRANCH  43  44
ENDBRANCH  42  43
ENDBRANCH   8  42
BRANCH   8  47
HETATM   47  C23 UNL     1      20.082 -16.082  22.057  1.00  0.00     0.203 C 
HETATM   48  O8  UNL     1      20.055 -16.102  20.785  1.00  0.00    -0.646 OA
HETATM   49  O9  UNL     1      21.081 -16.864  22.555  1.00  0.00    -0.646 OA
ENDBRANCH   8  47
TORSDOF 17
ENDMDL
MODEL 3
REMARK VINA RESULT: -6.689607157      0.777      1.090
REMARK  17 active torsions:
REMARK  status: ('A' for Active; 'I' for Inactive)
REMARK    1  A    between atoms: C2_2  and  C3_3 
REMARK    2  A    between atoms: C3_3  and  N1_4 
REMARK    3  A    between atoms: N1_4  and  C4_6 
REMARK    4  A    between atoms: C4_6  and  O1_7 
REMARK    5  A    between atoms: C4_6  and  C5_9 
REMARK    6  A    between atoms: C5_9  and  C6_11 
REMARK       I    between atoms: C6_11  and  N2_13 
REMARK    7  A    between atoms: N2_13  and  C7_15 
REMARK    8  A    between atoms: C9_17  and  C10_18 
REMARK    9  A    between atoms: C10_18  and  C11_19 
REMARK   10  A    between atoms: C13_21  and  N3_22 
REMARK   11  A    between atoms: N3_22  and  C14_23 
REMARK   12  A    between atoms: C14_23  and  O4_24 
REMARK   13  A    between atoms: C14_23  and  C15_26 
REMARK   14  A    between atoms: C19_32  and  C20_33 
REMARK   15  A    between atoms: C19_32  and  C23_38 
REMARK   16  A    between atoms: C20_33  and  C21_34 
REMARK   17  A    between atoms: C21_34  and  C22_35 
ROOT
HETATM    1  C7  UNL     1      16.215 -16.134  22.420  1.00  0.00     0.137 C 
HETATM    2  C8  UNL     1      17.645 -16.281  22.844  1.00  0.00     0.028 C 
HETATM    3  C9  UNL     1      18.272 -15.477  23.854  1.00  0.00     0.104 C 
HETATM    4  C13 UNL     1      19.724 -15.882  23.674  1.00  0.00     0.164 C 
HETATM    5  C18 UNL     1      19.677 -17.112  22.807  1.00  0.00     0.286 C 
HETATM    6  O5  UNL     1      20.712 -17.533  22.289  1.00  0.00    -0.265 OA
HETATM    7  N4  UNL     1      18.297 -17.553  22.785  1.00  0.00    -0.296 N 
HETATM    8  C19 UNL     1      17.614 -18.814  22.639  1.00  0.00     0.133 C 
HETATM    9  C24 UNL     1      16.594 -18.480  21.537  1.00  0.00     0.041 C 
HETATM   10  C25 UNL     1      15.689 -17.351  21.811  1.00  0.00     0.030 C 
HETATM   11  C26 UNL     1      14.915 -17.307  20.523  1.00  0.00    -0.037 C 
HETATM   12  C27 UNL     1      15.593 -17.026  19.254  1.00  0.00     0.015 C 
HETATM   13  C28 UNL     1      13.595 -16.592  20.683  1.00  0.00     0.015 C 
HETATM   14  C29 UNL     1      14.544 -18.821  20.444  1.00  0.00     0.003 A 
HETATM   15  C30 UNL     1      15.434 -19.689  19.629  1.00  0.00     0.016 A 
HETATM   16  C31 UNL     1      15.659 -19.562  21.167  1.00  0.00    -0.032 A 
HETATM   17  C32 UNL     1      15.185 -20.672  22.011  1.00  0.00     0.016 C 
ENDROOT
BRANCH   1  18
HETATM   18  N2  UNL     1      16.218 -14.953  21.577  1.00  0.00    -0.344 N 
HETATM   19  C6  UNL     1      15.443 -13.790  21.575  1.00  0.00     0.296 C 
HETATM   20  O3  UNL     1      14.511 -13.501  22.378  1.00  0.00    -0.264 OA
ATOM     21  H2  UNL     1      16.924 -14.976  20.841  1.00  0.00     0.163 HD
BRANCH  19  22
HETATM   22  C5  UNL     1      15.748 -12.779  20.550  1.00  0.00     0.289 C 
HETATM   23  O2  UNL     1      14.722 -12.240  19.960  1.00  0.00    -0.278 OA
BRANCH  22  24
HETATM   24  C4  UNL     1      17.006 -12.327  20.112  1.00  0.00     0.193 C 
BRANCH  24  25
HETATM   25  N1  UNL     1      17.499 -12.590  18.782  1.00  0.00    -0.364 N 
ATOM     26  H1  UNL     1      17.626 -11.814  18.133  1.00  0.00     0.162 HD
BRANCH  25  27
HETATM   27  C3  UNL     1      17.820 -13.945  18.349  1.00  0.00     0.148 C 
BRANCH  27  28
HETATM   28  C2  UNL     1      19.225 -14.271  18.763  1.00  0.00    -0.018 C 
HETATM   29  C1  UNL     1      19.472 -15.169  19.705  1.00  0.00     0.008 C 
ENDBRANCH  27  28
ENDBRANCH  25  27
ENDBRANCH  24  25
BRANCH  24  30
HETATM   30  O1  UNL     1      17.864 -11.637  20.818  1.00  0.00    -0.343 OA
ATOM     31  H1  UNL     1      18.459 -12.201  21.298  1.00  0.00     0.219 HD
ENDBRANCH  24  30
ENDBRANCH  22  24
ENDBRANCH  19  22
ENDBRANCH   1  18
BRANCH   3  32
HETATM   32  C10 UNL     1      17.961 -15.347  25.260  1.00  0.00     0.018 C 
BRANCH  32  33
HETATM   33  C11 UNL     1      17.604 -16.398  26.206  1.00  0.00    -0.004 C 
HETATM   34  C12 UNL     1      18.676 -17.370  26.615  1.00  0.00     0.005 C 
ENDBRANCH  32  33
ENDBRANCH   3  32
BRANCH   4  35
HETATM   35  N3  UNL     1      20.715 -15.374  24.097  1.00  0.00    -0.383 NA
BRANCH  35  36
HETATM   36  C14 UNL     1      21.798 -14.820  24.586  1.00  0.00     0.193 C 
BRANCH  36  37
HETATM   37  O4  UNL     1      22.785 -14.595  23.735  1.00  0.00    -0.339 OA
ATOM     38  H4  UNL     1      23.260 -15.357  23.422  1.00  0.00     0.220 HD
ENDBRANCH  36  37
BRANCH  36  39
HETATM   39  C15 UNL     1      22.110 -14.389  25.958  1.00  0.00     0.067 C 
HETATM   40  C16 UNL     1      21.143 -13.365  26.443  1.00  0.00     0.019 C 
HETATM   41  C17 UNL     1      21.953 -15.592  26.916  1.00  0.00     0.019 C 
ENDBRANCH  36  39
ENDBRANCH  35  36
ENDBRANCH   4  35
BRANCH   8  42
HETATM   42  C20 UNL     1      18.469 -19.874  22.072  1.00  0.00     0.054 C 
BRANCH  42  43
HETATM   43  C21 UNL     1      18.948 -19.874  20.684  1.00  0.00     0.116 C 
BRANCH  43  44
HETATM   44  C22 UNL     1      19.050 -21.153  20.055  1.00  0.00     0.172 C 
HETATM   45  O6  UNL     1      20.240 -21.348  19.397  1.00  0.00    -0.648 OA
HETATM   46  O7  UNL     1      18.285 -22.237  19.931  1.00  0.00    -0.648 OA
ENDBRANCH  43  44
ENDBRANCH  42  43
ENDBRANCH   8  42
BRANCH   8  47
HETATM   47  C23 UNL     1      16.923 -19.182  23.870  1.00  0.00     0.203 C 
HETATM   48  O8  UNL     1      17.255 -20.141  24.637  1.00  0.00    -0.646 OA
HETATM   49  O9  UNL     1      15.825 -18.519  24.332  1.00  0.00    -0.646 OA
ENDBRANCH   8  47
TORSDOF 17
ENDMDL
MODEL 4
REMARK VINA RESULT: -6.681708441      1.676      2.599
REMARK  17 active torsions:
REMARK  status: ('A' for Active; 'I' for Inactive)
REMARK    1  A    between atoms: C2_2  and  C3_3 
REMARK    2  A    between atoms: C3_3  and  N1_4 
REMARK    3  A    between atoms: N1_4  and  C4_6 
REMARK    4  A    between atoms: C4_6  and  O1_7 
REMARK    5  A    between atoms: C4_6  and  C5_9 
REMARK    6  A    between atoms: C5_9  and  C6_11 
REMARK       I    between atoms: C6_11  and  N2_13 
REMARK    7  A    between atoms: N2_13  and  C7_15 
REMARK    8  A    between atoms: C9_17  and  C10_18 
REMARK    9  A    between atoms: C10_18  and  C11_19 
REMARK   10  A    between atoms: C13_21  and  N3_22 
REMARK   11  A    between atoms: N3_22  and  C14_23 
REMARK   12  A    between atoms: C14_23  and  O4_24 
REMARK   13  A    between atoms: C14_23  and  C15_26 
REMARK   14  A    between atoms: C19_32  and  C20_33 
REMARK   15  A    between atoms: C19_32  and  C23_38 
REMARK   16  A    between atoms: C20_33  and  C21_34 
REMARK   17  A    between atoms: C21_34  and  C22_35 
ROOT
HETATM    1  C7  UNL     1      15.936 -16.011  22.517  1.00  0.00     0.137 C 
HETATM    2  C8  UNL     1      17.417 -16.077  22.738  1.00  0.00     0.028 C 
HETATM    3  C9  UNL     1      18.098 -15.441  23.830  1.00  0.00     0.104 C 
HETATM    4  C13 UNL     1      19.543 -15.626  23.404  1.00  0.00     0.164 C 
HETATM    5  C18 UNL     1      19.492 -16.638  22.291  1.00  0.00     0.286 C 
HETATM    6  O5  UNL     1      20.483 -16.813  21.580  1.00  0.00    -0.265 OA
HETATM    7  N4  UNL     1      18.166 -17.222  22.320  1.00  0.00    -0.296 N 
HETATM    8  C19 UNL     1      17.586 -18.493  21.966  1.00  0.00     0.133 C 
HETATM    9  C24 UNL     1      16.403 -18.052  21.087  1.00  0.00     0.041 C 
HETATM   10  C25 UNL     1      15.445 -17.122  21.709  1.00  0.00     0.030 C 
HETATM   11  C26 UNL     1      14.506 -16.893  20.557  1.00  0.00    -0.037 C 
HETATM   12  C27 UNL     1      14.982 -16.269  19.318  1.00  0.00     0.015 C 
HETATM   13  C28 UNL     1      13.160 -16.389  21.019  1.00  0.00     0.015 C 
HETATM   14  C29 UNL     1      14.266 -18.387  20.177  1.00  0.00     0.003 A 
HETATM   15  C30 UNL     1      15.114 -18.951  19.093  1.00  0.00     0.016 A 
HETATM   16  C31 UNL     1      15.528 -19.131  20.586  1.00  0.00    -0.032 A 
HETATM   17  C32 UNL     1      15.272 -20.445  21.201  1.00  0.00     0.016 C 
ENDROOT
BRANCH   1  18
HETATM   18  N2  UNL     1      15.721 -14.684  21.970  1.00  0.00    -0.344 N 
HETATM   19  C6  UNL     1      16.462 -13.893  21.088  1.00  0.00     0.296 C 
HETATM   20  O3  UNL     1      17.556 -14.200  20.535  1.00  0.00    -0.264 OA
ATOM     21  H2  UNL     1      14.860 -14.242  22.292  1.00  0.00     0.163 HD
BRANCH  19  22
HETATM   22  C5  UNL     1      15.912 -12.573  20.742  1.00  0.00     0.289 C 
HETATM   23  O2  UNL     1      16.783 -11.652  20.453  1.00  0.00    -0.278 OA
BRANCH  22  24
HETATM   24  C4  UNL     1      14.565 -12.170  20.696  1.00  0.00     0.193 C 
BRANCH  24  25
HETATM   25  N1  UNL     1      14.155 -10.816  20.977  1.00  0.00    -0.364 N 
ATOM     26  H1  UNL     1      14.838 -10.062  20.909  1.00  0.00     0.162 HD
BRANCH  25  27
HETATM   27  C3  UNL     1      12.781 -10.506  21.356  1.00  0.00     0.148 C 
BRANCH  27  28
HETATM   28  C2  UNL     1      12.668 -10.539  22.852  1.00  0.00    -0.018 C 
HETATM   29  C1  UNL     1      11.849 -11.383  23.460  1.00  0.00     0.008 C 
ENDBRANCH  27  28
ENDBRANCH  25  27
ENDBRANCH  24  25
BRANCH  24  30
HETATM   30  O1  UNL     1      13.543 -12.934  20.405  1.00  0.00    -0.343 OA
ATOM     31  H1  UNL     1      13.799 -13.845  20.319  1.00  0.00     0.219 HD
ENDBRANCH  24  30
ENDBRANCH  22  24
ENDBRANCH  19  22
ENDBRANCH   1  18
BRANCH   3  32
HETATM   32  C10 UNL     1      17.965 -15.653  25.254  1.00  0.00     0.018 C 
BRANCH  32  33
HETATM   33  C11 UNL     1      17.760 -16.911  25.963  1.00  0.00    -0.004 C 
HETATM   34  C12 UNL     1      18.973 -17.731  26.306  1.00  0.00     0.005 C 
ENDBRANCH  32  33
ENDBRANCH   3  32
BRANCH   4  35
HETATM   35  N3  UNL     1      20.531 -15.108  23.821  1.00  0.00    -0.383 NA
BRANCH  35  36
HETATM   36  C14 UNL     1      21.625 -14.558  24.292  1.00  0.00     0.193 C 
BRANCH  36  37
HETATM   37  O4  UNL     1      22.554 -14.234  23.409  1.00  0.00    -0.339 OA
ATOM     38  H4  UNL     1      23.333 -13.808  23.747  1.00  0.00     0.220 HD
ENDBRANCH  36  37
BRANCH  36  39
HETATM   39  C15 UNL     1      22.003 -14.226  25.675  1.00  0.00     0.067 C 
HETATM   40  C16 UNL     1      21.001 -13.327  26.315  1.00  0.00     0.019 C 
HETATM   41  C17 UNL     1      22.002 -15.517  26.526  1.00  0.00     0.019 C 
ENDBRANCH  36  39
ENDBRANCH  35  36
ENDBRANCH   4  35
BRANCH   8  42
HETATM   42  C20 UNL     1      18.450 -19.299  21.083  1.00  0.00     0.054 C 
BRANCH  42  43
HETATM   43  C21 UNL     1      19.533 -20.161  21.574  1.00  0.00     0.116 C 
BRANCH  43  44
HETATM   44  C22 UNL     1      20.696 -20.240  20.747  1.00  0.00     0.172 C 
HETATM   45  O6  UNL     1      20.606 -21.192  19.761  1.00  0.00    -0.648 OA
HETATM   46  O7  UNL     1      21.875 -19.624  20.671  1.00  0.00    -0.648 OA
ENDBRANCH  43  44
ENDBRANCH  42  43
ENDBRANCH   8  42
BRANCH   8  47
HETATM   47  C23 UNL     1      17.101 -19.195  23.150  1.00  0.00     0.203 C 
HETATM   48  O8  UNL     1      17.630 -20.237  23.652  1.00  0.00    -0.646 OA
HETATM   49  O9  UNL     1      16.003 -18.795  23.852  1.00  0.00    -0.646 OA
ENDBRANCH   8  47
TORSDOF 17
ENDMDL
MODEL 5
REMARK VINA RESULT: -6.662177040      1.452      2.363
REMARK  17 active torsions:
REMARK  status: ('A' for Active; 'I' for Inactive)
REMARK    1  A    between atoms: C2_2  and  C3_3 
REMARK    2  A    between atoms: C3_3  and  N1_4 
REMARK    3  A    between atoms: N1_4  and  C4_6 
REMARK    4  A    between atoms: C4_6  and  O1_7 
REMARK    5  A    between atoms: C4_6  and  C5_9 
REMARK    6  A    between atoms: C5_9  and  C6_11 
REMARK       I    between atoms: C6_11  and  N2_13 
REMARK    7  A    between atoms: N2_13  and  C7_15 
REMARK    8  A    between atoms: C9_17  and  C10_18 
REMARK    9  A    between atoms: C10_18  and  C11_19 
REMARK   10  A    between atoms: C13_21  and  N3_22 
REMARK   11  A    between atoms: N3_22  and  C14_23 
REMARK   12  A    between atoms: C14_23  and  O4_24 
REMARK   13  A    between atoms: C14_23  and  C15_26 
REMARK   14  A    between atoms: C19_32  and  C20_33 
REMARK   15  A    between atoms: C19_32  and  C23_38 
REMARK   16  A    between atoms: C20_33  and  C21_34 
REMARK   17  A    between atoms: C21_34  and  C22_35 
ROOT
HETATM    1  C7  UNL     1      16.146 -16.060  22.354  1.00  0.00     0.137 C 
HETATM    2  C8  UNL     1      17.584 -16.190  22.755  1.00  0.00     0.028 C 
HETATM    3  C9  UNL     1      18.222 -15.365  23.741  1.00  0.00     0.104 C 
HETATM    4  C13 UNL     1      19.674 -15.761  23.541  1.00  0.00     0.164 C 
HETATM    5  C18 UNL     1      19.622 -17.005  22.696  1.00  0.00     0.286 C 
HETATM    6  O5  UNL     1      20.650 -17.427  22.165  1.00  0.00    -0.265 OA
HETATM    7  N4  UNL     1      18.245 -17.457  22.704  1.00  0.00    -0.296 N 
HETATM    8  C19 UNL     1      17.570 -18.726  22.590  1.00  0.00     0.133 C 
HETATM    9  C24 UNL     1      16.528 -18.418  21.501  1.00  0.00     0.041 C 
HETATM   10  C25 UNL     1      15.619 -17.291  21.774  1.00  0.00     0.030 C 
HETATM   11  C26 UNL     1      14.822 -17.273  20.499  1.00  0.00    -0.037 C 
HETATM   12  C27 UNL     1      15.476 -17.008  19.213  1.00  0.00     0.015 C 
HETATM   13  C28 UNL     1      13.499 -16.567  20.671  1.00  0.00     0.015 C 
HETATM   14  C29 UNL     1      14.462 -18.791  20.450  1.00  0.00     0.003 A 
HETATM   15  C30 UNL     1      15.345 -19.666  19.633  1.00  0.00     0.016 A 
HETATM   16  C31 UNL     1      15.595 -19.512  21.165  1.00  0.00    -0.032 A 
HETATM   17  C32 UNL     1      15.145 -20.613  22.035  1.00  0.00     0.016 C 
ENDROOT
BRANCH   1  18
HETATM   18  N2  UNL     1      16.124 -14.893  21.492  1.00  0.00    -0.344 N 
HETATM   19  C6  UNL     1      15.454 -13.669  21.573  1.00  0.00     0.296 C 
HETATM   20  O3  UNL     1      14.673 -13.295  22.492  1.00  0.00    -0.264 OA
ATOM     21  H2  UNL     1      16.714 -14.983  20.664  1.00  0.00     0.163 HD
BRANCH  19  22
HETATM   22  C5  UNL     1      15.691 -12.699  20.493  1.00  0.00     0.289 C 
HETATM   23  O2  UNL     1      16.863 -12.138  20.478  1.00  0.00    -0.278 OA
BRANCH  22  24
HETATM   24  C4  UNL     1      14.807 -12.284  19.480  1.00  0.00     0.193 C 
BRANCH  24  25
HETATM   25  N1  UNL     1      13.483 -11.787  19.767  1.00  0.00    -0.364 N 
ATOM     26  H1  UNL     1      12.681 -12.192  19.285  1.00  0.00     0.162 HD
BRANCH  25  27
HETATM   27  C3  UNL     1      13.273 -10.715  20.733  1.00  0.00     0.148 C 
BRANCH  27  28
HETATM   28  C2  UNL     1      12.125 -11.082  21.627  1.00  0.00    -0.018 C 
HETATM   29  C1  UNL     1      12.111 -10.732  22.905  1.00  0.00     0.008 C 
ENDBRANCH  27  28
ENDBRANCH  25  27
ENDBRANCH  24  25
BRANCH  24  30
HETATM   30  O1  UNL     1      15.053 -12.289  18.194  1.00  0.00    -0.343 OA
ATOM     31  H1  UNL     1      15.866 -12.737  17.994  1.00  0.00     0.219 HD
ENDBRANCH  24  30
ENDBRANCH  22  24
ENDBRANCH  19  22
ENDBRANCH   1  18
BRANCH   3  32
HETATM   32  C10 UNL     1      17.935 -15.215  25.150  1.00  0.00     0.018 C 
BRANCH  32  33
HETATM   33  C11 UNL     1      17.585 -16.251  26.115  1.00  0.00    -0.004 C 
HETATM   34  C12 UNL     1      18.665 -17.209  26.540  1.00  0.00     0.005 C 
ENDBRANCH  32  33
ENDBRANCH   3  32
BRANCH   4  35
HETATM   35  N3  UNL     1      20.667 -15.239  23.939  1.00  0.00    -0.383 NA
BRANCH  35  36
HETATM   36  C14 UNL     1      21.757 -14.673  24.399  1.00  0.00     0.193 C 
BRANCH  36  37
HETATM   37  O4  UNL     1      22.738 -14.484  23.533  1.00  0.00    -0.339 OA
ATOM     38  H4  UNL     1      23.480 -13.972  23.835  1.00  0.00     0.220 HD
ENDBRANCH  36  37
BRANCH  36  39
HETATM   39  C15 UNL     1      22.080 -14.192  25.752  1.00  0.00     0.067 C 
HETATM   40  C16 UNL     1      21.080 -13.199  26.234  1.00  0.00     0.019 C 
HETATM   41  C17 UNL     1      21.999 -15.375  26.744  1.00  0.00     0.019 C 
ENDBRANCH  36  39
ENDBRANCH  35  36
ENDBRANCH   4  35
BRANCH   8  42
HETATM   42  C20 UNL     1      18.423 -19.788  22.025  1.00  0.00     0.054 C 
BRANCH  42  43
HETATM   43  C21 UNL     1      18.845 -19.828  20.619  1.00  0.00     0.116 C 
BRANCH  43  44
HETATM   44  C22 UNL     1      18.906 -21.123  20.019  1.00  0.00     0.172 C 
HETATM   45  O6  UNL     1      20.053 -21.339  19.295  1.00  0.00    -0.648 OA
HETATM   46  O7  UNL     1      18.133 -22.207  19.970  1.00  0.00    -0.648 OA
ENDBRANCH  43  44
ENDBRANCH  42  43
ENDBRANCH   8  42
BRANCH   8  47
HETATM   47  C23 UNL     1      16.903 -19.079  23.839  1.00  0.00     0.203 C 
HETATM   48  O8  UNL     1      15.896 -18.475  24.327  1.00  0.00    -0.646 OA
HETATM   49  O9  UNL     1      17.304 -20.116  24.628  1.00  0.00    -0.646 OA
ENDBRANCH   8  47
TORSDOF 17
ENDMDL
