MODEL 1
REMARK VINA RESULT: -8.366196042      0.000      0.000
REMARK  22 active torsions:
REMARK  status: ('A' for Active; 'I' for Inactive)
REMARK    1  A    between atoms: C5_7  and  C6_8 
REMARK    2  A    between atoms: C6_8  and  C7_9 
REMARK    3  A    between atoms: C6_8  and  N5_17 
REMARK    4  A    between atoms: C7_9  and  N2_10 
REMARK    5  A    between atoms: N2_10  and  N3_12 
REMARK    6  A    between atoms: N5_17  and  C8_19 
REMARK    7  A    between atoms: C8_19  and  C9_20 
REMARK       I    between atoms: C9_20  and  N6_22 
REMARK    8  A    between atoms: N6_22  and  C10_24 
REMARK    9  A    between atoms: C10_24  and  C11_25 
REMARK   10  A    between atoms: C11_25  and  C12_26 
REMARK   11  A    between atoms: C12_26  and  N7_27 
REMARK   12  A    between atoms: N7_27  and  N8_28 
REMARK       I    between atoms: N7_27  and  C22_40 
REMARK       I    between atoms: N8_28  and  C13_30 
REMARK   13  A    between atoms: C13_30  and  C14_32 
REMARK   14  A    between atoms: C14_32  and  C15_33 
REMARK   15  A    between atoms: C15_33  and  C16_34 
REMARK   16  A    between atoms: C22_40  and  C23_42 
REMARK   17  A    between atoms: C23_42  and  C24_43 
REMARK   18  A    between atoms: C24_43  and  C25_44 
REMARK   19  A    between atoms: C25_44  and  C26_45 
REMARK   20  A    between atoms: C26_45  and  C27_46 
REMARK   21  A    between atoms: C27_46  and  C28_47 
REMARK   22  A    between atoms: C28_47  and  N9_48 
REMARK       I    between atoms: N9_48  and  C29_50 
ROOT
HETATM    1  N7  UNL     1      42.913  18.947  64.224  1.00  0.00    -0.259 N 
HETATM    2  C22 UNL     1      42.210  20.108  64.728  1.00  0.00     0.238 C 
HETATM    3  O3  UNL     1      41.083  19.918  65.234  1.00  0.00    -0.272 OA
ENDROOT
BRANCH   1   4
HETATM    4  C12 UNL     1      42.258  17.645  64.405  1.00  0.00     0.154 C 
BRANCH   4   5
HETATM    5  C11 UNL     1      41.820  17.016  63.106  1.00  0.00     0.041 C 
BRANCH   5   6
HETATM    6  C10 UNL     1      40.389  17.301  62.799  1.00  0.00     0.124 C 
BRANCH   6   7
HETATM    7  N6  UNL     1      39.607  17.342  64.006  1.00  0.00    -0.360 N 
HETATM    8  C9  UNL     1      38.952  16.191  64.459  1.00  0.00     0.235 C 
HETATM    9  O1  UNL     1      39.076  15.127  63.756  1.00  0.00    -0.272 OA
ATOM     10  H6  UNL     1      39.529  18.213  64.533  1.00  0.00     0.162 HD
BRANCH   8  11
HETATM   11  C8  UNL     1      38.119  16.048  65.672  1.00  0.00     0.222 C 
BRANCH  11  12
HETATM   12  N5  UNL     1      37.313  17.198  65.890  1.00  0.00    -0.382 N 
ATOM     13  H5  UNL     1      36.699  17.497  65.133  1.00  0.00     0.160 HD
BRANCH  12  14
HETATM   14  C6  UNL     1      37.300  17.982  67.123  1.00  0.00     0.037 C 
BRANCH  14  15
HETATM   15  C5  UNL     1      36.631  17.512  68.137  1.00  0.00     0.015 A 
HETATM   16  C2  UNL     1      36.965  16.760  69.223  1.00  0.00     0.034 A 
HETATM   17  C1  UNL     1      38.115  16.245  69.524  1.00  0.00     0.044 C 
HETATM   18  N1  UNL     1      35.855  16.583  70.009  1.00  0.00    -0.366 N 
HETATM   19  C3  UNL     1      34.813  17.203  69.456  1.00  0.00     0.089 A 
ATOM     20  H1  UNL     1      35.830  16.058  70.883  1.00  0.00     0.165 HD
HETATM   21  C4  UNL     1      35.260  17.786  68.297  1.00  0.00     0.032 A 
ENDBRANCH  14  15
BRANCH  14  22
HETATM   22  C7  UNL     1      38.107  19.208  67.006  1.00  0.00     0.198 C 
BRANCH  22  23
HETATM   23  N2  UNL     1      39.386  19.147  67.683  1.00  0.00    -0.317 N 
ATOM     24  H2  UNL     1      39.604  19.878  68.360  1.00  0.00     0.182 HD
BRANCH  23  25
HETATM   25  N3  UNL     1      40.342  18.148  67.466  1.00  0.00    -0.254 N 
HETATM   26  N4  UNL     1      41.517  18.232  67.939  1.00  0.00    -0.331 N 
ATOM     27  H42 UNL     1      41.755  19.057  68.490  1.00  0.00     0.178 HD
ATOM     28  H41 UNL     1      42.214  17.504  67.782  1.00  0.00     0.178 HD
ATOM     29  H3  UNL     1      40.088  17.330  66.913  1.00  0.00     0.207 HD
ENDBRANCH  23  25
ENDBRANCH  22  23
ENDBRANCH  14  22
ENDBRANCH  12  14
ENDBRANCH  11  12
ENDBRANCH   8  11
ENDBRANCH   6   7
ENDBRANCH   5   6
ENDBRANCH   4   5
ENDBRANCH   1   4
BRANCH   1  30
HETATM   30  N8  UNL     1      44.123  19.149  63.605  1.00  0.00    -0.265 N 
HETATM   31  C13 UNL     1      45.429  19.197  64.199  1.00  0.00     0.236 C 
HETATM   32  O2  UNL     1      45.515  19.039  65.419  1.00  0.00    -0.272 OA
ATOM     33  H8  UNL     1      44.089  19.283  62.595  1.00  0.00     0.190 HD
BRANCH  31  34
HETATM   34  C14 UNL     1      46.602  19.431  63.330  1.00  0.00     0.109 C 
BRANCH  34  35
HETATM   35  C15 UNL     1      46.280  19.899  61.973  1.00  0.00     0.048 C 
BRANCH  35  36
HETATM   36  C16 UNL     1      46.703  21.269  61.611  1.00  0.00    -0.058 A 
HETATM   37  C17 UNL     1      47.960  21.713  61.859  1.00  0.00     0.007 A 
HETATM   38  C18 UNL     1      48.324  22.990  61.467  1.00  0.00     0.001 A 
HETATM   39  C19 UNL     1      47.452  23.850  60.828  1.00  0.00     0.000 A 
HETATM   40  C20 UNL     1      46.194  23.390  60.587  1.00  0.00     0.001 A 
HETATM   41  C21 UNL     1      45.811  22.117  60.968  1.00  0.00     0.007 A 
ENDBRANCH  35  36
ENDBRANCH  34  35
ENDBRANCH  31  34
ENDBRANCH   1  30
BRANCH   2  42
HETATM   42  C23 UNL     1      42.808  21.432  64.650  1.00  0.00     0.105 C 
BRANCH  42  43
HETATM   43  C24 UNL     1      42.791  22.064  66.045  1.00  0.00     0.009 C 
BRANCH  43  44
HETATM   44  C25 UNL     1      44.182  22.058  66.582  1.00  0.00     0.001 C 
BRANCH  44  45
HETATM   45  C26 UNL     1      45.073  23.055  65.865  1.00  0.00     0.002 C 
BRANCH  45  46
HETATM   46  C27 UNL     1      46.376  22.386  65.447  1.00  0.00     0.020 C 
BRANCH  46  47
HETATM   47  C28 UNL     1      47.388  23.480  65.172  1.00  0.00     0.122 C 
BRANCH  47  48
HETATM   48  N9  UNL     1      47.136  24.670  65.918  1.00  0.00    -0.365 N 
HETATM   49  C29 UNL     1      48.024  25.127  66.896  1.00  0.00     0.181 C 
HETATM   50  N10 UNL     1      48.821  26.112  66.686  1.00  0.00    -0.374 N 
HETATM   51  N11 UNL     1      48.042  24.488  68.171  1.00  0.00    -0.064 NA
ATOM     52 2H10 UNL     1      48.807  26.568  65.774  1.00  0.00     0.158 HD
ATOM     53 1H10 UNL     1      49.468  26.445  67.400  1.00  0.00     0.158 HD
ATOM     54  H9  UNL     1      46.285  25.201  65.733  1.00  0.00     0.162 HD
ENDBRANCH  47  48
ENDBRANCH  46  47
ENDBRANCH  45  46
ENDBRANCH  44  45
ENDBRANCH  43  44
ENDBRANCH  42  43
ENDBRANCH   2  42
TORSDOF 22
ENDMDL
MODEL 2
REMARK VINA RESULT: -8.296385640      2.682     10.748
REMARK  22 active torsions:
REMARK  status: ('A' for Active; 'I' for Inactive)
REMARK    1  A    between atoms: C5_7  and  C6_8 
REMARK    2  A    between atoms: C6_8  and  C7_9 
REMARK    3  A    between atoms: C6_8  and  N5_17 
REMARK    4  A    between atoms: C7_9  and  N2_10 
REMARK    5  A    between atoms: N2_10  and  N3_12 
REMARK    6  A    between atoms: N5_17  and  C8_19 
REMARK    7  A    between atoms: C8_19  and  C9_20 
REMARK       I    between atoms: C9_20  and  N6_22 
REMARK    8  A    between atoms: N6_22  and  C10_24 
REMARK    9  A    between atoms: C10_24  and  C11_25 
REMARK   10  A    between atoms: C11_25  and  C12_26 
REMARK   11  A    between atoms: C12_26  and  N7_27 
REMARK   12  A    between atoms: N7_27  and  N8_28 
REMARK       I    between atoms: N7_27  and  C22_40 
REMARK       I    between atoms: N8_28  and  C13_30 
REMARK   13  A    between atoms: C13_30  and  C14_32 
REMARK   14  A    between atoms: C14_32  and  C15_33 
REMARK   15  A    between atoms: C15_33  and  C16_34 
REMARK   16  A    between atoms: C22_40  and  C23_42 
REMARK   17  A    between atoms: C23_42  and  C24_43 
REMARK   18  A    between atoms: C24_43  and  C25_44 
REMARK   19  A    between atoms: C25_44  and  C26_45 
REMARK   20  A    between atoms: C26_45  and  C27_46 
REMARK   21  A    between atoms: C27_46  and  C28_47 
REMARK   22  A    between atoms: C28_47  and  N9_48 
REMARK       I    between atoms: N9_48  and  C29_50 
ROOT
HETATM    1  N7  UNL     1      40.540  19.518  65.821  1.00  0.00    -0.259 N 
HETATM    2  C22 UNL     1      39.563  18.760  66.574  1.00  0.00     0.238 C 
HETATM    3  O3  UNL     1      39.351  19.115  67.754  1.00  0.00    -0.272 OA
ENDROOT
BRANCH   1   4
HETATM    4  C12 UNL     1      41.152  20.669  66.498  1.00  0.00     0.154 C 
BRANCH   4   5
HETATM    5  C11 UNL     1      42.196  21.362  65.660  1.00  0.00     0.041 C 
BRANCH   5   6
HETATM    6  C10 UNL     1      43.160  22.137  66.492  1.00  0.00     0.124 C 
BRANCH   6   7
HETATM    7  N6  UNL     1      44.184  22.728  65.671  1.00  0.00    -0.360 N 
HETATM    8  C9  UNL     1      45.492  22.232  65.713  1.00  0.00     0.235 C 
HETATM    9  O1  UNL     1      45.726  21.254  66.508  1.00  0.00    -0.272 OA
ATOM     10  H6  UNL     1      43.955  23.510  65.057  1.00  0.00     0.162 HD
BRANCH   8  11
HETATM   11  C8  UNL     1      46.660  22.705  64.940  1.00  0.00     0.222 C 
BRANCH  11  12
HETATM   12  N5  UNL     1      47.280  21.642  64.229  1.00  0.00    -0.382 N 
ATOM     13  H5  UNL     1      48.093  21.198  64.655  1.00  0.00     0.160 HD
BRANCH  12  14
HETATM   14  C6  UNL     1      46.837  21.141  62.930  1.00  0.00     0.037 C 
BRANCH  14  15
HETATM   15  C5  UNL     1      46.713  21.997  61.956  1.00  0.00     0.015 A 
HETATM   16  C2  UNL     1      45.846  22.123  60.913  1.00  0.00     0.034 A 
HETATM   17  C1  UNL     1      44.874  21.337  60.574  1.00  0.00     0.044 C 
HETATM   18  N1  UNL     1      46.158  23.253  60.201  1.00  0.00    -0.366 N 
HETATM   19  C3  UNL     1      47.205  23.858  60.759  1.00  0.00     0.089 A 
ATOM     20  H1  UNL     1      45.664  23.580  59.371  1.00  0.00     0.165 HD
HETATM   21  C4  UNL     1      47.573  23.107  61.847  1.00  0.00     0.032 A 
ENDBRANCH  14  15
BRANCH  14  22
HETATM   22  C7  UNL     1      46.624  19.684  62.944  1.00  0.00     0.198 C 
BRANCH  22  23
HETATM   23  N2  UNL     1      46.361  19.133  64.257  1.00  0.00    -0.317 N 
ATOM     24  H2  UNL     1      47.160  18.877  64.837  1.00  0.00     0.182 HD
BRANCH  23  25
HETATM   25  N3  UNL     1      45.079  18.928  64.781  1.00  0.00    -0.254 N 
HETATM   26  N4  UNL     1      44.898  18.537  65.975  1.00  0.00    -0.331 N 
ATOM     27  H42 UNL     1      45.720  18.372  66.555  1.00  0.00     0.178 HD
ATOM     28  H41 UNL     1      43.964  18.389  66.356  1.00  0.00     0.178 HD
ATOM     29  H3  UNL     1      44.268  19.099  64.186  1.00  0.00     0.207 HD
ENDBRANCH  23  25
ENDBRANCH  22  23
ENDBRANCH  14  22
ENDBRANCH  12  14
ENDBRANCH  11  12
ENDBRANCH   8  11
ENDBRANCH   6   7
ENDBRANCH   5   6
ENDBRANCH   4   5
ENDBRANCH   1   4
BRANCH   1  30
HETATM   30  N8  UNL     1      40.831  19.099  64.546  1.00  0.00    -0.265 N 
HETATM   31  C13 UNL     1      41.739  18.066  64.134  1.00  0.00     0.236 C 
HETATM   32  O2  UNL     1      42.353  17.454  65.011  1.00  0.00    -0.272 OA
ATOM     33  H8  UNL     1      40.339  19.583  63.795  1.00  0.00     0.190 HD
BRANCH  31  34
HETATM   34  C14 UNL     1      41.896  17.784  62.691  1.00  0.00     0.109 C 
BRANCH  34  35
HETATM   35  C15 UNL     1      41.738  16.370  62.319  1.00  0.00     0.048 C 
BRANCH  35  36
HETATM   36  C16 UNL     1      40.360  15.872  62.122  1.00  0.00    -0.058 A 
HETATM   37  C17 UNL     1      40.101  14.554  61.934  1.00  0.00     0.007 A 
HETATM   38  C18 UNL     1      38.791  14.128  61.792  1.00  0.00     0.001 A 
HETATM   39  C19 UNL     1      37.717  14.996  61.832  1.00  0.00     0.000 A 
HETATM   40  C20 UNL     1      37.993  16.315  62.020  1.00  0.00     0.001 A 
HETATM   41  C21 UNL     1      39.294  16.761  62.166  1.00  0.00     0.007 A 
ENDBRANCH  35  36
ENDBRANCH  34  35
ENDBRANCH  31  34
ENDBRANCH   1  30
BRANCH   2  42
HETATM   42  C23 UNL     1      38.858  17.641  65.966  1.00  0.00     0.105 C 
BRANCH  42  43
HETATM   43  C24 UNL     1      38.060  16.914  67.052  1.00  0.00     0.009 C 
BRANCH  43  44
HETATM   44  C25 UNL     1      37.746  15.540  66.566  1.00  0.00     0.001 C 
BRANCH  44  45
HETATM   45  C26 UNL     1      36.866  15.560  65.330  1.00  0.00     0.002 C 
BRANCH  45  46
HETATM   46  C27 UNL     1      35.551  16.265  65.634  1.00  0.00     0.020 C 
BRANCH  46  47
HETATM   47  C28 UNL     1      34.552  15.857  64.571  1.00  0.00     0.122 C 
BRANCH  47  48
HETATM   48  N9  UNL     1      34.206  14.474  64.635  1.00  0.00    -0.365 N 
HETATM   49  C29 UNL     1      34.087  13.692  63.483  1.00  0.00     0.181 C 
HETATM   50  N10 UNL     1      34.996  12.859  63.127  1.00  0.00    -0.374 N 
HETATM   51  N11 UNL     1      32.914  13.813  62.680  1.00  0.00    -0.064 NA
ATOM     52 2H10 UNL     1      35.835  12.773  63.702  1.00  0.00     0.158 HD
ATOM     53 1H10 UNL     1      34.909  12.288  62.287  1.00  0.00     0.158 HD
ATOM     54  H9  UNL     1      34.042  14.045  65.546  1.00  0.00     0.162 HD
ENDBRANCH  47  48
ENDBRANCH  46  47
ENDBRANCH  45  46
ENDBRANCH  44  45
ENDBRANCH  43  44
ENDBRANCH  42  43
ENDBRANCH   2  42
TORSDOF 22
ENDMDL
MODEL 3
REMARK VINA RESULT: -8.198157734      2.671      5.727
REMARK  22 active torsions:
REMARK  status: ('A' for Active; 'I' for Inactive)
REMARK    1  A    between atoms: C5_7  and  C6_8 
REMARK    2  A    between atoms: C6_8  and  C7_9 
REMARK    3  A    between atoms: C6_8  and  N5_17 
REMARK    4  A    between atoms: C7_9  and  N2_10 
REMARK    5  A    between atoms: N2_10  and  N3_12 
REMARK    6  A    between atoms: N5_17  and  C8_19 
REMARK    7  A    between atoms: C8_19  and  C9_20 
REMARK       I    between atoms: C9_20  and  N6_22 
REMARK    8  A    between atoms: N6_22  and  C10_24 
REMARK    9  A    between atoms: C10_24  and  C11_25 
REMARK   10  A    between atoms: C11_25  and  C12_26 
REMARK   11  A    between atoms: C12_26  and  N7_27 
REMARK   12  A    between atoms: N7_27  and  N8_28 
REMARK       I    between atoms: N7_27  and  C22_40 
REMARK       I    between atoms: N8_28  and  C13_30 
REMARK   13  A    between atoms: C13_30  and  C14_32 
REMARK   14  A    between atoms: C14_32  and  C15_33 
REMARK   15  A    between atoms: C15_33  and  C16_34 
REMARK   16  A    between atoms: C22_40  and  C23_42 
REMARK   17  A    between atoms: C23_42  and  C24_43 
REMARK   18  A    between atoms: C24_43  and  C25_44 
REMARK   19  A    between atoms: C25_44  and  C26_45 
REMARK   20  A    between atoms: C26_45  and  C27_46 
REMARK   21  A    between atoms: C27_46  and  C28_47 
REMARK   22  A    between atoms: C28_47  and  N9_48 
REMARK       I    between atoms: N9_48  and  C29_50 
ROOT
HETATM    1  N7  UNL     1      41.293  19.534  66.110  1.00  0.00    -0.259 N 
HETATM    2  C22 UNL     1      41.635  18.401  65.276  1.00  0.00     0.238 C 
HETATM    3  O3  UNL     1      40.823  17.452  65.243  1.00  0.00    -0.272 OA
ENDROOT
BRANCH   1   4
HETATM    4  C12 UNL     1      39.996  19.485  66.797  1.00  0.00     0.154 C 
BRANCH   4   5
HETATM    5  C11 UNL     1      40.107  19.094  68.249  1.00  0.00     0.041 C 
BRANCH   5   6
HETATM    6  C10 UNL     1      39.350  17.847  68.554  1.00  0.00     0.124 C 
BRANCH   6   7
HETATM    7  N6  UNL     1      38.802  17.275  67.352  1.00  0.00    -0.360 N 
HETATM    8  C9  UNL     1      37.919  16.193  67.428  1.00  0.00     0.235 C 
HETATM    9  O1  UNL     1      37.637  15.743  68.595  1.00  0.00    -0.272 OA
ATOM     10  H6  UNL     1      39.059  17.660  66.443  1.00  0.00     0.162 HD
BRANCH   8  11
HETATM   11  C8  UNL     1      37.258  15.489  66.308  1.00  0.00     0.222 C 
BRANCH  11  12
HETATM   12  N5  UNL     1      37.974  15.657  65.092  1.00  0.00    -0.382 N 
ATOM     13  H5  UNL     1      38.948  15.955  65.152  1.00  0.00     0.160 HD
BRANCH  12  14
HETATM   14  C6  UNL     1      37.415  15.433  63.761  1.00  0.00     0.037 C 
BRANCH  14  15
HETATM   15  C5  UNL     1      38.245  15.317  62.763  1.00  0.00     0.015 A 
HETATM   16  C2  UNL     1      39.051  16.192  62.098  1.00  0.00     0.034 A 
HETATM   17  C1  UNL     1      39.173  17.469  62.276  1.00  0.00     0.044 C 
HETATM   18  N1  UNL     1      39.755  15.515  61.136  1.00  0.00    -0.366 N 
HETATM   19  C3  UNL     1      39.423  14.225  61.164  1.00  0.00     0.089 A 
ATOM     20  H1  UNL     1      40.429  15.934  60.496  1.00  0.00     0.165 HD
HETATM   21  C4  UNL     1      38.491  14.070  62.159  1.00  0.00     0.032 A 
ENDBRANCH  14  15
BRANCH  14  22
HETATM   22  C7  UNL     1      35.946  15.345  63.786  1.00  0.00     0.198 C 
BRANCH  22  23
HETATM   23  N2  UNL     1      35.427  13.999  63.650  1.00  0.00    -0.317 N 
ATOM     24  H2  UNL     1      36.036  13.292  63.238  1.00  0.00     0.182 HD
BRANCH  23  25
HETATM   25  N3  UNL     1      34.143  13.608  64.046  1.00  0.00    -0.254 N 
HETATM   26  N4  UNL     1      33.609  14.045  65.111  1.00  0.00    -0.331 N 
ATOM     27  H42 UNL     1      34.143  14.699  65.683  1.00  0.00     0.178 HD
ATOM     28  H41 UNL     1      32.673  13.761  65.400  1.00  0.00     0.178 HD
ATOM     29  H3  UNL     1      33.622  12.953  63.463  1.00  0.00     0.207 HD
ENDBRANCH  23  25
ENDBRANCH  22  23
ENDBRANCH  14  22
ENDBRANCH  12  14
ENDBRANCH  11  12
ENDBRANCH   8  11
ENDBRANCH   6   7
ENDBRANCH   5   6
ENDBRANCH   4   5
ENDBRANCH   1   4
BRANCH   1  30
HETATM   30  N8  UNL     1      42.207  20.555  66.209  1.00  0.00    -0.265 N 
HETATM   31  C13 UNL     1      42.347  21.709  65.367  1.00  0.00     0.236 C 
HETATM   32  O2  UNL     1      41.563  21.833  64.423  1.00  0.00    -0.272 OA
ATOM     33  H8  UNL     1      42.872  20.485  66.980  1.00  0.00     0.190 HD
BRANCH  31  34
HETATM   34  C14 UNL     1      43.415  22.687  65.664  1.00  0.00     0.109 C 
BRANCH  34  35
HETATM   35  C15 UNL     1      44.463  22.197  66.573  1.00  0.00     0.048 C 
BRANCH  35  36
HETATM   36  C16 UNL     1      45.563  23.129  66.903  1.00  0.00    -0.058 A 
HETATM   37  C17 UNL     1      45.487  23.971  67.963  1.00  0.00     0.007 A 
HETATM   38  C18 UNL     1      46.557  24.799  68.257  1.00  0.00     0.001 A 
HETATM   39  C19 UNL     1      47.718  24.811  67.507  1.00  0.00     0.000 A 
HETATM   40  C20 UNL     1      47.778  23.961  66.446  1.00  0.00     0.001 A 
HETATM   41  C21 UNL     1      46.722  23.125  66.136  1.00  0.00     0.007 A 
ENDBRANCH  35  36
ENDBRANCH  34  35
ENDBRANCH  31  34
ENDBRANCH   1  30
BRANCH   2  42
HETATM   42  C23 UNL     1      42.871  18.387  64.509  1.00  0.00     0.105 C 
BRANCH  42  43
HETATM   43  C24 UNL     1      42.584  18.924  63.103  1.00  0.00     0.009 C 
BRANCH  43  44
HETATM   44  C25 UNL     1      43.885  19.184  62.423  1.00  0.00     0.001 C 
BRANCH  44  45
HETATM   45  C26 UNL     1      44.381  20.597  62.665  1.00  0.00     0.002 C 
BRANCH  45  46
HETATM   46  C27 UNL     1      45.687  20.567  63.449  1.00  0.00     0.020 C 
BRANCH  46  47
HETATM   47  C28 UNL     1      46.784  21.075  62.536  1.00  0.00     0.122 C 
BRANCH  47  48
HETATM   48  N9  UNL     1      46.912  22.496  62.559  1.00  0.00    -0.365 N 
HETATM   49  C29 UNL     1      47.440  23.204  61.475  1.00  0.00     0.181 C 
HETATM   50  N10 UNL     1      46.694  23.857  60.659  1.00  0.00    -0.374 N 
HETATM   51  N11 UNL     1      48.851  23.212  61.271  1.00  0.00    -0.064 NA
ATOM     52 2H10 UNL     1      45.685  23.852  60.805  1.00  0.00     0.158 HD
ATOM     53 1H10 UNL     1      47.079  24.374  59.869  1.00  0.00     0.158 HD
ATOM     54  H9  UNL     1      46.610  23.009  63.387  1.00  0.00     0.162 HD
ENDBRANCH  47  48
ENDBRANCH  46  47
ENDBRANCH  45  46
ENDBRANCH  44  45
ENDBRANCH  43  44
ENDBRANCH  42  43
ENDBRANCH   2  42
TORSDOF 22
ENDMDL
MODEL 4
REMARK VINA RESULT: -8.177881903      1.227      2.444
REMARK  22 active torsions:
REMARK  status: ('A' for Active; 'I' for Inactive)
REMARK    1  A    between atoms: C5_7  and  C6_8 
REMARK    2  A    between atoms: C6_8  and  C7_9 
REMARK    3  A    between atoms: C6_8  and  N5_17 
REMARK    4  A    between atoms: C7_9  and  N2_10 
REMARK    5  A    between atoms: N2_10  and  N3_12 
REMARK    6  A    between atoms: N5_17  and  C8_19 
REMARK    7  A    between atoms: C8_19  and  C9_20 
REMARK       I    between atoms: C9_20  and  N6_22 
REMARK    8  A    between atoms: N6_22  and  C10_24 
REMARK    9  A    between atoms: C10_24  and  C11_25 
REMARK   10  A    between atoms: C11_25  and  C12_26 
REMARK   11  A    between atoms: C12_26  and  N7_27 
REMARK   12  A    between atoms: N7_27  and  N8_28 
REMARK       I    between atoms: N7_27  and  C22_40 
REMARK       I    between atoms: N8_28  and  C13_30 
REMARK   13  A    between atoms: C13_30  and  C14_32 
REMARK   14  A    between atoms: C14_32  and  C15_33 
REMARK   15  A    between atoms: C15_33  and  C16_34 
REMARK   16  A    between atoms: C22_40  and  C23_42 
REMARK   17  A    between atoms: C23_42  and  C24_43 
REMARK   18  A    between atoms: C24_43  and  C25_44 
REMARK   19  A    between atoms: C25_44  and  C26_45 
REMARK   20  A    between atoms: C26_45  and  C27_46 
REMARK   21  A    between atoms: C27_46  and  C28_47 
REMARK   22  A    between atoms: C28_47  and  N9_48 
REMARK       I    between atoms: N9_48  and  C29_50 
ROOT
HETATM    1  N7  UNL     1      42.730  18.779  64.568  1.00  0.00    -0.259 N 
HETATM    2  C22 UNL     1      41.965  19.961  64.904  1.00  0.00     0.238 C 
HETATM    3  O3  UNL     1      40.739  19.811  65.097  1.00  0.00    -0.272 OA
ENDROOT
BRANCH   1   4
HETATM    4  C12 UNL     1      42.003  17.503  64.539  1.00  0.00     0.154 C 
BRANCH   4   5
HETATM    5  C11 UNL     1      41.575  17.095  63.152  1.00  0.00     0.041 C 
BRANCH   5   6
HETATM    6  C10 UNL     1      40.094  16.983  63.031  1.00  0.00     0.124 C 
BRANCH   6   7
HETATM    7  N6  UNL     1      39.476  16.962  64.331  1.00  0.00    -0.360 N 
HETATM    8  C9  UNL     1      38.809  15.814  64.774  1.00  0.00     0.235 C 
HETATM    9  O1  UNL     1      38.770  14.811  63.977  1.00  0.00    -0.272 OA
ATOM     10  H6  UNL     1      39.525  17.786  64.931  1.00  0.00     0.162 HD
BRANCH   8  11
HETATM   11  C8  UNL     1      38.129  15.611  66.070  1.00  0.00     0.222 C 
BRANCH  11  12
HETATM   12  N5  UNL     1      37.653  16.838  66.608  1.00  0.00    -0.382 N 
ATOM     13  H5  UNL     1      36.954  17.351  66.070  1.00  0.00     0.160 HD
BRANCH  12  14
HETATM   14  C6  UNL     1      38.092  17.416  67.876  1.00  0.00     0.037 C 
BRANCH  14  15
HETATM   15  C5  UNL     1      38.596  18.618  67.855  1.00  0.00     0.015 A 
HETATM   16  C2  UNL     1      39.845  19.122  68.062  1.00  0.00     0.034 A 
HETATM   17  C1  UNL     1      40.922  18.490  68.402  1.00  0.00     0.044 C 
HETATM   18  N1  UNL     1      39.819  20.481  67.874  1.00  0.00    -0.366 N 
HETATM   19  C3  UNL     1      38.585  20.864  67.550  1.00  0.00     0.089 A 
ATOM     20  H1  UNL     1      40.622  21.102  67.967  1.00  0.00     0.165 HD
HETATM   21  C4  UNL     1      37.804  19.736  67.530  1.00  0.00     0.032 A 
ENDBRANCH  14  15
BRANCH  14  22
HETATM   22  C7  UNL     1      37.851  16.509  69.010  1.00  0.00     0.198 C 
BRANCH  22  23
HETATM   23  N2  UNL     1      36.479  16.487  69.474  1.00  0.00    -0.317 N 
ATOM     24  H2  UNL     1      35.738  16.560  68.777  1.00  0.00     0.182 HD
BRANCH  23  25
HETATM   25  N3  UNL     1      36.107  16.373  70.818  1.00  0.00    -0.254 N 
HETATM   26  N4  UNL     1      34.956  16.722  71.226  1.00  0.00    -0.331 N 
ATOM     27  H42 UNL     1      34.297  17.093  70.543  1.00  0.00     0.178 HD
ATOM     28  H41 UNL     1      34.685  16.638  72.206  1.00  0.00     0.178 HD
ATOM     29  H3  UNL     1      36.778  16.000  71.489  1.00  0.00     0.207 HD
ENDBRANCH  23  25
ENDBRANCH  22  23
ENDBRANCH  14  22
ENDBRANCH  12  14
ENDBRANCH  11  12
ENDBRANCH   8  11
ENDBRANCH   6   7
ENDBRANCH   5   6
ENDBRANCH   4   5
ENDBRANCH   1   4
BRANCH   1  30
HETATM   30  N8  UNL     1      44.066  18.938  64.288  1.00  0.00    -0.265 N 
HETATM   31  C13 UNL     1      44.672  19.366  63.059  1.00  0.00     0.236 C 
HETATM   32  O2  UNL     1      43.930  19.635  62.112  1.00  0.00    -0.272 OA
ATOM     33  H8  UNL     1      44.709  18.725  65.050  1.00  0.00     0.190 HD
BRANCH  31  34
HETATM   34  C14 UNL     1      46.146  19.465  62.984  1.00  0.00     0.109 C 
BRANCH  34  35
HETATM   35  C15 UNL     1      46.671  19.837  61.661  1.00  0.00     0.048 C 
BRANCH  35  36
HETATM   36  C16 UNL     1      46.965  21.268  61.428  1.00  0.00    -0.058 A 
HETATM   37  C17 UNL     1      48.166  21.808  61.750  1.00  0.00     0.007 A 
HETATM   38  C18 UNL     1      48.411  23.144  61.478  1.00  0.00     0.001 A 
HETATM   39  C19 UNL     1      47.472  23.967  60.887  1.00  0.00     0.000 A 
HETATM   40  C20 UNL     1      46.271  23.411  60.571  1.00  0.00     0.001 A 
HETATM   41  C21 UNL     1      46.007  22.079  60.832  1.00  0.00     0.007 A 
ENDBRANCH  35  36
ENDBRANCH  34  35
ENDBRANCH  31  34
ENDBRANCH   1  30
BRANCH   2  42
HETATM   42  C23 UNL     1      42.611  21.259  65.018  1.00  0.00     0.105 C 
BRANCH  42  43
HETATM   43  C24 UNL     1      43.113  21.436  66.454  1.00  0.00     0.009 C 
BRANCH  43  44
HETATM   44  C25 UNL     1      44.233  22.419  66.444  1.00  0.00     0.001 C 
BRANCH  44  45
HETATM   45  C26 UNL     1      45.540  21.789  65.997  1.00  0.00     0.002 C 
BRANCH  45  46
HETATM   46  C27 UNL     1      46.096  22.536  64.792  1.00  0.00     0.020 C 
BRANCH  46  47
HETATM   47  C28 UNL     1      47.464  23.066  65.169  1.00  0.00     0.122 C 
BRANCH  47  48
HETATM   48  N9  UNL     1      47.428  24.413  65.639  1.00  0.00    -0.365 N 
HETATM   49  C29 UNL     1      48.366  24.899  66.554  1.00  0.00     0.181 C 
HETATM   50  N10 UNL     1      49.340  25.654  66.196  1.00  0.00    -0.374 N 
HETATM   51  N11 UNL     1      48.236  24.553  67.931  1.00  0.00    -0.064 NA
ATOM     52 2H10 UNL     1      49.433  25.901  65.210  1.00  0.00     0.158 HD
ATOM     53 1H10 UNL     1      50.024  26.009  66.863  1.00  0.00     0.158 HD
ATOM     54  H9  UNL     1      46.697  25.038  65.297  1.00  0.00     0.162 HD
ENDBRANCH  47  48
ENDBRANCH  46  47
ENDBRANCH  45  46
ENDBRANCH  44  45
ENDBRANCH  43  44
ENDBRANCH  42  43
ENDBRANCH   2  42
TORSDOF 22
ENDMDL
MODEL 5
REMARK VINA RESULT: -8.108314981      2.328      4.835
REMARK  22 active torsions:
REMARK  status: ('A' for Active; 'I' for Inactive)
REMARK    1  A    between atoms: C5_7  and  C6_8 
REMARK    2  A    between atoms: C6_8  and  C7_9 
REMARK    3  A    between atoms: C6_8  and  N5_17 
REMARK    4  A    between atoms: C7_9  and  N2_10 
REMARK    5  A    between atoms: N2_10  and  N3_12 
REMARK    6  A    between atoms: N5_17  and  C8_19 
REMARK    7  A    between atoms: C8_19  and  C9_20 
REMARK       I    between atoms: C9_20  and  N6_22 
REMARK    8  A    between atoms: N6_22  and  C10_24 
REMARK    9  A    between atoms: C10_24  and  C11_25 
REMARK   10  A    between atoms: C11_25  and  C12_26 
REMARK   11  A    between atoms: C12_26  and  N7_27 
REMARK   12  A    between atoms: N7_27  and  N8_28 
REMARK       I    between atoms: N7_27  and  C22_40 
REMARK       I    between atoms: N8_28  and  C13_30 
REMARK   13  A    between atoms: C13_30  and  C14_32 
REMARK   14  A    between atoms: C14_32  and  C15_33 
REMARK   15  A    between atoms: C15_33  and  C16_34 
REMARK   16  A    between atoms: C22_40  and  C23_42 
REMARK   17  A    between atoms: C23_42  and  C24_43 
REMARK   18  A    between atoms: C24_43  and  C25_44 
REMARK   19  A    between atoms: C25_44  and  C26_45 
REMARK   20  A    between atoms: C26_45  and  C27_46 
REMARK   21  A    between atoms: C27_46  and  C28_47 
REMARK   22  A    between atoms: C28_47  and  N9_48 
REMARK       I    between atoms: N9_48  and  C29_50 
ROOT
HETATM    1  N7  UNL     1      42.561  19.580  65.510  1.00  0.00    -0.259 N 
HETATM    2  C22 UNL     1      42.697  19.083  64.157  1.00  0.00     0.238 C 
HETATM    3  O3  UNL     1      42.222  17.952  63.915  1.00  0.00    -0.272 OA
ENDROOT
BRANCH   1   4
HETATM    4  C12 UNL     1      41.828  18.731  66.459  1.00  0.00     0.154 C 
BRANCH   4   5
HETATM    5  C11 UNL     1      40.609  19.404  67.037  1.00  0.00     0.041 C 
BRANCH   5   6
HETATM    6  C10 UNL     1      40.189  18.792  68.329  1.00  0.00     0.124 C 
BRANCH   6   7
HETATM    7  N6  UNL     1      39.786  17.423  68.139  1.00  0.00    -0.360 N 
HETATM    8  C9  UNL     1      38.433  17.106  67.975  1.00  0.00     0.235 C 
HETATM    9  O1  UNL     1      37.592  18.072  68.012  1.00  0.00    -0.272 OA
ATOM     10  H6  UNL     1      40.488  16.683  68.124  1.00  0.00     0.162 HD
BRANCH   8  11
HETATM   11  C8  UNL     1      37.841  15.768  67.763  1.00  0.00     0.222 C 
BRANCH  11  12
HETATM   12  N5  UNL     1      38.386  15.133  66.614  1.00  0.00    -0.382 N 
ATOM     13  H5  UNL     1      38.915  14.272  66.755  1.00  0.00     0.160 HD
BRANCH  12  14
HETATM   14  C6  UNL     1      38.243  15.624  65.246  1.00  0.00     0.037 C 
BRANCH  14  15
HETATM   15  C5  UNL     1      37.123  15.381  64.625  1.00  0.00     0.015 A 
HETATM   16  C2  UNL     1      35.853  15.861  64.743  1.00  0.00     0.034 A 
HETATM   17  C1  UNL     1      35.393  16.718  65.598  1.00  0.00     0.044 C 
HETATM   18  N1  UNL     1      35.059  15.273  63.792  1.00  0.00    -0.366 N 
HETATM   19  C3  UNL     1      35.784  14.426  63.064  1.00  0.00     0.089 A 
ATOM     20  H1  UNL     1      34.064  15.457  63.662  1.00  0.00     0.165 HD
HETATM   21  C4  UNL     1      37.066  14.469  63.554  1.00  0.00     0.032 A 
ENDBRANCH  14  15
BRANCH  14  22
HETATM   22  C7  UNL     1      39.432  16.367  64.798  1.00  0.00     0.198 C 
BRANCH  22  23
HETATM   23  N2  UNL     1      39.138  17.625  64.143  1.00  0.00    -0.317 N 
ATOM     24  H2  UNL     1      38.740  18.375  64.708  1.00  0.00     0.182 HD
BRANCH  23  25
HETATM   25  N3  UNL     1      39.364  17.876  62.785  1.00  0.00    -0.254 N 
HETATM   26  N4  UNL     1      38.612  17.398  61.881  1.00  0.00    -0.331 N 
ATOM     27  H42 UNL     1      37.825  16.816  62.169  1.00  0.00     0.178 HD
ATOM     28  H41 UNL     1      38.777  17.581  60.891  1.00  0.00     0.178 HD
ATOM     29  H3  UNL     1      40.155  18.459  62.514  1.00  0.00     0.207 HD
ENDBRANCH  23  25
ENDBRANCH  22  23
ENDBRANCH  14  22
ENDBRANCH  12  14
ENDBRANCH  11  12
ENDBRANCH   8  11
ENDBRANCH   6   7
ENDBRANCH   5   6
ENDBRANCH   4   5
ENDBRANCH   1   4
BRANCH   1  30
HETATM   30  N8  UNL     1      43.136  20.791  65.808  1.00  0.00    -0.265 N 
HETATM   31  C13 UNL     1      44.478  21.056  66.243  1.00  0.00     0.236 C 
HETATM   32  O2  UNL     1      45.242  20.098  66.376  1.00  0.00    -0.272 OA
ATOM     33  H8  UNL     1      42.532  21.607  65.708  1.00  0.00     0.190 HD
BRANCH  31  34
HETATM   34  C14 UNL     1      44.882  22.454  66.509  1.00  0.00     0.109 C 
BRANCH  34  35
HETATM   35  C15 UNL     1      46.215  22.817  66.004  1.00  0.00     0.048 C 
BRANCH  35  36
HETATM   36  C16 UNL     1      46.849  24.024  66.575  1.00  0.00    -0.058 A 
HETATM   37  C17 UNL     1      46.203  24.810  67.471  1.00  0.00     0.007 A 
HETATM   38  C18 UNL     1      46.850  25.909  68.010  1.00  0.00     0.001 A 
HETATM   39  C19 UNL     1      48.144  26.252  67.670  1.00  0.00     0.000 A 
HETATM   40  C20 UNL     1      48.779  25.455  66.768  1.00  0.00     0.001 A 
HETATM   41  C21 UNL     1      48.152  24.351  66.220  1.00  0.00     0.007 A 
ENDBRANCH  35  36
ENDBRANCH  34  35
ENDBRANCH  31  34
ENDBRANCH   1  30
BRANCH   2  42
HETATM   42  C23 UNL     1      43.353  19.881  63.133  1.00  0.00     0.105 C 
BRANCH  42  43
HETATM   43  C24 UNL     1      44.712  19.252  62.813  1.00  0.00     0.009 C 
BRANCH  43  44
HETATM   44  C25 UNL     1      45.751  20.319  62.873  1.00  0.00     0.001 C 
BRANCH  44  45
HETATM   45  C26 UNL     1      45.226  21.653  62.375  1.00  0.00     0.002 C 
BRANCH  45  46
HETATM   46  C27 UNL     1      45.594  21.849  60.910  1.00  0.00     0.020 C 
BRANCH  46  47
HETATM   47  C28 UNL     1      46.338  23.163  60.794  1.00  0.00     0.122 C 
BRANCH  47  48
HETATM   48  N9  UNL     1      47.350  23.319  61.787  1.00  0.00    -0.365 N 
HETATM   49  C29 UNL     1      48.443  24.169  61.596  1.00  0.00     0.181 C 
HETATM   50  N10 UNL     1      48.519  25.320  62.158  1.00  0.00    -0.374 N 
HETATM   51  N11 UNL     1      49.516  23.742  60.759  1.00  0.00    -0.064 NA
ATOM     52 2H10 UNL     1      47.751  25.625  62.757  1.00  0.00     0.158 HD
ATOM     53 1H10 UNL     1      49.317  25.939  62.019  1.00  0.00     0.158 HD
ATOM     54  H9  UNL     1      47.273  22.798  62.660  1.00  0.00     0.162 HD
ENDBRANCH  47  48
ENDBRANCH  46  47
ENDBRANCH  45  46
ENDBRANCH  44  45
ENDBRANCH  43  44
ENDBRANCH  42  43
ENDBRANCH   2  42
TORSDOF 22
ENDMDL
