MODEL 1
REMARK VINA RESULT: -5.220271282      0.000      0.000
REMARK  1 active torsions:
REMARK  status: ('A' for Active; 'I' for Inactive)
REMARK       I    between atoms: C1_2  and  N3_7 
REMARK    1  A    between atoms: N2_3  and  O1_5 
ROOT
HETATM    1  N1  UNL     1      17.107  91.168  73.717  1.00  0.00    -0.060 NA
HETATM    2  C1  UNL     1      18.089  90.198  73.400  1.00  0.00     0.234 C 
HETATM    3  N2  UNL     1      18.094  89.750  72.193  1.00  0.00    -0.239 N 
ATOM      4  H2  UNL     1      17.409  90.099  71.524  1.00  0.00     0.197 HD
HETATM    5  N3  UNL     1      19.043  89.708  74.328  1.00  0.00    -0.228 N 
HETATM    6  C2  UNL     1      18.812  89.581  75.752  1.00  0.00     0.161 C 
HETATM    7  C3  UNL     1      19.896  88.553  76.097  1.00  0.00     0.051 C 
HETATM    8  C4  UNL     1      20.978  89.056  75.159  1.00  0.00     0.203 C 
HETATM    9  O2  UNL     1      20.282  89.302  73.988  1.00  0.00    -0.276 OA
ENDROOT
BRANCH   3  10
HETATM   10  O1  UNL     1      18.994  88.824  71.803  1.00  0.00    -0.287 OA
ATOM     11  H1  UNL     1      19.903  89.058  71.656  1.00  0.00     0.244 HD
ENDBRANCH   3  10
TORSDOF 1
ENDMDL
MODEL 2
REMARK VINA RESULT: -5.028069267      5.598      6.694
REMARK  1 active torsions:
REMARK  status: ('A' for Active; 'I' for Inactive)
REMARK       I    between atoms: C1_2  and  N3_7 
REMARK    1  A    between atoms: N2_3  and  O1_5 
ROOT
HETATM    1  N1  UNL     1      25.399  89.302  72.627  1.00  0.00    -0.060 NA
HETATM    2  C1  UNL     1      25.490  90.604  73.177  1.00  0.00     0.234 C 
HETATM    3  N2  UNL     1      26.646  91.168  73.147  1.00  0.00    -0.239 N 
ATOM      4  H2  UNL     1      27.438  90.671  72.739  1.00  0.00     0.197 HD
HETATM    5  N3  UNL     1      24.391  91.298  73.747  1.00  0.00    -0.228 N 
HETATM    6  C2  UNL     1      23.282  90.662  74.426  1.00  0.00     0.161 C 
HETATM    7  C3  UNL     1      22.767  91.852  75.245  1.00  0.00     0.051 C 
HETATM    8  C4  UNL     1      22.997  92.941  74.213  1.00  0.00     0.203 C 
HETATM    9  O2  UNL     1      24.255  92.639  73.721  1.00  0.00    -0.276 OA
ENDROOT
BRANCH   3  10
HETATM   10  O1  UNL     1      26.825  92.407  73.648  1.00  0.00    -0.287 OA
ATOM     11  H1  UNL     1      26.995  92.539  74.573  1.00  0.00     0.244 HD
ENDBRANCH   3  10
TORSDOF 1
ENDMDL
MODEL 3
REMARK VINA RESULT: -4.973299666      1.786      2.377
REMARK  1 active torsions:
REMARK  status: ('A' for Active; 'I' for Inactive)
REMARK       I    between atoms: C1_2  and  N3_7 
REMARK    1  A    between atoms: N2_3  and  O1_5 
ROOT
HETATM    1  N1  UNL     1      18.410  88.241  76.144  1.00  0.00    -0.060 NA
HETATM    2  C1  UNL     1      19.002  88.619  74.915  1.00  0.00     0.234 C 
HETATM    3  N2  UNL     1      18.400  88.246  73.841  1.00  0.00    -0.239 N 
ATOM      4  H2  UNL     1      17.538  87.704  73.909  1.00  0.00     0.197 HD
HETATM    5  N3  UNL     1      20.201  89.371  74.815  1.00  0.00    -0.228 N 
HETATM    6  C2  UNL     1      21.286  89.317  75.773  1.00  0.00     0.161 C 
HETATM    7  C3  UNL     1      22.426  89.854  74.899  1.00  0.00     0.051 C 
HETATM    8  C4  UNL     1      21.636  90.898  74.131  1.00  0.00     0.203 C 
HETATM    9  O2  UNL     1      20.469  90.228  73.809  1.00  0.00    -0.276 OA
ENDROOT
BRANCH   3  10
HETATM   10  O1  UNL     1      18.893  88.562  72.625  1.00  0.00    -0.287 OA
ATOM     11  H1  UNL     1      19.812  88.432  72.423  1.00  0.00     0.244 HD
ENDBRANCH   3  10
TORSDOF 1
ENDMDL
MODEL 4
REMARK VINA RESULT: -4.899451988      5.105      6.157
REMARK  1 active torsions:
REMARK  status: ('A' for Active; 'I' for Inactive)
REMARK       I    between atoms: C1_2  and  N3_7 
REMARK    1  A    between atoms: N2_3  and  O1_5 
ROOT
HETATM    1  N1  UNL     1      26.615  91.587  73.241  1.00  0.00    -0.060 NA
HETATM    2  C1  UNL     1      25.591  90.609  73.262  1.00  0.00     0.234 C 
HETATM    3  N2  UNL     1      25.867  89.467  72.736  1.00  0.00    -0.239 N 
ATOM      4  H2  UNL     1      26.790  89.309  72.332  1.00  0.00     0.197 HD
HETATM    5  N3  UNL     1      24.305  90.825  73.822  1.00  0.00    -0.228 N 
HETATM    6  C2  UNL     1      23.627  92.104  73.850  1.00  0.00     0.161 C 
HETATM    7  C3  UNL     1      22.183  91.624  74.037  1.00  0.00     0.051 C 
HETATM    8  C4  UNL     1      22.461  90.461  74.973  1.00  0.00     0.203 C 
HETATM    9  O2  UNL     1      23.564  89.856  74.395  1.00  0.00    -0.276 OA
ENDROOT
BRANCH   3  10
HETATM   10  O1  UNL     1      24.951  88.477  72.712  1.00  0.00    -0.287 OA
ATOM     11  H1  UNL     1      24.035  88.664  72.548  1.00  0.00     0.244 HD
ENDBRANCH   3  10
TORSDOF 1
ENDMDL
MODEL 5
REMARK VINA RESULT: -4.893735763      3.480      3.971
REMARK  1 active torsions:
REMARK  status: ('A' for Active; 'I' for Inactive)
REMARK       I    between atoms: C1_2  and  N3_7 
REMARK    1  A    between atoms: N2_3  and  O1_5 
ROOT
HETATM    1  N1  UNL     1      22.801  93.224  74.410  1.00  0.00    -0.060 NA
HETATM    2  C1  UNL     1      22.203  91.950  74.565  1.00  0.00     0.234 C 
HETATM    3  N2  UNL     1      21.661  91.431  73.520  1.00  0.00    -0.239 N 
ATOM      4  H2  UNL     1      21.679  91.943  72.638  1.00  0.00     0.197 HD
HETATM    5  N3  UNL     1      22.174  91.235  75.791  1.00  0.00    -0.228 N 
HETATM    6  C2  UNL     1      22.126  91.853  77.100  1.00  0.00     0.161 C 
HETATM    7  C3  UNL     1      21.579  90.677  77.918  1.00  0.00     0.051 C 
HETATM    8  C4  UNL     1      22.324  89.558  77.214  1.00  0.00     0.203 C 
HETATM    9  O2  UNL     1      22.189  89.890  75.877  1.00  0.00    -0.276 OA
ENDROOT
BRANCH   3  10
HETATM   10  O1  UNL     1      21.068  90.221  73.576  1.00  0.00    -0.287 OA
ATOM     11  H1  UNL     1      20.749  89.797  72.787  1.00  0.00     0.244 HD
ENDBRANCH   3  10
TORSDOF 1
ENDMDL
