MODEL 1
REMARK VINA RESULT: -5.718859294      0.000      0.000
REMARK  4 active torsions:
REMARK  status: ('A' for Active; 'I' for Inactive)
REMARK    1  A    between atoms: O1_2  and  C2_3 
REMARK    2  A    between atoms: C2_3  and  C3_5 
REMARK    3  A    between atoms: C4_8  and  O3_9 
REMARK    4  A    between atoms: C7_14  and  N3_15 
ROOT
HETATM    1  C3  UNL     1       6.706  13.859  39.123  1.00  0.00     0.136 A 
HETATM    2  N1  UNL     1       5.884  12.796  39.151  1.00  0.00    -0.329 N 
ATOM      3  H1  UNL     1       5.625  12.357  38.266  1.00  0.00     0.168 HD
HETATM    4  C4  UNL     1       5.387  12.283  40.289  1.00  0.00     0.171 A 
HETATM    5  C6  UNL     1       5.760  12.904  41.464  1.00  0.00     0.117 A 
HETATM    6  N2  UNL     1       5.313  12.464  42.657  1.00  0.00    -0.187 N 
ATOM      7  H2  UNL     1       4.687  11.660  42.698  1.00  0.00     0.184 HD
HETATM    8  C7  UNL     1       5.682  13.075  43.791  1.00  0.00     0.679 A 
HETATM    9  N4  UNL     1       6.502  14.140  43.798  1.00  0.00    -0.156 N 
ATOM     10  H4  UNL     1       6.761  14.578  44.682  1.00  0.00     0.187 HD
HETATM   11  C8  UNL     1       6.980  14.625  42.648  1.00  0.00     0.274 A 
HETATM   12  O4  UNL     1       7.741  15.614  42.663  1.00  0.00    -0.267 OA
HETATM   13  C9  UNL     1       6.614  14.014  41.474  1.00  0.00     0.091 A 
HETATM   14  C10 UNL     1       7.098  14.502  40.278  1.00  0.00     0.097 A 
HETATM   15  N5  UNL     1       7.977  15.637  40.242  1.00  0.00    -0.099 NA
ENDROOT
BRANCH   1  16
HETATM   16  C2  UNL     1       7.224  14.383  37.854  1.00  0.00     0.311 C 
HETATM   17  O2  UNL     1       8.170  13.801  37.271  1.00  0.00    -0.258 OA
BRANCH  16  18
HETATM   18  O1  UNL     1       6.703  15.516  37.258  1.00  0.00    -0.321 OA
HETATM   19  C1  UNL     1       7.488  16.635  36.889  1.00  0.00     0.213 C 
ENDBRANCH  16  18
ENDBRANCH   1  16
BRANCH   4  20
HETATM   20  O3  UNL     1       4.545  11.198  40.340  1.00  0.00    -0.339 OA
HETATM   21  C5  UNL     1       4.831   9.928  39.841  1.00  0.00     0.211 C 
ENDBRANCH   4  20
BRANCH   8  22
HETATM   22  N3  UNL     1       5.244  12.638  44.913  1.00  0.00    -0.234 N 
ATOM     23  H32 UNL     1       4.666  11.799  44.912  1.00  0.00     0.174 HD
ATOM     24  H31 UNL     1       5.482  13.134  45.772  1.00  0.00     0.174 HD
ENDBRANCH   8  22
TORSDOF 4
ENDMDL
MODEL 2
REMARK VINA RESULT: -5.587141537      2.739      4.702
REMARK  4 active torsions:
REMARK  status: ('A' for Active; 'I' for Inactive)
REMARK    1  A    between atoms: O1_2  and  C2_3 
REMARK    2  A    between atoms: C2_3  and  C3_5 
REMARK    3  A    between atoms: C4_8  and  O3_9 
REMARK    4  A    between atoms: C7_14  and  N3_15 
ROOT
HETATM    1  C3  UNL     1       6.738  17.172  38.745  1.00  0.00     0.136 A 
HETATM    2  N1  UNL     1       6.320  16.718  39.940  1.00  0.00    -0.329 N 
ATOM      3  H1  UNL     1       5.863  17.372  40.576  1.00  0.00     0.168 HD
HETATM    4  C4  UNL     1       6.477  15.443  40.335  1.00  0.00     0.171 A 
HETATM    5  C6  UNL     1       7.100  14.591  39.446  1.00  0.00     0.117 A 
HETATM    6  N2  UNL     1       7.304  13.293  39.751  1.00  0.00    -0.187 N 
ATOM      7  H2  UNL     1       6.995  12.931  40.653  1.00  0.00     0.184 HD
HETATM    8  C7  UNL     1       7.910  12.475  38.880  1.00  0.00     0.679 A 
HETATM    9  N4  UNL     1       8.338  12.898  37.678  1.00  0.00    -0.156 N 
ATOM     10  H4  UNL     1       8.796  12.244  37.042  1.00  0.00     0.187 HD
HETATM   11  C8  UNL     1       8.167  14.173  37.315  1.00  0.00     0.274 A 
HETATM   12  O4  UNL     1       8.568  14.556  36.198  1.00  0.00    -0.267 OA
HETATM   13  C9  UNL     1       7.548  15.028  38.193  1.00  0.00     0.091 A 
HETATM   14  C10 UNL     1       7.363  16.348  37.834  1.00  0.00     0.097 A 
HETATM   15  N5  UNL     1       7.806  16.838  36.560  1.00  0.00    -0.099 NA
ENDROOT
BRANCH   1  16
HETATM   16  C2  UNL     1       6.543  18.574  38.359  1.00  0.00     0.311 C 
HETATM   17  O2  UNL     1       7.513  19.370  38.365  1.00  0.00    -0.258 OA
BRANCH  16  18
HETATM   18  O1  UNL     1       5.310  19.070  37.979  1.00  0.00    -0.321 OA
HETATM   19  C1  UNL     1       4.827  19.030  36.649  1.00  0.00     0.213 C 
ENDBRANCH  16  18
ENDBRANCH   1  16
BRANCH   4  20
HETATM   20  O3  UNL     1       6.058  14.959  41.551  1.00  0.00    -0.339 OA
HETATM   21  C5  UNL     1       6.809  14.962  42.725  1.00  0.00     0.211 C 
ENDBRANCH   4  20
BRANCH   8  22
HETATM   22  N3  UNL     1       8.092  11.247  39.192  1.00  0.00    -0.234 N 
ATOM     23  H32 UNL     1       8.861  10.744  38.749  1.00  0.00     0.174 HD
ATOM     24  H31 UNL     1       7.472  10.804  39.870  1.00  0.00     0.174 HD
ENDBRANCH   8  22
TORSDOF 4
ENDMDL
MODEL 3
REMARK VINA RESULT: -5.539246516      3.825      6.195
REMARK  4 active torsions:
REMARK  status: ('A' for Active; 'I' for Inactive)
REMARK    1  A    between atoms: O1_2  and  C2_3 
REMARK    2  A    between atoms: C2_3  and  C3_5 
REMARK    3  A    between atoms: C4_8  and  O3_9 
REMARK    4  A    between atoms: C7_14  and  N3_15 
ROOT
HETATM    1  C3  UNL     1      10.110  12.362  42.717  1.00  0.00     0.136 A 
HETATM    2  N1  UNL     1       9.591  13.585  42.924  1.00  0.00    -0.329 N 
ATOM      3  H1  UNL     1       9.894  14.109  43.746  1.00  0.00     0.168 HD
HETATM    4  C4  UNL     1       8.693  14.150  42.100  1.00  0.00     0.171 A 
HETATM    5  C6  UNL     1       8.309  13.410  41.001  1.00  0.00     0.117 A 
HETATM    6  N2  UNL     1       7.412  13.890  40.116  1.00  0.00    -0.187 N 
ATOM      7  H2  UNL     1       7.007  14.815  40.258  1.00  0.00     0.184 HD
HETATM    8  C7  UNL     1       7.047  13.163  39.052  1.00  0.00     0.679 A 
HETATM    9  N4  UNL     1       7.546  11.937  38.815  1.00  0.00    -0.156 N 
ATOM     10  H4  UNL     1       7.243  11.414  37.993  1.00  0.00     0.187 HD
HETATM   11  C8  UNL     1       8.439  11.404  39.655  1.00  0.00     0.274 A 
HETATM   12  O4  UNL     1       8.897  10.266  39.428  1.00  0.00    -0.267 OA
HETATM   13  C9  UNL     1       8.827  12.133  40.752  1.00  0.00     0.091 A 
HETATM   14  C10 UNL     1       9.748  11.597  41.629  1.00  0.00     0.097 A 
HETATM   15  N5  UNL     1      10.305  10.292  41.411  1.00  0.00    -0.099 NA
ENDROOT
BRANCH   1  16
HETATM   16  C2  UNL     1      11.089  11.788  43.645  1.00  0.00     0.311 C 
HETATM   17  O2  UNL     1      10.704  11.218  44.695  1.00  0.00    -0.258 OA
BRANCH  16  18
HETATM   18  O1  UNL     1      12.451  11.847  43.411  1.00  0.00    -0.321 OA
HETATM   19  C1  UNL     1      13.289  10.707  43.383  1.00  0.00     0.213 C 
ENDBRANCH  16  18
ENDBRANCH   1  16
BRANCH   4  20
HETATM   20  O3  UNL     1       8.150  15.398  42.294  1.00  0.00    -0.339 OA
HETATM   21  C5  UNL     1       7.741  15.920  43.520  1.00  0.00     0.211 C 
ENDBRANCH   4  20
BRANCH   8  22
HETATM   22  N3  UNL     1       6.193  13.640  38.225  1.00  0.00    -0.234 N 
ATOM     23  H32 UNL     1       6.096  13.188  37.316  1.00  0.00     0.174 HD
ATOM     24  H31 UNL     1       5.637  14.452  38.491  1.00  0.00     0.174 HD
ENDBRANCH   8  22
TORSDOF 4
ENDMDL
MODEL 4
REMARK VINA RESULT: -5.442597108      2.798      3.089
REMARK  4 active torsions:
REMARK  status: ('A' for Active; 'I' for Inactive)
REMARK    1  A    between atoms: O1_2  and  C2_3 
REMARK    2  A    between atoms: C2_3  and  C3_5 
REMARK    3  A    between atoms: C4_8  and  O3_9 
REMARK    4  A    between atoms: C7_14  and  N3_15 
ROOT
HETATM    1  C3  UNL     1       8.050  14.000  38.866  1.00  0.00     0.136 A 
HETATM    2  N1  UNL     1       8.680  12.821  38.727  1.00  0.00    -0.329 N 
ATOM      3  H1  UNL     1       8.670  12.370  37.812  1.00  0.00     0.168 HD
HETATM    4  C4  UNL     1       9.324  12.210  39.736  1.00  0.00     0.171 A 
HETATM    5  C6  UNL     1       9.315  12.852  40.957  1.00  0.00     0.117 A 
HETATM    6  N2  UNL     1       9.932  12.318  42.030  1.00  0.00    -0.187 N 
ATOM      7  H2  UNL     1      10.414  11.424  41.943  1.00  0.00     0.184 HD
HETATM    8  C7  UNL     1       9.917  12.951  43.210  1.00  0.00     0.679 A 
HETATM    9  N4  UNL     1       9.297  14.131  43.384  1.00  0.00    -0.156 N 
ATOM     10  H4  UNL     1       9.308  14.583  44.299  1.00  0.00     0.187 HD
HETATM   11  C8  UNL     1       8.666  14.714  42.359  1.00  0.00     0.274 A 
HETATM   12  O4  UNL     1       8.093  15.809  42.529  1.00  0.00    -0.267 OA
HETATM   13  C9  UNL     1       8.669  14.081  41.140  1.00  0.00     0.091 A 
HETATM   14  C10 UNL     1       8.023  14.669  40.072  1.00  0.00     0.097 A 
HETATM   15  N5  UNL     1       7.349  15.928  40.216  1.00  0.00    -0.099 NA
ENDROOT
BRANCH   1  16
HETATM   16  C2  UNL     1       7.362  14.630  37.735  1.00  0.00     0.311 C 
HETATM   17  O2  UNL     1       6.131  14.451  37.567  1.00  0.00    -0.258 OA
BRANCH  16  18
HETATM   18  O1  UNL     1       8.023  15.430  36.821  1.00  0.00    -0.321 OA
HETATM   19  C1  UNL     1       7.876  16.837  36.765  1.00  0.00     0.213 C 
ENDBRANCH  16  18
ENDBRANCH   1  16
BRANCH   4  20
HETATM   20  O3  UNL     1       9.973  11.004  39.614  1.00  0.00    -0.339 OA
HETATM   21  C5  UNL     1       9.365   9.751  39.640  1.00  0.00     0.211 C 
ENDBRANCH   4  20
BRANCH   8  22
HETATM   22  N3  UNL     1      10.511  12.424  44.215  1.00  0.00    -0.234 N 
ATOM     23  H32 UNL     1      11.195  11.689  44.041  1.00  0.00     0.174 HD
ATOM     24  H31 UNL     1      10.289  12.749  45.156  1.00  0.00     0.174 HD
ENDBRANCH   8  22
TORSDOF 4
ENDMDL
MODEL 5
REMARK VINA RESULT: -5.391201597      2.636      4.492
REMARK  4 active torsions:
REMARK  status: ('A' for Active; 'I' for Inactive)
REMARK    1  A    between atoms: O1_2  and  C2_3 
REMARK    2  A    between atoms: C2_3  and  C3_5 
REMARK    3  A    between atoms: C4_8  and  O3_9 
REMARK    4  A    between atoms: C7_14  and  N3_15 
ROOT
HETATM    1  C3  UNL     1       6.799  16.875  38.742  1.00  0.00     0.136 A 
HETATM    2  N1  UNL     1       6.388  16.560  39.982  1.00  0.00    -0.329 N 
ATOM      3  H1  UNL     1       5.936  17.282  40.543  1.00  0.00     0.168 HD
HETATM    4  C4  UNL     1       6.544  15.337  40.518  1.00  0.00     0.171 A 
HETATM    5  C6  UNL     1       7.160  14.388  39.728  1.00  0.00     0.117 A 
HETATM    6  N2  UNL     1       7.363  13.133  40.177  1.00  0.00    -0.187 N 
ATOM      7  H2  UNL     1       7.059  12.876  41.115  1.00  0.00     0.184 HD
HETATM    8  C7  UNL     1       7.962  12.220  39.401  1.00  0.00     0.679 A 
HETATM    9  N4  UNL     1       8.385  12.503  38.156  1.00  0.00    -0.156 N 
ATOM     10  H4  UNL     1       8.837  11.780  37.596  1.00  0.00     0.187 HD
HETATM   11  C8  UNL     1       8.214  13.729  37.653  1.00  0.00     0.274 A 
HETATM   12  O4  UNL     1       8.610  13.982  36.497  1.00  0.00    -0.267 OA
HETATM   13  C9  UNL     1       7.602  14.680  38.432  1.00  0.00     0.091 A 
HETATM   14  C10 UNL     1       7.418  15.951  37.926  1.00  0.00     0.097 A 
HETATM   15  N5  UNL     1       7.855  16.293  36.602  1.00  0.00    -0.099 NA
ENDROOT
BRANCH   1  16
HETATM   16  C2  UNL     1       6.606  18.224  38.200  1.00  0.00     0.311 C 
HETATM   17  O2  UNL     1       5.527  18.529  37.636  1.00  0.00    -0.258 OA
BRANCH  16  18
HETATM   18  O1  UNL     1       7.583  19.199  38.284  1.00  0.00    -0.321 OA
HETATM   19  C1  UNL     1       8.240  19.746  37.156  1.00  0.00     0.213 C 
ENDBRANCH  16  18
ENDBRANCH   1  16
BRANCH   4  20
HETATM   20  O3  UNL     1       6.131  14.995  41.783  1.00  0.00    -0.339 OA
HETATM   21  C5  UNL     1       6.915  15.055  42.934  1.00  0.00     0.211 C 
ENDBRANCH   4  20
BRANCH   8  22
HETATM   22  N3  UNL     1       8.144  11.034  39.849  1.00  0.00    -0.234 N 
ATOM     23  H32 UNL     1       7.338  10.528  40.218  1.00  0.00     0.174 HD
ATOM     24  H31 UNL     1       9.078  10.627  39.826  1.00  0.00     0.174 HD
ENDBRANCH   8  22
TORSDOF 4
ENDMDL
