MODEL 1
REMARK VINA RESULT: -4.943407432      0.000      0.000
REMARK  4 active torsions:
REMARK  status: ('A' for Active; 'I' for Inactive)
REMARK    1  A    between atoms: O1_2  and  C2_3 
REMARK    2  A    between atoms: C2_3  and  C3_4 
REMARK    3  A    between atoms: C3_4  and  O2_5 
REMARK    4  A    between atoms: C3_4  and  C4_7 
ROOT
HETATM    1  C2  UNL     1      16.303  40.174  37.731  1.00  0.00     0.190 C 
HETATM    2  C7  UNL     1      16.911  39.603  38.965  1.00  0.00     0.073 C 
HETATM    3  C8  UNL     1      16.706  40.698  40.008  1.00  0.00     0.032 C 
HETATM    4  C9  UNL     1      15.537  41.457  39.395  1.00  0.00     0.171 C 
HETATM    5  O3  UNL     1      15.828  41.445  38.058  1.00  0.00    -0.353 OA
ENDROOT
BRANCH   1   6
HETATM    6  O1  UNL     1      17.198  40.357  36.690  1.00  0.00    -0.358 OA
HETATM    7  C1  UNL     1      18.399  39.692  36.882  1.00  0.00     0.205 C 
ENDBRANCH   1   6
BRANCH   1   8
HETATM    8  C3  UNL     1      15.142  39.372  37.220  1.00  0.00     0.184 C 
BRANCH   8   9
HETATM    9  O2  UNL     1      14.956  39.723  35.884  1.00  0.00    -0.390 OA
ATOM     10  H2  UNL     1      14.741  40.648  35.864  1.00  0.00     0.210 HD
ENDBRANCH   8   9
BRANCH   8  11
HETATM   11  C4  UNL     1      15.268  37.909  37.329  1.00  0.00     0.020 A 
HETATM   12  C5  UNL     1      14.478  36.913  36.628  1.00  0.00     0.008 A 
HETATM   13  C6  UNL     1      14.155  37.189  38.099  1.00  0.00     0.008 A 
ENDBRANCH   8  11
ENDBRANCH   1   8
TORSDOF 4
ENDMDL
MODEL 2
REMARK VINA RESULT: -4.582940132      1.884      4.781
REMARK  4 active torsions:
REMARK  status: ('A' for Active; 'I' for Inactive)
REMARK    1  A    between atoms: O1_2  and  C2_3 
REMARK    2  A    between atoms: C2_3  and  C3_4 
REMARK    3  A    between atoms: C3_4  and  O2_5 
REMARK    4  A    between atoms: C3_4  and  C4_7 
ROOT
HETATM    1  C2  UNL     1      15.780  41.512  39.206  1.00  0.00     0.190 C 
HETATM    2  C7  UNL     1      15.434  40.147  39.695  1.00  0.00     0.073 C 
HETATM    3  C8  UNL     1      15.345  39.320  38.416  1.00  0.00     0.032 C 
HETATM    4  C9  UNL     1      16.196  40.159  37.475  1.00  0.00     0.171 C 
HETATM    5  O3  UNL     1      15.861  41.441  37.815  1.00  0.00    -0.353 OA
ENDROOT
BRANCH   1   6
HETATM    6  O1  UNL     1      14.823  42.473  39.486  1.00  0.00    -0.358 OA
HETATM    7  C1  UNL     1      14.002  42.132  40.549  1.00  0.00     0.205 C 
ENDBRANCH   1   6
BRANCH   1   8
HETATM    8  C3  UNL     1      17.104  42.001  39.715  1.00  0.00     0.184 C 
BRANCH   8   9
HETATM    9  O2  UNL     1      17.081  43.394  39.648  1.00  0.00    -0.390 OA
ATOM     10  H2  UNL     1      17.718  43.653  38.993  1.00  0.00     0.210 HD
ENDBRANCH   8   9
BRANCH   8  11
HETATM   11  C4  UNL     1      17.469  41.582  41.079  1.00  0.00     0.020 A 
HETATM   12  C5  UNL     1      18.488  42.174  41.927  1.00  0.00     0.008 A 
HETATM   13  C6  UNL     1      18.808  40.850  41.227  1.00  0.00     0.008 A 
ENDBRANCH   8  11
ENDBRANCH   1   8
TORSDOF 4
ENDMDL
MODEL 3
REMARK VINA RESULT: -4.495586612      1.876      3.108
REMARK  4 active torsions:
REMARK  status: ('A' for Active; 'I' for Inactive)
REMARK    1  A    between atoms: O1_2  and  C2_3 
REMARK    2  A    between atoms: C2_3  and  C3_4 
REMARK    3  A    between atoms: C3_4  and  O2_5 
REMARK    4  A    between atoms: C3_4  and  C4_7 
ROOT
HETATM    1  C2  UNL     1      15.376  37.869  37.491  1.00  0.00     0.190 C 
HETATM    2  C7  UNL     1      16.319  36.751  37.205  1.00  0.00     0.073 C 
HETATM    3  C8  UNL     1      16.516  36.089  38.565  1.00  0.00     0.032 C 
HETATM    4  C9  UNL     1      15.252  36.538  39.284  1.00  0.00     0.171 C 
HETATM    5  O3  UNL     1      15.095  37.828  38.858  1.00  0.00    -0.353 OA
ENDROOT
BRANCH   1   6
HETATM    6  O1  UNL     1      15.896  39.127  37.244  1.00  0.00    -0.358 OA
HETATM    7  C1  UNL     1      16.230  39.816  38.400  1.00  0.00     0.205 C 
ENDBRANCH   1   6
BRANCH   1   8
HETATM    8  C3  UNL     1      14.074  37.743  36.756  1.00  0.00     0.184 C 
BRANCH   8   9
HETATM    9  O2  UNL     1      13.846  38.957  36.111  1.00  0.00    -0.390 OA
ATOM     10  H2  UNL     1      14.421  39.599  36.512  1.00  0.00     0.210 HD
ENDBRANCH   8   9
BRANCH   8  11
HETATM   11  C4  UNL     1      13.986  36.645  35.777  1.00  0.00     0.020 A 
HETATM   12  C5  UNL     1      12.914  36.410  34.827  1.00  0.00     0.008 A 
HETATM   13  C6  UNL     1      12.969  35.541  36.087  1.00  0.00     0.008 A 
ENDBRANCH   8  11
ENDBRANCH   1   8
TORSDOF 4
ENDMDL
MODEL 4
REMARK VINA RESULT: -4.407670906      2.295      3.254
REMARK  4 active torsions:
REMARK  status: ('A' for Active; 'I' for Inactive)
REMARK    1  A    between atoms: O1_2  and  C2_3 
REMARK    2  A    between atoms: C2_3  and  C3_4 
REMARK    3  A    between atoms: C3_4  and  O2_5 
REMARK    4  A    between atoms: C3_4  and  C4_7 
ROOT
HETATM    1  C2  UNL     1      15.381  36.913  37.252  1.00  0.00     0.190 C 
HETATM    2  C7  UNL     1      15.075  36.248  38.550  1.00  0.00     0.073 C 
HETATM    3  C8  UNL     1      15.657  37.203  39.589  1.00  0.00     0.032 C 
HETATM    4  C9  UNL     1      15.683  38.502  38.796  1.00  0.00     0.171 C 
HETATM    5  O3  UNL     1      16.063  38.094  37.547  1.00  0.00    -0.353 OA
ENDROOT
BRANCH   1   6
HETATM    6  O1  UNL     1      16.218  36.183  36.425  1.00  0.00    -0.358 OA
HETATM    7  C1  UNL     1      17.537  36.179  36.852  1.00  0.00     0.205 C 
ENDBRANCH   1   6
BRANCH   1   8
HETATM    8  C3  UNL     1      14.151  37.280  36.474  1.00  0.00     0.184 C 
BRANCH   8   9
HETATM    9  O2  UNL     1      14.415  38.490  35.834  1.00  0.00    -0.390 OA
ATOM     10  H2  UNL     1      14.752  39.087  36.493  1.00  0.00     0.210 HD
ENDBRANCH   8   9
BRANCH   8  11
HETATM   11  C4  UNL     1      13.694  36.292  35.482  1.00  0.00     0.020 A 
HETATM   12  C5  UNL     1      12.446  36.317  34.740  1.00  0.00     0.008 A 
HETATM   13  C6  UNL     1      12.564  35.357  35.929  1.00  0.00     0.008 A 
ENDBRANCH   8  11
ENDBRANCH   1   8
TORSDOF 4
ENDMDL
MODEL 5
REMARK VINA RESULT: -4.396895953      2.090      4.138
REMARK  4 active torsions:
REMARK  status: ('A' for Active; 'I' for Inactive)
REMARK    1  A    between atoms: O1_2  and  C2_3 
REMARK    2  A    between atoms: C2_3  and  C3_4 
REMARK    3  A    between atoms: C3_4  and  O2_5 
REMARK    4  A    between atoms: C3_4  and  C4_7 
ROOT
HETATM    1  C2  UNL     1      16.428  40.802  38.844  1.00  0.00     0.190 C 
HETATM    2  C7  UNL     1      15.704  39.547  39.190  1.00  0.00     0.073 C 
HETATM    3  C8  UNL     1      16.748  38.456  38.969  1.00  0.00     0.032 C 
HETATM    4  C9  UNL     1      18.032  39.264  39.095  1.00  0.00     0.171 C 
HETATM    5  O3  UNL     1      17.721  40.438  38.465  1.00  0.00    -0.353 OA
ENDROOT
BRANCH   1   6
HETATM    6  O1  UNL     1      15.892  41.486  37.766  1.00  0.00    -0.358 OA
HETATM    7  C1  UNL     1      16.034  40.809  36.565  1.00  0.00     0.205 C 
ENDBRANCH   1   6
BRANCH   1   8
HETATM    8  C3  UNL     1      16.543  41.754  39.998  1.00  0.00     0.184 C 
BRANCH   8   9
HETATM    9  O2  UNL     1      16.546  43.044  39.469  1.00  0.00    -0.390 OA
ATOM     10  H2  UNL     1      15.771  43.125  38.925  1.00  0.00     0.210 HD
ENDBRANCH   8   9
BRANCH   8  11
HETATM   11  C4  UNL     1      15.496  41.651  41.029  1.00  0.00     0.020 A 
HETATM   12  C5  UNL     1      15.344  42.492  42.202  1.00  0.00     0.008 A 
HETATM   13  C6  UNL     1      15.936  41.091  42.387  1.00  0.00     0.008 A 
ENDBRANCH   8  11
ENDBRANCH   1   8
TORSDOF 4
ENDMDL
