MODEL 1
REMARK VINA RESULT: -3.414675187      0.000      0.000
REMARK  3 active torsions:
REMARK  status: ('A' for Active; 'I' for Inactive)
REMARK    1  A    between atoms: N1_2  and  C3_4 
REMARK    2  A    between atoms: C3_4  and  C4_5 
REMARK    3  A    between atoms: C4_5  and  C5_6 
ROOT
HETATM    1  C3  UNL     1      15.906  37.018  38.099  1.00  0.00     0.132 C 
HETATM    2  C6  UNL     1      15.092  36.109  39.020  1.00  0.00     0.063 C 
HETATM    3  C7  UNL     1      13.722  36.353  38.443  1.00  0.00     0.031 C 
HETATM    4  C8  UNL     1      14.039  36.478  36.975  1.00  0.00     0.171 C 
HETATM    5  O1  UNL     1      15.393  36.679  36.821  1.00  0.00    -0.361 OA
ENDROOT
BRANCH   1   6
HETATM    6  N1  UNL     1      15.719  38.356  38.274  1.00  0.00    -0.391 N 
HETATM    7  C1  UNL     1      15.817  39.345  37.284  1.00  0.00     0.145 C 
HETATM    8  C2  UNL     1      15.940  38.931  39.569  1.00  0.00     0.145 C 
ENDBRANCH   1   6
BRANCH   1   9
HETATM    9  C4  UNL     1      17.288  36.476  38.131  1.00  0.00     0.072 C 
BRANCH   9  10
HETATM   10  C5  UNL     1      18.049  36.308  36.878  1.00  0.00     0.091 C 
HETATM   11  S1  UNL     1      19.353  37.552  36.672  1.00  0.00    -0.098 SA
ENDBRANCH   9  10
ENDBRANCH   1   9
TORSDOF 3
ENDMDL
MODEL 2
REMARK VINA RESULT: -3.402499161      3.185      4.631
REMARK  3 active torsions:
REMARK  status: ('A' for Active; 'I' for Inactive)
REMARK    1  A    between atoms: N1_2  and  C3_4 
REMARK    2  A    between atoms: C3_4  and  C4_5 
REMARK    3  A    between atoms: C4_5  and  C5_6 
ROOT
HETATM    1  C3  UNL     1      15.802  39.898  38.650  1.00  0.00     0.132 C 
HETATM    2  C6  UNL     1      17.313  40.125  38.696  1.00  0.00     0.063 C 
HETATM    3  C7  UNL     1      17.637  39.866  37.248  1.00  0.00     0.031 C 
HETATM    4  C8  UNL     1      16.428  40.454  36.567  1.00  0.00     0.171 C 
HETATM    5  O1  UNL     1      15.428  40.634  37.497  1.00  0.00    -0.361 OA
ENDROOT
BRANCH   1   6
HETATM    6  N1  UNL     1      15.406  38.608  38.460  1.00  0.00    -0.391 N 
HETATM    7  C1  UNL     1      14.240  38.187  37.802  1.00  0.00     0.145 C 
HETATM    8  C2  UNL     1      15.849  37.597  39.374  1.00  0.00     0.145 C 
ENDBRANCH   1   6
BRANCH   1   9
HETATM    9  C4  UNL     1      15.254  40.656  39.802  1.00  0.00     0.072 C 
BRANCH   9  10
HETATM   10  C5  UNL     1      15.868  41.935  40.208  1.00  0.00     0.091 C 
HETATM   11  S1  UNL     1      15.940  42.143  42.009  1.00  0.00    -0.098 SA
ENDBRANCH   9  10
ENDBRANCH   1   9
TORSDOF 3
ENDMDL
MODEL 3
REMARK VINA RESULT: -3.402138637      2.820      3.884
REMARK  3 active torsions:
REMARK  status: ('A' for Active; 'I' for Inactive)
REMARK    1  A    between atoms: N1_2  and  C3_4 
REMARK    2  A    between atoms: C3_4  and  C4_5 
REMARK    3  A    between atoms: C4_5  and  C5_6 
ROOT
HETATM    1  C3  UNL     1      14.901  36.890  37.371  1.00  0.00     0.132 C 
HETATM    2  C6  UNL     1      14.201  38.233  37.167  1.00  0.00     0.063 C 
HETATM    3  C7  UNL     1      15.079  39.094  38.037  1.00  0.00     0.031 C 
HETATM    4  C8  UNL     1      16.432  38.479  37.789  1.00  0.00     0.171 C 
HETATM    5  O1  UNL     1      16.266  37.241  37.208  1.00  0.00    -0.361 OA
ENDROOT
BRANCH   1   6
HETATM    6  N1  UNL     1      14.766  36.337  38.609  1.00  0.00    -0.391 N 
HETATM    7  C1  UNL     1      15.774  35.698  39.347  1.00  0.00     0.145 C 
HETATM    8  C2  UNL     1      13.476  35.876  39.034  1.00  0.00     0.145 C 
ENDBRANCH   1   6
BRANCH   1   9
HETATM    9  C4  UNL     1      14.552  36.078  36.179  1.00  0.00     0.072 C 
BRANCH   9  10
HETATM   10  C5  UNL     1      13.342  36.393  35.395  1.00  0.00     0.091 C 
HETATM   11  S1  UNL     1      12.075  35.099  35.503  1.00  0.00    -0.098 SA
ENDBRANCH   9  10
ENDBRANCH   1   9
TORSDOF 3
ENDMDL
MODEL 4
REMARK VINA RESULT: -3.368792239      2.654      3.879
REMARK  3 active torsions:
REMARK  status: ('A' for Active; 'I' for Inactive)
REMARK    1  A    between atoms: N1_2  and  C3_4 
REMARK    2  A    between atoms: C3_4  and  C4_5 
REMARK    3  A    between atoms: C4_5  and  C5_6 
ROOT
HETATM    1  C3  UNL     1      15.993  39.552  37.764  1.00  0.00     0.132 C 
HETATM    2  C6  UNL     1      15.252  39.227  39.061  1.00  0.00     0.063 C 
HETATM    3  C7  UNL     1      15.912  40.231  39.970  1.00  0.00     0.031 C 
HETATM    4  C8  UNL     1      16.092  41.399  39.036  1.00  0.00     0.171 C 
HETATM    5  O1  UNL     1      15.933  40.968  37.737  1.00  0.00    -0.361 OA
ENDROOT
BRANCH   1   6
HETATM    6  N1  UNL     1      17.307  39.196  37.732  1.00  0.00    -0.391 N 
HETATM    7  C1  UNL     1      18.294  39.740  36.896  1.00  0.00     0.145 C 
HETATM    8  C2  UNL     1      17.688  37.878  38.150  1.00  0.00     0.145 C 
ENDBRANCH   1   6
BRANCH   1   9
HETATM    9  C4  UNL     1      15.097  39.093  36.673  1.00  0.00     0.072 C 
BRANCH   9  10
HETATM   10  C5  UNL     1      14.059  38.078  36.943  1.00  0.00     0.091 C 
HETATM   11  S1  UNL     1      14.408  36.484  36.150  1.00  0.00    -0.098 SA
ENDBRANCH   9  10
ENDBRANCH   1   9
TORSDOF 3
ENDMDL
MODEL 5
REMARK VINA RESULT: -3.349691177      2.671      3.436
REMARK  3 active torsions:
REMARK  status: ('A' for Active; 'I' for Inactive)
REMARK    1  A    between atoms: N1_2  and  C3_4 
REMARK    2  A    between atoms: C3_4  and  C4_5 
REMARK    3  A    between atoms: C4_5  and  C5_6 
ROOT
HETATM    1  C3  UNL     1      15.191  36.902  37.863  1.00  0.00     0.132 C 
HETATM    2  C6  UNL     1      14.298  38.141  37.938  1.00  0.00     0.063 C 
HETATM    3  C7  UNL     1      14.142  38.411  36.465  1.00  0.00     0.031 C 
HETATM    4  C8  UNL     1      14.082  37.010  35.914  1.00  0.00     0.171 C 
HETATM    5  O1  UNL     1      14.539  36.128  36.869  1.00  0.00    -0.361 OA
ENDROOT
BRANCH   1   6
HETATM    6  N1  UNL     1      16.468  37.120  37.441  1.00  0.00    -0.391 N 
HETATM    7  C1  UNL     1      17.343  36.160  36.911  1.00  0.00     0.145 C 
HETATM    8  C2  UNL     1      17.213  38.213  37.996  1.00  0.00     0.145 C 
ENDBRANCH   1   6
BRANCH   1   9
HETATM    9  C4  UNL     1      14.970  36.179  39.140  1.00  0.00     0.072 C 
BRANCH   9  10
HETATM   10  C5  UNL     1      13.654  35.580  39.436  1.00  0.00     0.091 C 
HETATM   11  S1  UNL     1      13.643  34.630  40.981  1.00  0.00    -0.098 SA
ENDBRANCH   9  10
ENDBRANCH   1   9
TORSDOF 3
ENDMDL
