MODEL 1
REMARK VINA RESULT: -7.489667748      0.000      0.000
REMARK  6 active torsions:
REMARK  status: ('A' for Active; 'I' for Inactive)
REMARK    1  A    between atoms: C5_5  and  C6_6 
REMARK    2  A    between atoms: C7_7  and  C8_8 
REMARK       I    between atoms: C8_8  and  N1_10 
REMARK    3  A    between atoms: N1_10  and  C9_12 
REMARK    4  A    between atoms: C18_23  and  S1_24 
REMARK    5  A    between atoms: S1_24  and  N2_27 
REMARK    6  A    between atoms: N2_27  and  C19_29 
ROOT
HETATM    1  C1  UNL     1      60.216  38.047   4.946  1.00  0.00     0.103 C 
HETATM    2  C2  UNL     1      61.279  38.047   4.337  1.00  0.00    -0.147 C 
HETATM    3  C3  UNL     1      62.530  38.031   3.644  1.00  0.00     0.030 A 
HETATM    4  C4  UNL     1      62.488  37.663   2.285  1.00  0.00     0.032 A 
HETATM    5  C5  UNL     1      63.637  37.649   1.545  1.00  0.00    -0.033 A 
HETATM    6  C16 UNL     1      64.831  38.001   2.151  1.00  0.00     0.037 A 
HETATM    7  C17 UNL     1      64.859  38.359   3.479  1.00  0.00     0.059 A 
HETATM    8 CL2  UNL     1      66.356  38.810   4.270  1.00  0.00    -0.083 Cl
HETATM    9  C18 UNL     1      63.703  38.379   4.249  1.00  0.00     0.118 A 
ENDROOT
BRANCH   9  10
HETATM   10  S1  UNL     1      63.776  38.805   5.932  1.00  0.00     0.262 S 
HETATM   11  O2  UNL     1      62.828  39.936   6.268  1.00  0.00    -0.200 OA
HETATM   12  O3  UNL     1      65.168  39.427   6.126  1.00  0.00    -0.200 OA
BRANCH  10  13
HETATM   13  N2  UNL     1      63.668  37.520   7.017  1.00  0.00    -0.311 N 
ATOM     14  H2  UNL     1      64.505  36.997   7.271  1.00  0.00     0.172 HD
BRANCH  13  15
HETATM   15  C19 UNL     1      62.429  37.168   7.572  1.00  0.00     0.085 C 
HETATM   16  C20 UNL     1      62.267  35.643   7.404  1.00  0.00     0.032 C 
HETATM   17  C21 UNL     1      62.350  37.388   9.078  1.00  0.00     0.032 C 
ENDBRANCH  13  15
ENDBRANCH  10  13
ENDBRANCH   9  10
BRANCH   5  18
HETATM   18  C6  UNL     1      63.624  37.273   0.141  1.00  0.00     0.017 C 
HETATM   19  C7  UNL     1      63.840  38.082  -0.866  1.00  0.00     0.075 C 
BRANCH  19  20
HETATM   20  C8  UNL     1      63.825  37.693  -2.264  1.00  0.00     0.245 C 
HETATM   21  O1  UNL     1      64.410  36.586  -2.544  1.00  0.00    -0.268 OA
HETATM   22  N1  UNL     1      63.220  38.463  -3.247  1.00  0.00    -0.324 N 
ATOM     23  H1  UNL     1      62.785  39.331  -2.936  1.00  0.00     0.169 HD
BRANCH  22  24
HETATM   24  C9  UNL     1      63.137  38.183  -4.628  1.00  0.00     0.036 A 
HETATM   25  C10 UNL     1      64.203  38.028  -5.454  1.00  0.00     0.030 A 
HETATM   26  C11 UNL     1      64.031  37.772  -6.824  1.00  0.00     0.011 A 
HETATM   27  C12 UNL     1      62.786  37.671  -7.368  1.00  0.00    -0.040 A 
HETATM   28  C13 UNL     1      62.667  37.398  -8.827  1.00  0.00     0.050 C 
HETATM   29  C14 UNL     1      61.684  37.823  -6.553  1.00  0.00     0.042 A 
HETATM   30 CL1  UNL     1      60.100  37.688  -7.280  1.00  0.00    -0.084 Cl
HETATM   31  C15 UNL     1      61.869  38.070  -5.236  1.00  0.00     0.053 A 
ENDBRANCH  22  24
ENDBRANCH  19  20
ENDBRANCH   5  18
TORSDOF 6
ENDMDL
MODEL 2
REMARK VINA RESULT: -7.410202582      1.489      2.161
REMARK  6 active torsions:
REMARK  status: ('A' for Active; 'I' for Inactive)
REMARK    1  A    between atoms: C5_5  and  C6_6 
REMARK    2  A    between atoms: C7_7  and  C8_8 
REMARK       I    between atoms: C8_8  and  N1_10 
REMARK    3  A    between atoms: N1_10  and  C9_12 
REMARK    4  A    between atoms: C18_23  and  S1_24 
REMARK    5  A    between atoms: S1_24  and  N2_27 
REMARK    6  A    between atoms: N2_27  and  C19_29 
ROOT
HETATM    1  C1  UNL     1      60.566  38.097   5.050  1.00  0.00     0.103 C 
HETATM    2  C2  UNL     1      61.592  38.099   4.381  1.00  0.00    -0.147 C 
HETATM    3  C3  UNL     1      62.802  38.086   3.618  1.00  0.00     0.030 A 
HETATM    4  C4  UNL     1      62.685  37.697   2.268  1.00  0.00     0.032 A 
HETATM    5  C5  UNL     1      63.790  37.684   1.464  1.00  0.00    -0.033 A 
HETATM    6  C16 UNL     1      65.013  38.057   1.995  1.00  0.00     0.037 A 
HETATM    7  C17 UNL     1      65.114  38.434   3.314  1.00  0.00     0.059 A 
HETATM    8 CL2  UNL     1      66.649  38.910   4.012  1.00  0.00    -0.083 Cl
HETATM    9  C18 UNL     1      64.003  38.454   4.149  1.00  0.00     0.118 A 
ENDROOT
BRANCH   9  10
HETATM   10  S1  UNL     1      64.168  38.904   5.819  1.00  0.00     0.262 S 
HETATM   11  O2  UNL     1      65.616  38.904   6.262  1.00  0.00    -0.200 OA
HETATM   12  O3  UNL     1      63.546  37.741   6.609  1.00  0.00    -0.200 OA
BRANCH  10  13
HETATM   13  N2  UNL     1      63.344  40.298   6.286  1.00  0.00    -0.311 N 
ATOM     14  H2  UNL     1      62.900  40.343   7.203  1.00  0.00     0.172 HD
BRANCH  13  15
HETATM   15  C19 UNL     1      63.266  41.395   5.417  1.00  0.00     0.085 C 
HETATM   16  C20 UNL     1      62.097  42.280   5.899  1.00  0.00     0.032 C 
HETATM   17  C21 UNL     1      64.480  42.314   5.484  1.00  0.00     0.032 C 
ENDBRANCH  13  15
ENDBRANCH  10  13
ENDBRANCH   9  10
BRANCH   5  18
HETATM   18  C6  UNL     1      63.701  37.287   0.068  1.00  0.00     0.017 C 
HETATM   19  C7  UNL     1      64.008  38.041  -0.958  1.00  0.00     0.075 C 
BRANCH  19  20
HETATM   20  C8  UNL     1      63.915  37.633  -2.348  1.00  0.00     0.245 C 
HETATM   21  O1  UNL     1      64.390  36.473  -2.625  1.00  0.00    -0.268 OA
HETATM   22  N1  UNL     1      63.350  38.438  -3.327  1.00  0.00    -0.324 N 
ATOM     23  H1  UNL     1      63.003  39.346  -3.020  1.00  0.00     0.169 HD
BRANCH  22  24
HETATM   24  C9  UNL     1      63.199  38.144  -4.699  1.00  0.00     0.036 A 
HETATM   25  C10 UNL     1      64.223  37.946  -5.568  1.00  0.00     0.030 A 
HETATM   26  C11 UNL     1      63.984  37.680  -6.925  1.00  0.00     0.011 A 
HETATM   27  C12 UNL     1      62.715  37.610  -7.414  1.00  0.00    -0.040 A 
HETATM   28  C13 UNL     1      62.525  37.323  -8.864  1.00  0.00     0.050 C 
HETATM   29  C14 UNL     1      61.654  37.806  -6.556  1.00  0.00     0.042 A 
HETATM   30 CL1  UNL     1      60.037  37.711  -7.212  1.00  0.00    -0.084 Cl
HETATM   31  C15 UNL     1      61.903  38.063  -5.252  1.00  0.00     0.053 A 
ENDBRANCH  22  24
ENDBRANCH  19  20
ENDBRANCH   5  18
TORSDOF 6
ENDMDL
MODEL 3
REMARK VINA RESULT: -7.379929181      1.105      1.193
REMARK  6 active torsions:
REMARK  status: ('A' for Active; 'I' for Inactive)
REMARK    1  A    between atoms: C5_5  and  C6_6 
REMARK    2  A    between atoms: C7_7  and  C8_8 
REMARK       I    between atoms: C8_8  and  N1_10 
REMARK    3  A    between atoms: N1_10  and  C9_12 
REMARK    4  A    between atoms: C18_23  and  S1_24 
REMARK    5  A    between atoms: S1_24  and  N2_27 
REMARK    6  A    between atoms: N2_27  and  C19_29 
ROOT
HETATM    1  C1  UNL     1      61.065  41.198   4.703  1.00  0.00     0.103 C 
HETATM    2  C2  UNL     1      61.825  40.333   4.286  1.00  0.00    -0.147 C 
HETATM    3  C3  UNL     1      62.705  39.306   3.821  1.00  0.00     0.030 A 
HETATM    4  C4  UNL     1      62.569  38.932   2.468  1.00  0.00     0.032 A 
HETATM    5  C5  UNL     1      63.390  37.977   1.939  1.00  0.00    -0.033 A 
HETATM    6  C16 UNL     1      64.349  37.391   2.747  1.00  0.00     0.037 A 
HETATM    7  C17 UNL     1      64.472  37.764   4.065  1.00  0.00     0.059 A 
HETATM    8 CL2  UNL     1      65.677  37.038   5.111  1.00  0.00    -0.083 Cl
HETATM    9  C18 UNL     1      63.647  38.732   4.625  1.00  0.00     0.118 A 
ENDROOT
BRANCH   9  10
HETATM   10  S1  UNL     1      63.805  39.160   6.300  1.00  0.00     0.262 S 
HETATM   11  O2  UNL     1      63.395  40.594   6.557  1.00  0.00    -0.200 OA
HETATM   12  O3  UNL     1      65.319  39.161   6.571  1.00  0.00    -0.200 OA
BRANCH  10  13
HETATM   13  N2  UNL     1      63.121  38.080   7.399  1.00  0.00    -0.311 N 
ATOM     14  H2  UNL     1      63.207  38.251   8.401  1.00  0.00     0.172 HD
BRANCH  13  15
HETATM   15  C19 UNL     1      62.435  36.947   6.940  1.00  0.00     0.085 C 
HETATM   16  C20 UNL     1      62.273  35.990   8.139  1.00  0.00     0.032 C 
HETATM   17  C21 UNL     1      61.005  37.237   6.500  1.00  0.00     0.032 C 
ENDBRANCH  13  15
ENDBRANCH  10  13
ENDBRANCH   9  10
BRANCH   5  18
HETATM   18  C6  UNL     1      63.273  37.570   0.547  1.00  0.00     0.017 C 
HETATM   19  C7  UNL     1      63.885  38.133  -0.464  1.00  0.00     0.075 C 
BRANCH  19  20
HETATM   20  C8  UNL     1      63.760  37.717  -1.849  1.00  0.00     0.245 C 
HETATM   21  O1  UNL     1      63.861  36.457  -2.066  1.00  0.00    -0.268 OA
HETATM   22  N1  UNL     1      63.545  38.617  -2.883  1.00  0.00    -0.324 N 
ATOM     23  H1  UNL     1      63.484  39.600  -2.620  1.00  0.00     0.169 HD
BRANCH  22  24
HETATM   24  C9  UNL     1      63.400  38.328  -4.257  1.00  0.00     0.036 A 
HETATM   25  C10 UNL     1      64.428  38.186  -5.133  1.00  0.00     0.030 A 
HETATM   26  C11 UNL     1      64.194  37.921  -6.491  1.00  0.00     0.011 A 
HETATM   27  C12 UNL     1      62.927  37.796  -6.974  1.00  0.00    -0.040 A 
HETATM   28  C13 UNL     1      62.742  37.513  -8.425  1.00  0.00     0.050 C 
HETATM   29  C14 UNL     1      61.863  37.934  -6.108  1.00  0.00     0.042 A 
HETATM   30 CL1  UNL     1      60.248  37.769  -6.757  1.00  0.00    -0.084 Cl
HETATM   31  C15 UNL     1      62.107  38.191  -4.803  1.00  0.00     0.053 A 
ENDBRANCH  22  24
ENDBRANCH  19  20
ENDBRANCH   5  18
TORSDOF 6
ENDMDL
MODEL 4
REMARK VINA RESULT: -7.343230713      6.004     10.736
REMARK  6 active torsions:
REMARK  status: ('A' for Active; 'I' for Inactive)
REMARK    1  A    between atoms: C5_5  and  C6_6 
REMARK    2  A    between atoms: C7_7  and  C8_8 
REMARK       I    between atoms: C8_8  and  N1_10 
REMARK    3  A    between atoms: N1_10  and  C9_12 
REMARK    4  A    between atoms: C18_23  and  S1_24 
REMARK    5  A    between atoms: S1_24  and  N2_27 
REMARK    6  A    between atoms: N2_27  and  C19_29 
ROOT
HETATM    1  C1  UNL     1      70.448  35.781  -1.150  1.00  0.00     0.103 C 
HETATM    2  C2  UNL     1      69.785  36.757  -1.480  1.00  0.00    -0.147 C 
HETATM    3  C3  UNL     1      68.998  37.881  -1.882  1.00  0.00     0.030 A 
HETATM    4  C4  UNL     1      68.328  38.575  -0.855  1.00  0.00     0.032 A 
HETATM    5  C5  UNL     1      67.577  39.677  -1.153  1.00  0.00    -0.033 A 
HETATM    6  C16 UNL     1      67.489  40.095  -2.469  1.00  0.00     0.037 A 
HETATM    7  C17 UNL     1      68.148  39.410  -3.463  1.00  0.00     0.059 A 
HETATM    8 CL2  UNL     1      68.054  39.917  -5.138  1.00  0.00    -0.083 Cl
HETATM    9  C18 UNL     1      68.916  38.286  -3.183  1.00  0.00     0.118 A 
ENDROOT
BRANCH   9  10
HETATM   10  S1  UNL     1      69.711  37.423  -4.463  1.00  0.00     0.262 S 
HETATM   11  O2  UNL     1      71.192  37.258  -4.197  1.00  0.00    -0.200 OA
HETATM   12  O3  UNL     1      69.663  38.371  -5.673  1.00  0.00    -0.200 OA
BRANCH  10  13
HETATM   13  N2  UNL     1      68.972  35.988  -4.948  1.00  0.00    -0.311 N 
ATOM     14  H2  UNL     1      69.317  35.490  -5.767  1.00  0.00     0.172 HD
BRANCH  13  15
HETATM   15  C19 UNL     1      67.883  35.478  -4.226  1.00  0.00     0.085 C 
HETATM   16  C20 UNL     1      66.598  35.949  -4.939  1.00  0.00     0.032 C 
HETATM   17  C21 UNL     1      67.789  33.957  -4.257  1.00  0.00     0.032 C 
ENDBRANCH  13  15
ENDBRANCH  10  13
ENDBRANCH   9  10
BRANCH   5  18
HETATM   18  C6  UNL     1      66.873  40.413  -0.114  1.00  0.00     0.017 C 
HETATM   19  C7  UNL     1      67.033  41.683   0.160  1.00  0.00     0.075 C 
BRANCH  19  20
HETATM   20  C8  UNL     1      66.325  42.406   1.200  1.00  0.00     0.245 C 
HETATM   21  O1  UNL     1      66.473  43.680   1.197  1.00  0.00    -0.268 OA
HETATM   22  N1  UNL     1      65.533  41.770   2.146  1.00  0.00    -0.324 N 
ATOM     23  H1  UNL     1      65.477  40.754   2.078  1.00  0.00     0.169 HD
BRANCH  22  24
HETATM   24  C9  UNL     1      64.795  42.367   3.191  1.00  0.00     0.036 A 
HETATM   25  C10 UNL     1      65.036  42.183   4.514  1.00  0.00     0.030 A 
HETATM   26  C11 UNL     1      64.237  42.799   5.491  1.00  0.00     0.011 A 
HETATM   27  C12 UNL     1      63.196  43.604   5.141  1.00  0.00    -0.040 A 
HETATM   28  C13 UNL     1      62.385  44.230   6.222  1.00  0.00     0.050 C 
HETATM   29  C14 UNL     1      62.927  43.810   3.804  1.00  0.00     0.042 A 
HETATM   30 CL1  UNL     1      61.584  44.847   3.385  1.00  0.00    -0.084 Cl
HETATM   31  C15 UNL     1      63.706  43.208   2.877  1.00  0.00     0.053 A 
ENDBRANCH  22  24
ENDBRANCH  19  20
ENDBRANCH   5  18
TORSDOF 6
ENDMDL
MODEL 5
REMARK VINA RESULT: -7.270491144      4.954      5.800
REMARK  6 active torsions:
REMARK  status: ('A' for Active; 'I' for Inactive)
REMARK    1  A    between atoms: C5_5  and  C6_6 
REMARK    2  A    between atoms: C7_7  and  C8_8 
REMARK       I    between atoms: C8_8  and  N1_10 
REMARK    3  A    between atoms: N1_10  and  C9_12 
REMARK    4  A    between atoms: C18_23  and  S1_24 
REMARK    5  A    between atoms: S1_24  and  N2_27 
REMARK    6  A    between atoms: N2_27  and  C19_29 
ROOT
HETATM    1  C1  UNL     1      64.534  41.274   5.733  1.00  0.00     0.103 C 
HETATM    2  C2  UNL     1      64.422  41.867   4.667  1.00  0.00    -0.147 C 
HETATM    3  C3  UNL     1      64.300  42.581   3.434  1.00  0.00     0.030 A 
HETATM    4  C4  UNL     1      64.950  42.017   2.317  1.00  0.00     0.032 A 
HETATM    5  C5  UNL     1      64.860  42.624   1.097  1.00  0.00    -0.033 A 
HETATM    6  C16 UNL     1      64.124  43.791   0.978  1.00  0.00     0.037 A 
HETATM    7  C17 UNL     1      63.494  44.331   2.075  1.00  0.00     0.059 A 
HETATM    8 CL2  UNL     1      62.557  45.807   1.953  1.00  0.00    -0.083 Cl
HETATM    9  C18 UNL     1      63.574  43.731   3.326  1.00  0.00     0.118 A 
ENDROOT
BRANCH   9  10
HETATM   10  S1  UNL     1      62.794  44.455   4.698  1.00  0.00     0.262 S 
HETATM   11  O2  UNL     1      62.759  45.965   4.595  1.00  0.00    -0.200 OA
HETATM   12  O3  UNL     1      63.743  44.194   5.880  1.00  0.00    -0.200 OA
BRANCH  10  13
HETATM   13  N2  UNL     1      61.302  43.797   5.125  1.00  0.00    -0.311 N 
ATOM     14  H2  UNL     1      60.934  43.938   6.065  1.00  0.00     0.172 HD
BRANCH  13  15
HETATM   15  C19 UNL     1      60.567  43.055   4.190  1.00  0.00     0.085 C 
HETATM   16  C20 UNL     1      60.791  41.562   4.510  1.00  0.00     0.032 C 
HETATM   17  C21 UNL     1      59.059  43.240   4.315  1.00  0.00     0.032 C 
ENDBRANCH  13  15
ENDBRANCH  10  13
ENDBRANCH   9  10
BRANCH   5  18
HETATM   18  C6  UNL     1      65.520  42.066  -0.073  1.00  0.00     0.017 C 
HETATM   19  C7  UNL     1      65.000  41.188  -0.893  1.00  0.00     0.075 C 
BRANCH  19  20
HETATM   20  C8  UNL     1      65.670  40.639  -2.058  1.00  0.00     0.245 C 
HETATM   21  O1  UNL     1      66.298  41.482  -2.793  1.00  0.00    -0.268 OA
HETATM   22  N1  UNL     1      65.640  39.286  -2.369  1.00  0.00    -0.324 N 
ATOM     23  H1  UNL     1      65.112  38.689  -1.733  1.00  0.00     0.169 HD
BRANCH  22  24
HETATM   24  C9  UNL     1      66.257  38.643  -3.463  1.00  0.00     0.036 A 
HETATM   25  C10 UNL     1      65.596  38.073  -4.502  1.00  0.00     0.030 A 
HETATM   26  C11 UNL     1      66.288  37.432  -5.541  1.00  0.00     0.011 A 
HETATM   27  C12 UNL     1      67.648  37.361  -5.540  1.00  0.00    -0.040 A 
HETATM   28  C13 UNL     1      68.326  36.668  -6.670  1.00  0.00     0.050 C 
HETATM   29  C14 UNL     1      68.348  37.931  -4.497  1.00  0.00     0.042 A 
HETATM   30 CL1  UNL     1      70.092  37.825  -4.523  1.00  0.00    -0.084 Cl
HETATM   31  C15 UNL     1      67.665  38.544  -3.504  1.00  0.00     0.053 A 
ENDBRANCH  22  24
ENDBRANCH  19  20
ENDBRANCH   5  18
TORSDOF 6
ENDMDL
