MODEL 1
REMARK VINA RESULT: -5.764940773      0.000      0.000
REMARK  3 active torsions:
REMARK  status: ('A' for Active; 'I' for Inactive)
REMARK    1  A    between atoms: N1_2  and  C3_4 
REMARK    2  A    between atoms: C6_7  and  N2_8 
REMARK    3  A    between atoms: N2_8  and  C7_10 
ROOT
HETATM    1  C7  UNL     1      13.887  35.835  35.996  1.00  0.00     0.108 C 
HETATM    2  C8  UNL     1      15.344  35.509  35.949  1.00  0.00     0.054 C 
HETATM    3  C9  UNL     1      13.392  35.558  37.391  1.00  0.00     0.054 C 
HETATM    4  C10 UNL     1      13.884  37.342  35.920  1.00  0.00     0.089 C 
HETATM    5  N3  UNL     1      13.860  38.513  35.862  1.00  0.00    -0.195 NA
ENDROOT
BRANCH   1   6
HETATM    6  N2  UNL     1      13.036  35.397  35.053  1.00  0.00    -0.396 N 
ATOM      7  H2  UNL     1      13.520  34.914  34.295  1.00  0.00     0.155 HD
BRANCH   6   8
HETATM    8  C6  UNL     1      11.708  35.435  34.855  1.00  0.00     0.111 C 
HETATM    9  C3  UNL     1      11.019  34.811  33.678  1.00  0.00     0.244 C 
HETATM   10  C4  UNL     1       9.747  35.030  34.536  1.00  0.00     0.040 C 
HETATM   11  C5  UNL     1      10.713  34.639  35.683  1.00  0.00     0.029 C 
BRANCH   9  12
HETATM   12  N1  UNL     1      11.028  35.512  32.448  1.00  0.00     0.086 N 
HETATM   13  C1  UNL     1      10.165  34.965  31.449  1.00  0.00     0.310 C 
HETATM   14  C2  UNL     1      10.890  36.925  32.506  1.00  0.00     0.310 C 
ENDBRANCH   9  12
ENDBRANCH   6   8
ENDBRANCH   1   6
TORSDOF 3
ENDMDL
MODEL 2
REMARK VINA RESULT: -5.578457418      0.985      1.590
REMARK  3 active torsions:
REMARK  status: ('A' for Active; 'I' for Inactive)
REMARK    1  A    between atoms: N1_2  and  C3_4 
REMARK    2  A    between atoms: C6_7  and  N2_8 
REMARK    3  A    between atoms: N2_8  and  C7_10 
ROOT
HETATM    1  C7  UNL     1      13.822  35.924  35.901  1.00  0.00     0.108 C 
HETATM    2  C8  UNL     1      13.902  37.411  35.781  1.00  0.00     0.054 C 
HETATM    3  C9  UNL     1      15.215  35.369  35.766  1.00  0.00     0.054 C 
HETATM    4  C10 UNL     1      13.511  35.728  37.364  1.00  0.00     0.089 C 
HETATM    5  N3  UNL     1      13.270  35.554  38.499  1.00  0.00    -0.195 NA
ENDROOT
BRANCH   1   6
HETATM    6  N2  UNL     1      12.915  35.208  35.212  1.00  0.00    -0.396 N 
ATOM      7  H2  UNL     1      13.330  34.384  34.778  1.00  0.00     0.155 HD
BRANCH   6   8
HETATM    8  C6  UNL     1      11.602  35.305  34.952  1.00  0.00     0.111 C 
HETATM    9  C3  UNL     1      10.946  34.732  33.731  1.00  0.00     0.244 C 
HETATM   10  C4  UNL     1       9.644  34.988  34.532  1.00  0.00     0.040 C 
HETATM   11  C5  UNL     1      10.536  34.536  35.716  1.00  0.00     0.029 C 
BRANCH   9  12
HETATM   12  N1  UNL     1      11.044  35.455  32.517  1.00  0.00     0.086 N 
HETATM   13  C1  UNL     1      10.200  34.970  31.471  1.00  0.00     0.310 C 
HETATM   14  C2  UNL     1      10.973  36.871  32.599  1.00  0.00     0.310 C 
ENDBRANCH   9  12
ENDBRANCH   6   8
ENDBRANCH   1   6
TORSDOF 3
ENDMDL
MODEL 3
REMARK VINA RESULT: -5.397367539      0.921      1.609
REMARK  3 active torsions:
REMARK  status: ('A' for Active; 'I' for Inactive)
REMARK    1  A    between atoms: N1_2  and  C3_4 
REMARK    2  A    between atoms: C6_7  and  N2_8 
REMARK    3  A    between atoms: N2_8  and  C7_10 
ROOT
HETATM    1  C7  UNL     1      13.746  36.053  36.127  1.00  0.00     0.108 C 
HETATM    2  C8  UNL     1      13.573  35.762  37.582  1.00  0.00     0.054 C 
HETATM    3  C9  UNL     1      13.854  37.545  35.959  1.00  0.00     0.054 C 
HETATM    4  C10 UNL     1      15.151  35.571  35.861  1.00  0.00     0.089 C 
HETATM    5  N3  UNL     1      16.241  35.203  35.633  1.00  0.00    -0.195 NA
ENDROOT
BRANCH   1   6
HETATM    6  N2  UNL     1      12.959  35.487  35.195  1.00  0.00    -0.396 N 
ATOM      7  H2  UNL     1      13.498  34.950  34.515  1.00  0.00     0.155 HD
BRANCH   6   8
HETATM    8  C6  UNL     1      11.642  35.449  34.934  1.00  0.00     0.111 C 
HETATM    9  C3  UNL     1      11.047  34.789  33.726  1.00  0.00     0.244 C 
HETATM   10  C4  UNL     1       9.726  34.935  34.522  1.00  0.00     0.040 C 
HETATM   11  C5  UNL     1      10.656  34.598  35.715  1.00  0.00     0.029 C 
BRANCH   9  12
HETATM   12  N1  UNL     1      11.077  35.490  32.497  1.00  0.00     0.086 N 
HETATM   13  C1  UNL     1      10.212  34.957  31.491  1.00  0.00     0.310 C 
HETATM   14  C2  UNL     1      10.960  36.904  32.555  1.00  0.00     0.310 C 
ENDBRANCH   9  12
ENDBRANCH   6   8
ENDBRANCH   1   6
TORSDOF 3
ENDMDL
MODEL 4
REMARK VINA RESULT: -5.153719556      1.201      4.507
REMARK  3 active torsions:
REMARK  status: ('A' for Active; 'I' for Inactive)
REMARK    1  A    between atoms: N1_2  and  C3_4 
REMARK    2  A    between atoms: C6_7  and  N2_8 
REMARK    3  A    between atoms: N2_8  and  C7_10 
ROOT
HETATM    1  C7  UNL     1      10.361  35.097  32.762  1.00  0.00     0.108 C 
HETATM    2  C8  UNL     1       9.004  35.385  33.316  1.00  0.00     0.054 C 
HETATM    3  C9  UNL     1      10.187  34.430  31.423  1.00  0.00     0.054 C 
HETATM    4  C10 UNL     1      10.867  36.472  32.401  1.00  0.00     0.089 C 
HETATM    5  N3  UNL     1      11.278  37.532  32.113  1.00  0.00    -0.195 NA
ENDROOT
BRANCH   1   6
HETATM    6  N2  UNL     1      11.318  34.515  33.505  1.00  0.00    -0.396 N 
ATOM      7  H2  UNL     1      11.902  33.887  32.952  1.00  0.00     0.155 HD
BRANCH   6   8
HETATM    8  C6  UNL     1      11.700  34.551  34.792  1.00  0.00     0.111 C 
HETATM    9  C3  UNL     1      12.212  35.782  35.480  1.00  0.00     0.244 C 
HETATM   10  C4  UNL     1      11.965  34.947  36.762  1.00  0.00     0.040 C 
HETATM   11  C5  UNL     1      10.729  34.471  35.958  1.00  0.00     0.029 C 
BRANCH   9  12
HETATM   12  N1  UNL     1      13.562  36.154  35.268  1.00  0.00     0.086 N 
HETATM   13  C1  UNL     1      13.918  37.423  35.820  1.00  0.00     0.310 C 
HETATM   14  C2  UNL     1      14.556  35.184  35.567  1.00  0.00     0.310 C 
ENDBRANCH   9  12
ENDBRANCH   6   8
ENDBRANCH   1   6
TORSDOF 3
ENDMDL
MODEL 5
REMARK VINA RESULT: -5.121797862      1.825      5.242
REMARK  3 active torsions:
REMARK  status: ('A' for Active; 'I' for Inactive)
REMARK    1  A    between atoms: N1_2  and  C3_4 
REMARK    2  A    between atoms: C6_7  and  N2_8 
REMARK    3  A    between atoms: N2_8  and  C7_10 
ROOT
HETATM    1  C7  UNL     1      11.840  34.916  35.418  1.00  0.00     0.108 C 
HETATM    2  C8  UNL     1      10.433  34.616  35.818  1.00  0.00     0.054 C 
HETATM    3  C9  UNL     1      12.304  33.827  34.487  1.00  0.00     0.054 C 
HETATM    4  C10 UNL     1      11.676  36.106  34.505  1.00  0.00     0.089 C 
HETATM    5  N3  UNL     1      11.569  37.032  33.792  1.00  0.00    -0.195 NA
ENDROOT
BRANCH   1   6
HETATM    6  N2  UNL     1      12.776  35.250  36.325  1.00  0.00    -0.396 N 
ATOM      7  H2  UNL     1      12.513  34.962  37.268  1.00  0.00     0.155 HD
BRANCH   6   8
HETATM    8  C6  UNL     1      13.969  35.866  36.303  1.00  0.00     0.111 C 
HETATM    9  C3  UNL     1      14.844  36.039  37.508  1.00  0.00     0.244 C 
HETATM   10  C4  UNL     1      15.920  36.396  36.451  1.00  0.00     0.040 C 
HETATM   11  C5  UNL     1      15.209  35.269  35.659  1.00  0.00     0.029 C 
BRANCH   9  12
HETATM   12  N1  UNL     1      14.537  37.084  38.413  1.00  0.00     0.086 N 
HETATM   13  C1  UNL     1      15.468  37.227  39.488  1.00  0.00     0.310 C 
HETATM   14  C2  UNL     1      14.220  38.351  37.856  1.00  0.00     0.310 C 
ENDBRANCH   9  12
ENDBRANCH   6   8
ENDBRANCH   1   6
TORSDOF 3
ENDMDL
