MODEL 1
REMARK VINA RESULT: -4.331369979      0.000      0.000
REMARK  2 active torsions:
REMARK  status: ('A' for Active; 'I' for Inactive)
REMARK    1  A    between atoms: C2_2  and  C4_4 
REMARK    2  A    between atoms: C4_4  and  C6_6 
ROOT
HETATM    1  C6  UNL     1      15.222  40.751  38.466  1.00  0.00     0.216 C 
HETATM    2  C7  UNL     1      14.638  39.649  37.657  1.00  0.00     0.203 C 
HETATM    3  O1  UNL     1      15.021  39.902  36.344  1.00  0.00    -0.362 OA
HETATM    4  C8  UNL     1      16.215  40.577  36.367  1.00  0.00     0.399 C 
HETATM    5  N1  UNL     1      16.427  41.083  37.685  1.00  0.00    -0.048 N 
ATOM      6  H11 UNL     1      17.289  40.743  38.113  1.00  0.00     0.280 HD
ATOM      7  H12 UNL     1      16.658  42.076  37.703  1.00  0.00     0.280 HD
ENDROOT
BRANCH   1   8
HETATM    8  C4  UNL     1      15.596  40.426  39.863  1.00  0.00     0.018 C 
HETATM    9  C5  UNL     1      15.816  38.949  40.098  1.00  0.00     0.012 C 
BRANCH   8  10
HETATM   10  C2  UNL     1      14.744  41.028  40.924  1.00  0.00    -0.017 C 
HETATM   11  C1  UNL     1      13.925  42.202  40.367  1.00  0.00     0.010 C 
HETATM   12  C3  UNL     1      15.450  41.530  42.129  1.00  0.00     0.010 C 
ENDBRANCH   8  10
ENDBRANCH   1   8
TORSDOF 2
ENDMDL
MODEL 2
REMARK VINA RESULT: -4.316205746      2.177      3.907
REMARK  2 active torsions:
REMARK  status: ('A' for Active; 'I' for Inactive)
REMARK    1  A    between atoms: C2_2  and  C4_4 
REMARK    2  A    between atoms: C4_4  and  C6_6 
ROOT
HETATM    1  C6  UNL     1      15.576  41.247  38.613  1.00  0.00     0.216 C 
HETATM    2  C7  UNL     1      16.401  42.008  39.590  1.00  0.00     0.203 C 
HETATM    3  O1  UNL     1      15.519  42.860  40.245  1.00  0.00    -0.362 OA
HETATM    4  C8  UNL     1      14.279  42.271  40.254  1.00  0.00     0.399 C 
HETATM    5  N1  UNL     1      14.270  41.213  39.295  1.00  0.00    -0.048 N 
ATOM      6  H11 UNL     1      14.052  40.303  39.701  1.00  0.00     0.280 HD
ATOM      7  H12 UNL     1      13.480  41.260  38.652  1.00  0.00     0.280 HD
ENDROOT
BRANCH   1   8
HETATM    8  C4  UNL     1      16.020  39.868  38.298  1.00  0.00     0.018 C 
HETATM    9  C5  UNL     1      16.744  39.756  36.977  1.00  0.00     0.012 C 
BRANCH   8  10
HETATM   10  C2  UNL     1      14.994  38.802  38.453  1.00  0.00    -0.017 C 
HETATM   11  C1  UNL     1      15.570  37.593  39.204  1.00  0.00     0.010 C 
HETATM   12  C3  UNL     1      14.392  38.282  37.199  1.00  0.00     0.010 C 
ENDBRANCH   8  10
ENDBRANCH   1   8
TORSDOF 2
ENDMDL
MODEL 3
REMARK VINA RESULT: -4.313194333      2.032      3.355
REMARK  2 active torsions:
REMARK  status: ('A' for Active; 'I' for Inactive)
REMARK    1  A    between atoms: C2_2  and  C4_4 
REMARK    2  A    between atoms: C4_4  and  C6_6 
ROOT
HETATM    1  C6  UNL     1      16.590  40.690  37.595  1.00  0.00     0.216 C 
HETATM    2  C7  UNL     1      17.443  39.903  36.665  1.00  0.00     0.203 C 
HETATM    3  O1  UNL     1      18.755  40.154  37.054  1.00  0.00    -0.362 OA
HETATM    4  C8  UNL     1      18.760  40.426  38.399  1.00  0.00     0.399 C 
HETATM    5  N1  UNL     1      17.422  40.712  38.811  1.00  0.00    -0.048 N 
ATOM      6  H11 UNL     1      17.083  40.086  39.541  1.00  0.00     0.280 HD
ATOM      7  H12 UNL     1      17.341  41.580  39.339  1.00  0.00     0.280 HD
ENDROOT
BRANCH   1   8
HETATM    8  C4  UNL     1      15.252  40.132  37.905  1.00  0.00     0.018 C 
HETATM    9  C5  UNL     1      14.695  40.606  39.227  1.00  0.00     0.012 C 
BRANCH   8  10
HETATM   10  C2  UNL     1      15.108  38.660  37.746  1.00  0.00    -0.017 C 
HETATM   11  C1  UNL     1      13.711  38.301  37.219  1.00  0.00     0.010 C 
HETATM   12  C3  UNL     1      15.330  37.841  38.964  1.00  0.00     0.010 C 
ENDBRANCH   8  10
ENDBRANCH   1   8
TORSDOF 2
ENDMDL
MODEL 4
REMARK VINA RESULT: -4.268191541      2.934      4.332
REMARK  2 active torsions:
REMARK  status: ('A' for Active; 'I' for Inactive)
REMARK    1  A    between atoms: C2_2  and  C4_4 
REMARK    2  A    between atoms: C4_4  and  C6_6 
ROOT
HETATM    1  C6  UNL     1      15.468  39.389  36.847  1.00  0.00     0.216 C 
HETATM    2  C7  UNL     1      14.384  39.418  37.865  1.00  0.00     0.203 C 
HETATM    3  O1  UNL     1      13.224  39.050  37.191  1.00  0.00    -0.362 OA
HETATM    4  C8  UNL     1      13.575  38.224  36.152  1.00  0.00     0.399 C 
HETATM    5  N1  UNL     1      14.979  38.347  35.927  1.00  0.00    -0.048 N 
ATOM      6  H11 UNL     1      15.481  37.463  36.018  1.00  0.00     0.280 HD
ATOM      7  H12 UNL     1      15.216  38.528  34.951  1.00  0.00     0.280 HD
ENDROOT
BRANCH   1   8
HETATM    8  C4  UNL     1      16.826  39.043  37.330  1.00  0.00     0.018 C 
HETATM    9  C5  UNL     1      17.924  39.833  36.654  1.00  0.00     0.012 C 
BRANCH   8  10
HETATM   10  C2  UNL     1      17.149  37.592  37.384  1.00  0.00    -0.017 C 
HETATM   11  C1  UNL     1      17.208  37.098  38.836  1.00  0.00     0.010 C 
HETATM   12  C3  UNL     1      18.419  37.176  36.737  1.00  0.00     0.010 C 
ENDBRANCH   8  10
ENDBRANCH   1   8
TORSDOF 2
ENDMDL
MODEL 5
REMARK VINA RESULT: -4.227393926      2.965      3.923
REMARK  2 active torsions:
REMARK  status: ('A' for Active; 'I' for Inactive)
REMARK    1  A    between atoms: C2_2  and  C4_4 
REMARK    2  A    between atoms: C4_4  and  C6_6 
ROOT
HETATM    1  C6  UNL     1      17.035  37.629  37.269  1.00  0.00     0.216 C 
HETATM    2  C7  UNL     1      18.033  36.666  37.807  1.00  0.00     0.203 C 
HETATM    3  O1  UNL     1      19.102  36.697  36.917  1.00  0.00    -0.362 OA
HETATM    4  C8  UNL     1      19.149  37.944  36.344  1.00  0.00     0.399 C 
HETATM    5  N1  UNL     1      17.904  38.601  36.581  1.00  0.00    -0.048 N 
ATOM      6  H11 UNL     1      18.003  39.481  37.088  1.00  0.00     0.280 HD
ATOM      7  H12 UNL     1      17.485  38.987  35.736  1.00  0.00     0.280 HD
ENDROOT
BRANCH   1   8
HETATM    8  C4  UNL     1      16.180  38.326  38.260  1.00  0.00     0.018 C 
HETATM    9  C5  UNL     1      15.750  37.443  39.409  1.00  0.00     0.012 C 
BRANCH   8  10
HETATM   10  C2  UNL     1      15.036  39.099  37.706  1.00  0.00    -0.017 C 
HETATM   11  C1  UNL     1      14.644  40.247  38.648  1.00  0.00     0.010 C 
HETATM   12  C3  UNL     1      13.797  38.332  37.426  1.00  0.00     0.010 C 
ENDBRANCH   8  10
ENDBRANCH   1   8
TORSDOF 2
ENDMDL
