MODEL 1
REMARK VINA RESULT: -9.152678604      0.000      0.000
REMARK  11 active torsions:
REMARK  status: ('A' for Active; 'I' for Inactive)
REMARK    1  A    between atoms: C7_7  and  O1_8 
REMARK    2  A    between atoms: O1_8  and  C8_9 
REMARK    3  A    between atoms: C8_9  and  C9_10 
REMARK    4  A    between atoms: C9_10  and  C10_11 
REMARK    5  A    between atoms: C10_11  and  N1_12 
REMARK    6  A    between atoms: C13_15  and  N2_16 
REMARK       I    between atoms: N2_16  and  C14_18 
REMARK    7  A    between atoms: C14_18  and  C15_20 
REMARK    8  A    between atoms: C15_20  and  N3_21 
REMARK       I    between atoms: N3_21  and  C16_22 
REMARK    9  A    between atoms: N3_21  and  C21_33 
REMARK       I    between atoms: C16_22  and  N4_24 
REMARK   10  A    between atoms: N4_24  and  S1_26 
REMARK   11  A    between atoms: S1_26  and  C17_29 
ROOT
HETATM    1  N2  UNL     1      11.022  24.418   4.139  1.00  0.00    -0.355 N 
ATOM      2  H2  UNL     1      11.242  24.912   5.003  1.00  0.00     0.162 HD
HETATM    3  C14 UNL     1      11.945  23.530   3.544  1.00  0.00     0.235 C 
HETATM    4  O2  UNL     1      11.637  22.911   2.460  1.00  0.00    -0.272 OA
ENDROOT
BRANCH   1   5
HETATM    5  C13 UNL     1       9.744  24.596   3.466  1.00  0.00     0.087 C 
HETATM    6  C12 UNL     1       8.664  23.694   3.957  1.00  0.00     0.044 C 
HETATM    7  C11 UNL     1       7.398  24.040   3.216  1.00  0.00     0.119 C 
HETATM    8  N1  UNL     1       7.032  25.415   3.243  1.00  0.00    -0.412 N 
HETATM    9  C27 UNL     1       8.109  26.263   2.865  1.00  0.00     0.119 C 
HETATM   10  C26 UNL     1       9.285  26.021   3.821  1.00  0.00     0.044 C 
BRANCH   8  11
HETATM   11  C10 UNL     1       6.248  25.830   4.356  1.00  0.00     0.119 C 
BRANCH  11  12
HETATM   12  C9  UNL     1       6.238  27.347   4.436  1.00  0.00     0.046 C 
BRANCH  12  13
HETATM   13  C8  UNL     1       6.278  27.808   5.866  1.00  0.00     0.169 C 
BRANCH  13  14
HETATM   14  O1  UNL     1       7.569  28.158   6.224  1.00  0.00    -0.385 OA
BRANCH  14  15
HETATM   15  C7  UNL     1       7.872  27.627   7.472  1.00  0.00     0.126 C 
HETATM   16  C6  UNL     1       6.933  26.513   7.805  1.00  0.00     0.033 C 
HETATM   17  C5  UNL     1       7.546  25.480   8.720  1.00  0.00     0.008 C 
HETATM   18  C4  UNL     1       9.047  25.447   8.585  1.00  0.00    -0.006 C 
HETATM   19  C2  UNL     1       9.721  26.754   8.843  1.00  0.00    -0.038 C 
HETATM   20  C29 UNL     1       9.338  25.674   7.093  1.00  0.00     0.013 C 
HETATM   21  C1  UNL     1       9.153  27.621   9.928  1.00  0.00     0.015 C 
HETATM   22  C3  UNL     1      11.204  26.615   8.957  1.00  0.00     0.015 C 
HETATM   23  C28 UNL     1       9.311  27.163   7.437  1.00  0.00     0.023 C 
ENDBRANCH  14  15
ENDBRANCH  13  14
ENDBRANCH  12  13
ENDBRANCH  11  12
ENDBRANCH   8  11
ENDBRANCH   1   5
BRANCH   3  24
HETATM   24  C15 UNL     1      13.254  23.257   4.088  1.00  0.00     0.230 C 
BRANCH  24  25
HETATM   25  N3  UNL     1      13.310  21.980   4.786  1.00  0.00    -0.320 N 
HETATM   26  C16 UNL     1      13.926  20.919   4.069  1.00  0.00     0.332 C 
HETATM   27  O3  UNL     1      14.359  21.114   2.875  1.00  0.00    -0.246 OA
HETATM   28  N4  UNL     1      14.126  19.605   4.553  1.00  0.00    -0.235 N 
ATOM     29  H4  UNL     1      13.810  19.371   5.494  1.00  0.00     0.183 HD
BRANCH  28  30
HETATM   30  S1  UNL     1      14.891  18.380   3.596  1.00  0.00     0.241 S 
HETATM   31  O4  UNL     1      14.318  17.052   4.033  1.00  0.00    -0.205 OA
HETATM   32  O5  UNL     1      14.623  18.552   2.142  1.00  0.00    -0.205 OA
BRANCH  30  33
HETATM   33  C17 UNL     1      16.636  18.353   3.876  1.00  0.00     0.072 C 
HETATM   34  C18 UNL     1      17.362  18.419   2.529  1.00  0.00     0.033 C 
HETATM   35  C19 UNL     1      17.113  19.476   4.747  1.00  0.00     0.033 C 
HETATM   36  C20 UNL     1      17.057  17.011   4.484  1.00  0.00     0.033 C 
ENDBRANCH  30  33
ENDBRANCH  28  30
BRANCH  25  37
HETATM   37  C21 UNL     1      12.815  21.883   6.126  1.00  0.00     0.089 C 
HETATM   38  C22 UNL     1      13.029  23.028   7.038  1.00  0.00     0.025 C 
HETATM   39  C23 UNL     1      11.861  23.107   7.955  1.00  0.00     0.002 C 
HETATM   40  C24 UNL     1      10.810  22.220   7.384  1.00  0.00     0.002 C 
HETATM   41  C25 UNL     1      11.338  21.542   6.169  1.00  0.00     0.025 C 
ENDBRANCH  25  37
ENDBRANCH  24  25
ENDBRANCH   3  24
TORSDOF 11
ENDMDL
MODEL 2
REMARK VINA RESULT: -9.062416055      2.846      4.129
REMARK  11 active torsions:
REMARK  status: ('A' for Active; 'I' for Inactive)
REMARK    1  A    between atoms: C7_7  and  O1_8 
REMARK    2  A    between atoms: O1_8  and  C8_9 
REMARK    3  A    between atoms: C8_9  and  C9_10 
REMARK    4  A    between atoms: C9_10  and  C10_11 
REMARK    5  A    between atoms: C10_11  and  N1_12 
REMARK    6  A    between atoms: C13_15  and  N2_16 
REMARK       I    between atoms: N2_16  and  C14_18 
REMARK    7  A    between atoms: C14_18  and  C15_20 
REMARK    8  A    between atoms: C15_20  and  N3_21 
REMARK       I    between atoms: N3_21  and  C16_22 
REMARK    9  A    between atoms: N3_21  and  C21_33 
REMARK       I    between atoms: C16_22  and  N4_24 
REMARK   10  A    between atoms: N4_24  and  S1_26 
REMARK   11  A    between atoms: S1_26  and  C17_29 
ROOT
HETATM    1  N2  UNL     1      12.489  23.184   3.331  1.00  0.00    -0.355 N 
ATOM      2  H2  UNL     1      12.947  23.744   2.612  1.00  0.00     0.162 HD
HETATM    3  C14 UNL     1      13.229  22.340   4.188  1.00  0.00     0.235 C 
HETATM    4  O2  UNL     1      12.626  21.653   5.093  1.00  0.00    -0.272 OA
ENDROOT
BRANCH   1   5
HETATM    5  C13 UNL     1      11.046  23.220   3.516  1.00  0.00     0.087 C 
HETATM    6  C12 UNL     1      10.585  24.204   4.537  1.00  0.00     0.044 C 
HETATM    7  C11 UNL     1       9.080  24.170   4.568  1.00  0.00     0.119 C 
HETATM    8  N1  UNL     1       8.439  24.332   3.308  1.00  0.00    -0.412 N 
HETATM    9  C27 UNL     1       8.964  23.449   2.324  1.00  0.00     0.119 C 
HETATM   10  C26 UNL     1      10.468  23.713   2.178  1.00  0.00     0.044 C 
BRANCH   8  11
HETATM   11  C10 UNL     1       8.194  25.673   2.901  1.00  0.00     0.119 C 
BRANCH  11  12
HETATM   12  C9  UNL     1       7.407  26.399   3.980  1.00  0.00     0.046 C 
BRANCH  12  13
HETATM   13  C8  UNL     1       8.235  27.484   4.607  1.00  0.00     0.169 C 
BRANCH  13  14
HETATM   14  O1  UNL     1       7.766  27.775   5.877  1.00  0.00    -0.385 OA
BRANCH  14  15
HETATM   15  C7  UNL     1       8.669  27.315   6.829  1.00  0.00     0.126 C 
HETATM   16  C6  UNL     1       8.636  28.190   8.042  1.00  0.00     0.033 C 
HETATM   17  C5  UNL     1       9.005  27.454   9.308  1.00  0.00     0.008 C 
HETATM   18  C4  UNL     1       8.711  25.980   9.192  1.00  0.00    -0.006 C 
HETATM   19  C2  UNL     1       9.387  25.301   8.047  1.00  0.00    -0.038 C 
HETATM   20  C29 UNL     1       7.405  25.875   8.390  1.00  0.00     0.013 C 
HETATM   21  C1  UNL     1      10.778  25.747   7.704  1.00  0.00     0.015 C 
HETATM   22  C3  UNL     1       9.282  23.813   8.128  1.00  0.00     0.015 C 
HETATM   23  C28 UNL     1       8.305  25.884   7.154  1.00  0.00     0.023 C 
ENDBRANCH  14  15
ENDBRANCH  13  14
ENDBRANCH  12  13
ENDBRANCH  11  12
ENDBRANCH   8  11
ENDBRANCH   1   5
BRANCH   3  24
HETATM   24  C15 UNL     1      14.662  22.192   4.120  1.00  0.00     0.230 C 
BRANCH  24  25
HETATM   25  N3  UNL     1      15.128  20.978   4.776  1.00  0.00    -0.320 N 
HETATM   26  C16 UNL     1      15.520  21.130   6.133  1.00  0.00     0.332 C 
HETATM   27  O3  UNL     1      15.481  22.287   6.690  1.00  0.00    -0.246 OA
HETATM   28  N4  UNL     1      15.970  20.092   6.982  1.00  0.00    -0.235 N 
ATOM     29  H4  UNL     1      16.029  19.142   6.613  1.00  0.00     0.183 HD
BRANCH  28  30
HETATM   30  S1  UNL     1      16.426  20.382   8.628  1.00  0.00     0.241 S 
HETATM   31  O4  UNL     1      17.525  21.419   8.608  1.00  0.00    -0.205 OA
HETATM   32  O5  UNL     1      15.296  20.910   9.439  1.00  0.00    -0.205 OA
BRANCH  30  33
HETATM   33  C17 UNL     1      17.058  18.914   9.380  1.00  0.00     0.072 C 
HETATM   34  C18 UNL     1      15.918  18.185  10.097  1.00  0.00     0.033 C 
HETATM   35  C19 UNL     1      17.702  17.977   8.402  1.00  0.00     0.033 C 
HETATM   36  C20 UNL     1      18.055  19.270  10.488  1.00  0.00     0.033 C 
ENDBRANCH  30  33
ENDBRANCH  28  30
BRANCH  25  37
HETATM   37  C21 UNL     1      15.107  19.736   4.064  1.00  0.00     0.089 C 
HETATM   38  C22 UNL     1      14.553  19.721   2.692  1.00  0.00     0.025 C 
HETATM   39  C23 UNL     1      15.309  18.713   1.904  1.00  0.00     0.002 C 
HETATM   40  C24 UNL     1      16.515  18.363   2.705  1.00  0.00     0.002 C 
HETATM   41  C25 UNL     1      16.476  19.086   4.004  1.00  0.00     0.025 C 
ENDBRANCH  25  37
ENDBRANCH  24  25
ENDBRANCH   3  24
TORSDOF 11
ENDMDL
MODEL 3
REMARK VINA RESULT: -9.015844779      3.325      6.183
REMARK  11 active torsions:
REMARK  status: ('A' for Active; 'I' for Inactive)
REMARK    1  A    between atoms: C7_7  and  O1_8 
REMARK    2  A    between atoms: O1_8  and  C8_9 
REMARK    3  A    between atoms: C8_9  and  C9_10 
REMARK    4  A    between atoms: C9_10  and  C10_11 
REMARK    5  A    between atoms: C10_11  and  N1_12 
REMARK    6  A    between atoms: C13_15  and  N2_16 
REMARK       I    between atoms: N2_16  and  C14_18 
REMARK    7  A    between atoms: C14_18  and  C15_20 
REMARK    8  A    between atoms: C15_20  and  N3_21 
REMARK       I    between atoms: N3_21  and  C16_22 
REMARK    9  A    between atoms: N3_21  and  C21_33 
REMARK       I    between atoms: C16_22  and  N4_24 
REMARK   10  A    between atoms: N4_24  and  S1_26 
REMARK   11  A    between atoms: S1_26  and  C17_29 
ROOT
HETATM    1  N2  UNL     1      16.162  20.478   5.020  1.00  0.00    -0.355 N 
ATOM      2  H2  UNL     1      16.248  20.593   4.011  1.00  0.00     0.162 HD
HETATM    3  C14 UNL     1      17.098  19.721   5.758  1.00  0.00     0.235 C 
HETATM    4  O2  UNL     1      16.969  19.602   7.032  1.00  0.00    -0.272 OA
ENDROOT
BRANCH   1   5
HETATM    5  C13 UNL     1      15.068  21.088   5.762  1.00  0.00     0.087 C 
HETATM    6  C12 UNL     1      15.305  22.509   6.143  1.00  0.00     0.044 C 
HETATM    7  C11 UNL     1      14.069  23.015   6.842  1.00  0.00     0.119 C 
HETATM    8  N1  UNL     1      12.848  22.822   6.137  1.00  0.00    -0.412 N 
HETATM    9  C27 UNL     1      12.690  21.478   5.699  1.00  0.00     0.119 C 
HETATM   10  C26 UNL     1      13.874  21.114   4.793  1.00  0.00     0.044 C 
BRANCH   8  11
HETATM   11  C10 UNL     1      12.493  23.845   5.214  1.00  0.00     0.119 C 
BRANCH  11  12
HETATM   12  C9  UNL     1      10.987  23.848   5.009  1.00  0.00     0.046 C 
BRANCH  12  13
HETATM   13  C8  UNL     1      10.404  25.190   5.348  1.00  0.00     0.169 C 
BRANCH  13  14
HETATM   14  O1  UNL     1      11.041  25.727   6.454  1.00  0.00    -0.385 OA
BRANCH  14  15
HETATM   15  C7  UNL     1      10.186  25.700   7.550  1.00  0.00     0.126 C 
HETATM   16  C6  UNL     1      10.796  26.430   8.704  1.00  0.00     0.033 C 
HETATM   17  C5  UNL     1       9.767  27.035   9.628  1.00  0.00     0.008 C 
HETATM   18  C4  UNL     1       8.475  27.315   8.903  1.00  0.00    -0.006 C 
HETATM   19  C2  UNL     1       7.863  26.124   8.243  1.00  0.00    -0.038 C 
HETATM   20  C29 UNL     1       8.877  27.795   7.500  1.00  0.00     0.013 C 
HETATM   21  C1  UNL     1       7.972  24.808   8.956  1.00  0.00     0.015 C 
HETATM   22  C3  UNL     1       6.471  26.389   7.771  1.00  0.00     0.015 C 
HETATM   23  C28 UNL     1       8.872  26.314   7.123  1.00  0.00     0.023 C 
ENDBRANCH  14  15
ENDBRANCH  13  14
ENDBRANCH  12  13
ENDBRANCH  11  12
ENDBRANCH   8  11
ENDBRANCH   1   5
BRANCH   3  24
HETATM   24  C15 UNL     1      18.228  19.051   5.162  1.00  0.00     0.230 C 
BRANCH  24  25
HETATM   25  N3  UNL     1      17.940  17.662   4.832  1.00  0.00    -0.320 N 
HETATM   26  C16 UNL     1      18.469  16.698   5.731  1.00  0.00     0.332 C 
HETATM   27  O3  UNL     1      19.176  17.074   6.736  1.00  0.00    -0.246 OA
HETATM   28  N4  UNL     1      18.290  15.298   5.636  1.00  0.00    -0.235 N 
ATOM     29  H4  UNL     1      17.739  14.921   4.865  1.00  0.00     0.183 HD
BRANCH  28  30
HETATM   30  S1  UNL     1      18.978  14.203   6.790  1.00  0.00     0.241 S 
HETATM   31  O4  UNL     1      18.875  14.863   8.145  1.00  0.00    -0.205 OA
HETATM   32  O5  UNL     1      18.247  12.908   6.840  1.00  0.00    -0.205 OA
BRANCH  30  33
HETATM   33  C17 UNL     1      20.685  13.905   6.443  1.00  0.00     0.072 C 
HETATM   34  C18 UNL     1      20.931  14.077   4.941  1.00  0.00     0.033 C 
HETATM   35  C19 UNL     1      21.610  14.812   7.199  1.00  0.00     0.033 C 
HETATM   36  C20 UNL     1      21.040  12.444   6.735  1.00  0.00     0.033 C 
ENDBRANCH  30  33
ENDBRANCH  28  30
BRANCH  25  37
HETATM   37  C21 UNL     1      17.121  17.360   3.696  1.00  0.00     0.089 C 
HETATM   38  C22 UNL     1      15.651  17.424   3.854  1.00  0.00     0.025 C 
HETATM   39  C23 UNL     1      15.073  17.884   2.564  1.00  0.00     0.002 C 
HETATM   40  C24 UNL     1      16.207  18.402   1.749  1.00  0.00     0.002 C 
HETATM   41  C25 UNL     1      17.482  18.201   2.488  1.00  0.00     0.025 C 
ENDBRANCH  25  37
ENDBRANCH  24  25
ENDBRANCH   3  24
TORSDOF 11
ENDMDL
MODEL 4
REMARK VINA RESULT: -8.706452235      3.297      5.227
REMARK  11 active torsions:
REMARK  status: ('A' for Active; 'I' for Inactive)
REMARK    1  A    between atoms: C7_7  and  O1_8 
REMARK    2  A    between atoms: O1_8  and  C8_9 
REMARK    3  A    between atoms: C8_9  and  C9_10 
REMARK    4  A    between atoms: C9_10  and  C10_11 
REMARK    5  A    between atoms: C10_11  and  N1_12 
REMARK    6  A    between atoms: C13_15  and  N2_16 
REMARK       I    between atoms: N2_16  and  C14_18 
REMARK    7  A    between atoms: C14_18  and  C15_20 
REMARK    8  A    between atoms: C15_20  and  N3_21 
REMARK       I    between atoms: N3_21  and  C16_22 
REMARK    9  A    between atoms: N3_21  and  C21_33 
REMARK       I    between atoms: C16_22  and  N4_24 
REMARK   10  A    between atoms: N4_24  and  S1_26 
REMARK   11  A    between atoms: S1_26  and  C17_29 
ROOT
HETATM    1  N2  UNL     1      13.225  23.331   5.891  1.00  0.00    -0.355 N 
ATOM      2  H2  UNL     1      13.913  23.555   6.610  1.00  0.00     0.162 HD
HETATM    3  C14 UNL     1      13.594  22.665   4.702  1.00  0.00     0.235 C 
HETATM    4  O2  UNL     1      12.703  22.386   3.817  1.00  0.00    -0.272 OA
ENDROOT
BRANCH   1   5
HETATM    5  C13 UNL     1      11.822  23.684   6.047  1.00  0.00     0.087 C 
HETATM    6  C12 UNL     1      11.303  23.532   7.437  1.00  0.00     0.044 C 
HETATM    7  C11 UNL     1       9.869  23.993   7.450  1.00  0.00     0.119 C 
HETATM    8  N1  UNL     1       9.639  25.288   6.908  1.00  0.00    -0.412 N 
HETATM    9  C27 UNL     1      10.227  25.442   5.622  1.00  0.00     0.119 C 
HETATM   10  C26 UNL     1      11.736  25.189   5.738  1.00  0.00     0.044 C 
BRANCH   8  11
HETATM   11  C10 UNL     1       9.781  26.377   7.813  1.00  0.00     0.119 C 
BRANCH  11  12
HETATM   12  C9  UNL     1       8.578  26.432   8.738  1.00  0.00     0.046 C 
BRANCH  12  13
HETATM   13  C8  UNL     1       7.475  27.255   8.134  1.00  0.00     0.169 C 
BRANCH  13  14
HETATM   14  O1  UNL     1       6.494  26.432   7.605  1.00  0.00    -0.385 OA
BRANCH  14  15
HETATM   15  C7  UNL     1       5.331  27.163   7.392  1.00  0.00     0.126 C 
HETATM   16  C6  UNL     1       5.486  28.051   6.199  1.00  0.00     0.033 C 
HETATM   17  C5  UNL     1       4.177  28.332   5.501  1.00  0.00     0.008 C 
HETATM   18  C4  UNL     1       3.179  27.227   5.739  1.00  0.00    -0.006 C 
HETATM   19  C2  UNL     1       2.888  26.954   7.177  1.00  0.00    -0.038 C 
HETATM   20  C29 UNL     1       3.989  25.922   5.729  1.00  0.00     0.013 C 
HETATM   21  C1  UNL     1       2.836  28.131   8.106  1.00  0.00     0.015 C 
HETATM   22  C3  UNL     1       1.714  26.048   7.357  1.00  0.00     0.015 C 
HETATM   23  C28 UNL     1       4.195  26.180   7.222  1.00  0.00     0.023 C 
ENDBRANCH  14  15
ENDBRANCH  13  14
ENDBRANCH  12  13
ENDBRANCH  11  12
ENDBRANCH   8  11
ENDBRANCH   1   5
BRANCH   3  24
HETATM   24  C15 UNL     1      14.945  22.259   4.401  1.00  0.00     0.230 C 
BRANCH  24  25
HETATM   25  N3  UNL     1      15.287  20.978   5.002  1.00  0.00    -0.320 N 
HETATM   26  C16 UNL     1      15.692  21.030   6.363  1.00  0.00     0.332 C 
HETATM   27  O3  UNL     1      15.768  22.159   6.970  1.00  0.00    -0.246 OA
HETATM   28  N4  UNL     1      16.036  19.915   7.163  1.00  0.00    -0.235 N 
ATOM     29  H4  UNL     1      16.000  18.982   6.753  1.00  0.00     0.183 HD
BRANCH  28  30
HETATM   30  S1  UNL     1      16.518  20.086   8.819  1.00  0.00     0.241 S 
HETATM   31  O4  UNL     1      17.635  21.103   8.854  1.00  0.00    -0.205 OA
HETATM   32  O5  UNL     1      15.407  20.578   9.679  1.00  0.00    -0.205 OA
BRANCH  30  33
HETATM   33  C17 UNL     1      17.133  18.560   9.462  1.00  0.00     0.072 C 
HETATM   34  C18 UNL     1      16.003  17.832  10.197  1.00  0.00     0.033 C 
HETATM   35  C19 UNL     1      17.695  17.655   8.406  1.00  0.00     0.033 C 
HETATM   36  C20 UNL     1      18.194  18.824  10.536  1.00  0.00     0.033 C 
ENDBRANCH  30  33
ENDBRANCH  28  30
BRANCH  25  37
HETATM   37  C21 UNL     1      15.144  19.776   4.236  1.00  0.00     0.089 C 
HETATM   38  C22 UNL     1      14.514  19.865   2.900  1.00  0.00     0.025 C 
HETATM   39  C23 UNL     1      15.156  18.851   2.023  1.00  0.00     0.002 C 
HETATM   40  C24 UNL     1      16.378  18.384   2.735  1.00  0.00     0.002 C 
HETATM   41  C25 UNL     1      16.460  19.043   4.066  1.00  0.00     0.025 C 
ENDBRANCH  25  37
ENDBRANCH  24  25
ENDBRANCH   3  24
TORSDOF 11
ENDMDL
MODEL 5
REMARK VINA RESULT: -8.664426323      3.062      5.358
REMARK  11 active torsions:
REMARK  status: ('A' for Active; 'I' for Inactive)
REMARK    1  A    between atoms: C7_7  and  O1_8 
REMARK    2  A    between atoms: O1_8  and  C8_9 
REMARK    3  A    between atoms: C8_9  and  C9_10 
REMARK    4  A    between atoms: C9_10  and  C10_11 
REMARK    5  A    between atoms: C10_11  and  N1_12 
REMARK    6  A    between atoms: C13_15  and  N2_16 
REMARK       I    between atoms: N2_16  and  C14_18 
REMARK    7  A    between atoms: C14_18  and  C15_20 
REMARK    8  A    between atoms: C15_20  and  N3_21 
REMARK       I    between atoms: N3_21  and  C16_22 
REMARK    9  A    between atoms: N3_21  and  C21_33 
REMARK       I    between atoms: C16_22  and  N4_24 
REMARK   10  A    between atoms: N4_24  and  S1_26 
REMARK   11  A    between atoms: S1_26  and  C17_29 
ROOT
HETATM    1  N2  UNL     1      13.185  23.593   5.774  1.00  0.00    -0.355 N 
ATOM      2  H2  UNL     1      13.859  24.352   5.678  1.00  0.00     0.162 HD
HETATM    3  C14 UNL     1      13.450  22.304   5.261  1.00  0.00     0.235 C 
HETATM    4  O2  UNL     1      12.585  21.363   5.406  1.00  0.00    -0.272 OA
ENDROOT
BRANCH   1   5
HETATM    5  C13 UNL     1      11.908  23.792   6.444  1.00  0.00     0.087 C 
HETATM    6  C12 UNL     1      11.945  24.798   7.543  1.00  0.00     0.044 C 
HETATM    7  C11 UNL     1      10.548  24.938   8.091  1.00  0.00     0.119 C 
HETATM    8  N1  UNL     1       9.538  25.204   7.125  1.00  0.00    -0.412 N 
HETATM    9  C27 UNL     1       9.584  24.289   6.036  1.00  0.00     0.119 C 
HETATM   10  C26 UNL     1      10.968  24.380   5.378  1.00  0.00     0.044 C 
BRANCH   8  11
HETATM   11  C10 UNL     1       9.326  26.574   6.804  1.00  0.00     0.119 C 
BRANCH  11  12
HETATM   12  C9  UNL     1       7.849  26.817   6.549  1.00  0.00     0.046 C 
BRANCH  12  13
HETATM   13  C8  UNL     1       7.634  27.441   5.199  1.00  0.00     0.169 C 
BRANCH  13  14
HETATM   14  O1  UNL     1       6.423  27.034   4.666  1.00  0.00    -0.385 OA
BRANCH  14  15
HETATM   15  C7  UNL     1       6.620  25.941   3.829  1.00  0.00     0.126 C 
HETATM   16  C6  UNL     1       5.518  25.852   2.823  1.00  0.00     0.033 C 
HETATM   17  C5  UNL     1       5.952  25.202   1.531  1.00  0.00     0.008 C 
HETATM   18  C4  UNL     1       7.433  25.367   1.304  1.00  0.00    -0.006 C 
HETATM   19  C2  UNL     1       8.292  24.833   2.403  1.00  0.00    -0.038 C 
HETATM   20  C29 UNL     1       7.782  26.774   1.813  1.00  0.00     0.013 C 
HETATM   21  C1  UNL     1       7.842  23.572   3.079  1.00  0.00     0.015 C 
HETATM   22  C3  UNL     1       9.735  24.778   2.020  1.00  0.00     0.015 C 
HETATM   23  C28 UNL     1       7.973  26.104   3.174  1.00  0.00     0.023 C 
ENDBRANCH  14  15
ENDBRANCH  13  14
ENDBRANCH  12  13
ENDBRANCH  11  12
ENDBRANCH   8  11
ENDBRANCH   1   5
BRANCH   3  24
HETATM   24  C15 UNL     1      14.666  21.957   4.566  1.00  0.00     0.230 C 
BRANCH  24  25
HETATM   25  N3  UNL     1      15.270  20.736   5.080  1.00  0.00    -0.320 N 
HETATM   26  C16 UNL     1      15.775  20.816   6.406  1.00  0.00     0.332 C 
HETATM   27  O3  UNL     1      15.710  21.922   7.055  1.00  0.00    -0.246 OA
HETATM   28  N4  UNL     1      16.371  19.754   7.126  1.00  0.00    -0.235 N 
ATOM     29  H4  UNL     1      16.458  18.841   6.679  1.00  0.00     0.183 HD
BRANCH  28  30
HETATM   30  S1  UNL     1      16.956  19.955   8.744  1.00  0.00     0.241 S 
HETATM   31  O4  UNL     1      18.221  20.777   8.661  1.00  0.00    -0.205 OA
HETATM   32  O5  UNL     1      15.982  20.676   9.609  1.00  0.00    -0.205 OA
BRANCH  30  33
HETATM   33  C17 UNL     1      17.352  18.396   9.475  1.00  0.00     0.072 C 
HETATM   34  C18 UNL     1      16.099  17.818  10.138  1.00  0.00     0.033 C 
HETATM   35  C19 UNL     1      17.891  17.400   8.491  1.00  0.00     0.033 C 
HETATM   36  C20 UNL     1      18.352  18.584  10.620  1.00  0.00     0.033 C 
ENDBRANCH  30  33
ENDBRANCH  28  30
BRANCH  25  37
HETATM   37  C21 UNL     1      15.268  19.551   4.275  1.00  0.00     0.089 C 
HETATM   38  C22 UNL     1      14.551  19.582   2.982  1.00  0.00     0.025 C 
HETATM   39  C23 UNL     1      15.286  18.710   2.029  1.00  0.00     0.002 C 
HETATM   40  C24 UNL     1      16.608  18.419   2.652  1.00  0.00     0.002 C 
HETATM   41  C25 UNL     1      16.669  19.040   4.002  1.00  0.00     0.025 C 
ENDBRANCH  25  37
ENDBRANCH  24  25
ENDBRANCH   3  24
TORSDOF 11
ENDMDL
