MODEL 1
REMARK VINA RESULT: -9.278806808      0.000      0.000
REMARK  11 active torsions:
REMARK  status: ('A' for Active; 'I' for Inactive)
REMARK    1  A    between atoms: C2_2  and  C3_3 
REMARK    2  A    between atoms: C7_7  and  N1_8 
REMARK       I    between atoms: N1_8  and  C8_9 
REMARK    3  A    between atoms: C8_9  and  C9_11 
REMARK    4  A    between atoms: C9_11  and  C10_12 
REMARK    5  A    between atoms: C10_12  and  C11_13 
REMARK    6  A    between atoms: C11_13  and  C12_14 
REMARK    7  A    between atoms: C12_14  and  C13_15 
REMARK    8  A    between atoms: C13_15  and  C14_16 
REMARK    9  A    between atoms: N2_24  and  C19_25 
REMARK   10  A    between atoms: C19_25  and  C20_26 
REMARK       I    between atoms: C20_26  and  N3_28 
REMARK   11  A    between atoms: N3_28  and  C21_30 
ROOT
HETATM    1  C3  UNL     1       9.372  26.770   8.184  1.00  0.00    -0.028 C 
HETATM    2  C4  UNL     1       8.371  25.769   8.800  1.00  0.00     0.015 C 
HETATM    3  C5  UNL     1       9.441  24.763   8.463  1.00  0.00    -0.000 C 
HETATM    4  C6  UNL     1       9.387  24.319   7.081  1.00  0.00     0.061 C 
HETATM    5  C7  UNL     1       9.507  25.472   6.017  1.00  0.00     0.178 C 
HETATM    6  C17 UNL     1       9.093  26.710   6.729  1.00  0.00     0.066 C 
HETATM    7  C18 UNL     1      11.001  25.651   5.860  1.00  0.00     0.266 C 
HETATM    8  O2  UNL     1      11.408  25.999   4.755  1.00  0.00    -0.269 OA
HETATM    9  N2  UNL     1      11.968  25.448   6.878  1.00  0.00    -0.320 N 
HETATM   10  C27 UNL     1      11.740  25.758   8.285  1.00  0.00     0.073 C 
HETATM   11  C28 UNL     1      10.393  25.904   8.753  1.00  0.00     0.037 C 
ENDROOT
BRANCH   5  12
HETATM   12  N1  UNL     1       8.821  25.081   4.899  1.00  0.00    -0.393 NA
HETATM   13  C8  UNL     1       8.121  24.687   3.774  1.00  0.00     0.287 C 
HETATM   14  O1  UNL     1       6.907  24.497   3.645  1.00  0.00    -0.258 OA
BRANCH  13  15
HETATM   15  C9  UNL     1       8.942  24.456   2.520  1.00  0.00     0.119 C 
BRANCH  15  16
HETATM   16  C10 UNL     1      10.047  23.524   2.504  1.00  0.00     0.010 C 
BRANCH  16  17
HETATM   17  C11 UNL     1      10.044  22.241   3.214  1.00  0.00     0.001 C 
BRANCH  17  18
HETATM   18  C12 UNL     1      11.150  22.246   4.294  1.00  0.00     0.001 C 
BRANCH  18  19
HETATM   19  C13 UNL     1      12.459  22.656   3.743  1.00  0.00     0.016 C 
BRANCH  19  20
HETATM   20  C14 UNL     1      13.532  21.634   3.716  1.00  0.00     0.059 C 
HETATM   21  C15 UNL     1      13.368  20.575   4.737  1.00  0.00     0.027 C 
HETATM   22  C16 UNL     1      14.467  19.546   4.485  1.00  0.00     0.087 C 
HETATM   23  S1  UNL     1      16.034  20.487   4.764  1.00  0.00    -0.097 SA
HETATM   24  S2  UNL     1      15.185  22.363   4.052  1.00  0.00    -0.093 SA
ENDBRANCH  19  20
ENDBRANCH  18  19
ENDBRANCH  17  18
ENDBRANCH  16  17
ENDBRANCH  15  16
ENDBRANCH  13  15
ENDBRANCH   5  12
BRANCH   1  25
HETATM   25  C2  UNL     1       9.347  28.145   8.763  1.00  0.00     0.006 C 
HETATM   26  C1  UNL     1       8.603  28.299  10.041  1.00  0.00     0.006 C 
ENDBRANCH   1  25
BRANCH   9  27
HETATM   27  C19 UNL     1      13.269  24.954   6.549  1.00  0.00     0.233 C 
BRANCH  27  28
HETATM   28  C20 UNL     1      13.670  23.685   7.142  1.00  0.00     0.236 C 
HETATM   29  O3  UNL     1      12.950  22.695   7.376  1.00  0.00    -0.272 OA
HETATM   30  N3  UNL     1      15.067  23.547   7.497  1.00  0.00    -0.355 N 
ATOM     31  H3  UNL     1      15.664  24.364   7.366  1.00  0.00     0.162 HD
BRANCH  30  32
HETATM   32  C21 UNL     1      15.676  22.380   8.007  1.00  0.00     0.084 C 
HETATM   33  C22 UNL     1      15.038  21.717   9.206  1.00  0.00     0.025 C 
HETATM   34  C23 UNL     1      16.011  20.602   9.627  1.00  0.00     0.002 C 
HETATM   35  C24 UNL     1      16.849  20.112   8.487  1.00  0.00     0.000 C 
HETATM   36  C25 UNL     1      17.838  21.194   8.103  1.00  0.00     0.002 C 
HETATM   37  C26 UNL     1      17.157  22.555   8.234  1.00  0.00     0.025 C 
ENDBRANCH  30  32
ENDBRANCH  27  28
ENDBRANCH   9  27
TORSDOF 11
ENDMDL
MODEL 2
REMARK VINA RESULT: -9.212693793      2.898      8.951
REMARK  11 active torsions:
REMARK  status: ('A' for Active; 'I' for Inactive)
REMARK    1  A    between atoms: C2_2  and  C3_3 
REMARK    2  A    between atoms: C7_7  and  N1_8 
REMARK       I    between atoms: N1_8  and  C8_9 
REMARK    3  A    between atoms: C8_9  and  C9_11 
REMARK    4  A    between atoms: C9_11  and  C10_12 
REMARK    5  A    between atoms: C10_12  and  C11_13 
REMARK    6  A    between atoms: C11_13  and  C12_14 
REMARK    7  A    between atoms: C12_14  and  C13_15 
REMARK    8  A    between atoms: C13_15  and  C14_16 
REMARK    9  A    between atoms: N2_24  and  C19_25 
REMARK   10  A    between atoms: C19_25  and  C20_26 
REMARK       I    between atoms: C20_26  and  N3_28 
REMARK   11  A    between atoms: N3_28  and  C21_30 
ROOT
HETATM    1  C3  UNL     1      16.285  19.001   3.445  1.00  0.00    -0.028 C 
HETATM    2  C4  UNL     1      15.496  17.771   3.945  1.00  0.00     0.015 C 
HETATM    3  C5  UNL     1      14.381  18.773   4.103  1.00  0.00    -0.000 C 
HETATM    4  C6  UNL     1      14.459  19.517   5.349  1.00  0.00     0.061 C 
HETATM    5  C7  UNL     1      15.803  20.309   5.556  1.00  0.00     0.178 C 
HETATM    6  C17 UNL     1      16.799  19.629   4.686  1.00  0.00     0.066 C 
HETATM    7  C18 UNL     1      15.556  21.616   4.836  1.00  0.00     0.266 C 
HETATM    8  O2  UNL     1      16.108  22.615   5.289  1.00  0.00    -0.269 OA
HETATM    9  N2  UNL     1      14.740  21.784   3.687  1.00  0.00    -0.320 N 
HETATM   10  C27 UNL     1      14.621  20.790   2.627  1.00  0.00     0.073 C 
HETATM   11  C28 UNL     1      15.010  19.437   2.897  1.00  0.00     0.037 C 
ENDROOT
BRANCH   5  12
HETATM   12  N1  UNL     1      16.035  20.390   6.903  1.00  0.00    -0.393 NA
HETATM   13  C8  UNL     1      16.276  20.468   8.261  1.00  0.00     0.287 C 
HETATM   14  O1  UNL     1      17.119  19.864   8.934  1.00  0.00    -0.258 OA
BRANCH  13  15
HETATM   15  C9  UNL     1      15.396  21.423   9.045  1.00  0.00     0.119 C 
BRANCH  15  16
HETATM   16  C10 UNL     1      14.804  22.586   8.423  1.00  0.00     0.010 C 
BRANCH  16  17
HETATM   17  C11 UNL     1      13.507  22.576   7.740  1.00  0.00     0.001 C 
BRANCH  17  18
HETATM   18  C12 UNL     1      13.131  24.015   7.323  1.00  0.00     0.001 C 
BRANCH  18  19
HETATM   19  C13 UNL     1      11.673  24.251   7.397  1.00  0.00     0.016 C 
BRANCH  19  20
HETATM   20  C14 UNL     1      11.221  25.654   7.543  1.00  0.00     0.059 C 
HETATM   21  C15 UNL     1      10.584  25.939   8.848  1.00  0.00     0.027 C 
HETATM   22  C16 UNL     1      10.304  27.439   8.884  1.00  0.00     0.087 C 
HETATM   23  S1  UNL     1       9.106  27.704   7.501  1.00  0.00    -0.097 SA
HETATM   24  S2  UNL     1       9.953  26.101   6.290  1.00  0.00    -0.093 SA
ENDBRANCH  19  20
ENDBRANCH  18  19
ENDBRANCH  17  18
ENDBRANCH  16  17
ENDBRANCH  15  16
ENDBRANCH  13  15
ENDBRANCH   5  12
BRANCH   1  25
HETATM   25  C2  UNL     1      17.328  18.721   2.416  1.00  0.00     0.006 C 
HETATM   26  C1  UNL     1      17.272  17.377   1.781  1.00  0.00     0.006 C 
ENDBRANCH   1  25
BRANCH   9  27
HETATM   27  C19 UNL     1      14.010  22.998   3.494  1.00  0.00     0.233 C 
BRANCH  27  28
HETATM   28  C20 UNL     1      12.560  22.932   3.631  1.00  0.00     0.236 C 
HETATM   29  O3  UNL     1      11.903  22.204   4.400  1.00  0.00    -0.272 OA
HETATM   30  N3  UNL     1      11.787  23.817   2.785  1.00  0.00    -0.355 N 
ATOM     31  H3  UNL     1      12.301  24.382   2.109  1.00  0.00     0.162 HD
BRANCH  30  32
HETATM   32  C21 UNL     1      10.384  23.968   2.816  1.00  0.00     0.084 C 
HETATM   33  C22 UNL     1       9.538  22.796   2.377  1.00  0.00     0.025 C 
HETATM   34  C23 UNL     1       8.091  23.318   2.350  1.00  0.00     0.002 C 
HETATM   35  C24 UNL     1       7.878  24.464   3.289  1.00  0.00     0.000 C 
HETATM   36  C25 UNL     1       8.608  25.680   2.755  1.00  0.00     0.002 C 
HETATM   37  C26 UNL     1       9.925  25.229   2.127  1.00  0.00     0.025 C 
ENDBRANCH  30  32
ENDBRANCH  27  28
ENDBRANCH   9  27
TORSDOF 11
ENDMDL
MODEL 3
REMARK VINA RESULT: -9.148980435      2.214      5.290
REMARK  11 active torsions:
REMARK  status: ('A' for Active; 'I' for Inactive)
REMARK    1  A    between atoms: C2_2  and  C3_3 
REMARK    2  A    between atoms: C7_7  and  N1_8 
REMARK       I    between atoms: N1_8  and  C8_9 
REMARK    3  A    between atoms: C8_9  and  C9_11 
REMARK    4  A    between atoms: C9_11  and  C10_12 
REMARK    5  A    between atoms: C10_12  and  C11_13 
REMARK    6  A    between atoms: C11_13  and  C12_14 
REMARK    7  A    between atoms: C12_14  and  C13_15 
REMARK    8  A    between atoms: C13_15  and  C14_16 
REMARK    9  A    between atoms: N2_24  and  C19_25 
REMARK   10  A    between atoms: C19_25  and  C20_26 
REMARK       I    between atoms: C20_26  and  N3_28 
REMARK   11  A    between atoms: N3_28  and  C21_30 
ROOT
HETATM    1  C3  UNL     1       8.987  24.246   2.806  1.00  0.00    -0.028 C 
HETATM    2  C4  UNL     1       9.598  25.473   2.094  1.00  0.00     0.015 C 
HETATM    3  C5  UNL     1      10.883  24.954   2.685  1.00  0.00    -0.000 C 
HETATM    4  C6  UNL     1      11.082  25.367   4.063  1.00  0.00     0.061 C 
HETATM    5  C7  UNL     1       9.933  24.937   5.048  1.00  0.00     0.178 C 
HETATM    6  C17 UNL     1       8.739  24.718   4.189  1.00  0.00     0.066 C 
HETATM    7  C18 UNL     1      10.324  23.533   5.454  1.00  0.00     0.266 C 
HETATM    8  O2  UNL     1      10.014  23.173   6.586  1.00  0.00    -0.269 OA
HETATM    9  N2  UNL     1      11.020  22.603   4.639  1.00  0.00    -0.320 N 
HETATM   10  C27 UNL     1      10.838  22.496   3.196  1.00  0.00     0.073 C 
HETATM   11  C28 UNL     1      10.248  23.594   2.488  1.00  0.00     0.037 C 
ENDROOT
BRANCH   5  12
HETATM   12  N1  UNL     1       9.874  25.866   6.052  1.00  0.00    -0.393 NA
HETATM   13  C8  UNL     1       9.811  26.809   7.060  1.00  0.00     0.287 C 
HETATM   14  O1  UNL     1       9.380  27.966   7.012  1.00  0.00    -0.258 OA
BRANCH  13  15
HETATM   15  C9  UNL     1      10.337  26.378   8.416  1.00  0.00     0.119 C 
BRANCH  15  16
HETATM   16  C10 UNL     1      11.494  25.520   8.538  1.00  0.00     0.010 C 
BRANCH  16  17
HETATM   17  C11 UNL     1      12.782  25.790   7.890  1.00  0.00     0.001 C 
BRANCH  17  18
HETATM   18  C12 UNL     1      13.211  24.557   7.062  1.00  0.00     0.001 C 
BRANCH  18  19
HETATM   19  C13 UNL     1      13.659  23.441   7.923  1.00  0.00     0.016 C 
BRANCH  19  20
HETATM   20  C14 UNL     1      14.812  22.641   7.448  1.00  0.00     0.059 C 
HETATM   21  C15 UNL     1      14.716  21.204   7.788  1.00  0.00     0.027 C 
HETATM   22  C16 UNL     1      15.901  20.513   7.118  1.00  0.00     0.087 C 
HETATM   23  S1  UNL     1      17.380  21.278   7.922  1.00  0.00    -0.097 SA
HETATM   24  S2  UNL     1      16.393  23.201   8.200  1.00  0.00    -0.093 SA
ENDBRANCH  19  20
ENDBRANCH  18  19
ENDBRANCH  17  18
ENDBRANCH  16  17
ENDBRANCH  15  16
ENDBRANCH  13  15
ENDBRANCH   5  12
BRANCH   1  25
HETATM   25  C2  UNL     1       7.800  23.638   2.137  1.00  0.00     0.006 C 
HETATM   26  C1  UNL     1       6.728  24.584   1.728  1.00  0.00     0.006 C 
ENDBRANCH   1  25
BRANCH   9  27
HETATM   27  C19 UNL     1      11.928  21.667   5.227  1.00  0.00     0.233 C 
BRANCH  27  28
HETATM   28  C20 UNL     1      13.174  21.411   4.516  1.00  0.00     0.236 C 
HETATM   29  O3  UNL     1      14.013  22.248   4.130  1.00  0.00    -0.272 OA
HETATM   30  N3  UNL     1      13.483  20.026   4.228  1.00  0.00    -0.355 N 
ATOM     31  H3  UNL     1      12.784  19.329   4.485  1.00  0.00     0.162 HD
BRANCH  30  32
HETATM   32  C21 UNL     1      14.669  19.556   3.622  1.00  0.00     0.084 C 
HETATM   33  C22 UNL     1      14.808  19.714   2.126  1.00  0.00     0.025 C 
HETATM   34  C23 UNL     1      16.096  18.960   1.750  1.00  0.00     0.002 C 
HETATM   35  C24 UNL     1      17.068  18.886   2.886  1.00  0.00     0.000 C 
HETATM   36  C25 UNL     1      16.516  17.953   3.945  1.00  0.00     0.002 C 
HETATM   37  C26 UNL     1      15.003  18.144   4.032  1.00  0.00     0.025 C 
ENDBRANCH  30  32
ENDBRANCH  27  28
ENDBRANCH   9  27
TORSDOF 11
ENDMDL
MODEL 4
REMARK VINA RESULT: -9.117980114      3.435      7.580
REMARK  11 active torsions:
REMARK  status: ('A' for Active; 'I' for Inactive)
REMARK    1  A    between atoms: C2_2  and  C3_3 
REMARK    2  A    between atoms: C7_7  and  N1_8 
REMARK       I    between atoms: N1_8  and  C8_9 
REMARK    3  A    between atoms: C8_9  and  C9_11 
REMARK    4  A    between atoms: C9_11  and  C10_12 
REMARK    5  A    between atoms: C10_12  and  C11_13 
REMARK    6  A    between atoms: C11_13  and  C12_14 
REMARK    7  A    between atoms: C12_14  and  C13_15 
REMARK    8  A    between atoms: C13_15  and  C14_16 
REMARK    9  A    between atoms: N2_24  and  C19_25 
REMARK   10  A    between atoms: C19_25  and  C20_26 
REMARK       I    between atoms: C20_26  and  N3_28 
REMARK   11  A    between atoms: N3_28  and  C21_30 
ROOT
HETATM    1  C3  UNL     1      14.696  20.057   4.744  1.00  0.00    -0.028 C 
HETATM    2  C4  UNL     1      14.805  21.060   3.574  1.00  0.00     0.015 C 
HETATM    3  C5  UNL     1      15.661  21.829   4.547  1.00  0.00    -0.000 C 
HETATM    4  C6  UNL     1      14.884  22.638   5.471  1.00  0.00     0.061 C 
HETATM    5  C7  UNL     1      13.844  21.832   6.333  1.00  0.00     0.178 C 
HETATM    6  C17 UNL     1      13.582  20.583   5.568  1.00  0.00     0.066 C 
HETATM    7  C18 UNL     1      14.662  21.346   7.509  1.00  0.00     0.266 C 
HETATM    8  O2  UNL     1      14.080  21.230   8.583  1.00  0.00    -0.269 OA
HETATM    9  N2  UNL     1      16.043  21.019   7.474  1.00  0.00    -0.320 N 
HETATM   10  C27 UNL     1      16.699  20.397   6.329  1.00  0.00     0.073 C 
HETATM   11  C28 UNL     1      16.061  20.457   5.047  1.00  0.00     0.037 C 
ENDROOT
BRANCH   5  12
HETATM   12  N1  UNL     1      12.802  22.671   6.622  1.00  0.00    -0.393 NA
HETATM   13  C8  UNL     1      11.745  23.513   6.913  1.00  0.00     0.287 C 
HETATM   14  O1  UNL     1      10.536  23.325   6.740  1.00  0.00    -0.258 OA
BRANCH  13  15
HETATM   15  C9  UNL     1      12.103  24.851   7.529  1.00  0.00     0.119 C 
BRANCH  15  16
HETATM   16  C10 UNL     1      11.560  25.264   8.804  1.00  0.00     0.010 C 
BRANCH  16  17
HETATM   17  C11 UNL     1      10.496  26.263   8.954  1.00  0.00     0.001 C 
BRANCH  17  18
HETATM   18  C12 UNL     1       9.219  25.580   9.492  1.00  0.00     0.001 C 
BRANCH  18  19
HETATM   19  C13 UNL     1       8.149  25.525   8.472  1.00  0.00     0.016 C 
BRANCH  19  20
HETATM   20  C14 UNL     1       8.086  26.637   7.496  1.00  0.00     0.059 C 
HETATM   21  C15 UNL     1       6.736  27.224   7.352  1.00  0.00     0.027 C 
HETATM   22  C16 UNL     1       6.875  28.427   6.422  1.00  0.00     0.087 C 
HETATM   23  S1  UNL     1       7.443  27.694   4.823  1.00  0.00    -0.097 SA
HETATM   24  S2  UNL     1       8.549  26.091   5.803  1.00  0.00    -0.093 SA
ENDBRANCH  19  20
ENDBRANCH  18  19
ENDBRANCH  17  18
ENDBRANCH  16  17
ENDBRANCH  15  16
ENDBRANCH  13  15
ENDBRANCH   5  12
BRANCH   1  25
HETATM   25  C2  UNL     1      14.553  18.624   4.352  1.00  0.00     0.006 C 
HETATM   26  C1  UNL     1      15.336  18.194   3.164  1.00  0.00     0.006 C 
ENDBRANCH   1  25
BRANCH   9  27
HETATM   27  C19 UNL     1      16.868  21.254   8.618  1.00  0.00     0.233 C 
BRANCH  27  28
HETATM   28  C20 UNL     1      17.590  20.112   9.164  1.00  0.00     0.236 C 
HETATM   29  O3  UNL     1      18.817  20.010   9.357  1.00  0.00    -0.272 OA
HETATM   30  N3  UNL     1      16.795  18.960   9.538  1.00  0.00    -0.355 N 
ATOM     31  H3  UNL     1      15.796  18.999   9.338  1.00  0.00     0.162 HD
BRANCH  30  32
HETATM   32  C21 UNL     1      17.283  17.788  10.155  1.00  0.00     0.084 C 
HETATM   33  C22 UNL     1      18.068  16.817   9.305  1.00  0.00     0.025 C 
HETATM   34  C23 UNL     1      18.302  15.584  10.195  1.00  0.00     0.002 C 
HETATM   35  C24 UNL     1      18.291  15.921  11.654  1.00  0.00     0.000 C 
HETATM   36  C25 UNL     1      16.877  16.280  12.065  1.00  0.00     0.002 C 
HETATM   37  C26 UNL     1      16.215  17.058  10.930  1.00  0.00     0.025 C 
ENDBRANCH  30  32
ENDBRANCH  27  28
ENDBRANCH   9  27
TORSDOF 11
ENDMDL
MODEL 5
REMARK VINA RESULT: -9.113134356      3.495      5.491
REMARK  11 active torsions:
REMARK  status: ('A' for Active; 'I' for Inactive)
REMARK    1  A    between atoms: C2_2  and  C3_3 
REMARK    2  A    between atoms: C7_7  and  N1_8 
REMARK       I    between atoms: N1_8  and  C8_9 
REMARK    3  A    between atoms: C8_9  and  C9_11 
REMARK    4  A    between atoms: C9_11  and  C10_12 
REMARK    5  A    between atoms: C10_12  and  C11_13 
REMARK    6  A    between atoms: C11_13  and  C12_14 
REMARK    7  A    between atoms: C12_14  and  C13_15 
REMARK    8  A    between atoms: C13_15  and  C14_16 
REMARK    9  A    between atoms: N2_24  and  C19_25 
REMARK   10  A    between atoms: C19_25  and  C20_26 
REMARK       I    between atoms: C20_26  and  N3_28 
REMARK   11  A    between atoms: N3_28  and  C21_30 
ROOT
HETATM    1  C3  UNL     1       9.628  26.643   7.556  1.00  0.00    -0.028 C 
HETATM    2  C4  UNL     1       8.322  25.822   7.630  1.00  0.00     0.015 C 
HETATM    3  C5  UNL     1       9.270  24.654   7.723  1.00  0.00    -0.000 C 
HETATM    4  C6  UNL     1       9.750  24.207   6.427  1.00  0.00     0.061 C 
HETATM    5  C7  UNL     1      10.486  25.312   5.583  1.00  0.00     0.178 C 
HETATM    6  C17 UNL     1       9.996  26.610   6.121  1.00  0.00     0.066 C 
HETATM    7  C18 UNL     1      11.911  25.250   6.088  1.00  0.00     0.266 C 
HETATM    8  O2  UNL     1      12.799  25.515   5.284  1.00  0.00    -0.269 OA
HETATM    9  N2  UNL     1      12.304  24.908   7.408  1.00  0.00    -0.320 N 
HETATM   10  C27 UNL     1      11.542  25.269   8.599  1.00  0.00     0.073 C 
HETATM   11  C28 UNL     1      10.164  25.633   8.456  1.00  0.00     0.037 C 
ENDROOT
BRANCH   5  12
HETATM   12  N1  UNL     1      10.296  25.021   4.260  1.00  0.00    -0.393 NA
HETATM   13  C8  UNL     1      10.113  24.730   2.921  1.00  0.00     0.287 C 
HETATM   14  O1  UNL     1      10.839  25.010   1.961  1.00  0.00    -0.258 OA
BRANCH  13  15
HETATM   15  C9  UNL     1       8.855  23.960   2.568  1.00  0.00     0.119 C 
BRANCH  15  16
HETATM   16  C10 UNL     1       7.592  24.632   2.362  1.00  0.00     0.010 C 
BRANCH  16  17
HETATM   17  C11 UNL     1       7.329  26.017   2.765  1.00  0.00     0.001 C 
BRANCH  17  18
HETATM   18  C12 UNL     1       6.803  26.041   4.218  1.00  0.00     0.001 C 
BRANCH  18  19
HETATM   19  C13 UNL     1       6.661  27.420   4.733  1.00  0.00     0.016 C 
BRANCH  19  20
HETATM   20  C14 UNL     1       5.420  27.742   5.475  1.00  0.00     0.059 C 
HETATM   21  C15 UNL     1       5.656  28.156   6.875  1.00  0.00     0.027 C 
HETATM   22  C16 UNL     1       4.304  28.575   7.446  1.00  0.00     0.087 C 
HETATM   23  S1  UNL     1       3.293  27.028   7.383  1.00  0.00    -0.097 SA
HETATM   24  S2  UNL     1       4.295  26.293   5.593  1.00  0.00    -0.093 SA
ENDBRANCH  19  20
ENDBRANCH  18  19
ENDBRANCH  17  18
ENDBRANCH  16  17
ENDBRANCH  15  16
ENDBRANCH  13  15
ENDBRANCH   5  12
BRANCH   1  25
HETATM   25  C2  UNL     1       9.561  28.012   8.147  1.00  0.00     0.006 C 
HETATM   26  C1  UNL     1       8.884  28.119   9.466  1.00  0.00     0.006 C 
ENDBRANCH   1  25
BRANCH   9  27
HETATM   27  C19 UNL     1      13.531  24.210   7.636  1.00  0.00     0.233 C 
BRANCH  27  28
HETATM   28  C20 UNL     1      13.670  22.892   7.030  1.00  0.00     0.236 C 
HETATM   29  O3  UNL     1      13.107  21.835   7.373  1.00  0.00    -0.272 OA
HETATM   30  N3  UNL     1      14.558  22.793   5.890  1.00  0.00    -0.355 N 
ATOM     31  H3  UNL     1      15.073  23.633   5.626  1.00  0.00     0.162 HD
BRANCH  30  32
HETATM   32  C21 UNL     1      14.773  21.635   5.112  1.00  0.00     0.084 C 
HETATM   33  C22 UNL     1      16.053  20.863   5.334  1.00  0.00     0.025 C 
HETATM   34  C23 UNL     1      16.079  19.783   4.238  1.00  0.00     0.002 C 
HETATM   35  C24 UNL     1      14.708  19.415   3.765  1.00  0.00     0.000 C 
HETATM   36  C25 UNL     1      14.130  20.575   2.979  1.00  0.00     0.002 C 
HETATM   37  C26 UNL     1      14.562  21.883   3.640  1.00  0.00     0.025 C 
ENDBRANCH  30  32
ENDBRANCH  27  28
ENDBRANCH   9  27
TORSDOF 11
ENDMDL
