MODEL 1
REMARK VINA RESULT: -5.967470167      0.000      0.000
REMARK  11 active torsions:
REMARK  status: ('A' for Active; 'I' for Inactive)
REMARK    1  A    between atoms: C1_2  and  C2_3 
REMARK    2  A    between atoms: C1_2  and  C12_14 
REMARK    3  A    between atoms: C2_3  and  C3_4 
REMARK    4  A    between atoms: C3_4  and  C4_5 
REMARK    5  A    between atoms: C4_5  and  C5_6 
REMARK    6  A    between atoms: C5_6  and  C6_7 
REMARK    7  A    between atoms: C6_7  and  N1_8 
REMARK       I    between atoms: N3_22  and  C17_23 
REMARK    8  A    between atoms: C17_23  and  C18_25 
REMARK    9  A    between atoms: C18_25  and  O3_26 
REMARK   10  A    between atoms: C20_32  and  O4_33 
REMARK   11  A    between atoms: C21_35  and  O5_36 
ROOT
HETATM    1  C12 UNL     1      58.034  11.957  25.307  1.00  0.00     0.195 C 
HETATM    2  C13 UNL     1      59.480  12.435  25.238  1.00  0.00     0.077 C 
HETATM    3  C14 UNL     1      60.030  11.568  24.153  1.00  0.00     0.237 C 
HETATM    4  N2  UNL     1      60.912  12.207  23.235  1.00  0.00    -0.065 N 
ATOM      5  H21 UNL     1      61.712  12.645  23.692  1.00  0.00     0.277 HD
ATOM      6  H22 UNL     1      60.514  13.052  22.824  1.00  0.00     0.277 HD
HETATM    7  C15 UNL     1      61.302  11.215  22.231  1.00  0.00     0.253 C 
HETATM    8  C16 UNL     1      60.058  10.732  21.479  1.00  0.00     0.156 C 
HETATM    9  N3  UNL     1      59.082  10.247  22.440  1.00  0.00    -0.318 N 
HETATM   10  C17 UNL     1      58.545   8.951  22.477  1.00  0.00     0.288 C 
HETATM   11  O2  UNL     1      57.685   8.743  23.404  1.00  0.00    -0.268 OA
HETATM   12  C22 UNL     1      58.724  11.291  23.384  1.00  0.00     0.257 C 
HETATM   13  O6  UNL     1      57.903  10.915  24.395  1.00  0.00    -0.352 OA
ENDROOT
BRANCH  10  14
HETATM   14  C18 UNL     1      58.852   7.834  21.595  1.00  0.00     0.334 C 
HETATM   15  N4  UNL     1      60.247   7.451  21.611  1.00  0.00    -0.028 N 
HETATM   16  C19 UNL     1      60.314   6.065  21.271  1.00  0.00     0.271 C 
ATOM     17  H42 UNL     1      60.828   8.037  21.010  1.00  0.00     0.281 HD
ATOM     18  H41 UNL     1      60.710   7.667  22.494  1.00  0.00     0.281 HD
HETATM   19  C20 UNL     1      58.938   5.497  21.223  1.00  0.00     0.178 C 
HETATM   20  C21 UNL     1      58.080   6.561  21.880  1.00  0.00     0.221 C 
BRANCH  14  21
HETATM   21  O3  UNL     1      58.546   8.148  20.256  1.00  0.00    -0.356 OA
ATOM     22  H3  UNL     1      58.249   7.378  19.785  1.00  0.00     0.213 HD
ENDBRANCH  14  21
BRANCH  19  23
HETATM   23  O4  UNL     1      58.839   4.278  21.890  1.00  0.00    -0.391 OA
ATOM     24  H4  UNL     1      58.510   3.582  21.333  1.00  0.00     0.210 HD
ENDBRANCH  19  23
BRANCH  20  25
HETATM   25  O5  UNL     1      56.843   6.536  21.189  1.00  0.00    -0.387 OA
ATOM     26  H5  UNL     1      56.185   7.061  21.629  1.00  0.00     0.210 HD
ENDBRANCH  20  25
ENDBRANCH  10  14
BRANCH   1  27
HETATM   27  C1  UNL     1      57.076  13.022  24.956  1.00  0.00     0.155 C 
HETATM   28  O1  UNL     1      57.452  14.177  25.057  1.00  0.00    -0.295 OA
BRANCH  27  29
HETATM   29  C2  UNL     1      55.686  12.735  24.490  1.00  0.00     0.081 C 
BRANCH  29  30
HETATM   30  C3  UNL     1      54.732  13.858  24.745  1.00  0.00     0.007 C 
BRANCH  30  31
HETATM   31  C4  UNL     1      53.603  13.890  23.782  1.00  0.00     0.002 C 
BRANCH  31  32
HETATM   32  C5  UNL     1      53.960  13.367  22.417  1.00  0.00     0.030 C 
BRANCH  32  33
HETATM   33  C6  UNL     1      54.232  14.479  21.436  1.00  0.00     0.272 C 
BRANCH  33  34
HETATM   34  N1  UNL     1      55.534  14.491  20.869  1.00  0.00     0.088 N 
HETATM   35  C7  UNL     1      55.474  15.231  19.619  1.00  0.00     0.272 C 
HETATM   36  C8  UNL     1      55.271  16.689  19.849  1.00  0.00     0.030 C 
HETATM   37  C9  UNL     1      56.211  17.310  20.831  1.00  0.00     0.003 C 
HETATM   38  C10 UNL     1      56.287  16.473  22.094  1.00  0.00     0.030 C 
HETATM   39  C11 UNL     1      56.522  15.014  21.758  1.00  0.00     0.272 C 
ENDBRANCH  33  34
ENDBRANCH  32  33
ENDBRANCH  31  32
ENDBRANCH  30  31
ENDBRANCH  29  30
ENDBRANCH  27  29
ENDBRANCH   1  27
TORSDOF 11
ENDMDL
MODEL 2
REMARK VINA RESULT: -5.754116554      6.555      9.406
REMARK  11 active torsions:
REMARK  status: ('A' for Active; 'I' for Inactive)
REMARK    1  A    between atoms: C1_2  and  C2_3 
REMARK    2  A    between atoms: C1_2  and  C12_14 
REMARK    3  A    between atoms: C2_3  and  C3_4 
REMARK    4  A    between atoms: C3_4  and  C4_5 
REMARK    5  A    between atoms: C4_5  and  C5_6 
REMARK    6  A    between atoms: C5_6  and  C6_7 
REMARK    7  A    between atoms: C6_7  and  N1_8 
REMARK       I    between atoms: N3_22  and  C17_23 
REMARK    8  A    between atoms: C17_23  and  C18_25 
REMARK    9  A    between atoms: C18_25  and  O3_26 
REMARK   10  A    between atoms: C20_32  and  O4_33 
REMARK   11  A    between atoms: C21_35  and  O5_36 
ROOT
HETATM    1  C12 UNL     1      50.226  14.941  28.926  1.00  0.00     0.195 C 
HETATM    2  C13 UNL     1      51.332  14.506  29.880  1.00  0.00     0.077 C 
HETATM    3  C14 UNL     1      52.458  14.245  28.935  1.00  0.00     0.237 C 
HETATM    4  N2  UNL     1      53.744  14.681  29.365  1.00  0.00    -0.065 N 
ATOM      5  H21 UNL     1      54.019  14.281  30.262  1.00  0.00     0.277 HD
ATOM      6  H22 UNL     1      53.758  15.662  29.646  1.00  0.00     0.277 HD
HETATM    7  C15 UNL     1      54.695  14.381  28.292  1.00  0.00     0.253 C 
HETATM    8  C16 UNL     1      54.301  15.152  27.029  1.00  0.00     0.156 C 
HETATM    9  N3  UNL     1      52.920  14.842  26.697  1.00  0.00    -0.318 N 
HETATM   10  C17 UNL     1      52.476  14.279  25.490  1.00  0.00     0.288 C 
HETATM   11  O2  UNL     1      51.209  14.103  25.404  1.00  0.00    -0.268 OA
HETATM   12  C22 UNL     1      52.035  15.191  27.794  1.00  0.00     0.257 C 
HETATM   13  O6  UNL     1      50.735  14.839  27.636  1.00  0.00    -0.352 OA
ENDROOT
BRANCH  10  14
HETATM   14  C18 UNL     1      53.280  13.877  24.345  1.00  0.00     0.334 C 
HETATM   15  N4  UNL     1      52.625  12.912  23.490  1.00  0.00    -0.028 N 
HETATM   16  C19 UNL     1      53.158  13.076  22.174  1.00  0.00     0.271 C 
ATOM     17  H42 UNL     1      52.705  11.955  23.835  1.00  0.00     0.281 HD
ATOM     18  H41 UNL     1      51.608  12.978  23.519  1.00  0.00     0.281 HD
HETATM   19  C20 UNL     1      54.023  14.287  22.134  1.00  0.00     0.178 C 
HETATM   20  C21 UNL     1      53.702  15.009  23.429  1.00  0.00     0.221 C 
BRANCH  14  21
HETATM   21  O3  UNL     1      54.487  13.281  24.759  1.00  0.00    -0.356 OA
ATOM     22  H3  UNL     1      55.034  13.904  25.223  1.00  0.00     0.213 HD
ENDBRANCH  14  21
BRANCH  19  23
HETATM   23  O4  UNL     1      53.769  15.091  21.025  1.00  0.00    -0.391 OA
ATOM     24  H4  UNL     1      54.043  14.687  20.210  1.00  0.00     0.210 HD
ENDBRANCH  19  23
BRANCH  20  25
HETATM   25  O5  UNL     1      54.920  15.596  23.853  1.00  0.00    -0.387 OA
ATOM     26  H5  UNL     1      54.886  16.544  23.806  1.00  0.00     0.210 HD
ENDBRANCH  20  25
ENDBRANCH  10  14
BRANCH   1  27
HETATM   27  C1  UNL     1      49.798  16.332  29.164  1.00  0.00     0.155 C 
HETATM   28  O1  UNL     1      49.151  16.883  28.291  1.00  0.00    -0.295 OA
BRANCH  27  29
HETATM   29  C2  UNL     1      50.126  17.073  30.419  1.00  0.00     0.081 C 
BRANCH  29  30
HETATM   30  C3  UNL     1      50.559  18.484  30.178  1.00  0.00     0.007 C 
BRANCH  30  31
HETATM   31  C4  UNL     1      51.893  18.579  29.534  1.00  0.00     0.002 C 
BRANCH  31  32
HETATM   32  C5  UNL     1      51.998  19.693  28.527  1.00  0.00     0.030 C 
BRANCH  32  33
HETATM   33  C6  UNL     1      50.658  20.050  27.935  1.00  0.00     0.272 C 
BRANCH  33  34
HETATM   34  N1  UNL     1      50.401  21.440  27.797  1.00  0.00     0.088 N 
HETATM   35  C7  UNL     1      51.450  22.013  26.970  1.00  0.00     0.272 C 
HETATM   36  C8  UNL     1      51.333  21.578  25.549  1.00  0.00     0.030 C 
HETATM   37  C9  UNL     1      49.978  21.752  24.945  1.00  0.00     0.003 C 
HETATM   38  C10 UNL     1      48.911  21.194  25.869  1.00  0.00     0.030 C 
HETATM   39  C11 UNL     1      49.097  21.714  27.281  1.00  0.00     0.272 C 
ENDBRANCH  33  34
ENDBRANCH  32  33
ENDBRANCH  31  32
ENDBRANCH  30  31
ENDBRANCH  29  30
ENDBRANCH  27  29
ENDBRANCH   1  27
TORSDOF 11
ENDMDL
MODEL 3
REMARK VINA RESULT: -5.746433293      5.386      9.011
REMARK  11 active torsions:
REMARK  status: ('A' for Active; 'I' for Inactive)
REMARK    1  A    between atoms: C1_2  and  C2_3 
REMARK    2  A    between atoms: C1_2  and  C12_14 
REMARK    3  A    between atoms: C2_3  and  C3_4 
REMARK    4  A    between atoms: C3_4  and  C4_5 
REMARK    5  A    between atoms: C4_5  and  C5_6 
REMARK    6  A    between atoms: C5_6  and  C6_7 
REMARK    7  A    between atoms: C6_7  and  N1_8 
REMARK       I    between atoms: N3_22  and  C17_23 
REMARK    8  A    between atoms: C17_23  and  C18_25 
REMARK    9  A    between atoms: C18_25  and  O3_26 
REMARK   10  A    between atoms: C20_32  and  O4_33 
REMARK   11  A    between atoms: C21_35  and  O5_36 
ROOT
HETATM    1  C12 UNL     1      53.346  13.074  23.125  1.00  0.00     0.195 C 
HETATM    2  C13 UNL     1      54.672  12.658  23.754  1.00  0.00     0.077 C 
HETATM    3  C14 UNL     1      55.586  13.730  23.260  1.00  0.00     0.237 C 
HETATM    4  N2  UNL     1      56.534  14.222  24.204  1.00  0.00    -0.065 N 
ATOM      5  H21 UNL     1      57.127  13.487  24.590  1.00  0.00     0.277 HD
ATOM      6  H22 UNL     1      56.103  14.520  25.080  1.00  0.00     0.277 HD
HETATM    7  C15 UNL     1      57.297  15.287  23.552  1.00  0.00     0.253 C 
HETATM    8  C16 UNL     1      56.352  16.424  23.152  1.00  0.00     0.156 C 
HETATM    9  N3  UNL     1      55.279  15.881  22.335  1.00  0.00    -0.318 N 
HETATM   10  C17 UNL     1      54.970  16.277  21.024  1.00  0.00     0.288 C 
HETATM   11  O2  UNL     1      53.970  15.675  20.494  1.00  0.00    -0.268 OA
HETATM   12  C22 UNL     1      54.550  14.852  23.056  1.00  0.00     0.257 C 
HETATM   13  O6  UNL     1      53.598  14.199  22.346  1.00  0.00    -0.352 OA
ENDROOT
BRANCH  10  14
HETATM   14  C18 UNL     1      55.647  17.277  20.212  1.00  0.00     0.334 C 
HETATM   15  N4  UNL     1      55.568  17.018  18.791  1.00  0.00    -0.028 N 
HETATM   16  C19 UNL     1      55.666  18.277  18.121  1.00  0.00     0.271 C 
ATOM     17  H42 UNL     1      56.262  16.341  18.471  1.00  0.00     0.281 HD
ATOM     18  H41 UNL     1      54.736  16.490  18.528  1.00  0.00     0.281 HD
HETATM   19  C20 UNL     1      55.612  19.379  19.121  1.00  0.00     0.178 C 
HETATM   20  C21 UNL     1      55.147  18.696  20.393  1.00  0.00     0.221 C 
BRANCH  14  21
HETATM   21  O3  UNL     1      57.019  17.338  20.525  1.00  0.00    -0.356 OA
ATOM     22  H3  UNL     1      57.539  17.503  19.747  1.00  0.00     0.213 HD
ENDBRANCH  14  21
BRANCH  19  23
HETATM   23  O4  UNL     1      54.745  20.402  18.744  1.00  0.00    -0.391 OA
ATOM     24  H4  UNL     1      55.163  21.047  18.185  1.00  0.00     0.210 HD
ENDBRANCH  19  23
BRANCH  20  25
HETATM   25  O5  UNL     1      55.821  19.356  21.450  1.00  0.00    -0.387 OA
ATOM     26  H5  UNL     1      55.269  19.438  22.220  1.00  0.00     0.210 HD
ENDBRANCH  20  25
ENDBRANCH  10  14
BRANCH   1  27
HETATM   27  C1  UNL     1      52.329  13.411  24.138  1.00  0.00     0.155 C 
HETATM   28  O1  UNL     1      51.207  12.962  23.985  1.00  0.00    -0.295 OA
BRANCH  27  29
HETATM   29  C2  UNL     1      52.625  14.269  25.324  1.00  0.00     0.081 C 
BRANCH  29  30
HETATM   30  C3  UNL     1      51.465  14.414  26.255  1.00  0.00     0.007 C 
BRANCH  30  31
HETATM   31  C4  UNL     1      51.864  14.413  27.685  1.00  0.00     0.002 C 
BRANCH  31  32
HETATM   32  C5  UNL     1      50.776  14.878  28.615  1.00  0.00     0.030 C 
BRANCH  32  33
HETATM   33  C6  UNL     1      50.240  16.232  28.228  1.00  0.00     0.272 C 
BRANCH  33  34
HETATM   34  N1  UNL     1      49.924  17.099  29.309  1.00  0.00     0.088 N 
HETATM   35  C7  UNL     1      51.171  17.597  29.865  1.00  0.00     0.272 C 
HETATM   36  C8  UNL     1      51.842  18.557  28.944  1.00  0.00     0.030 C 
HETATM   37  C9  UNL     1      50.970  19.657  28.433  1.00  0.00     0.003 C 
HETATM   38  C10 UNL     1      49.657  19.095  27.918  1.00  0.00     0.030 C 
HETATM   39  C11 UNL     1      49.040  18.155  28.934  1.00  0.00     0.272 C 
ENDBRANCH  33  34
ENDBRANCH  32  33
ENDBRANCH  31  32
ENDBRANCH  30  31
ENDBRANCH  29  30
ENDBRANCH  27  29
ENDBRANCH   1  27
TORSDOF 11
ENDMDL
MODEL 4
REMARK VINA RESULT: -5.710017803      4.975      8.077
REMARK  11 active torsions:
REMARK  status: ('A' for Active; 'I' for Inactive)
REMARK    1  A    between atoms: C1_2  and  C2_3 
REMARK    2  A    between atoms: C1_2  and  C12_14 
REMARK    3  A    between atoms: C2_3  and  C3_4 
REMARK    4  A    between atoms: C3_4  and  C4_5 
REMARK    5  A    between atoms: C4_5  and  C5_6 
REMARK    6  A    between atoms: C5_6  and  C6_7 
REMARK    7  A    between atoms: C6_7  and  N1_8 
REMARK       I    between atoms: N3_22  and  C17_23 
REMARK    8  A    between atoms: C17_23  and  C18_25 
REMARK    9  A    between atoms: C18_25  and  O3_26 
REMARK   10  A    between atoms: C20_32  and  O4_33 
REMARK   11  A    between atoms: C21_35  and  O5_36 
ROOT
HETATM    1  C12 UNL     1      54.736  15.480  21.464  1.00  0.00     0.195 C 
HETATM    2  C13 UNL     1      55.162  14.809  20.163  1.00  0.00     0.077 C 
HETATM    3  C14 UNL     1      56.650  14.840  20.283  1.00  0.00     0.237 C 
HETATM    4  N2  UNL     1      57.333  13.668  19.847  1.00  0.00    -0.065 N 
ATOM      5  H21 UNL     1      57.123  13.424  18.879  1.00  0.00     0.277 HD
ATOM      6  H22 UNL     1      56.976  12.816  20.280  1.00  0.00     0.277 HD
HETATM    7  C15 UNL     1      58.763  13.873  20.086  1.00  0.00     0.253 C 
HETATM    8  C16 UNL     1      59.008  14.068  21.585  1.00  0.00     0.156 C 
HETATM    9  N3  UNL     1      58.167  15.152  22.065  1.00  0.00    -0.318 N 
HETATM   10  C17 UNL     1      58.623  16.328  22.683  1.00  0.00     0.288 C 
HETATM   11  O2  UNL     1      57.704  17.146  23.042  1.00  0.00    -0.268 OA
HETATM   12  C22 UNL     1      56.765  14.867  21.819  1.00  0.00     0.257 C 
HETATM   13  O6  UNL     1      55.898  15.863  22.126  1.00  0.00    -0.352 OA
ENDROOT
BRANCH  10  14
HETATM   14  C18 UNL     1      59.999  16.716  22.955  1.00  0.00     0.334 C 
HETATM   15  N4  UNL     1      60.665  15.854  23.908  1.00  0.00    -0.028 N 
HETATM   16  C19 UNL     1      62.065  15.905  23.625  1.00  0.00     0.271 C 
ATOM     17  H42 UNL     1      60.445  16.088  24.877  1.00  0.00     0.281 HD
ATOM     18  H41 UNL     1      60.293  14.904  23.914  1.00  0.00     0.281 HD
HETATM   19  C20 UNL     1      62.289  16.652  22.357  1.00  0.00     0.178 C 
HETATM   20  C21 UNL     1      60.906  16.755  21.742  1.00  0.00     0.221 C 
BRANCH  14  21
HETATM   21  O3  UNL     1      60.060  18.017  23.492  1.00  0.00    -0.356 OA
ATOM     22  H3  UNL     1      60.944  18.362  23.448  1.00  0.00     0.213 HD
ENDBRANCH  14  21
BRANCH  19  23
HETATM   23  O4  UNL     1      63.181  16.005  21.504  1.00  0.00    -0.391 OA
ATOM     24  H4  UNL     1      63.730  16.611  21.021  1.00  0.00     0.210 HD
ENDBRANCH  19  23
BRANCH  20  25
HETATM   25  O5  UNL     1      60.865  18.017  21.100  1.00  0.00    -0.387 OA
ATOM     26  H5  UNL     1      61.664  18.190  20.616  1.00  0.00     0.210 HD
ENDBRANCH  20  25
ENDBRANCH  10  14
BRANCH   1  27
HETATM   27  C1  UNL     1      53.967  14.572  22.335  1.00  0.00     0.155 C 
HETATM   28  O1  UNL     1      53.605  13.508  21.866  1.00  0.00    -0.295 OA
BRANCH  27  29
HETATM   29  C2  UNL     1      53.622  14.911  23.749  1.00  0.00     0.081 C 
BRANCH  29  30
HETATM   30  C3  UNL     1      52.941  13.797  24.476  1.00  0.00     0.007 C 
BRANCH  30  31
HETATM   31  C4  UNL     1      51.803  14.258  25.310  1.00  0.00     0.002 C 
BRANCH  31  32
HETATM   32  C5  UNL     1      52.186  14.571  26.731  1.00  0.00     0.030 C 
BRANCH  32  33
HETATM   33  C6  UNL     1      50.989  14.926  27.576  1.00  0.00     0.272 C 
BRANCH  33  34
HETATM   34  N1  UNL     1      51.278  15.567  28.811  1.00  0.00     0.088 N 
HETATM   35  C7  UNL     1      51.057  16.994  28.641  1.00  0.00     0.272 C 
HETATM   36  C8  UNL     1      49.608  17.316  28.508  1.00  0.00     0.030 C 
HETATM   37  C9  UNL     1      48.731  16.729  29.565  1.00  0.00     0.003 C 
HETATM   38  C10 UNL     1      49.038  15.254  29.748  1.00  0.00     0.030 C 
HETATM   39  C11 UNL     1      50.530  15.031  29.902  1.00  0.00     0.272 C 
ENDBRANCH  33  34
ENDBRANCH  32  33
ENDBRANCH  31  32
ENDBRANCH  30  31
ENDBRANCH  29  30
ENDBRANCH  27  29
ENDBRANCH   1  27
TORSDOF 11
ENDMDL
MODEL 5
REMARK VINA RESULT: -5.675717692      8.026     11.802
REMARK  11 active torsions:
REMARK  status: ('A' for Active; 'I' for Inactive)
REMARK    1  A    between atoms: C1_2  and  C2_3 
REMARK    2  A    between atoms: C1_2  and  C12_14 
REMARK    3  A    between atoms: C2_3  and  C3_4 
REMARK    4  A    between atoms: C3_4  and  C4_5 
REMARK    5  A    between atoms: C4_5  and  C5_6 
REMARK    6  A    between atoms: C5_6  and  C6_7 
REMARK    7  A    between atoms: C6_7  and  N1_8 
REMARK       I    between atoms: N3_22  and  C17_23 
REMARK    8  A    between atoms: C17_23  and  C18_25 
REMARK    9  A    between atoms: C18_25  and  O3_26 
REMARK   10  A    between atoms: C20_32  and  O4_33 
REMARK   11  A    between atoms: C21_35  and  O5_36 
ROOT
HETATM    1  C12 UNL     1      51.945  15.773  28.265  1.00  0.00     0.195 C 
HETATM    2  C13 UNL     1      52.831  15.780  29.505  1.00  0.00     0.077 C 
HETATM    3  C14 UNL     1      51.855  15.410  30.573  1.00  0.00     0.237 C 
HETATM    4  N2  UNL     1      52.332  14.503  31.563  1.00  0.00    -0.065 N 
ATOM      5  H21 UNL     1      53.170  14.838  32.037  1.00  0.00     0.277 HD
ATOM      6  H22 UNL     1      52.735  13.655  31.163  1.00  0.00     0.277 HD
HETATM    7  C15 UNL     1      51.227  14.230  32.483  1.00  0.00     0.253 C 
HETATM    8  C16 UNL     1      50.073  13.576  31.717  1.00  0.00     0.156 C 
HETATM    9  N3  UNL     1      49.710  14.423  30.594  1.00  0.00    -0.318 N 
HETATM   10  C17 UNL     1      48.443  14.985  30.369  1.00  0.00     0.288 C 
HETATM   11  O2  UNL     1      48.340  15.690  29.303  1.00  0.00    -0.268 OA
HETATM   12  C22 UNL     1      50.846  14.626  29.711  1.00  0.00     0.257 C 
HETATM   13  O6  UNL     1      50.650  15.495  28.689  1.00  0.00    -0.352 OA
ENDROOT
BRANCH  10  14
HETATM   14  C18 UNL     1      47.253  14.859  31.197  1.00  0.00     0.334 C 
HETATM   15  N4  UNL     1      47.279  15.696  32.377  1.00  0.00    -0.028 N 
HETATM   16  C19 UNL     1      45.924  15.981  32.729  1.00  0.00     0.271 C 
ATOM     17  H42 UNL     1      47.812  15.285  33.145  1.00  0.00     0.281 HD
ATOM     18  H41 UNL     1      47.845  16.536  32.258  1.00  0.00     0.281 HD
HETATM   19  C20 UNL     1      45.016  15.486  31.657  1.00  0.00     0.178 C 
HETATM   20  C21 UNL     1      45.948  15.185  30.499  1.00  0.00     0.221 C 
BRANCH  14  21
HETATM   21  O3  UNL     1      47.094  13.536  31.656  1.00  0.00    -0.356 OA
ATOM     22  H3  UNL     1      47.771  13.310  32.283  1.00  0.00     0.213 HD
ENDBRANCH  14  21
BRANCH  19  23
HETATM   23  O4  UNL     1      44.046  16.421  31.302  1.00  0.00    -0.391 OA
ATOM     24  H4  UNL     1      43.890  16.448  30.366  1.00  0.00     0.210 HD
ENDBRANCH  19  23
BRANCH  20  25
HETATM   25  O5  UNL     1      45.403  14.047  29.854  1.00  0.00    -0.387 OA
ATOM     26  H5  UNL     1      44.603  13.755  30.277  1.00  0.00     0.210 HD
ENDBRANCH  20  25
ENDBRANCH  10  14
BRANCH   1  27
HETATM   27  C1  UNL     1      52.359  14.750  27.287  1.00  0.00     0.155 C 
HETATM   28  O1  UNL     1      53.424  14.189  27.472  1.00  0.00    -0.295 OA
BRANCH  27  29
HETATM   29  C2  UNL     1      51.528  14.387  26.100  1.00  0.00     0.081 C 
BRANCH  29  30
HETATM   30  C3  UNL     1      52.330  14.198  24.852  1.00  0.00     0.007 C 
BRANCH  30  31
HETATM   31  C4  UNL     1      51.762  13.166  23.948  1.00  0.00     0.002 C 
BRANCH  31  32
HETATM   32  C5  UNL     1      52.697  12.751  22.845  1.00  0.00     0.030 C 
BRANCH  32  33
HETATM   33  C6  UNL     1      53.925  13.624  22.785  1.00  0.00     0.272 C 
BRANCH  33  34
HETATM   34  N1  UNL     1      54.538  13.733  21.507  1.00  0.00     0.088 N 
HETATM   35  C7  UNL     1      54.011  14.921  20.855  1.00  0.00     0.272 C 
HETATM   36  C8  UNL     1      54.510  16.170  21.497  1.00  0.00     0.030 C 
HETATM   37  C9  UNL     1      55.991  16.236  21.683  1.00  0.00     0.003 C 
HETATM   38  C10 UNL     1      56.503  14.952  22.311  1.00  0.00     0.030 C 
HETATM   39  C11 UNL     1      55.964  13.742  21.575  1.00  0.00     0.272 C 
ENDBRANCH  33  34
ENDBRANCH  32  33
ENDBRANCH  31  32
ENDBRANCH  30  31
ENDBRANCH  29  30
ENDBRANCH  27  29
ENDBRANCH   1  27
TORSDOF 11
ENDMDL
