MODEL 1
REMARK VINA RESULT: -5.850676968      0.000      0.000
REMARK  3 active torsions:
REMARK  status: ('A' for Active; 'I' for Inactive)
REMARK    1  A    between atoms: N1_2  and  C2_5 
REMARK    2  A    between atoms: C5_8  and  C6_9 
REMARK    3  A    between atoms: C6_9  and  C7_10 
ROOT
HETATM    1  C2  UNL     1       6.966 -50.112  38.177  1.00  0.00     0.185 C 
HETATM    2  C3  UNL     1       7.795 -51.232  38.804  1.00  0.00     0.033 C 
HETATM    3  C4  UNL     1       9.198 -50.680  38.626  1.00  0.00     0.007 C 
HETATM    4  C5  UNL     1       9.141 -50.224  37.199  1.00  0.00    -0.010 C 
HETATM    5  C11 UNL     1       7.857 -49.421  37.190  1.00  0.00     0.037 C 
ENDROOT
BRANCH   4   6
HETATM    6  C6  UNL     1      10.298 -49.356  36.793  1.00  0.00     0.037 C 
BRANCH   6   7
HETATM    7  C7  UNL     1      11.019 -49.870  35.572  1.00  0.00     0.186 C 
HETATM    8  C8  UNL     1      10.994 -51.363  35.475  1.00  0.00     0.034 C 
HETATM    9  C9  UNL     1      10.001 -51.661  34.377  1.00  0.00     0.029 C 
HETATM   10  C10 UNL     1       9.751 -50.359  33.682  1.00  0.00     0.233 C 
HETATM   11  N2  UNL     1      10.386 -49.318  34.415  1.00  0.00    -0.071 N 
ATOM     12  H22 UNL     1       9.741 -48.563  34.651  1.00  0.00     0.277 HD
ATOM     13  H21 UNL     1      11.034 -48.780  33.840  1.00  0.00     0.277 HD
ENDBRANCH   6   7
ENDBRANCH   4   6
BRANCH   1  14
HETATM   14  N1  UNL     1       6.582 -49.255  39.288  1.00  0.00    -0.075 N 
HETATM   15  C1  UNL     1       6.906 -47.883  38.956  1.00  0.00     0.267 C 
ATOM     16  H12 UNL     1       7.001 -49.551  40.169  1.00  0.00     0.277 HD
ATOM     17  H11 UNL     1       5.604 -49.372  39.549  1.00  0.00     0.277 HD
ENDBRANCH   1  14
TORSDOF 3
ENDMDL
MODEL 2
REMARK VINA RESULT: -5.813599301      1.354      4.953
REMARK  3 active torsions:
REMARK  status: ('A' for Active; 'I' for Inactive)
REMARK    1  A    between atoms: N1_2  and  C2_5 
REMARK    2  A    between atoms: C5_8  and  C6_9 
REMARK    3  A    between atoms: C6_9  and  C7_10 
ROOT
HETATM    1  C2  UNL     1      10.967 -49.972  34.162  1.00  0.00     0.185 C 
HETATM    2  C3  UNL     1      11.329 -51.279  34.864  1.00  0.00     0.033 C 
HETATM    3  C4  UNL     1      10.381 -51.237  36.049  1.00  0.00     0.007 C 
HETATM    4  C5  UNL     1      10.573 -49.825  36.512  1.00  0.00    -0.010 C 
HETATM    5  C11 UNL     1      10.416 -49.058  35.214  1.00  0.00     0.037 C 
ENDROOT
BRANCH   4   6
HETATM    6  C6  UNL     1       9.546 -49.369  37.509  1.00  0.00     0.037 C 
BRANCH   6   7
HETATM    7  C7  UNL     1       8.227 -50.088  37.367  1.00  0.00     0.186 C 
HETATM    8  C8  UNL     1       7.681 -50.551  38.681  1.00  0.00     0.034 C 
HETATM    9  C9  UNL     1       6.543 -49.604  38.978  1.00  0.00     0.029 C 
HETATM   10  C10 UNL     1       6.276 -48.864  37.704  1.00  0.00     0.233 C 
HETATM   11  N2  UNL     1       7.293 -49.190  36.763  1.00  0.00    -0.071 N 
ATOM     12  H22 UNL     1       7.746 -48.359  36.382  1.00  0.00     0.277 HD
ATOM     13  H21 UNL     1       6.910 -49.558  35.893  1.00  0.00     0.277 HD
ENDBRANCH   6   7
ENDBRANCH   4   6
BRANCH   1  14
HETATM   14  N1  UNL     1       9.978 -50.340  33.160  1.00  0.00    -0.075 N 
HETATM   15  C1  UNL     1      10.559 -51.316  32.262  1.00  0.00     0.267 C 
ATOM     16  H12 UNL     1       9.606 -49.529  32.666  1.00  0.00     0.277 HD
ATOM     17  H11 UNL     1       9.106 -50.664  33.576  1.00  0.00     0.277 HD
ENDBRANCH   1  14
TORSDOF 3
ENDMDL
MODEL 3
REMARK VINA RESULT: -5.773526928      0.820      1.035
REMARK  3 active torsions:
REMARK  status: ('A' for Active; 'I' for Inactive)
REMARK    1  A    between atoms: N1_2  and  C2_5 
REMARK    2  A    between atoms: C5_8  and  C6_9 
REMARK    3  A    between atoms: C6_9  and  C7_10 
ROOT
HETATM    1  C2  UNL     1       6.725 -49.843  38.161  1.00  0.00     0.185 C 
HETATM    2  C3  UNL     1       7.722 -50.937  38.534  1.00  0.00     0.033 C 
HETATM    3  C4  UNL     1       9.023 -50.305  38.074  1.00  0.00     0.007 C 
HETATM    4  C5  UNL     1       8.627 -49.802  36.719  1.00  0.00    -0.010 C 
HETATM    5  C11 UNL     1       7.339 -49.069  37.034  1.00  0.00     0.037 C 
ENDROOT
BRANCH   4   6
HETATM    6  C6  UNL     1       9.623 -48.859  36.107  1.00  0.00     0.037 C 
BRANCH   6   7
HETATM    7  C7  UNL     1      10.288 -49.423  34.876  1.00  0.00     0.186 C 
HETATM    8  C8  UNL     1      11.631 -50.015  35.169  1.00  0.00     0.034 C 
HETATM    9  C9  UNL     1      11.415 -51.508  35.105  1.00  0.00     0.029 C 
HETATM   10  C10 UNL     1      10.073 -51.705  34.470  1.00  0.00     0.233 C 
HETATM   11  N2  UNL     1       9.438 -50.439  34.337  1.00  0.00    -0.071 N 
ATOM     12  H22 UNL     1       8.509 -50.427  34.755  1.00  0.00     0.277 HD
ATOM     13  H21 UNL     1       9.166 -50.242  33.373  1.00  0.00     0.277 HD
ENDBRANCH   6   7
ENDBRANCH   4   6
BRANCH   1  14
HETATM   14  N1  UNL     1       6.562 -49.048  39.368  1.00  0.00    -0.075 N 
HETATM   15  C1  UNL     1       6.892 -47.669  39.071  1.00  0.00     0.267 C 
ATOM     16  H12 UNL     1       7.102 -49.416  40.152  1.00  0.00     0.277 HD
ATOM     17  H11 UNL     1       5.633 -49.146  39.777  1.00  0.00     0.277 HD
ENDBRANCH   1  14
TORSDOF 3
ENDMDL
MODEL 4
REMARK VINA RESULT: -5.760452994      1.338      1.509
REMARK  3 active torsions:
REMARK  status: ('A' for Active; 'I' for Inactive)
REMARK    1  A    between atoms: N1_2  and  C2_5 
REMARK    2  A    between atoms: C5_8  and  C6_9 
REMARK    3  A    between atoms: C6_9  and  C7_10 
ROOT
HETATM    1  C2  UNL     1       7.205 -49.425  37.442  1.00  0.00     0.185 C 
HETATM    2  C3  UNL     1       7.638 -50.606  38.309  1.00  0.00     0.033 C 
HETATM    3  C4  UNL     1       9.146 -50.542  38.145  1.00  0.00     0.007 C 
HETATM    4  C5  UNL     1       9.258 -50.361  36.661  1.00  0.00    -0.010 C 
HETATM    5  C11 UNL     1       8.284 -49.226  36.421  1.00  0.00     0.037 C 
ENDROOT
BRANCH   4   6
HETATM    6  C6  UNL     1      10.634 -49.968  36.201  1.00  0.00     0.037 C 
BRANCH   6   7
HETATM    7  C7  UNL     1      11.303 -51.036  35.371  1.00  0.00     0.186 C 
HETATM    8  C8  UNL     1      10.505 -51.408  34.162  1.00  0.00     0.034 C 
HETATM    9  C9  UNL     1      11.241 -50.775  33.005  1.00  0.00     0.029 C 
HETATM   10  C10 UNL     1      12.574 -50.357  33.543  1.00  0.00     0.233 C 
HETATM   11  N2  UNL     1      12.578 -50.541  34.954  1.00  0.00    -0.071 N 
ATOM     12  H22 UNL     1      12.845 -49.692  35.453  1.00  0.00     0.277 HD
ATOM     13  H21 UNL     1      13.344 -51.138  35.264  1.00  0.00     0.277 HD
ENDBRANCH   6   7
ENDBRANCH   4   6
BRANCH   1  14
HETATM   14  N1  UNL     1       7.083 -48.304  38.360  1.00  0.00    -0.075 N 
HETATM   15  C1  UNL     1       6.142 -48.652  39.405  1.00  0.00     0.267 C 
ATOM     16  H12 UNL     1       6.833 -47.437  37.884  1.00  0.00     0.277 HD
ATOM     17  H11 UNL     1       7.985 -48.006  38.732  1.00  0.00     0.277 HD
ENDBRANCH   1  14
TORSDOF 3
ENDMDL
MODEL 5
REMARK VINA RESULT: -5.617639471      1.276      1.530
REMARK  3 active torsions:
REMARK  status: ('A' for Active; 'I' for Inactive)
REMARK    1  A    between atoms: N1_2  and  C2_5 
REMARK    2  A    between atoms: C5_8  and  C6_9 
REMARK    3  A    between atoms: C6_9  and  C7_10 
ROOT
HETATM    1  C2  UNL     1       7.227 -49.456  37.442  1.00  0.00     0.185 C 
HETATM    2  C3  UNL     1       7.720 -50.608  38.314  1.00  0.00     0.033 C 
HETATM    3  C4  UNL     1       9.223 -50.452  38.167  1.00  0.00     0.007 C 
HETATM    4  C5  UNL     1       9.342 -50.264  36.685  1.00  0.00    -0.010 C 
HETATM    5  C11 UNL     1       8.303 -49.191  36.433  1.00  0.00     0.037 C 
ENDROOT
BRANCH   4   6
HETATM    6  C6  UNL     1      10.696 -49.790  36.241  1.00  0.00     0.037 C 
BRANCH   6   7
HETATM    7  C7  UNL     1      11.012 -50.165  34.814  1.00  0.00     0.186 C 
HETATM    8  C8  UNL     1      12.478 -50.344  34.578  1.00  0.00     0.034 C 
HETATM    9  C9  UNL     1      12.670 -51.838  34.468  1.00  0.00     0.029 C 
HETATM   10  C10 UNL     1      11.299 -52.421  34.318  1.00  0.00     0.233 C 
HETATM   11  N2  UNL     1      10.338 -51.390  34.516  1.00  0.00    -0.071 N 
ATOM     12  H22 UNL     1       9.650 -51.635  35.228  1.00  0.00     0.277 HD
ATOM     13  H21 UNL     1       9.701 -51.298  33.724  1.00  0.00     0.277 HD
ENDBRANCH   6   7
ENDBRANCH   4   6
BRANCH   1  14
HETATM   14  N1  UNL     1       7.026 -48.344  38.358  1.00  0.00    -0.075 N 
HETATM   15  C1  UNL     1       6.086 -48.744  39.385  1.00  0.00     0.267 C 
ATOM     16  H12 UNL     1       6.738 -47.492  37.878  1.00  0.00     0.277 HD
ATOM     17  H11 UNL     1       7.903 -47.997  38.747  1.00  0.00     0.277 HD
ENDBRANCH   1  14
TORSDOF 3
ENDMDL
