MODEL 1
REMARK VINA RESULT: -5.923558555      0.000      0.000
REMARK  4 active torsions:
REMARK  status: ('A' for Active; 'I' for Inactive)
REMARK    1  A    between atoms: N1_1  and  C1_5 
REMARK    2  A    between atoms: C4_8  and  N2_9 
REMARK    3  A    between atoms: N2_9  and  C5_11 
REMARK    4  A    between atoms: C5_11  and  C6_12 
ROOT
HETATM    1  C1  UNL     1      10.800 -50.437  33.125  1.00  0.00     0.185 C 
HETATM    2  C2  UNL     1      10.739 -51.822  33.730  1.00  0.00     0.035 C 
HETATM    3  C3  UNL     1      11.062 -51.605  35.192  1.00  0.00     0.027 C 
HETATM    4  C4  UNL     1      11.154 -50.132  35.415  1.00  0.00     0.078 C 
HETATM    5  C11 UNL     1      10.274 -49.608  34.274  1.00  0.00     0.057 C 
ENDROOT
BRANCH   4   6
HETATM    6  N2  UNL     1      10.610 -49.647  36.616  1.00  0.00    -0.417 N 
ATOM      7  H2  UNL     1      10.863 -48.717  36.953  1.00  0.00     0.153 HD
BRANCH   6   8
HETATM    8  C5  UNL     1       9.724 -50.434  37.348  1.00  0.00     0.118 C 
BRANCH   8   9
HETATM    9  C6  UNL     1       8.587 -49.536  37.849  1.00  0.00     0.003 C 
HETATM   10  C7  UNL     1       7.695 -49.102  36.710  1.00  0.00     0.006 C 
HETATM   11  C8  UNL     1       6.478 -48.573  37.481  1.00  0.00     0.000 C 
HETATM   12  C9  UNL     1       6.333 -49.551  38.627  1.00  0.00     0.000 C 
HETATM   13  C10 UNL     1       7.627 -50.322  38.709  1.00  0.00     0.006 C 
ENDBRANCH   8   9
ENDBRANCH   6   8
ENDBRANCH   4   6
BRANCH   1  14
HETATM   14  N1  UNL     1       9.938 -50.306  31.972  1.00  0.00    -0.075 N 
ATOM     15  H13 UNL     1       9.171 -49.660  32.155  1.00  0.00     0.274 HD
ATOM     16  H12 UNL     1      10.402 -49.797  31.220  1.00  0.00     0.274 HD
ATOM     17  H11 UNL     1       9.590 -51.209  31.646  1.00  0.00     0.274 HD
ENDBRANCH   1  14
TORSDOF 4
ENDMDL
MODEL 2
REMARK VINA RESULT: -5.918528429      1.741      5.360
REMARK  4 active torsions:
REMARK  status: ('A' for Active; 'I' for Inactive)
REMARK    1  A    between atoms: N1_1  and  C1_5 
REMARK    2  A    between atoms: C4_8  and  N2_9 
REMARK    3  A    between atoms: N2_9  and  C5_11 
REMARK    4  A    between atoms: C5_11  and  C6_12 
ROOT
HETATM    1  C1  UNL     1       6.558 -49.738  38.242  1.00  0.00     0.185 C 
HETATM    2  C2  UNL     1       7.659 -50.549  38.889  1.00  0.00     0.035 C 
HETATM    3  C3  UNL     1       8.740 -50.620  37.834  1.00  0.00     0.027 C 
HETATM    4  C4  UNL     1       8.311 -49.753  36.697  1.00  0.00     0.078 C 
HETATM    5  C11 UNL     1       7.374 -48.772  37.413  1.00  0.00     0.057 C 
ENDROOT
BRANCH   4   6
HETATM    6  N2  UNL     1       9.317 -48.989  36.079  1.00  0.00    -0.417 N 
ATOM      7  H2  UNL     1       9.066 -48.256  35.416  1.00  0.00     0.153 HD
BRANCH   6   8
HETATM    8  C5  UNL     1      10.656 -49.235  36.371  1.00  0.00     0.118 C 
BRANCH   8   9
HETATM    9  C6  UNL     1      11.313 -49.847  35.129  1.00  0.00     0.003 C 
HETATM   10  C7  UNL     1      11.309 -51.356  35.199  1.00  0.00     0.006 C 
HETATM   11  C8  UNL     1      11.639 -51.714  33.743  1.00  0.00     0.000 C 
HETATM   12  C9  UNL     1      10.864 -50.689  32.943  1.00  0.00     0.000 C 
HETATM   13  C10 UNL     1      10.467 -49.595  33.902  1.00  0.00     0.006 C 
ENDBRANCH   8   9
ENDBRANCH   6   8
ENDBRANCH   4   6
BRANCH   1  14
HETATM   14  N1  UNL     1       5.764 -49.021  39.215  1.00  0.00    -0.075 N 
ATOM     15  H13 UNL     1       4.805 -48.895  38.888  1.00  0.00     0.274 HD
ATOM     16  H12 UNL     1       5.580 -49.595  40.037  1.00  0.00     0.274 HD
ATOM     17  H11 UNL     1       6.185 -48.128  39.474  1.00  0.00     0.274 HD
ENDBRANCH   1  14
TORSDOF 4
ENDMDL
MODEL 3
REMARK VINA RESULT: -5.910564965      1.264      1.567
REMARK  4 active torsions:
REMARK  status: ('A' for Active; 'I' for Inactive)
REMARK    1  A    between atoms: N1_1  and  C1_5 
REMARK    2  A    between atoms: C4_8  and  N2_9 
REMARK    3  A    between atoms: N2_9  and  C5_11 
REMARK    4  A    between atoms: C5_11  and  C6_12 
ROOT
HETATM    1  C1  UNL     1      11.820 -51.001  33.572  1.00  0.00     0.185 C 
HETATM    2  C2  UNL     1      10.635 -50.214  33.057  1.00  0.00     0.035 C 
HETATM    3  C3  UNL     1       9.519 -50.544  34.023  1.00  0.00     0.027 C 
HETATM    4  C4  UNL     1      10.106 -51.371  35.118  1.00  0.00     0.078 C 
HETATM    5  C11 UNL     1      11.574 -50.931  35.063  1.00  0.00     0.057 C 
ENDROOT
BRANCH   4   6
HETATM    6  N2  UNL     1       9.642 -51.106  36.418  1.00  0.00    -0.417 N 
ATOM      7  H2  UNL     1       9.024 -51.770  36.885  1.00  0.00     0.153 HD
BRANCH   6   8
HETATM    8  C5  UNL     1      10.027 -49.937  37.070  1.00  0.00     0.118 C 
BRANCH   8   9
HETATM    9  C6  UNL     1       8.793 -49.350  37.766  1.00  0.00     0.003 C 
HETATM   10  C7  UNL     1       7.746 -48.937  36.758  1.00  0.00     0.006 C 
HETATM   11  C8  UNL     1       6.523 -48.762  37.668  1.00  0.00     0.000 C 
HETATM   12  C9  UNL     1       6.651 -49.902  38.655  1.00  0.00     0.000 C 
HETATM   13  C10 UNL     1       8.064 -50.418  38.546  1.00  0.00     0.006 C 
ENDBRANCH   8   9
ENDBRANCH   6   8
ENDBRANCH   4   6
BRANCH   1  14
HETATM   14  N1  UNL     1      13.079 -50.375  33.238  1.00  0.00    -0.075 N 
ATOM     15  H13 UNL     1      13.865 -50.990  33.450  1.00  0.00     0.274 HD
ATOM     16  H12 UNL     1      13.199 -50.301  32.229  1.00  0.00     0.274 HD
ATOM     17  H11 UNL     1      13.191 -49.466  33.690  1.00  0.00     0.274 HD
ENDBRANCH   1  14
TORSDOF 4
ENDMDL
MODEL 4
REMARK VINA RESULT: -5.873038314      1.556      2.330
REMARK  4 active torsions:
REMARK  status: ('A' for Active; 'I' for Inactive)
REMARK    1  A    between atoms: N1_1  and  C1_5 
REMARK    2  A    between atoms: C4_8  and  N2_9 
REMARK    3  A    between atoms: N2_9  and  C5_11 
REMARK    4  A    between atoms: C5_11  and  C6_12 
ROOT
HETATM    1  C1  UNL     1      12.606 -50.854  34.494  1.00  0.00     0.185 C 
HETATM    2  C2  UNL     1      12.288 -50.581  33.040  1.00  0.00     0.035 C 
HETATM    3  C3  UNL     1      10.781 -50.460  33.004  1.00  0.00     0.027 C 
HETATM    4  C4  UNL     1      10.295 -50.519  34.414  1.00  0.00     0.078 C 
HETATM    5  C11 UNL     1      11.535 -50.031  35.173  1.00  0.00     0.057 C 
ENDROOT
BRANCH   4   6
HETATM    6  N2  UNL     1       9.238 -49.654  34.748  1.00  0.00    -0.417 N 
ATOM      7  H2  UNL     1       8.481 -49.493  34.083  1.00  0.00     0.153 HD
BRANCH   6   8
HETATM    8  C5  UNL     1       9.224 -49.018  35.987  1.00  0.00     0.118 C 
BRANCH   8   9
HETATM    9  C6  UNL     1       8.059 -49.588  36.804  1.00  0.00     0.003 C 
HETATM   10  C7  UNL     1       8.494 -49.923  38.211  1.00  0.00     0.006 C 
HETATM   11  C8  UNL     1       7.134 -50.091  38.902  1.00  0.00     0.000 C 
HETATM   12  C9  UNL     1       6.288 -48.996  38.288  1.00  0.00     0.000 C 
HETATM   13  C10 UNL     1       7.012 -48.527  37.051  1.00  0.00     0.006 C 
ENDBRANCH   8   9
ENDBRANCH   6   8
ENDBRANCH   4   6
BRANCH   1  14
HETATM   14  N1  UNL     1      13.920 -50.377  34.865  1.00  0.00    -0.075 N 
ATOM     15  H13 UNL     1      14.398 -49.955  34.068  1.00  0.00     0.274 HD
ATOM     16  H12 UNL     1      13.859 -49.558  35.469  1.00  0.00     0.274 HD
ATOM     17  H11 UNL     1      14.490 -51.109  35.292  1.00  0.00     0.274 HD
ENDBRANCH   1  14
TORSDOF 4
ENDMDL
MODEL 5
REMARK VINA RESULT: -5.842269612      1.822      5.461
REMARK  4 active torsions:
REMARK  status: ('A' for Active; 'I' for Inactive)
REMARK    1  A    between atoms: N1_1  and  C1_5 
REMARK    2  A    between atoms: C4_8  and  N2_9 
REMARK    3  A    between atoms: N2_9  and  C5_11 
REMARK    4  A    between atoms: C5_11  and  C6_12 
ROOT
HETATM    1  C1  UNL     1       6.566 -49.729  38.230  1.00  0.00     0.185 C 
HETATM    2  C2  UNL     1       7.659 -50.524  38.909  1.00  0.00     0.035 C 
HETATM    3  C3  UNL     1       8.767 -50.588  37.881  1.00  0.00     0.027 C 
HETATM    4  C4  UNL     1       8.357 -49.731  36.730  1.00  0.00     0.078 C 
HETATM    5  C11 UNL     1       7.392 -48.758  37.417  1.00  0.00     0.057 C 
ENDROOT
BRANCH   4   6
HETATM    6  N2  UNL     1       9.369 -48.959  36.133  1.00  0.00    -0.417 N 
ATOM      7  H2  UNL     1       9.134 -48.088  35.657  1.00  0.00     0.153 HD
BRANCH   6   8
HETATM    8  C5  UNL     1      10.695 -49.383  36.192  1.00  0.00     0.118 C 
BRANCH   8   9
HETATM    9  C6  UNL     1      10.953 -50.311  34.999  1.00  0.00     0.003 C 
HETATM   10  C7  UNL     1      10.307 -49.774  33.743  1.00  0.00     0.006 C 
HETATM   11  C8  UNL     1      11.006 -50.622  32.672  1.00  0.00     0.000 C 
HETATM   12  C9  UNL     1      12.432 -50.717  33.173  1.00  0.00     0.000 C 
HETATM   13  C10 UNL     1      12.415 -50.297  34.621  1.00  0.00     0.006 C 
ENDBRANCH   8   9
ENDBRANCH   6   8
ENDBRANCH   4   6
BRANCH   1  14
HETATM   14  N1  UNL     1       5.739 -49.016  39.179  1.00  0.00    -0.075 N 
ATOM     15  H13 UNL     1       4.748 -49.167  38.992  1.00  0.00     0.274 HD
ATOM     16  H12 UNL     1       5.794 -49.438  40.106  1.00  0.00     0.274 HD
ATOM     17  H11 UNL     1       5.961 -48.021  39.213  1.00  0.00     0.274 HD
ENDBRANCH   1  14
TORSDOF 4
ENDMDL
