MODEL 1
REMARK VINA RESULT: -8.004307080      0.000      0.000
REMARK  9 active torsions:
REMARK  status: ('A' for Active; 'I' for Inactive)
REMARK    1  A    between atoms: N1_1  and  C1_4 
REMARK    2  A    between atoms: C2_7  and  S1_8 
REMARK    3  A    between atoms: S1_8  and  N3_10 
REMARK    4  A    between atoms: S1_8  and  N5_15 
REMARK       I    between atoms: N3_10  and  C3_12 
REMARK    5  A    between atoms: C4_16  and  N6_17 
REMARK    6  A    between atoms: N6_17  and  O3_19 
REMARK    7  A    between atoms: C5_24  and  N9_25 
REMARK    8  A    between atoms: C6_30  and  N11_31 
REMARK    9  A    between atoms: C8_37  and  N13_38 
ROOT
HETATM    1  N5  UNL     1      14.211  -3.440  -4.015  1.00  0.00     0.096 N 
HETATM    2  C4  UNL     1      14.477  -2.471  -3.169  1.00  0.00     0.748 A 
HETATM    3  N7  UNL     1      13.589  -2.535  -2.128  1.00  0.00    -0.092 N 
ATOM      4  H7  UNL     1      13.556  -1.909  -1.323  1.00  0.00     0.207 HD
HETATM    5  N8  UNL     1      12.792  -3.546  -2.358  1.00  0.00     0.107 N 
HETATM    6  C5  UNL     1      11.774  -3.989  -1.630  1.00  0.00     0.727 A 
HETATM    7  N10 UNL     1      11.089  -5.045  -2.070  1.00  0.00    -0.020 N 
ATOM      8  H10 UNL     1      10.306  -5.394  -1.519  1.00  0.00     0.203 HD
HETATM    9  C6  UNL     1      11.407  -5.667  -3.230  1.00  0.00     0.705 A 
HETATM   10  N12 UNL     1      12.433  -5.177  -3.907  1.00  0.00    -0.018 N 
ATOM     11  H12 UNL     1      12.675  -5.643  -4.781  1.00  0.00     0.203 HD
HETATM   12  C7  UNL     1      13.184  -4.122  -3.549  1.00  0.00     0.764 A 
ENDROOT
BRANCH   1  13
HETATM   13  S1  UNL     1      15.121  -3.743  -5.650  1.00  0.00     0.203 S 
HETATM   14  O1  UNL     1      14.894  -5.035  -5.802  1.00  0.00    -0.220 OA
BRANCH  13  15
HETATM   15  C2  UNL     1      17.070  -3.838  -5.481  1.00  0.00     0.181 A 
HETATM   16  N2  UNL     1      17.773  -4.724  -4.779  1.00  0.00    -0.178 N 
HETATM   17  C1  UNL     1      19.096  -4.801  -4.695  1.00  0.00     0.678 A 
ATOM     18  H2  UNL     1      17.241  -5.415  -4.252  1.00  0.00     0.185 HD
HETATM   19  N15 UNL     1      19.811  -3.901  -5.379  1.00  0.00    -0.176 N 
HETATM   20  C9  UNL     1      19.208  -2.970  -6.112  1.00  0.00     0.167 A 
ATOM     21  H15 UNL     1      20.829  -3.928  -5.337  1.00  0.00     0.185 HD
HETATM   22  C8  UNL     1      17.814  -2.918  -6.181  1.00  0.00     0.183 A 
HETATM   23  N14 UNL     1      20.001  -2.020  -6.837  1.00  0.00    -0.079 NA
BRANCH  17  24
HETATM   24  N1  UNL     1      19.692  -5.691  -3.987  1.00  0.00    -0.234 N 
ATOM     25  H12 UNL     1      19.438  -6.674  -4.085  1.00  0.00     0.174 HD
ATOM     26  H11 UNL     1      20.428  -5.460  -3.320  1.00  0.00     0.174 HD
ENDBRANCH  17  24
BRANCH  22  27
HETATM   27  N13 UNL     1      17.314  -1.894  -7.008  1.00  0.00    -0.109 N 
HETATM   28  O4  UNL     1      17.055  -0.789  -6.533  1.00  0.00    -0.532 OA
HETATM   29  O5  UNL     1      17.138  -2.129  -8.338  1.00  0.00    -0.532 OA
ENDBRANCH  22  27
ENDBRANCH  13  15
BRANCH  13  30
HETATM   30  N3  UNL     1      14.392  -3.023  -7.174  1.00  0.00    -0.248 N 
HETATM   31  C3  UNL     1      13.788  -1.771  -7.473  1.00  0.00     0.341 C 
HETATM   32  N4  UNL     1      13.299  -1.490  -8.755  1.00  0.00    -0.039 NA
HETATM   33  O2  UNL     1      13.691  -0.915  -6.582  1.00  0.00    -0.250 OA
ATOM     34  H3  UNL     1      14.428  -3.655  -7.975  1.00  0.00     0.181 HD
ENDBRANCH  13  30
ENDBRANCH   1  13
BRANCH   2  35
HETATM   35  N6  UNL     1      15.456  -1.425  -3.151  1.00  0.00    -0.096 N 
ATOM     36  H6  UNL     1      16.111  -1.374  -2.372  1.00  0.00     0.213 HD
BRANCH  35  37
HETATM   37  O3  UNL     1      15.530  -0.574  -4.058  1.00  0.00    -0.276 OA
ATOM     38  H3  UNL     1      16.348  -0.380  -4.501  1.00  0.00     0.245 HD
ENDBRANCH  35  37
ENDBRANCH   2  35
BRANCH   6  39
HETATM   39  N9  UNL     1      11.436  -3.432  -0.520  1.00  0.00    -0.232 N 
ATOM     40  H92 UNL     1      11.293  -2.422  -0.488  1.00  0.00     0.174 HD
ATOM     41  H91 UNL     1      11.303  -3.970   0.336  1.00  0.00     0.174 HD
ENDBRANCH   6  39
BRANCH   9  42
HETATM   42  N11 UNL     1      10.714  -6.685  -3.614  1.00  0.00    -0.234 N 
ATOM     43 2H11 UNL     1      10.152  -7.259  -2.986  1.00  0.00     0.174 HD
ATOM     44 1H11 UNL     1      10.714  -6.949  -4.599  1.00  0.00     0.174 HD
ENDBRANCH   9  42
TORSDOF 9
ENDMDL
MODEL 2
REMARK VINA RESULT: -7.578668730      1.420      1.803
REMARK  9 active torsions:
REMARK  status: ('A' for Active; 'I' for Inactive)
REMARK    1  A    between atoms: N1_1  and  C1_4 
REMARK    2  A    between atoms: C2_7  and  S1_8 
REMARK    3  A    between atoms: S1_8  and  N3_10 
REMARK    4  A    between atoms: S1_8  and  N5_15 
REMARK       I    between atoms: N3_10  and  C3_12 
REMARK    5  A    between atoms: C4_16  and  N6_17 
REMARK    6  A    between atoms: N6_17  and  O3_19 
REMARK    7  A    between atoms: C5_24  and  N9_25 
REMARK    8  A    between atoms: C6_30  and  N11_31 
REMARK    9  A    between atoms: C8_37  and  N13_38 
ROOT
HETATM    1  N5  UNL     1      14.444  -2.626  -4.345  1.00  0.00     0.096 N 
HETATM    2  C4  UNL     1      14.571  -1.319  -4.334  1.00  0.00     0.748 A 
HETATM    3  N7  UNL     1      13.730  -0.799  -3.386  1.00  0.00    -0.092 N 
ATOM      4  H7  UNL     1      13.616   0.188  -3.156  1.00  0.00     0.207 HD
HETATM    5  N8  UNL     1      13.101  -1.802  -2.832  1.00  0.00     0.107 N 
HETATM    6  C5  UNL     1      12.185  -1.786  -1.871  1.00  0.00     0.727 A 
HETATM    7  N10 UNL     1      11.669  -2.946  -1.464  1.00  0.00    -0.020 N 
ATOM      8  H10 UNL     1      10.965  -2.945  -0.726  1.00  0.00     0.203 HD
HETATM    9  C6  UNL     1      12.054  -4.126  -2.004  1.00  0.00     0.705 A 
HETATM   10  N12 UNL     1      12.971  -4.073  -2.957  1.00  0.00    -0.018 N 
ATOM     11  H12 UNL     1      13.264  -4.961  -3.366  1.00  0.00     0.203 HD
HETATM   12  C7  UNL     1      13.551  -2.959  -3.435  1.00  0.00     0.764 A 
ENDROOT
BRANCH   1  13
HETATM   13  S1  UNL     1      15.351  -3.802  -5.522  1.00  0.00     0.203 S 
HETATM   14  O1  UNL     1      15.172  -4.945  -4.887  1.00  0.00    -0.220 OA
BRANCH  13  15
HETATM   15  C2  UNL     1      17.303  -3.731  -5.386  1.00  0.00     0.181 A 
HETATM   16  N2  UNL     1      18.071  -4.373  -4.509  1.00  0.00    -0.178 N 
HETATM   17  C1  UNL     1      19.397  -4.345  -4.441  1.00  0.00     0.678 A 
ATOM     18  H2  UNL     1      17.591  -4.947  -3.815  1.00  0.00     0.185 HD
HETATM   19  N15 UNL     1      20.043  -3.595  -5.342  1.00  0.00    -0.176 N 
HETATM   20  C9  UNL     1      19.372  -2.911  -6.264  1.00  0.00     0.167 A 
ATOM     21  H15 UNL     1      21.061  -3.548  -5.321  1.00  0.00     0.185 HD
HETATM   22  C8  UNL     1      17.977  -2.965  -6.307  1.00  0.00     0.183 A 
HETATM   23  N14 UNL     1      20.093  -2.118  -7.217  1.00  0.00    -0.079 NA
BRANCH  17  24
HETATM   24  N1  UNL     1      20.058  -4.996  -3.555  1.00  0.00    -0.234 N 
ATOM     25  H12 UNL     1      19.816  -5.965  -3.348  1.00  0.00     0.174 HD
ATOM     26  H11 UNL     1      20.835  -4.585  -3.038  1.00  0.00     0.174 HD
ENDBRANCH  17  24
BRANCH  22  27
HETATM   27  N13 UNL     1      17.402  -2.207  -7.345  1.00  0.00    -0.109 N 
HETATM   28  O4  UNL     1      17.350  -0.981  -7.257  1.00  0.00    -0.532 OA
HETATM   29  O5  UNL     1      16.923  -2.838  -8.453  1.00  0.00    -0.532 OA
ENDBRANCH  22  27
ENDBRANCH  13  15
BRANCH  13  30
HETATM   30  N3  UNL     1      14.583  -4.125  -7.159  1.00  0.00    -0.248 N 
HETATM   31  C3  UNL     1      13.310  -4.615  -7.563  1.00  0.00     0.341 C 
HETATM   32  N4  UNL     1      12.991  -4.771  -8.918  1.00  0.00    -0.039 NA
HETATM   33  O2  UNL     1      12.470  -4.909  -6.701  1.00  0.00    -0.250 OA
ATOM     34  H3  UNL     1      15.198  -3.908  -7.943  1.00  0.00     0.181 HD
ENDBRANCH  13  30
ENDBRANCH   1  13
BRANCH   2  35
HETATM   35  N6  UNL     1      15.368  -0.404  -5.096  1.00  0.00    -0.096 N 
ATOM     36  H6  UNL     1      16.225  -0.034  -4.684  1.00  0.00     0.213 HD
BRANCH  35  37
HETATM   37  O3  UNL     1      15.048  -0.046  -6.245  1.00  0.00    -0.276 OA
ATOM     38  H3  UNL     1      15.518  -0.344  -7.016  1.00  0.00     0.245 HD
ENDBRANCH  35  37
ENDBRANCH   2  35
BRANCH   6  39
HETATM   39  N9  UNL     1      11.789  -0.689  -1.326  1.00  0.00    -0.232 N 
ATOM     40  H92 UNL     1      12.284   0.179  -1.527  1.00  0.00     0.174 HD
ATOM     41  H91 UNL     1      10.988  -0.658  -0.695  1.00  0.00     0.174 HD
ENDBRANCH   6  39
BRANCH   9  42
HETATM   42  N11 UNL     1      11.525  -5.222  -1.577  1.00  0.00    -0.234 N 
ATOM     43 2H11 UNL     1      11.600  -5.551  -0.615  1.00  0.00     0.174 HD
ATOM     44 1H11 UNL     1      10.997  -5.809  -2.223  1.00  0.00     0.174 HD
ENDBRANCH   9  42
TORSDOF 9
ENDMDL
MODEL 3
REMARK VINA RESULT: -7.574100345      3.078      5.054
REMARK  9 active torsions:
REMARK  status: ('A' for Active; 'I' for Inactive)
REMARK    1  A    between atoms: N1_1  and  C1_4 
REMARK    2  A    between atoms: C2_7  and  S1_8 
REMARK    3  A    between atoms: S1_8  and  N3_10 
REMARK    4  A    between atoms: S1_8  and  N5_15 
REMARK       I    between atoms: N3_10  and  C3_12 
REMARK    5  A    between atoms: C4_16  and  N6_17 
REMARK    6  A    between atoms: N6_17  and  O3_19 
REMARK    7  A    between atoms: C5_24  and  N9_25 
REMARK    8  A    between atoms: C6_30  and  N11_31 
REMARK    9  A    between atoms: C8_37  and  N13_38 
ROOT
HETATM    1  N5  UNL     1      12.347  -2.139  -3.203  1.00  0.00     0.096 N 
HETATM    2  C4  UNL     1      11.906  -1.587  -2.095  1.00  0.00     0.748 A 
HETATM    3  N7  UNL     1      11.402  -0.348  -2.387  1.00  0.00    -0.092 N 
ATOM      4  H7  UNL     1      10.991   0.309  -1.723  1.00  0.00     0.207 HD
HETATM    5  N8  UNL     1      11.546  -0.162  -3.674  1.00  0.00     0.107 N 
HETATM    6  C5  UNL     1      11.211   0.892  -4.408  1.00  0.00     0.727 A 
HETATM    7  N10 UNL     1      11.463   0.861  -5.717  1.00  0.00    -0.020 N 
ATOM      8  H10 UNL     1      11.210   1.665  -6.291  1.00  0.00     0.203 HD
HETATM    9  C6  UNL     1      12.046  -0.209  -6.305  1.00  0.00     0.705 A 
HETATM   10  N12 UNL     1      12.354  -1.227  -5.518  1.00  0.00    -0.018 N 
ATOM     11  H12 UNL     1      12.794  -2.036  -5.957  1.00  0.00     0.203 HD
HETATM   12  C7  UNL     1      12.141  -1.293  -4.192  1.00  0.00     0.764 A 
ENDROOT
BRANCH   1  13
HETATM   13  S1  UNL     1      13.191  -3.832  -3.319  1.00  0.00     0.203 S 
HETATM   14  O1  UNL     1      13.859  -3.834  -2.180  1.00  0.00    -0.220 OA
BRANCH  13  15
HETATM   15  C2  UNL     1      14.732  -3.883  -4.526  1.00  0.00     0.181 A 
HETATM   16  N2  UNL     1      16.008  -3.673  -4.209  1.00  0.00    -0.178 N 
HETATM   17  C1  UNL     1      17.051  -3.740  -5.026  1.00  0.00     0.678 A 
ATOM     18  H2  UNL     1      16.204  -3.437  -3.236  1.00  0.00     0.185 HD
HETATM   19  N15 UNL     1      16.813  -4.046  -6.307  1.00  0.00    -0.176 N 
HETATM   20  C9  UNL     1      15.574  -4.274  -6.731  1.00  0.00     0.167 A 
ATOM     21  H15 UNL     1      17.590  -4.105  -6.964  1.00  0.00     0.185 HD
HETATM   22  C8  UNL     1      14.498  -4.198  -5.843  1.00  0.00     0.183 A 
HETATM   23  N14 UNL     1      15.349  -4.603  -8.109  1.00  0.00    -0.079 NA
BRANCH  17  24
HETATM   24  N1  UNL     1      18.253  -3.518  -4.633  1.00  0.00    -0.234 N 
ATOM     25  H12 UNL     1      18.568  -3.875  -3.731  1.00  0.00     0.174 HD
ATOM     26  H11 UNL     1      18.927  -2.994  -5.192  1.00  0.00     0.174 HD
ENDBRANCH  17  24
BRANCH  22  27
HETATM   27  N13 UNL     1      13.247  -4.480  -6.425  1.00  0.00    -0.109 N 
HETATM   28  O4  UNL     1      12.741  -5.593  -6.288  1.00  0.00    -0.532 OA
HETATM   29  O5  UNL     1      12.593  -3.508  -7.121  1.00  0.00    -0.532 OA
ENDBRANCH  22  27
ENDBRANCH  13  15
BRANCH  13  30
HETATM   30  N3  UNL     1      12.129  -5.323  -3.166  1.00  0.00    -0.248 N 
HETATM   31  C3  UNL     1      11.378  -5.884  -2.097  1.00  0.00     0.341 C 
HETATM   32  N4  UNL     1      10.647  -7.066  -2.267  1.00  0.00    -0.039 NA
HETATM   33  O2  UNL     1      11.373  -5.317  -0.994  1.00  0.00    -0.250 OA
ATOM     34  H3  UNL     1      12.064  -5.862  -4.030  1.00  0.00     0.181 HD
ENDBRANCH  13  30
ENDBRANCH   1  13
BRANCH   2  35
HETATM   35  N6  UNL     1      11.873  -2.019  -0.729  1.00  0.00    -0.096 N 
ATOM     36  H6  UNL     1      12.676  -1.826  -0.131  1.00  0.00     0.213 HD
BRANCH  35  37
HETATM   37  O3  UNL     1      10.895  -2.623  -0.250  1.00  0.00    -0.276 OA
ATOM     38  H3  UNL     1      10.058  -2.194  -0.107  1.00  0.00     0.245 HD
ENDBRANCH  35  37
ENDBRANCH   2  35
BRANCH   6  39
HETATM   39  N9  UNL     1      10.653   1.932  -3.894  1.00  0.00    -0.232 N 
ATOM     40  H92 UNL     1      10.033   2.505  -4.467  1.00  0.00     0.174 HD
ATOM     41  H91 UNL     1      10.809   2.204  -2.924  1.00  0.00     0.174 HD
ENDBRANCH   6  39
BRANCH   9  42
HETATM   42  N11 UNL     1      12.271  -0.191  -7.576  1.00  0.00    -0.234 N 
ATOM     43 2H11 UNL     1      13.197  -0.294  -7.989  1.00  0.00     0.174 HD
ATOM     44 1H11 UNL     1      11.491  -0.067  -8.221  1.00  0.00     0.174 HD
ENDBRANCH   9  42
TORSDOF 9
ENDMDL
MODEL 4
REMARK VINA RESULT: -7.569286428      2.189      6.678
REMARK  9 active torsions:
REMARK  status: ('A' for Active; 'I' for Inactive)
REMARK    1  A    between atoms: N1_1  and  C1_4 
REMARK    2  A    between atoms: C2_7  and  S1_8 
REMARK    3  A    between atoms: S1_8  and  N3_10 
REMARK    4  A    between atoms: S1_8  and  N5_15 
REMARK       I    between atoms: N3_10  and  C3_12 
REMARK    5  A    between atoms: C4_16  and  N6_17 
REMARK    6  A    between atoms: N6_17  and  O3_19 
REMARK    7  A    between atoms: C5_24  and  N9_25 
REMARK    8  A    between atoms: C6_30  and  N11_31 
REMARK    9  A    between atoms: C8_37  and  N13_38 
ROOT
HETATM    1  N5  UNL     1      17.298  -2.303  -6.724  1.00  0.00     0.096 N 
HETATM    2  C4  UNL     1      18.510  -1.813  -6.858  1.00  0.00     0.748 A 
HETATM    3  N7  UNL     1      18.435  -0.625  -7.536  1.00  0.00    -0.092 N 
ATOM      4  H7  UNL     1      19.218  -0.021  -7.784  1.00  0.00     0.207 HD
HETATM    5  N8  UNL     1      17.173  -0.410  -7.806  1.00  0.00     0.107 N 
HETATM    6  C5  UNL     1      16.619   0.608  -8.454  1.00  0.00     0.727 A 
HETATM    7  N10 UNL     1      15.297   0.612  -8.621  1.00  0.00    -0.020 N 
ATOM      8  H10 UNL     1      14.861   1.390  -9.116  1.00  0.00     0.203 HD
HETATM    9  C6  UNL     1      14.516  -0.388  -8.149  1.00  0.00     0.705 A 
HETATM   10  N12 UNL     1      15.129  -1.372  -7.512  1.00  0.00    -0.018 N 
ATOM     11  H12 UNL     1      14.545  -2.128  -7.156  1.00  0.00     0.203 HD
HETATM   12  C7  UNL     1      16.452  -1.468  -7.292  1.00  0.00     0.764 A 
ENDROOT
BRANCH   1  13
HETATM   13  S1  UNL     1      16.875  -3.961  -5.907  1.00  0.00     0.203 S 
HETATM   14  O1  UNL     1      16.718  -4.712  -6.981  1.00  0.00    -0.220 OA
BRANCH  13  15
HETATM   15  C2  UNL     1      15.040  -4.081  -5.233  1.00  0.00     0.181 A 
HETATM   16  N2  UNL     1      13.989  -4.607  -5.858  1.00  0.00    -0.178 N 
HETATM   17  C1  UNL     1      12.754  -4.713  -5.382  1.00  0.00     0.678 A 
ATOM     18  H2  UNL     1      14.148  -4.965  -6.799  1.00  0.00     0.185 HD
HETATM   19  N15 UNL     1      12.525  -4.246  -4.149  1.00  0.00    -0.176 N 
HETATM   20  C9  UNL     1      13.506  -3.700  -3.438  1.00  0.00     0.167 A 
ATOM     21  H15 UNL     1      11.589  -4.310  -3.752  1.00  0.00     0.185 HD
HETATM   22  C8  UNL     1      14.795  -3.605  -3.968  1.00  0.00     0.183 A 
HETATM   23  N14 UNL     1      13.232  -3.211  -2.118  1.00  0.00    -0.079 NA
BRANCH  17  24
HETATM   24  N1  UNL     1      11.795  -5.234  -6.059  1.00  0.00    -0.234 N 
ATOM     25  H12 UNL     1      11.906  -5.393  -7.060  1.00  0.00     0.174 HD
ATOM     26  H11 UNL     1      10.908  -5.507  -5.635  1.00  0.00     0.174 HD
ENDBRANCH  17  24
BRANCH  22  27
HETATM   27  N13 UNL     1      15.736  -3.022  -3.098  1.00  0.00    -0.109 N 
HETATM   28  O4  UNL     1      16.042  -1.837  -3.224  1.00  0.00    -0.532 OA
HETATM   29  O5  UNL     1      16.289  -3.772  -2.103  1.00  0.00    -0.532 OA
ENDBRANCH  22  27
ENDBRANCH  13  15
BRANCH  13  30
HETATM   30  N3  UNL     1      18.216  -4.828  -5.000  1.00  0.00    -0.248 N 
HETATM   31  C3  UNL     1      19.160  -4.416  -4.019  1.00  0.00     0.341 C 
HETATM   32  N4  UNL     1      20.098  -5.313  -3.495  1.00  0.00    -0.039 NA
HETATM   33  O2  UNL     1      19.151  -3.241  -3.623  1.00  0.00    -0.250 OA
ATOM     34  H3  UNL     1      18.303  -5.813  -5.254  1.00  0.00     0.181 HD
ENDBRANCH  13  30
ENDBRANCH   1  13
BRANCH   2  35
HETATM   35  N6  UNL     1      19.805  -2.276  -6.459  1.00  0.00    -0.096 N 
ATOM     36  H6  UNL     1      19.999  -2.407  -5.466  1.00  0.00     0.213 HD
BRANCH  35  37
HETATM   37  O3  UNL     1      20.702  -2.522  -7.287  1.00  0.00    -0.276 OA
ATOM     38  H3  UNL     1      20.777  -3.368  -7.713  1.00  0.00     0.245 HD
ENDBRANCH  35  37
ENDBRANCH   2  35
BRANCH   6  39
HETATM   39  N9  UNL     1      17.320   1.583  -8.918  1.00  0.00    -0.232 N 
ATOM     40  H92 UNL     1      17.568   1.597  -9.908  1.00  0.00     0.174 HD
ATOM     41  H91 UNL     1      17.639   2.349  -8.326  1.00  0.00     0.174 HD
ENDBRANCH   6  39
BRANCH   9  42
HETATM   42  N11 UNL     1      13.241  -0.339  -8.337  1.00  0.00    -0.234 N 
ATOM     43 2H11 UNL     1      12.803   0.093  -9.150  1.00  0.00     0.174 HD
ATOM     44 1H11 UNL     1      12.616  -0.751  -7.644  1.00  0.00     0.174 HD
ENDBRANCH   9  42
TORSDOF 9
ENDMDL
MODEL 5
REMARK VINA RESULT: -7.510881331      1.743      4.851
REMARK  9 active torsions:
REMARK  status: ('A' for Active; 'I' for Inactive)
REMARK    1  A    between atoms: N1_1  and  C1_4 
REMARK    2  A    between atoms: C2_7  and  S1_8 
REMARK    3  A    between atoms: S1_8  and  N3_10 
REMARK    4  A    between atoms: S1_8  and  N5_15 
REMARK       I    between atoms: N3_10  and  C3_12 
REMARK    5  A    between atoms: C4_16  and  N6_17 
REMARK    6  A    between atoms: N6_17  and  O3_19 
REMARK    7  A    between atoms: C5_24  and  N9_25 
REMARK    8  A    between atoms: C6_30  and  N11_31 
REMARK    9  A    between atoms: C8_37  and  N13_38 
ROOT
HETATM    1  N5  UNL     1      14.098  -2.951  -4.311  1.00  0.00     0.096 N 
HETATM    2  C4  UNL     1      13.750  -4.113  -4.816  1.00  0.00     0.748 A 
HETATM    3  N7  UNL     1      12.858  -4.715  -3.969  1.00  0.00    -0.092 N 
ATOM      4  H7  UNL     1      12.417  -5.625  -4.104  1.00  0.00     0.207 HD
HETATM    5  N8  UNL     1      12.676  -3.908  -2.956  1.00  0.00     0.107 N 
HETATM    6  C5  UNL     1      11.906  -4.069  -1.887  1.00  0.00     0.727 A 
HETATM    7  N10 UNL     1      11.885  -3.104  -0.967  1.00  0.00    -0.020 N 
ATOM      8  H10 UNL     1      11.296  -3.217  -0.142  1.00  0.00     0.203 HD
HETATM    9  C6  UNL     1      12.622  -1.977  -1.099  1.00  0.00     0.705 A 
HETATM   10  N12 UNL     1      13.368  -1.877  -2.188  1.00  0.00    -0.018 N 
ATOM     11  H12 UNL     1      13.925  -1.029  -2.292  1.00  0.00     0.203 HD
HETATM   12  C7  UNL     1      13.458  -2.790  -3.170  1.00  0.00     0.764 A 
ENDROOT
BRANCH   1  13
HETATM   13  S1  UNL     1      15.358  -1.759  -5.078  1.00  0.00     0.203 S 
HETATM   14  O1  UNL     1      15.159  -0.698  -4.319  1.00  0.00    -0.220 OA
BRANCH  13  15
HETATM   15  C2  UNL     1      14.791  -0.975  -6.780  1.00  0.00     0.181 A 
HETATM   16  N2  UNL     1      13.851  -0.051  -6.965  1.00  0.00    -0.178 N 
HETATM   17  C1  UNL     1      13.493   0.500  -8.119  1.00  0.00     0.678 A 
ATOM     18  H2  UNL     1      13.353   0.268  -6.133  1.00  0.00     0.185 HD
HETATM   19  N15 UNL     1      14.134   0.093  -9.220  1.00  0.00    -0.176 N 
HETATM   20  C9  UNL     1      15.090  -0.828  -9.149  1.00  0.00     0.167 A 
ATOM     21  H15 UNL     1      13.885   0.492 -10.125  1.00  0.00     0.185 HD
HETATM   22  C8  UNL     1      15.443  -1.385  -7.918  1.00  0.00     0.183 A 
HETATM   23  N14 UNL     1      15.761  -1.243 -10.347  1.00  0.00    -0.079 NA
BRANCH  17  24
HETATM   24  N1  UNL     1      12.569   1.386  -8.205  1.00  0.00    -0.234 N 
ATOM     25  H12 UNL     1      12.796   2.373  -8.084  1.00  0.00     0.174 HD
ATOM     26  H11 UNL     1      11.596   1.149  -8.396  1.00  0.00     0.174 HD
ENDBRANCH  17  24
BRANCH  22  27
HETATM   27  N13 UNL     1      16.483  -2.333  -7.989  1.00  0.00    -0.109 N 
HETATM   28  O4  UNL     1      16.223  -3.519  -8.184  1.00  0.00    -0.532 OA
HETATM   29  O5  UNL     1      17.776  -1.924  -7.862  1.00  0.00    -0.532 OA
ENDBRANCH  22  27
ENDBRANCH  13  15
BRANCH  13  30
HETATM   30  N3  UNL     1      17.139  -2.119  -4.810  1.00  0.00    -0.248 N 
HETATM   31  C3  UNL     1      17.876  -3.319  -4.609  1.00  0.00     0.341 C 
HETATM   32  N4  UNL     1      19.263  -3.294  -4.419  1.00  0.00    -0.039 NA
HETATM   33  O2  UNL     1      17.278  -4.405  -4.601  1.00  0.00    -0.250 OA
ATOM     34  H3  UNL     1      17.723  -1.282  -4.805  1.00  0.00     0.181 HD
ENDBRANCH  13  30
ENDBRANCH   1  13
BRANCH   2  35
HETATM   35  N6  UNL     1      14.123  -4.816  -6.007  1.00  0.00    -0.096 N 
ATOM     36  H6  UNL     1      13.436  -4.925  -6.753  1.00  0.00     0.213 HD
BRANCH  35  37
HETATM   37  O3  UNL     1      15.261  -5.300  -6.159  1.00  0.00    -0.276 OA
ATOM     38  H3  UNL     1      15.633  -5.452  -7.020  1.00  0.00     0.245 HD
ENDBRANCH  35  37
ENDBRANCH   2  35
BRANCH   6  39
HETATM   39  N9  UNL     1      11.186  -5.122  -1.719  1.00  0.00    -0.232 N 
ATOM     40  H92 UNL     1      10.173  -5.060  -1.825  1.00  0.00     0.174 HD
ATOM     41  H91 UNL     1      11.596  -6.025  -1.482  1.00  0.00     0.174 HD
ENDBRANCH   6  39
BRANCH   9  42
HETATM   42  N11 UNL     1      12.568  -1.072  -0.182  1.00  0.00    -0.234 N 
ATOM     43 2H11 UNL     1      13.392  -0.646   0.243  1.00  0.00     0.174 HD
ATOM     44 1H11 UNL     1      11.661  -0.751   0.153  1.00  0.00     0.174 HD
ENDBRANCH   9  42
TORSDOF 9
ENDMDL
