MODEL 1
REMARK VINA RESULT: -10.656622150      0.000      0.000
REMARK  12 active torsions:
REMARK  status: ('A' for Active; 'I' for Inactive)
REMARK    1  A    between atoms: C2_2  and  O1_3 
REMARK    2  A    between atoms: C2_2  and  C13_41 
REMARK    3  A    between atoms: O1_3  and  N1_4 
REMARK    4  A    between atoms: N1_4  and  C3_5 
REMARK    5  A    between atoms: C3_5  and  O2_6 
REMARK    6  A    between atoms: C3_5  and  C4_8 
REMARK    7  A    between atoms: C7_16  and  N4_17 
REMARK    8  A    between atoms: N4_17  and  C8_19 
REMARK    9  A    between atoms: C9_25  and  N7_26 
REMARK   10  A    between atoms: C11_31  and  N9_32 
REMARK   11  A    between atoms: N9_32  and  O5_34 
REMARK   12  A    between atoms: C12_38  and  O6_39 
ROOT
HETATM    1  C4  UNL     1      18.318  30.122  14.992  1.00  0.00     0.152 A 
HETATM    2  O3  UNL     1      18.487  31.195  15.722  1.00  0.00    -0.287 OA
HETATM    3  C5  UNL     1      19.050  32.142  15.017  1.00  0.00     0.182 A 
HETATM    4  C6  UNL     1      19.404  33.474  15.454  1.00  0.00     0.146 A 
HETATM    5  N2  UNL     1      19.189  33.927  16.690  1.00  0.00    -0.279 N 
ATOM      6  H2  UNL     1      18.751  33.284  17.350  1.00  0.00     0.188 HD
HETATM    7  N3  UNL     1      19.491  35.125  17.137  1.00  0.00    -0.131 N 
ATOM      8  H3  UNL     1      19.294  35.396  18.101  1.00  0.00     0.205 HD
HETATM    9  C7  UNL     1      20.067  35.977  16.278  1.00  0.00     0.702 A 
HETATM   10  N8  UNL     1      20.324  35.605  14.995  1.00  0.00    -0.167 N 
HETATM   11  C10 UNL     1      20.948  36.559  14.104  1.00  0.00     0.177 C 
HETATM   12  C11 UNL     1      20.012  34.381  14.557  1.00  0.00     0.175 A 
HETATM   13  N10 UNL     1      19.251  31.655  13.783  1.00  0.00    -0.313 N 
ATOM     14  H10 UNL     1      19.676  32.164  13.009  1.00  0.00     0.170 HD
HETATM   15  C12 UNL     1      18.796  30.371  13.731  1.00  0.00     0.176 A 
ENDROOT
BRANCH  12  16
HETATM   16  N9  UNL     1      20.224  33.966  13.370  1.00  0.00    -0.250 N 
ATOM     17  H9  UNL     1      21.104  33.465  13.245  1.00  0.00     0.196 HD
BRANCH  16  18
HETATM   18  O5  UNL     1      19.486  34.080  12.264  1.00  0.00    -0.288 OA
ATOM     19  H5  UNL     1      18.632  34.474  12.128  1.00  0.00     0.244 HD
ENDBRANCH  16  18
ENDBRANCH  12  16
BRANCH   1  20
HETATM   20  C3  UNL     1      17.712  28.867  15.469  1.00  0.00     0.300 C 
BRANCH  20  21
HETATM   21  N1  UNL     1      18.527  28.206  16.470  1.00  0.00    -0.061 NA
BRANCH  21  22
HETATM   22  O1  UNL     1      17.850  27.312  17.186  1.00  0.00    -0.268 OA
BRANCH  22  23
HETATM   23  C2  UNL     1      18.188  27.246  18.512  1.00  0.00     0.243 C 
HETATM   24  C1  UNL     1      19.688  26.985  18.639  1.00  0.00     0.053 C 
BRANCH  23  25
HETATM   25  C13 UNL     1      17.918  28.507  19.247  1.00  0.00     0.204 C 
HETATM   26  O7  UNL     1      18.651  28.888  20.192  1.00  0.00    -0.646 OA
HETATM   27  O8  UNL     1      16.841  29.305  18.909  1.00  0.00    -0.646 OA
ENDBRANCH  23  25
ENDBRANCH  22  23
ENDBRANCH  21  22
ENDBRANCH  20  21
BRANCH  20  28
HETATM   28  O2  UNL     1      16.450  29.064  16.026  1.00  0.00    -0.371 OA
ATOM     29  H2  UNL     1      16.567  29.571  16.821  1.00  0.00     0.212 HD
ENDBRANCH  20  28
ENDBRANCH   1  20
BRANCH  15  30
HETATM   30  O6  UNL     1      18.816  29.509  12.638  1.00  0.00    -0.344 OA
ATOM     31  H6  UNL     1      19.366  29.560  11.865  1.00  0.00     0.219 HD
ENDBRANCH  15  30
BRANCH   9  32
HETATM   32  N4  UNL     1      20.371  37.157  16.692  1.00  0.00    -0.169 N 
ATOM     33  H4  UNL     1      19.768  37.927  16.402  1.00  0.00     0.186 HD
BRANCH  32  34
HETATM   34  C8  UNL     1      21.459  37.464  17.508  1.00  0.00     0.188 A 
HETATM   35  N5  UNL     1      21.662  37.042  18.765  1.00  0.00    -0.221 N 
HETATM   36  O4  UNL     1      22.782  37.534  19.203  1.00  0.00    -0.153 OA
ATOM     37  H5  UNL     1      21.036  36.433  19.293  1.00  0.00     0.198 HD
HETATM   38  N6  UNL     1      23.348  38.270  18.297  1.00  0.00    -0.222 N 
HETATM   39  C9  UNL     1      22.539  38.255  17.197  1.00  0.00     0.168 A 
ATOM     40  H6  UNL     1      24.233  38.768  18.389  1.00  0.00     0.198 HD
BRANCH  39  41
HETATM   41  N7  UNL     1      22.768  38.867  16.108  1.00  0.00    -0.381 N 
ATOM     42  H72 UNL     1      22.566  39.851  15.931  1.00  0.00     0.157 HD
ATOM     43  H71 UNL     1      23.178  38.491  15.253  1.00  0.00     0.157 HD
ENDBRANCH  39  41
ENDBRANCH  32  34
ENDBRANCH   9  32
TORSDOF 12
ENDMDL
MODEL 2
REMARK VINA RESULT: -10.590976249      1.100      1.383
REMARK  12 active torsions:
REMARK  status: ('A' for Active; 'I' for Inactive)
REMARK    1  A    between atoms: C2_2  and  O1_3 
REMARK    2  A    between atoms: C2_2  and  C13_41 
REMARK    3  A    between atoms: O1_3  and  N1_4 
REMARK    4  A    between atoms: N1_4  and  C3_5 
REMARK    5  A    between atoms: C3_5  and  O2_6 
REMARK    6  A    between atoms: C3_5  and  C4_8 
REMARK    7  A    between atoms: C7_16  and  N4_17 
REMARK    8  A    between atoms: N4_17  and  C8_19 
REMARK    9  A    between atoms: C9_25  and  N7_26 
REMARK   10  A    between atoms: C11_31  and  N9_32 
REMARK   11  A    between atoms: N9_32  and  O5_34 
REMARK   12  A    between atoms: C12_38  and  O6_39 
ROOT
HETATM    1  C4  UNL     1      18.380  29.982  15.555  1.00  0.00     0.152 A 
HETATM    2  O3  UNL     1      18.607  31.093  16.208  1.00  0.00    -0.287 OA
HETATM    3  C5  UNL     1      19.056  32.015  15.396  1.00  0.00     0.182 A 
HETATM    4  C6  UNL     1      19.425  33.374  15.725  1.00  0.00     0.146 A 
HETATM    5  N2  UNL     1      19.349  33.883  16.955  1.00  0.00    -0.279 N 
ATOM      6  H2  UNL     1      19.009  33.265  17.692  1.00  0.00     0.188 HD
HETATM    7  N3  UNL     1      19.670  35.108  17.306  1.00  0.00    -0.131 N 
ATOM      8  H3  UNL     1      19.583  35.422  18.272  1.00  0.00     0.205 HD
HETATM    9  C7  UNL     1      20.117  35.927  16.345  1.00  0.00     0.702 A 
HETATM   10  N8  UNL     1      20.228  35.498  15.058  1.00  0.00    -0.167 N 
HETATM   11  C10 UNL     1      20.715  36.419  14.055  1.00  0.00     0.177 C 
HETATM   12  C11 UNL     1      19.897  34.248  14.719  1.00  0.00     0.175 A 
HETATM   13  N10 UNL     1      19.121  31.472  14.172  1.00  0.00    -0.313 N 
ATOM     14  H10 UNL     1      19.436  31.950  13.328  1.00  0.00     0.170 HD
HETATM   15  C12 UNL     1      18.697  30.178  14.235  1.00  0.00     0.176 A 
ENDROOT
BRANCH  12  16
HETATM   16  N9  UNL     1      19.977  33.779  13.536  1.00  0.00    -0.250 N 
ATOM     17  H9  UNL     1      20.803  33.209  13.359  1.00  0.00     0.196 HD
BRANCH  16  18
HETATM   18  O5  UNL     1      19.157  33.912  12.491  1.00  0.00    -0.288 OA
ATOM     19  H5  UNL     1      18.212  33.832  12.432  1.00  0.00     0.244 HD
ENDBRANCH  16  18
ENDBRANCH  12  16
BRANCH   1  20
HETATM   20  C3  UNL     1      17.868  28.741  16.160  1.00  0.00     0.300 C 
BRANCH  20  21
HETATM   21  N1  UNL     1      18.830  28.125  17.054  1.00  0.00    -0.061 NA
BRANCH  21  22
HETATM   22  O1  UNL     1      19.226  26.923  16.644  1.00  0.00    -0.268 OA
BRANCH  22  23
HETATM   23  C2  UNL     1      19.463  26.012  17.641  1.00  0.00     0.243 C 
HETATM   24  C1  UNL     1      20.048  26.733  18.855  1.00  0.00     0.053 C 
BRANCH  23  25
HETATM   25  C13 UNL     1      18.233  25.328  18.112  1.00  0.00     0.204 C 
HETATM   26  O7  UNL     1      18.143  24.862  19.273  1.00  0.00    -0.646 OA
HETATM   27  O8  UNL     1      17.141  25.184  17.276  1.00  0.00    -0.646 OA
ENDBRANCH  23  25
ENDBRANCH  22  23
ENDBRANCH  21  22
ENDBRANCH  20  21
BRANCH  20  28
HETATM   28  O2  UNL     1      16.698  28.946  16.887  1.00  0.00    -0.371 OA
ATOM     29  H2  UNL     1      15.971  28.883  16.278  1.00  0.00     0.212 HD
ENDBRANCH  20  28
ENDBRANCH   1  20
BRANCH  15  30
HETATM   30  O6  UNL     1      18.608  29.263  13.189  1.00  0.00    -0.344 OA
ATOM     31  H6  UNL     1      18.683  29.433  12.258  1.00  0.00     0.219 HD
ENDBRANCH  15  30
BRANCH   9  32
HETATM   32  N4  UNL     1      20.437  37.132  16.663  1.00  0.00    -0.169 N 
ATOM     33  H4  UNL     1      19.841  37.885  16.318  1.00  0.00     0.186 HD
BRANCH  32  34
HETATM   34  C8  UNL     1      21.536  37.489  17.445  1.00  0.00     0.188 A 
HETATM   35  N5  UNL     1      21.773  37.116  18.711  1.00  0.00    -0.221 N 
HETATM   36  O4  UNL     1      22.892  37.644  19.107  1.00  0.00    -0.153 OA
ATOM     37  H5  UNL     1      21.171  36.513  19.272  1.00  0.00     0.198 HD
HETATM   38  N6  UNL     1      23.424  38.359  18.164  1.00  0.00    -0.222 N 
HETATM   39  C9  UNL     1      22.592  38.290  17.083  1.00  0.00     0.168 A 
ATOM     40  H6  UNL     1      24.300  38.877  18.221  1.00  0.00     0.198 HD
BRANCH  39  41
HETATM   41  N7  UNL     1      22.786  38.868  15.969  1.00  0.00    -0.381 N 
ATOM     42  H72 UNL     1      22.065  39.314  15.402  1.00  0.00     0.157 HD
ATOM     43  H71 UNL     1      23.667  38.980  15.467  1.00  0.00     0.157 HD
ENDBRANCH  39  41
ENDBRANCH  32  34
ENDBRANCH   9  32
TORSDOF 12
ENDMDL
MODEL 3
REMARK VINA RESULT: -10.477483863      1.109      1.673
REMARK  12 active torsions:
REMARK  status: ('A' for Active; 'I' for Inactive)
REMARK    1  A    between atoms: C2_2  and  O1_3 
REMARK    2  A    between atoms: C2_2  and  C13_41 
REMARK    3  A    between atoms: O1_3  and  N1_4 
REMARK    4  A    between atoms: N1_4  and  C3_5 
REMARK    5  A    between atoms: C3_5  and  O2_6 
REMARK    6  A    between atoms: C3_5  and  C4_8 
REMARK    7  A    between atoms: C7_16  and  N4_17 
REMARK    8  A    between atoms: N4_17  and  C8_19 
REMARK    9  A    between atoms: C9_25  and  N7_26 
REMARK   10  A    between atoms: C11_31  and  N9_32 
REMARK   11  A    between atoms: N9_32  and  O5_34 
REMARK   12  A    between atoms: C12_38  and  O6_39 
ROOT
HETATM    1  C4  UNL     1      18.422  30.523  15.748  1.00  0.00     0.152 A 
HETATM    2  O3  UNL     1      18.677  31.658  16.346  1.00  0.00    -0.287 OA
HETATM    3  C5  UNL     1      19.188  32.515  15.499  1.00  0.00     0.182 A 
HETATM    4  C6  UNL     1      19.605  33.873  15.763  1.00  0.00     0.146 A 
HETATM    5  N2  UNL     1      19.516  34.453  16.961  1.00  0.00    -0.279 N 
ATOM      6  H2  UNL     1      19.131  33.892  17.721  1.00  0.00     0.188 HD
HETATM    7  N3  UNL     1      19.879  35.682  17.254  1.00  0.00    -0.131 N 
ATOM      8  H3  UNL     1      19.779  36.053  18.199  1.00  0.00     0.205 HD
HETATM    9  C7  UNL     1      20.387  36.427  16.263  1.00  0.00     0.702 A 
HETATM   10  N8  UNL     1      20.515  35.923  15.006  1.00  0.00    -0.167 N 
HETATM   11  C10 UNL     1      21.068  36.765  13.969  1.00  0.00     0.177 C 
HETATM   12  C11 UNL     1      20.141  34.670  14.726  1.00  0.00     0.175 A 
HETATM   13  N10 UNL     1      19.263  31.902  14.308  1.00  0.00    -0.313 N 
ATOM     14  H10 UNL     1      19.622  32.319  13.450  1.00  0.00     0.170 HD
HETATM   15  C12 UNL     1      18.783  30.631  14.429  1.00  0.00     0.176 A 
ENDROOT
BRANCH  12  16
HETATM   16  N9  UNL     1      20.233  34.133  13.573  1.00  0.00    -0.250 N 
ATOM     17  H9  UNL     1      21.029  33.505  13.459  1.00  0.00     0.196 HD
BRANCH  16  18
HETATM   18  O5  UNL     1      19.461  34.257  12.492  1.00  0.00    -0.288 OA
ATOM     19  H5  UNL     1      19.682  34.482  11.596  1.00  0.00     0.244 HD
ENDBRANCH  16  18
ENDBRANCH  12  16
BRANCH   1  20
HETATM   20  C3  UNL     1      17.841  29.339  16.405  1.00  0.00     0.300 C 
BRANCH  20  21
HETATM   21  N1  UNL     1      17.664  29.531  17.831  1.00  0.00    -0.061 NA
BRANCH  21  22
HETATM   22  O1  UNL     1      18.230  28.573  18.560  1.00  0.00    -0.268 OA
BRANCH  22  23
HETATM   23  C2  UNL     1      18.789  27.545  17.845  1.00  0.00     0.243 C 
HETATM   24  C1  UNL     1      20.239  27.352  18.287  1.00  0.00     0.053 C 
BRANCH  23  25
HETATM   25  C13 UNL     1      18.107  26.244  18.063  1.00  0.00     0.204 C 
HETATM   26  O7  UNL     1      18.194  25.630  19.153  1.00  0.00    -0.646 OA
HETATM   27  O8  UNL     1      17.350  25.668  17.060  1.00  0.00    -0.646 OA
ENDBRANCH  23  25
ENDBRANCH  22  23
ENDBRANCH  21  22
ENDBRANCH  20  21
BRANCH  20  28
HETATM   28  O2  UNL     1      16.600  28.991  15.876  1.00  0.00    -0.371 OA
ATOM     29  H2  UNL     1      16.737  28.754  14.966  1.00  0.00     0.212 HD
ENDBRANCH  20  28
ENDBRANCH   1  20
BRANCH  15  30
HETATM   30  O6  UNL     1      18.685  29.664  13.433  1.00  0.00    -0.344 OA
ATOM     31  H6  UNL     1      18.783  29.780  12.496  1.00  0.00     0.219 HD
ENDBRANCH  15  30
BRANCH   9  32
HETATM   32  N4  UNL     1      20.749  37.634  16.525  1.00  0.00    -0.169 N 
ATOM     33  H4  UNL     1      20.034  38.361  16.479  1.00  0.00     0.186 HD
BRANCH  32  34
HETATM   34  C8  UNL     1      22.043  38.026  16.867  1.00  0.00     0.188 A 
HETATM   35  N5  UNL     1      22.944  38.605  16.059  1.00  0.00    -0.221 N 
HETATM   36  O4  UNL     1      24.036  38.824  16.728  1.00  0.00    -0.153 OA
ATOM     37  H5  UNL     1      22.795  38.836  15.077  1.00  0.00     0.198 HD
HETATM   38  N6  UNL     1      23.914  38.419  17.955  1.00  0.00    -0.222 N 
HETATM   39  C9  UNL     1      22.657  37.902  18.090  1.00  0.00     0.168 A 
ATOM     40  H6  UNL     1      24.625  38.476  18.684  1.00  0.00     0.198 HD
BRANCH  39  41
HETATM   41  N7  UNL     1      22.176  37.407  19.156  1.00  0.00    -0.381 N 
ATOM     42  H72 UNL     1      22.123  37.885  20.056  1.00  0.00     0.157 HD
ATOM     43  H71 UNL     1      21.776  36.479  19.290  1.00  0.00     0.157 HD
ENDBRANCH  39  41
ENDBRANCH  32  34
ENDBRANCH   9  32
TORSDOF 12
ENDMDL
MODEL 4
REMARK VINA RESULT: -10.302943190      1.224      1.825
REMARK  12 active torsions:
REMARK  status: ('A' for Active; 'I' for Inactive)
REMARK    1  A    between atoms: C2_2  and  O1_3 
REMARK    2  A    between atoms: C2_2  and  C13_41 
REMARK    3  A    between atoms: O1_3  and  N1_4 
REMARK    4  A    between atoms: N1_4  and  C3_5 
REMARK    5  A    between atoms: C3_5  and  O2_6 
REMARK    6  A    between atoms: C3_5  and  C4_8 
REMARK    7  A    between atoms: C7_16  and  N4_17 
REMARK    8  A    between atoms: N4_17  and  C8_19 
REMARK    9  A    between atoms: C9_25  and  N7_26 
REMARK   10  A    between atoms: C11_31  and  N9_32 
REMARK   11  A    between atoms: N9_32  and  O5_34 
REMARK   12  A    between atoms: C12_38  and  O6_39 
ROOT
HETATM    1  C4  UNL     1      18.390  30.112  15.844  1.00  0.00     0.152 A 
HETATM    2  O3  UNL     1      18.624  31.266  16.415  1.00  0.00    -0.287 OA
HETATM    3  C5  UNL     1      19.062  32.130  15.535  1.00  0.00     0.182 A 
HETATM    4  C6  UNL     1      19.434  33.508  15.763  1.00  0.00     0.146 A 
HETATM    5  N2  UNL     1      19.373  34.101  16.956  1.00  0.00    -0.279 N 
ATOM      6  H2  UNL     1      19.044  33.536  17.739  1.00  0.00     0.188 HD
HETATM    7  N3  UNL     1      19.698  35.348  17.216  1.00  0.00    -0.131 N 
ATOM      8  H3  UNL     1      19.623  35.728  18.160  1.00  0.00     0.205 HD
HETATM    9  C7  UNL     1      20.131  36.098  16.195  1.00  0.00     0.702 A 
HETATM   10  N8  UNL     1      20.226  35.580  14.940  1.00  0.00    -0.167 N 
HETATM   11  C10 UNL     1      20.699  36.429  13.868  1.00  0.00     0.177 C 
HETATM   12  C11 UNL     1      19.892  34.310  14.693  1.00  0.00     0.175 A 
HETATM   13  N10 UNL     1      19.111  31.502  14.350  1.00  0.00    -0.313 N 
ATOM     14  H10 UNL     1      19.415  31.921  13.472  1.00  0.00     0.170 HD
HETATM   15  C12 UNL     1      18.689  30.215  14.509  1.00  0.00     0.176 A 
ENDROOT
BRANCH  12  16
HETATM   16  N9  UNL     1      19.957  33.759  13.544  1.00  0.00    -0.250 N 
ATOM     17  H9  UNL     1      20.761  33.148  13.410  1.00  0.00     0.196 HD
BRANCH  16  18
HETATM   18  O5  UNL     1      19.145  33.852  12.489  1.00  0.00    -0.288 OA
ATOM     19  H5  UNL     1      18.760  33.177  11.943  1.00  0.00     0.244 HD
ENDBRANCH  16  18
ENDBRANCH  12  16
BRANCH   1  20
HETATM   20  C3  UNL     1      17.887  28.916  16.541  1.00  0.00     0.300 C 
BRANCH  20  21
HETATM   21  N1  UNL     1      18.906  28.282  17.355  1.00  0.00    -0.061 NA
BRANCH  21  22
HETATM   22  O1  UNL     1      19.424  27.195  16.789  1.00  0.00    -0.268 OA
BRANCH  22  23
HETATM   23  C2  UNL     1      19.535  26.103  17.609  1.00  0.00     0.243 C 
HETATM   24  C1  UNL     1      20.153  26.531  18.939  1.00  0.00     0.053 C 
BRANCH  23  25
HETATM   25  C13 UNL     1      18.226  25.483  17.936  1.00  0.00     0.204 C 
HETATM   26  O7  UNL     1      17.329  25.344  17.069  1.00  0.00    -0.646 OA
HETATM   27  O8  UNL     1      17.957  25.036  19.216  1.00  0.00    -0.646 OA
ENDBRANCH  23  25
ENDBRANCH  22  23
ENDBRANCH  21  22
ENDBRANCH  20  21
BRANCH  20  28
HETATM   28  O2  UNL     1      16.807  29.199  17.374  1.00  0.00    -0.371 OA
ATOM     29  H2  UNL     1      16.666  30.138  17.345  1.00  0.00     0.212 HD
ENDBRANCH  20  28
ENDBRANCH   1  20
BRANCH  15  30
HETATM   30  O6  UNL     1      18.588  29.230  13.531  1.00  0.00    -0.344 OA
ATOM     31  H6  UNL     1      19.245  28.596  13.272  1.00  0.00     0.219 HD
ENDBRANCH  15  30
BRANCH   9  32
HETATM   32  N4  UNL     1      20.454  37.322  16.424  1.00  0.00    -0.169 N 
ATOM     33  H4  UNL     1      19.727  38.030  16.315  1.00  0.00     0.186 HD
BRANCH  32  34
HETATM   34  C8  UNL     1      21.722  37.757  16.811  1.00  0.00     0.188 A 
HETATM   35  N5  UNL     1      22.637  38.351  16.031  1.00  0.00    -0.221 N 
HETATM   36  O4  UNL     1      23.695  38.612  16.739  1.00  0.00    -0.153 OA
ATOM     37  H5  UNL     1      22.520  38.565  15.040  1.00  0.00     0.198 HD
HETATM   38  N6  UNL     1      23.536  38.221  17.966  1.00  0.00    -0.222 N 
HETATM   39  C9  UNL     1      22.290  37.668  18.059  1.00  0.00     0.168 A 
ATOM     40  H6  UNL     1      24.216  38.309  18.721  1.00  0.00     0.198 HD
BRANCH  39  41
HETATM   41  N7  UNL     1      21.783  37.174  19.113  1.00  0.00    -0.381 N 
ATOM     42  H72 UNL     1      22.159  37.281  20.055  1.00  0.00     0.157 HD
ATOM     43  H71 UNL     1      20.940  36.605  19.194  1.00  0.00     0.157 HD
ENDBRANCH  39  41
ENDBRANCH  32  34
ENDBRANCH   9  32
TORSDOF 12
ENDMDL
MODEL 5
REMARK VINA RESULT: -9.463123900      2.184      8.888
REMARK  12 active torsions:
REMARK  status: ('A' for Active; 'I' for Inactive)
REMARK    1  A    between atoms: C2_2  and  O1_3 
REMARK    2  A    between atoms: C2_2  and  C13_41 
REMARK    3  A    between atoms: O1_3  and  N1_4 
REMARK    4  A    between atoms: N1_4  and  C3_5 
REMARK    5  A    between atoms: C3_5  and  O2_6 
REMARK    6  A    between atoms: C3_5  and  C4_8 
REMARK    7  A    between atoms: C7_16  and  N4_17 
REMARK    8  A    between atoms: N4_17  and  C8_19 
REMARK    9  A    between atoms: C9_25  and  N7_26 
REMARK   10  A    between atoms: C11_31  and  N9_32 
REMARK   11  A    between atoms: N9_32  and  O5_34 
REMARK   12  A    between atoms: C12_38  and  O6_39 
ROOT
HETATM    1  C4  UNL     1      19.877  35.898  16.516  1.00  0.00     0.152 A 
HETATM    2  O3  UNL     1      19.405  34.699  16.748  1.00  0.00    -0.287 OA
HETATM    3  C5  UNL     1      19.481  33.962  15.670  1.00  0.00     0.182 A 
HETATM    4  C6  UNL     1      19.066  32.587  15.512  1.00  0.00     0.146 A 
HETATM    5  N2  UNL     1      18.529  31.860  16.493  1.00  0.00    -0.279 N 
ATOM      6  H2  UNL     1      18.412  32.317  17.398  1.00  0.00     0.188 HD
HETATM    7  N3  UNL     1      18.136  30.610  16.402  1.00  0.00    -0.131 N 
ATOM      8  H3  UNL     1      17.733  30.122  17.202  1.00  0.00     0.205 HD
HETATM    9  C7  UNL     1      18.285  30.001  15.218  1.00  0.00     0.702 A 
HETATM   10  N8  UNL     1      18.825  30.661  14.158  1.00  0.00    -0.167 N 
HETATM   11  C10 UNL     1      18.967  29.962  12.899  1.00  0.00     0.177 C 
HETATM   12  C11 UNL     1      19.219  31.934  14.268  1.00  0.00     0.175 A 
HETATM   13  N10 UNL     1      20.024  34.721  14.706  1.00  0.00    -0.313 N 
ATOM     14  H10 UNL     1      20.208  34.419  13.749  1.00  0.00     0.170 HD
HETATM   15  C12 UNL     1      20.290  35.960  15.209  1.00  0.00     0.176 A 
ENDROOT
BRANCH  12  16
HETATM   16  N9  UNL     1      19.731  32.612  13.317  1.00  0.00    -0.250 N 
ATOM     17  H9  UNL     1      20.750  32.584  13.275  1.00  0.00     0.196 HD
BRANCH  16  18
HETATM   18  O5  UNL     1      19.155  33.352  12.368  1.00  0.00    -0.288 OA
ATOM     19  H5  UNL     1      18.289  33.744  12.329  1.00  0.00     0.244 HD
ENDBRANCH  16  18
ENDBRANCH  12  16
BRANCH   1  20
HETATM   20  C3  UNL     1      19.944  36.982  17.510  1.00  0.00     0.300 C 
BRANCH  20  21
HETATM   21  N1  UNL     1      21.295  37.474  17.699  1.00  0.00    -0.061 NA
BRANCH  21  22
HETATM   22  O1  UNL     1      21.536  38.602  17.034  1.00  0.00    -0.268 OA
BRANCH  22  23
HETATM   23  C2  UNL     1      22.753  39.181  17.284  1.00  0.00     0.243 C 
HETATM   24  C1  UNL     1      23.460  38.411  18.398  1.00  0.00     0.053 C 
BRANCH  23  25
HETATM   25  C13 UNL     1      23.664  39.154  16.112  1.00  0.00     0.204 C 
HETATM   26  O7  UNL     1      24.768  39.751  16.123  1.00  0.00    -0.646 OA
HETATM   27  O8  UNL     1      23.320  38.463  14.966  1.00  0.00    -0.646 OA
ENDBRANCH  23  25
ENDBRANCH  22  23
ENDBRANCH  21  22
ENDBRANCH  20  21
BRANCH  20  28
HETATM   28  O2  UNL     1      19.150  38.072  17.164  1.00  0.00    -0.371 OA
ATOM     29  H2  UNL     1      18.303  37.949  17.577  1.00  0.00     0.212 HD
ENDBRANCH  20  28
ENDBRANCH   1  20
BRANCH  15  30
HETATM   30  O6  UNL     1      20.853  37.043  14.541  1.00  0.00    -0.344 OA
ATOM     31  H6  UNL     1      21.156  37.864  14.911  1.00  0.00     0.219 HD
ENDBRANCH  15  30
BRANCH   9  32
HETATM   32  N4  UNL     1      17.909  28.775  15.105  1.00  0.00    -0.169 N 
ATOM     33  H4  UNL     1      17.593  28.463  14.186  1.00  0.00     0.186 HD
BRANCH  32  34
HETATM   34  C8  UNL     1      17.899  27.841  16.140  1.00  0.00     0.188 A 
HETATM   35  N5  UNL     1      17.514  28.055  17.407  1.00  0.00    -0.221 N 
HETATM   36  O4  UNL     1      17.644  26.952  18.083  1.00  0.00    -0.153 OA
ATOM     37  H5  UNL     1      17.174  28.941  17.781  1.00  0.00     0.198 HD
HETATM   38  N6  UNL     1      18.101  26.000  17.328  1.00  0.00    -0.222 N 
HETATM   39  C9  UNL     1      18.279  26.522  16.078  1.00  0.00     0.168 A 
ATOM     40  H6  UNL     1      18.291  25.040  17.615  1.00  0.00     0.198 HD
BRANCH  39  41
HETATM   41  N7  UNL     1      18.714  25.883  15.071  1.00  0.00    -0.381 N 
ATOM     42  H72 UNL     1      18.522  26.117  14.096  1.00  0.00     0.157 HD
ATOM     43  H71 UNL     1      19.310  25.056  15.064  1.00  0.00     0.157 HD
ENDBRANCH  39  41
ENDBRANCH  32  34
ENDBRANCH   9  32
TORSDOF 12
ENDMDL
