MODEL 1
REMARK VINA RESULT: -5.069313733      0.000      0.000
REMARK  5 active torsions:
REMARK  status: ('A' for Active; 'I' for Inactive)
REMARK    1  A    between atoms: N1_1  and  C1_4 
REMARK    2  A    between atoms: C2_9  and  N4_10 
REMARK    3  A    between atoms: N4_10  and  S1_12 
REMARK    4  A    between atoms: S1_12  and  N5_15 
REMARK    5  A    between atoms: N5_15  and  N6_17 
ROOT
HETATM    1  C1  UNL     1      15.078  -2.578  35.913  1.00  0.00     0.693 A 
HETATM    2  N2  UNL     1      14.652  -1.824  34.884  1.00  0.00    -0.131 N 
ATOM      3  H2  UNL     1      13.961  -2.179  34.222  1.00  0.00     0.205 HD
HETATM    4  N3  UNL     1      15.147  -0.628  34.759  1.00  0.00    -0.266 N 
ATOM      5  H3  UNL     1      14.812  -0.072  33.972  1.00  0.00     0.189 HD
HETATM    6  C2  UNL     1      16.067  -0.045  35.571  1.00  0.00     0.201 A 
HETATM    7  C3  UNL     1      16.496  -0.820  36.616  1.00  0.00     0.305 A 
HETATM    8  O3  UNL     1      17.347  -0.429  37.457  1.00  0.00    -0.263 OA
HETATM    9  N7  UNL     1      15.983  -2.081  36.761  1.00  0.00    -0.152 N 
ATOM     10  H7  UNL     1      16.303  -2.659  37.538  1.00  0.00     0.188 HD
ENDROOT
BRANCH   6  11
HETATM   11  N4  UNL     1      16.537   1.245  35.313  1.00  0.00    -0.246 N 
ATOM     12  H4  UNL     1      17.359   1.554  35.832  1.00  0.00     0.182 HD
BRANCH  11  13
HETATM   13  S1  UNL     1      15.865   2.334  34.222  1.00  0.00     0.337 S 
HETATM   14  O1  UNL     1      14.416   2.093  33.952  1.00  0.00    -0.181 OA
HETATM   15  O2  UNL     1      16.555   2.112  32.841  1.00  0.00    -0.181 OA
BRANCH  13  16
HETATM   16  N5  UNL     1      16.092   4.002  34.646  1.00  0.00    -0.216 N 
ATOM     17  H5  UNL     1      15.435   4.561  35.192  1.00  0.00     0.201 HD
BRANCH  16  18
HETATM   18  N6  UNL     1      17.316   4.472  34.126  1.00  0.00    -0.335 N 
ATOM     19  H62 UNL     1      18.232   4.181  34.467  1.00  0.00     0.177 HD
ATOM     20  H61 UNL     1      17.144   5.135  33.370  1.00  0.00     0.177 HD
ENDBRANCH  16  18
ENDBRANCH  13  16
ENDBRANCH  11  13
ENDBRANCH   6  11
BRANCH   1  21
HETATM   21  N1  UNL     1      14.589  -3.767  36.043  1.00  0.00    -0.233 N 
ATOM     22  H12 UNL     1      13.704  -4.042  35.616  1.00  0.00     0.174 HD
ATOM     23  H11 UNL     1      15.114  -4.446  36.593  1.00  0.00     0.174 HD
ENDBRANCH   1  21
TORSDOF 5
ENDMDL
MODEL 2
REMARK VINA RESULT: -5.049650733      0.971      1.168
REMARK  5 active torsions:
REMARK  status: ('A' for Active; 'I' for Inactive)
REMARK    1  A    between atoms: N1_1  and  C1_4 
REMARK    2  A    between atoms: C2_9  and  N4_10 
REMARK    3  A    between atoms: N4_10  and  S1_12 
REMARK    4  A    between atoms: S1_12  and  N5_15 
REMARK    5  A    between atoms: N5_15  and  N6_17 
ROOT
HETATM    1  C1  UNL     1      14.943  -2.408  35.677  1.00  0.00     0.693 A 
HETATM    2  N2  UNL     1      14.626  -1.563  34.680  1.00  0.00    -0.131 N 
ATOM      3  H2  UNL     1      13.954  -1.827  33.959  1.00  0.00     0.205 HD
HETATM    4  N3  UNL     1      15.203  -0.397  34.663  1.00  0.00    -0.266 N 
ATOM      5  H3  UNL     1      14.950   0.230  33.899  1.00  0.00     0.189 HD
HETATM    6  C2  UNL     1      16.109   0.069  35.562  1.00  0.00     0.201 A 
HETATM    7  C3  UNL     1      16.426  -0.798  36.573  1.00  0.00     0.305 A 
HETATM    8  O3  UNL     1      17.251  -0.520  37.483  1.00  0.00    -0.263 OA
HETATM    9  N7  UNL     1      15.827  -2.029  36.604  1.00  0.00    -0.152 N 
ATOM     10  H7  UNL     1      16.063  -2.676  37.357  1.00  0.00     0.188 HD
ENDROOT
BRANCH   6  11
HETATM   11  N4  UNL     1      16.674   1.339  35.418  1.00  0.00    -0.246 N 
ATOM     12  H4  UNL     1      17.693   1.400  35.430  1.00  0.00     0.182 HD
BRANCH  11  13
HETATM   13  S1  UNL     1      15.822   2.776  35.226  1.00  0.00     0.337 S 
HETATM   14  O1  UNL     1      15.197   3.273  36.488  1.00  0.00    -0.181 OA
HETATM   15  O2  UNL     1      14.611   2.491  34.285  1.00  0.00    -0.181 OA
BRANCH  13  16
HETATM   16  N5  UNL     1      16.741   4.061  34.506  1.00  0.00    -0.216 N 
ATOM     17  H5  UNL     1      17.296   3.976  33.654  1.00  0.00     0.201 HD
BRANCH  16  18
HETATM   18  N6  UNL     1      16.609   5.238  35.271  1.00  0.00    -0.335 N 
ATOM     19  H62 UNL     1      15.725   5.718  35.435  1.00  0.00     0.177 HD
ATOM     20  H61 UNL     1      17.520   5.529  35.626  1.00  0.00     0.177 HD
ENDBRANCH  16  18
ENDBRANCH  13  16
ENDBRANCH  11  13
ENDBRANCH   6  11
BRANCH   1  21
HETATM   21  N1  UNL     1      14.372  -3.567  35.699  1.00  0.00    -0.233 N 
ATOM     22  H12 UNL     1      13.576  -3.772  36.302  1.00  0.00     0.174 HD
ATOM     23  H11 UNL     1      14.740  -4.296  35.088  1.00  0.00     0.174 HD
ENDBRANCH   1  21
TORSDOF 5
ENDMDL
MODEL 3
REMARK VINA RESULT: -5.034898190      1.239      1.478
REMARK  5 active torsions:
REMARK  status: ('A' for Active; 'I' for Inactive)
REMARK    1  A    between atoms: N1_1  and  C1_4 
REMARK    2  A    between atoms: C2_9  and  N4_10 
REMARK    3  A    between atoms: N4_10  and  S1_12 
REMARK    4  A    between atoms: S1_12  and  N5_15 
REMARK    5  A    between atoms: N5_15  and  N6_17 
ROOT
HETATM    1  C1  UNL     1      15.376  -3.504  36.118  1.00  0.00     0.693 A 
HETATM    2  N2  UNL     1      14.650  -3.010  35.101  1.00  0.00    -0.131 N 
ATOM      3  H2  UNL     1      13.833  -3.508  34.746  1.00  0.00     0.205 HD
HETATM    4  N3  UNL     1      15.021  -1.875  34.582  1.00  0.00    -0.266 N 
ATOM      5  H3  UNL     1      14.457  -1.517  33.811  1.00  0.00     0.189 HD
HETATM    6  C2  UNL     1      16.084  -1.121  34.965  1.00  0.00     0.201 A 
HETATM    7  C3  UNL     1      16.818  -1.633  36.002  1.00  0.00     0.305 A 
HETATM    8  O3  UNL     1      17.834  -1.059  36.472  1.00  0.00    -0.263 OA
HETATM    9  N7  UNL     1      16.440  -2.826  36.557  1.00  0.00    -0.152 N 
ATOM     10  H7  UNL     1      16.987  -3.208  37.329  1.00  0.00     0.188 HD
ENDROOT
BRANCH   6  11
HETATM   11  N4  UNL     1      16.389   0.074  34.309  1.00  0.00    -0.246 N 
ATOM     12  H4  UNL     1      16.972   0.011  33.474  1.00  0.00     0.182 HD
BRANCH  11  13
HETATM   13  S1  UNL     1      15.878   1.607  34.773  1.00  0.00     0.337 S 
HETATM   14  O1  UNL     1      15.738   1.768  36.251  1.00  0.00    -0.181 OA
HETATM   15  O2  UNL     1      14.431   1.813  34.227  1.00  0.00    -0.181 OA
BRANCH  13  16
HETATM   16  N5  UNL     1      16.851   2.903  34.151  1.00  0.00    -0.216 N 
ATOM     17  H5  UNL     1      17.660   2.786  33.542  1.00  0.00     0.201 HD
BRANCH  16  18
HETATM   18  N6  UNL     1      16.359   4.142  34.613  1.00  0.00    -0.335 N 
ATOM     19  H62 UNL     1      16.396   4.446  35.585  1.00  0.00     0.177 HD
ATOM     20  H61 UNL     1      15.969   4.675  33.836  1.00  0.00     0.177 HD
ENDBRANCH  16  18
ENDBRANCH  13  16
ENDBRANCH  11  13
ENDBRANCH   6  11
BRANCH   1  21
HETATM   21  N1  UNL     1      15.012  -4.631  36.637  1.00  0.00    -0.233 N 
ATOM     22  H12 UNL     1      15.453  -5.515  36.384  1.00  0.00     0.174 HD
ATOM     23  H11 UNL     1      14.256  -4.624  37.321  1.00  0.00     0.174 HD
ENDBRANCH   1  21
TORSDOF 5
ENDMDL
MODEL 4
REMARK VINA RESULT: -5.020255738      1.997      2.623
REMARK  5 active torsions:
REMARK  status: ('A' for Active; 'I' for Inactive)
REMARK    1  A    between atoms: N1_1  and  C1_4 
REMARK    2  A    between atoms: C2_9  and  N4_10 
REMARK    3  A    between atoms: N4_10  and  S1_12 
REMARK    4  A    between atoms: S1_12  and  N5_15 
REMARK    5  A    between atoms: N5_15  and  N6_17 
ROOT
HETATM    1  C1  UNL     1      15.275  -3.499  36.248  1.00  0.00     0.693 A 
HETATM    2  N2  UNL     1      16.226  -3.022  37.071  1.00  0.00    -0.131 N 
ATOM      3  H2  UNL     1      16.735  -3.641  37.702  1.00  0.00     0.205 HD
HETATM    4  N3  UNL     1      16.479  -1.746  37.035  1.00  0.00    -0.266 N 
ATOM      5  H3  UNL     1      17.203  -1.403  37.666  1.00  0.00     0.189 HD
HETATM    6  C2  UNL     1      15.873  -0.825  36.242  1.00  0.00     0.201 A 
HETATM    7  C3  UNL     1      14.905  -1.319  35.408  1.00  0.00     0.305 A 
HETATM    8  O3  UNL     1      14.248  -0.596  34.614  1.00  0.00    -0.263 OA
HETATM    9  N7  UNL     1      14.628  -2.660  35.435  1.00  0.00    -0.152 N 
ATOM     10  H7  UNL     1      13.907  -3.028  34.815  1.00  0.00     0.188 HD
ENDROOT
BRANCH   6  11
HETATM   11  N4  UNL     1      16.222   0.526  36.316  1.00  0.00    -0.246 N 
ATOM     12  H4  UNL     1      15.921   1.041  37.144  1.00  0.00     0.182 HD
BRANCH  11  13
HETATM   13  S1  UNL     1      17.097   1.379  35.160  1.00  0.00     0.337 S 
HETATM   14  O1  UNL     1      18.444   0.797  34.881  1.00  0.00    -0.181 OA
HETATM   15  O2  UNL     1      17.403   2.794  35.742  1.00  0.00    -0.181 OA
BRANCH  13  16
HETATM   16  N5  UNL     1      16.259   1.611  33.658  1.00  0.00    -0.216 N 
ATOM     17  H5  UNL     1      16.607   1.322  32.744  1.00  0.00     0.201 HD
BRANCH  16  18
HETATM   18  N6  UNL     1      15.027   2.259  33.886  1.00  0.00    -0.335 N 
ATOM     19  H62 UNL     1      14.125   1.900  33.574  1.00  0.00     0.177 HD
ATOM     20  H61 UNL     1      15.177   3.126  34.402  1.00  0.00     0.177 HD
ENDBRANCH  16  18
ENDBRANCH  13  16
ENDBRANCH  11  13
ENDBRANCH   6  11
BRANCH   1  21
HETATM   21  N1  UNL     1      15.020  -4.766  36.280  1.00  0.00    -0.233 N 
ATOM     22  H12 UNL     1      15.742  -5.463  36.463  1.00  0.00     0.174 HD
ATOM     23  H11 UNL     1      14.061  -5.068  36.112  1.00  0.00     0.174 HD
ENDBRANCH   1  21
TORSDOF 5
ENDMDL
MODEL 5
REMARK VINA RESULT: -4.952891879      1.903      2.610
REMARK  5 active torsions:
REMARK  status: ('A' for Active; 'I' for Inactive)
REMARK    1  A    between atoms: N1_1  and  C1_4 
REMARK    2  A    between atoms: C2_9  and  N4_10 
REMARK    3  A    between atoms: N4_10  and  S1_12 
REMARK    4  A    between atoms: S1_12  and  N5_15 
REMARK    5  A    between atoms: N5_15  and  N6_17 
ROOT
HETATM    1  C1  UNL     1      15.313  -3.406  36.099  1.00  0.00     0.693 A 
HETATM    2  N2  UNL     1      16.585  -3.121  36.430  1.00  0.00    -0.131 N 
ATOM      3  H2  UNL     1      17.168  -3.804  36.914  1.00  0.00     0.205 HD
HETATM    4  N3  UNL     1      17.049  -1.947  36.113  1.00  0.00    -0.266 N 
ATOM      5  H3  UNL     1      18.016  -1.751  36.372  1.00  0.00     0.189 HD
HETATM    6  C2  UNL     1      16.375  -0.959  35.471  1.00  0.00     0.201 A 
HETATM    7  C3  UNL     1      15.080  -1.257  35.138  1.00  0.00     0.305 A 
HETATM    8  O3  UNL     1      14.320  -0.448  34.544  1.00  0.00    -0.263 OA
HETATM    9  N7  UNL     1      14.578  -2.488  35.466  1.00  0.00    -0.152 N 
ATOM     10  H7  UNL     1      13.613  -2.710  35.219  1.00  0.00     0.188 HD
ENDROOT
BRANCH   6  11
HETATM   11  N4  UNL     1      16.984   0.271  35.208  1.00  0.00    -0.246 N 
ATOM     12  H4  UNL     1      17.793   0.266  34.586  1.00  0.00     0.182 HD
BRANCH  11  13
HETATM   13  S1  UNL     1      16.501   1.758  35.826  1.00  0.00     0.337 S 
HETATM   14  O1  UNL     1      17.641   2.647  36.202  1.00  0.00    -0.181 OA
HETATM   15  O2  UNL     1      15.759   1.496  37.173  1.00  0.00    -0.181 OA
BRANCH  13  16
HETATM   16  N5  UNL     1      15.411   2.638  34.801  1.00  0.00    -0.216 N 
ATOM     17  H5  UNL     1      14.841   3.430  35.097  1.00  0.00     0.201 HD
BRANCH  16  18
HETATM   18  N6  UNL     1      15.427   2.096  33.499  1.00  0.00    -0.335 N 
ATOM     19  H62 UNL     1      16.255   1.699  33.055  1.00  0.00     0.177 HD
ATOM     20  H61 UNL     1      14.500   2.163  33.079  1.00  0.00     0.177 HD
ENDBRANCH  16  18
ENDBRANCH  13  16
ENDBRANCH  11  13
ENDBRANCH   6  11
BRANCH   1  21
HETATM   21  N1  UNL     1      14.847  -4.570  36.411  1.00  0.00    -0.233 N 
ATOM     22  H12 UNL     1      14.505  -4.787  37.347  1.00  0.00     0.174 HD
ATOM     23  H11 UNL     1      14.826  -5.290  35.689  1.00  0.00     0.174 HD
ENDBRANCH   1  21
TORSDOF 5
ENDMDL
