MODEL 1
REMARK VINA RESULT: -5.438278682      0.000      0.000
REMARK  3 active torsions:
REMARK  status: ('A' for Active; 'I' for Inactive)
REMARK    1  A    between atoms: O1_1  and  C1_3 
REMARK    2  A    between atoms: C1_3  and  C2_4 
REMARK    3  A    between atoms: C7_13  and  N2_14 
ROOT
HETATM    1  C2  UNL     1      33.213  15.308 -18.212  1.00  0.00     0.173 C 
HETATM    2  C3  UNL     1      33.127  15.225 -16.680  1.00  0.00     0.266 C 
HETATM    3  N1  UNL     1      34.399  15.771 -16.213  1.00  0.00    -0.064 N 
ATOM      4  H11 UNL     1      35.179  15.126 -16.342  1.00  0.00     0.277 HD
ATOM      5  H12 UNL     1      34.451  15.842 -15.197  1.00  0.00     0.277 HD
HETATM    6  C4  UNL     1      34.598  17.017 -16.867  1.00  0.00     0.242 C 
HETATM    7  C5  UNL     1      35.794  17.818 -16.371  1.00  0.00     0.204 C 
HETATM    8  O2  UNL     1      36.575  17.128 -17.273  1.00  0.00    -0.377 OA
HETATM    9  C6  UNL     1      35.430  16.991 -18.091  1.00  0.00     0.204 C 
HETATM   10  C7  UNL     1      35.381  15.764 -18.910  1.00  0.00     0.274 C 
HETATM   11  O3  UNL     1      34.446  14.830 -18.562  1.00  0.00    -0.353 OA
ENDROOT
BRANCH  10  12
HETATM   12  N2  UNL     1      35.257  16.097 -20.322  1.00  0.00    -0.272 N 
HETATM   13  C8  UNL     1      35.676  15.431 -21.405  1.00  0.00     0.114 A 
HETATM   14  C9  UNL     1      35.330  16.143 -22.532  1.00  0.00     0.037 A 
HETATM   15  C10 UNL     1      34.685  17.269 -22.070  1.00  0.00     0.108 A 
HETATM   16  N3  UNL     1      34.663  17.202 -20.738  1.00  0.00    -0.308 N 
ATOM     17  H3  UNL     1      34.245  17.904 -20.127  1.00  0.00     0.186 HD
ENDBRANCH  10  12
BRANCH   1  18
HETATM   18  C1  UNL     1      32.154  14.362 -18.740  1.00  0.00     0.197 C 
BRANCH  18  19
HETATM   19  O1  UNL     1      31.199  14.114 -17.776  1.00  0.00    -0.398 OA
ATOM     20  H1  UNL     1      30.682  13.350 -18.004  1.00  0.00     0.209 HD
ENDBRANCH  18  19
ENDBRANCH   1  18
TORSDOF 3
ENDMDL
MODEL 2
REMARK VINA RESULT: -5.280580175      2.394      5.242
REMARK  3 active torsions:
REMARK  status: ('A' for Active; 'I' for Inactive)
REMARK    1  A    between atoms: O1_1  and  C1_3 
REMARK    2  A    between atoms: C1_3  and  C2_4 
REMARK    3  A    between atoms: C7_13  and  N2_14 
ROOT
HETATM    1  C2  UNL     1      34.651  16.544 -21.459  1.00  0.00     0.173 C 
HETATM    2  C3  UNL     1      35.331  16.347 -22.822  1.00  0.00     0.266 C 
HETATM    3  N1  UNL     1      35.656  14.924 -22.866  1.00  0.00    -0.064 N 
ATOM      4  H11 UNL     1      36.453  14.680 -22.278  1.00  0.00     0.277 HD
ATOM      5  H12 UNL     1      36.056  14.635 -23.759  1.00  0.00     0.277 HD
HETATM    6  C4  UNL     1      34.479  14.203 -22.527  1.00  0.00     0.242 C 
HETATM    7  C5  UNL     1      34.581  12.694 -22.692  1.00  0.00     0.204 C 
HETATM    8  O2  UNL     1      35.084  12.631 -21.410  1.00  0.00    -0.377 OA
HETATM    9  C6  UNL     1      34.342  13.797 -21.110  1.00  0.00     0.204 C 
HETATM   10  C7  UNL     1      34.943  14.686 -20.097  1.00  0.00     0.274 C 
HETATM   11  O3  UNL     1      35.420  15.888 -20.538  1.00  0.00    -0.353 OA
ENDROOT
BRANCH  10  12
HETATM   12  N2  UNL     1      34.023  14.887 -18.986  1.00  0.00    -0.272 N 
HETATM   13  C8  UNL     1      32.782  14.420 -18.798  1.00  0.00     0.114 A 
HETATM   14  C9  UNL     1      32.306  14.881 -17.591  1.00  0.00     0.037 A 
HETATM   15  C10 UNL     1      33.322  15.649 -17.065  1.00  0.00     0.108 A 
HETATM   16  N3  UNL     1      34.334  15.626 -17.934  1.00  0.00    -0.308 N 
ATOM     17  H3  UNL     1      35.223  16.109 -17.805  1.00  0.00     0.186 HD
ENDBRANCH  10  12
BRANCH   1  18
HETATM   18  C1  UNL     1      34.709  18.031 -21.174  1.00  0.00     0.197 C 
BRANCH  18  19
HETATM   19  O1  UNL     1      35.085  18.262 -19.867  1.00  0.00    -0.398 OA
ATOM     20  H1  UNL     1      34.429  18.782 -19.417  1.00  0.00     0.209 HD
ENDBRANCH  18  19
ENDBRANCH   1  18
TORSDOF 3
ENDMDL
MODEL 3
REMARK VINA RESULT: -5.269393628      1.874      4.971
REMARK  3 active torsions:
REMARK  status: ('A' for Active; 'I' for Inactive)
REMARK    1  A    between atoms: O1_1  and  C1_3 
REMARK    2  A    between atoms: C1_3  and  C2_4 
REMARK    3  A    between atoms: C7_13  and  N2_14 
ROOT
HETATM    1  C2  UNL     1      35.643  14.889 -20.045  1.00  0.00     0.173 C 
HETATM    2  C3  UNL     1      35.430  14.195 -21.399  1.00  0.00     0.266 C 
HETATM    3  N1  UNL     1      34.022  13.806 -21.391  1.00  0.00    -0.064 N 
ATOM      4  H11 UNL     1      33.835  13.001 -20.794  1.00  0.00     0.277 HD
ATOM      5  H12 UNL     1      33.721  13.390 -22.273  1.00  0.00     0.277 HD
HETATM    6  C4  UNL     1      33.261  14.951 -21.030  1.00  0.00     0.242 C 
HETATM    7  C5  UNL     1      31.753  14.780 -21.141  1.00  0.00     0.204 C 
HETATM    8  O2  UNL     1      31.758  14.279 -19.856  1.00  0.00    -0.377 OA
HETATM    9  C6  UNL     1      32.899  15.074 -19.600  1.00  0.00     0.204 C 
HETATM   10  C7  UNL     1      33.850  14.518 -18.617  1.00  0.00     0.274 C 
HETATM   11  O3  UNL     1      35.056  14.094 -19.099  1.00  0.00    -0.353 OA
ENDROOT
BRANCH  10  12
HETATM   12  N2  UNL     1      34.048  15.451 -17.516  1.00  0.00    -0.272 N 
HETATM   13  C8  UNL     1      33.835  15.294 -16.204  1.00  0.00     0.114 A 
HETATM   14  C9  UNL     1      34.169  16.459 -15.551  1.00  0.00     0.037 A 
HETATM   15  C10 UNL     1      34.593  17.323 -16.538  1.00  0.00     0.108 A 
HETATM   16  N3  UNL     1      34.505  16.678 -17.702  1.00  0.00    -0.308 N 
ATOM     17  H3  UNL     1      34.754  17.075 -18.608  1.00  0.00     0.186 HD
ENDBRANCH  10  12
BRANCH   1  18
HETATM   18  C1  UNL     1      37.141  14.899 -19.813  1.00  0.00     0.197 C 
BRANCH  18  19
HETATM   19  O1  UNL     1      37.455  15.649 -18.699  1.00  0.00    -0.398 OA
ATOM     20  H1  UNL     1      37.104  16.529 -18.776  1.00  0.00     0.209 HD
ENDBRANCH  18  19
ENDBRANCH   1  18
TORSDOF 3
ENDMDL
MODEL 4
REMARK VINA RESULT: -5.254886471      1.903      4.973
REMARK  3 active torsions:
REMARK  status: ('A' for Active; 'I' for Inactive)
REMARK    1  A    between atoms: O1_1  and  C1_3 
REMARK    2  A    between atoms: C1_3  and  C2_4 
REMARK    3  A    between atoms: C7_13  and  N2_14 
ROOT
HETATM    1  C2  UNL     1      34.620  17.474 -20.142  1.00  0.00     0.173 C 
HETATM    2  C3  UNL     1      34.708  17.284 -21.664  1.00  0.00     0.266 C 
HETATM    3  N1  UNL     1      34.767  15.836 -21.847  1.00  0.00    -0.064 N 
ATOM      4  H11 UNL     1      35.676  15.442 -21.607  1.00  0.00     0.277 HD
ATOM      5  H12 UNL     1      34.758  15.560 -22.829  1.00  0.00     0.277 HD
HETATM    6  C4  UNL     1      33.701  15.264 -21.101  1.00  0.00     0.242 C 
HETATM    7  C5  UNL     1      33.498  13.771 -21.314  1.00  0.00     0.204 C 
HETATM    8  O2  UNL     1      34.424  13.546 -20.317  1.00  0.00    -0.377 OA
HETATM    9  C6  UNL     1      34.037  14.779 -19.743  1.00  0.00     0.204 C 
HETATM   10  C7  UNL     1      35.101  15.501 -19.017  1.00  0.00     0.274 C 
HETATM   11  O3  UNL     1      35.562  16.653 -19.588  1.00  0.00    -0.353 OA
ENDROOT
BRANCH  10  12
HETATM   12  N2  UNL     1      34.701  15.748 -17.639  1.00  0.00    -0.272 N 
HETATM   13  C8  UNL     1      33.774  15.139 -16.888  1.00  0.00     0.114 A 
HETATM   14  C9  UNL     1      33.753  15.722 -15.640  1.00  0.00     0.037 A 
HETATM   15  C10 UNL     1      34.713  16.710 -15.681  1.00  0.00     0.108 A 
HETATM   16  N3  UNL     1      35.257  16.691 -16.899  1.00  0.00    -0.308 N 
ATOM     17  H3  UNL     1      35.999  17.316 -17.214  1.00  0.00     0.186 HD
ENDBRANCH  10  12
BRANCH   1  18
HETATM   18  C1  UNL     1      35.010  18.915 -19.879  1.00  0.00     0.197 C 
BRANCH  18  19
HETATM   19  O1  UNL     1      35.455  19.069 -18.582  1.00  0.00    -0.398 OA
ATOM     20  H1  UNL     1      35.352  18.260 -18.094  1.00  0.00     0.209 HD
ENDBRANCH  18  19
ENDBRANCH   1  18
TORSDOF 3
ENDMDL
MODEL 5
REMARK VINA RESULT: -5.132240004      2.603      5.595
REMARK  3 active torsions:
REMARK  status: ('A' for Active; 'I' for Inactive)
REMARK    1  A    between atoms: O1_1  and  C1_3 
REMARK    2  A    between atoms: C1_3  and  C2_4 
REMARK    3  A    between atoms: C7_13  and  N2_14 
ROOT
HETATM    1  C2  UNL     1      34.022  16.792 -21.556  1.00  0.00     0.173 C 
HETATM    2  C3  UNL     1      34.178  16.897 -23.080  1.00  0.00     0.266 C 
HETATM    3  N1  UNL     1      33.785  15.582 -23.580  1.00  0.00    -0.064 N 
ATOM      4  H11 UNL     1      34.495  14.868 -23.418  1.00  0.00     0.277 HD
ATOM      5  H12 UNL     1      33.775  15.531 -24.598  1.00  0.00     0.277 HD
HETATM    6  C4  UNL     1      32.531  15.257 -22.995  1.00  0.00     0.242 C 
HETATM    7  C5  UNL     1      31.879  13.993 -23.537  1.00  0.00     0.204 C 
HETATM    8  O2  UNL     1      32.592  13.275 -22.600  1.00  0.00    -0.377 OA
HETATM    9  C6  UNL     1      32.573  14.422 -21.774  1.00  0.00     0.204 C 
HETATM   10  C7  UNL     1      33.743  14.585 -20.889  1.00  0.00     0.274 C 
HETATM   11  O3  UNL     1      34.598  15.609 -21.183  1.00  0.00    -0.353 OA
ENDROOT
BRANCH  10  12
HETATM   12  N2  UNL     1      33.323  14.664 -19.497  1.00  0.00    -0.272 N 
HETATM   13  C8  UNL     1      32.108  14.519 -18.953  1.00  0.00     0.114 A 
HETATM   14  C9  UNL     1      32.204  14.682 -17.589  1.00  0.00     0.037 A 
HETATM   15  C10 UNL     1      33.536  14.933 -17.343  1.00  0.00     0.108 A 
HETATM   16  N3  UNL     1      34.173  14.913 -18.515  1.00  0.00    -0.308 N 
ATOM     17  H3  UNL     1      35.173  15.068 -18.636  1.00  0.00     0.186 HD
ENDBRANCH  10  12
BRANCH   1  18
HETATM   18  C1  UNL     1      34.829  17.935 -20.974  1.00  0.00     0.197 C 
BRANCH  18  19
HETATM   19  O1  UNL     1      35.039  17.744 -19.623  1.00  0.00    -0.398 OA
ATOM     20  H1  UNL     1      34.345  18.149 -19.116  1.00  0.00     0.209 HD
ENDBRANCH  18  19
ENDBRANCH   1  18
TORSDOF 3
ENDMDL
