MODEL 1
REMARK VINA RESULT: -5.085743256      0.000      0.000
REMARK  5 active torsions:
REMARK  status: ('A' for Active; 'I' for Inactive)
REMARK    1  A    between atoms: O1_2  and  C2_3 
REMARK    2  A    between atoms: C4_6  and  O3_8 
REMARK    3  A    between atoms: C6_10  and  O4_11 
REMARK    4  A    between atoms: C7_13  and  N1_14 
REMARK    5  A    between atoms: N1_14  and  N2_16 
ROOT
HETATM    1  C2  UNL     1      35.283  16.838 -19.708  1.00  0.00     0.285 C 
HETATM    2  C3  UNL     1      35.235  17.857 -18.569  1.00  0.00     0.232 C 
HETATM    3  O2  UNL     1      34.138  17.535 -17.788  1.00  0.00    -0.348 OA
HETATM    4  C4  UNL     1      34.420  16.763 -16.701  1.00  0.00     0.188 C 
HETATM    5  C5  UNL     1      33.342  17.054 -15.646  1.00  0.00     0.082 C 
HETATM    6  C6  UNL     1      34.487  15.280 -16.995  1.00  0.00     0.229 C 
HETATM    7  C7  UNL     1      34.431  15.078 -18.498  1.00  0.00     0.274 C 
HETATM    8  O5  UNL     1      35.548  15.607 -19.098  1.00  0.00    -0.331 OA
ENDROOT
BRANCH   7   9
HETATM    9  N1  UNL     1      34.339  13.687 -18.847  1.00  0.00    -0.291 N 
ATOM     10  H1  UNL     1      33.987  13.028 -18.151  1.00  0.00     0.184 HD
BRANCH   9  11
HETATM   11  N2  UNL     1      34.670  13.258 -19.960  1.00  0.00    -0.251 N 
HETATM   12  N3  UNL     1      35.214  13.252 -21.061  1.00  0.00    -0.331 N 
ATOM     13  H32 UNL     1      35.658  14.169 -21.007  1.00  0.00     0.178 HD
ATOM     14  H31 UNL     1      35.487  12.900 -21.978  1.00  0.00     0.178 HD
ATOM     15  H2  UNL     1      34.206  12.350 -19.966  1.00  0.00     0.207 HD
ENDBRANCH   9  11
ENDBRANCH   7   9
BRANCH   6  16
HETATM   16  O4  UNL     1      33.440  14.617 -16.367  1.00  0.00    -0.386 OA
ATOM     17  H4  UNL     1      33.058  13.975 -16.953  1.00  0.00     0.210 HD
ENDBRANCH   6  16
BRANCH   4  18
HETATM   18  O3  UNL     1      35.637  17.123 -16.076  1.00  0.00    -0.363 OA
ATOM     19  H3  UNL     1      35.646  16.923 -15.147  1.00  0.00     0.213 HD
ENDBRANCH   4  18
BRANCH   1  20
HETATM   20  O1  UNL     1      34.080  16.749 -20.372  1.00  0.00    -0.364 OA
HETATM   21  C1  UNL     1      34.189  16.808 -21.743  1.00  0.00     0.204 C 
ENDBRANCH   1  20
TORSDOF 5
ENDMDL
MODEL 2
REMARK VINA RESULT: -4.931938673      2.666      4.367
REMARK  5 active torsions:
REMARK  status: ('A' for Active; 'I' for Inactive)
REMARK    1  A    between atoms: O1_2  and  C2_3 
REMARK    2  A    between atoms: C4_6  and  O3_8 
REMARK    3  A    between atoms: C6_10  and  O4_11 
REMARK    4  A    between atoms: C7_13  and  N1_14 
REMARK    5  A    between atoms: N1_14  and  N2_16 
ROOT
HETATM    1  C2  UNL     1      33.086  14.100 -18.631  1.00  0.00     0.285 C 
HETATM    2  C3  UNL     1      33.366  14.430 -20.097  1.00  0.00     0.232 C 
HETATM    3  O2  UNL     1      33.483  15.807 -20.183  1.00  0.00    -0.348 OA
HETATM    4  C4  UNL     1      34.762  16.275 -20.133  1.00  0.00     0.188 C 
HETATM    5  C5  UNL     1      34.785  17.615 -20.884  1.00  0.00     0.082 C 
HETATM    6  C6  UNL     1      35.305  16.444 -18.730  1.00  0.00     0.229 C 
HETATM    7  C7  UNL     1      34.323  15.828 -17.750  1.00  0.00     0.274 C 
HETATM    8  O5  UNL     1      34.244  14.469 -17.936  1.00  0.00    -0.331 OA
ENDROOT
BRANCH   7   9
HETATM    9  N1  UNL     1      34.699  16.083 -16.386  1.00  0.00    -0.291 N 
ATOM     10  H1  UNL     1      35.061  15.312 -15.825  1.00  0.00     0.184 HD
BRANCH   9  11
HETATM   11  N2  UNL     1      34.599  17.203 -15.869  1.00  0.00    -0.251 N 
HETATM   12  N3  UNL     1      34.967  18.264 -15.374  1.00  0.00    -0.331 N 
ATOM     13  H32 UNL     1      35.973  18.110 -15.433  1.00  0.00     0.178 HD
ATOM     14  H31 UNL     1      34.885  19.187 -14.948  1.00  0.00     0.178 HD
ATOM     15  H2  UNL     1      33.585  17.310 -15.831  1.00  0.00     0.207 HD
ENDBRANCH   9  11
ENDBRANCH   7   9
BRANCH   6  16
HETATM   16  O4  UNL     1      35.506  17.789 -18.450  1.00  0.00    -0.386 OA
ATOM     17  H4  UNL     1      35.955  17.889 -17.620  1.00  0.00     0.210 HD
ENDBRANCH   6  16
BRANCH   4  18
HETATM   18  O3  UNL     1      35.673  15.454 -20.839  1.00  0.00    -0.363 OA
ATOM     19  H3  UNL     1      36.458  15.263 -20.340  1.00  0.00     0.213 HD
ENDBRANCH   4  18
BRANCH   1  20
HETATM   20  O1  UNL     1      32.026  14.824 -18.132  1.00  0.00    -0.364 OA
HETATM   21  C1  UNL     1      30.999  14.051 -17.640  1.00  0.00     0.204 C 
ENDBRANCH   1  20
TORSDOF 5
ENDMDL
MODEL 3
REMARK VINA RESULT: -4.897756924      2.767      4.759
REMARK  5 active torsions:
REMARK  status: ('A' for Active; 'I' for Inactive)
REMARK    1  A    between atoms: O1_2  and  C2_3 
REMARK    2  A    between atoms: C4_6  and  O3_8 
REMARK    3  A    between atoms: C6_10  and  O4_11 
REMARK    4  A    between atoms: C7_13  and  N1_14 
REMARK    5  A    between atoms: N1_14  and  N2_16 
ROOT
HETATM    1  C2  UNL     1      34.028  14.690 -18.004  1.00  0.00     0.285 C 
HETATM    2  C3  UNL     1      34.192  13.503 -18.954  1.00  0.00     0.232 C 
HETATM    3  O2  UNL     1      33.873  13.958 -20.222  1.00  0.00    -0.348 OA
HETATM    4  C4  UNL     1      34.941  14.340 -20.977  1.00  0.00     0.188 C 
HETATM    5  C5  UNL     1      34.545  14.159 -22.450  1.00  0.00     0.082 C 
HETATM    6  C6  UNL     1      35.402  15.759 -20.722  1.00  0.00     0.229 C 
HETATM    7  C7  UNL     1      34.662  16.303 -19.515  1.00  0.00     0.274 C 
HETATM    8  O5  UNL     1      35.012  15.611 -18.382  1.00  0.00    -0.331 OA
ENDROOT
BRANCH   7   9
HETATM    9  N1  UNL     1      34.938  17.698 -19.304  1.00  0.00    -0.291 N 
ATOM     10  H1  UNL     1      34.868  18.338 -20.095  1.00  0.00     0.184 HD
BRANCH   9  11
HETATM   11  N2  UNL     1      35.258  18.151 -18.197  1.00  0.00    -0.251 N 
HETATM   12  N3  UNL     1      35.802  18.188 -17.097  1.00  0.00    -0.331 N 
ATOM     13  H32 UNL     1      36.276  17.285 -17.140  1.00  0.00     0.178 HD
ATOM     14  H31 UNL     1      36.066  18.560 -16.185  1.00  0.00     0.178 HD
ATOM     15  H2  UNL     1      34.764  19.043 -18.201  1.00  0.00     0.207 HD
ENDBRANCH   9  11
ENDBRANCH   7   9
BRANCH   6  16
HETATM   16  O4  UNL     1      35.172  16.548 -21.842  1.00  0.00    -0.386 OA
ATOM     17  H4  UNL     1      35.902  16.483 -22.446  1.00  0.00     0.210 HD
ENDBRANCH   6  16
BRANCH   4  18
HETATM   18  O3  UNL     1      36.063  13.496 -20.803  1.00  0.00    -0.363 OA
ATOM     19  H3  UNL     1      36.328  13.066 -21.607  1.00  0.00     0.213 HD
ENDBRANCH   4  18
BRANCH   1  20
HETATM   20  O1  UNL     1      32.794  15.288 -18.133  1.00  0.00    -0.364 OA
HETATM   21  C1  UNL     1      31.738  14.481 -17.777  1.00  0.00     0.204 C 
ENDBRANCH   1  20
TORSDOF 5
ENDMDL
MODEL 4
REMARK VINA RESULT: -4.723828329      2.682      4.634
REMARK  5 active torsions:
REMARK  status: ('A' for Active; 'I' for Inactive)
REMARK    1  A    between atoms: O1_2  and  C2_3 
REMARK    2  A    between atoms: C4_6  and  O3_8 
REMARK    3  A    between atoms: C6_10  and  O4_11 
REMARK    4  A    between atoms: C7_13  and  N1_14 
REMARK    5  A    between atoms: N1_14  and  N2_16 
ROOT
HETATM    1  C2  UNL     1      33.896  15.141 -17.237  1.00  0.00     0.285 C 
HETATM    2  C3  UNL     1      33.368  14.006 -18.114  1.00  0.00     0.232 C 
HETATM    3  O2  UNL     1      32.747  14.595 -19.202  1.00  0.00    -0.348 OA
HETATM    4  C4  UNL     1      33.528  14.704 -20.314  1.00  0.00     0.188 C 
HETATM    5  C5  UNL     1      32.589  14.715 -21.529  1.00  0.00     0.082 C 
HETATM    6  C6  UNL     1      34.424  15.924 -20.324  1.00  0.00     0.229 C 
HETATM    7  C7  UNL     1      34.356  16.590 -18.962  1.00  0.00     0.274 C 
HETATM    8  O5  UNL     1      34.888  15.771 -17.997  1.00  0.00    -0.331 OA
ENDROOT
BRANCH   7   9
HETATM    9  N1  UNL     1      35.064  17.841 -18.944  1.00  0.00    -0.291 N 
ATOM     10  H1  UNL     1      35.118  18.387 -19.804  1.00  0.00     0.184 HD
BRANCH   9  11
HETATM   11  N2  UNL     1      35.612  18.278 -17.924  1.00  0.00    -0.251 N 
HETATM   12  N3  UNL     1      36.175  18.248 -16.833  1.00  0.00    -0.331 N 
ATOM     13  H32 UNL     1      36.195  17.236 -16.709  1.00  0.00     0.178 HD
ATOM     14  H31 UNL     1      36.627  18.608 -15.992  1.00  0.00     0.178 HD
ATOM     15  H2  UNL     1      35.568  19.283 -18.094  1.00  0.00     0.207 HD
ENDBRANCH   9  11
ENDBRANCH   7   9
BRANCH   6  16
HETATM   16  O4  UNL     1      34.029  16.802 -21.326  1.00  0.00    -0.386 OA
ATOM     17  H4  UNL     1      33.500  17.501 -20.961  1.00  0.00     0.210 HD
ENDBRANCH   6  16
BRANCH   4  18
HETATM   18  O3  UNL     1      34.356  13.574 -20.513  1.00  0.00    -0.363 OA
ATOM     19  H3  UNL     1      35.062  13.520 -19.880  1.00  0.00     0.213 HD
ENDBRANCH   4  18
BRANCH   1  20
HETATM   20  O1  UNL     1      32.918  16.064 -16.942  1.00  0.00    -0.364 OA
HETATM   21  C1  UNL     1      33.135  16.760 -15.775  1.00  0.00     0.204 C 
ENDBRANCH   1  20
TORSDOF 5
ENDMDL
MODEL 5
REMARK VINA RESULT: -4.703523851      2.242      3.099
REMARK  5 active torsions:
REMARK  status: ('A' for Active; 'I' for Inactive)
REMARK    1  A    between atoms: O1_2  and  C2_3 
REMARK    2  A    between atoms: C4_6  and  O3_8 
REMARK    3  A    between atoms: C6_10  and  O4_11 
REMARK    4  A    between atoms: C7_13  and  N1_14 
REMARK    5  A    between atoms: N1_14  and  N2_16 
ROOT
HETATM    1  C2  UNL     1      33.522  14.778 -18.648  1.00  0.00     0.285 C 
HETATM    2  C3  UNL     1      33.292  14.891 -17.140  1.00  0.00     0.232 C 
HETATM    3  O2  UNL     1      34.375  15.581 -16.621  1.00  0.00    -0.348 OA
HETATM    4  C4  UNL     1      34.174  16.920 -16.461  1.00  0.00     0.188 C 
HETATM    5  C5  UNL     1      35.101  17.385 -15.328  1.00  0.00     0.082 C 
HETATM    6  C6  UNL     1      34.416  17.735 -17.713  1.00  0.00     0.229 C 
HETATM    7  C7  UNL     1      34.613  16.788 -18.882  1.00  0.00     0.274 C 
HETATM    8  O5  UNL     1      33.459  16.087 -19.136  1.00  0.00    -0.331 OA
ENDROOT
BRANCH   7   9
HETATM    9  N1  UNL     1      34.997  17.488 -20.078  1.00  0.00    -0.291 N 
ATOM     10  H1  UNL     1      35.623  18.289 -19.998  1.00  0.00     0.184 HD
BRANCH   9  11
HETATM   11  N2  UNL     1      34.594  17.154 -21.200  1.00  0.00    -0.251 N 
HETATM   12  N3  UNL     1      33.883  16.604 -22.036  1.00  0.00    -0.331 N 
ATOM     13  H32 UNL     1      33.233  16.149 -21.396  1.00  0.00     0.178 HD
ATOM     14  H31 UNL     1      33.551  16.329 -22.961  1.00  0.00     0.178 HD
ATOM     15  H2  UNL     1      35.271  17.627 -21.799  1.00  0.00     0.207 HD
ENDBRANCH   9  11
ENDBRANCH   7   9
BRANCH   6  16
HETATM   16  O4  UNL     1      35.525  18.555 -17.547  1.00  0.00    -0.386 OA
ATOM     17  H4  UNL     1      35.774  18.944 -18.376  1.00  0.00     0.210 HD
ENDBRANCH   6  16
BRANCH   4  18
HETATM   18  O3  UNL     1      32.870  17.226 -16.006  1.00  0.00    -0.363 OA
ATOM     19  H3  UNL     1      32.585  18.094 -16.267  1.00  0.00     0.213 HD
ENDBRANCH   4  18
BRANCH   1  20
HETATM   20  O1  UNL     1      34.762  14.258 -18.944  1.00  0.00    -0.364 OA
HETATM   21  C1  UNL     1      34.816  13.581 -20.141  1.00  0.00     0.204 C 
ENDBRANCH   1  20
TORSDOF 5
ENDMDL
