MODEL 1
REMARK VINA RESULT: -9.815262816      0.000      0.000
REMARK  14 active torsions:
REMARK  status: ('A' for Active; 'I' for Inactive)
REMARK    1  A    between atoms: C2_2  and  N1_3 
REMARK    2  A    between atoms: C2_2  and  C16_30 
REMARK    3  A    between atoms: N1_3  and  S1_5 
REMARK    4  A    between atoms: S1_5  and  N2_8 
REMARK    5  A    between atoms: C5_11  and  C6_12 
REMARK    6  A    between atoms: C6_12  and  N3_13 
REMARK       I    between atoms: N3_13  and  C7_15 
REMARK    7  A    between atoms: C7_15  and  C8_17 
REMARK       I    between atoms: N4_22  and  C13_23 
REMARK       I    between atoms: C16_30  and  N7_32 
REMARK    8  A    between atoms: N7_32  and  C17_34 
REMARK    9  A    between atoms: C17_34  and  C18_35 
REMARK   10  A    between atoms: C17_34  and  C25_42 
REMARK   11  A    between atoms: C18_35  and  C19_36 
REMARK       I    between atoms: C25_42  and  N8_44 
REMARK   12  A    between atoms: C29_48  and  C30_49 
REMARK   13  A    between atoms: C30_49  and  O6_50 
REMARK   14  A    between atoms: N9_52  and  O7_54 
ROOT
HETATM    1  C1  UNL     1       3.433  -3.367  14.525  1.00  0.00     0.043 C 
HETATM    2  C2  UNL     1       4.938  -3.402  14.641  1.00  0.00     0.181 C 
ENDROOT
BRANCH   2   3
HETATM    3  N1  UNL     1       5.449  -2.096  14.269  1.00  0.00    -0.293 N 
ATOM      4  H1  UNL     1       5.261  -1.237  14.786  1.00  0.00     0.174 HD
BRANCH   3   5
HETATM    5  S1  UNL     1       6.415  -2.178  12.842  1.00  0.00     0.299 S 
HETATM    6  O1  UNL     1       7.297  -3.398  12.841  1.00  0.00    -0.188 OA
HETATM    7  O2  UNL     1       5.601  -2.196  11.597  1.00  0.00    -0.188 OA
BRANCH   5   8
HETATM    8  N2  UNL     1       7.470  -0.799  12.846  1.00  0.00    -0.193 NA
HETATM    9  C3  UNL     1       7.570  -0.203  11.554  1.00  0.00     0.109 C 
HETATM   10  C4  UNL     1       7.902   1.264  11.557  1.00  0.00     0.022 C 
HETATM   11  C5  UNL     1       7.040   2.104  12.437  1.00  0.00     0.006 C 
HETATM   12  C14 UNL     1       6.245   1.205  13.367  1.00  0.00     0.022 C 
HETATM   13  C15 UNL     1       7.097   0.083  13.906  1.00  0.00     0.109 C 
BRANCH  11  14
HETATM   14  C6  UNL     1       6.145   3.044  11.701  1.00  0.00     0.127 C 
BRANCH  14  15
HETATM   15  N3  UNL     1       4.772   2.604  11.800  1.00  0.00    -0.359 N 
HETATM   16  C7  UNL     1       3.697   3.267  11.151  1.00  0.00     0.246 C 
HETATM   17  O3  UNL     1       4.081   4.289  10.472  1.00  0.00    -0.271 OA
ATOM     18  H3  UNL     1       4.566   1.779  12.363  1.00  0.00     0.162 HD
BRANCH  16  19
HETATM   19  C8  UNL     1       2.270   2.852  11.227  1.00  0.00     0.120 A 
HETATM   20  C9  UNL     1       1.314   3.871  10.971  1.00  0.00     0.049 A 
HETATM   21  C10 UNL     1       1.414   2.977   9.896  1.00  0.00     0.028 A 
HETATM   22  C11 UNL     1       2.491   2.325   9.113  1.00  0.00     0.027 C 
HETATM   23  C12 UNL     1       2.577   1.020   9.939  1.00  0.00     0.127 C 
HETATM   24  N4  UNL     1       2.161   1.443  11.262  1.00  0.00    -0.337 N 
HETATM   25  C13 UNL     1       1.745   0.634  12.334  1.00  0.00     0.185 C 
HETATM   26  N5  UNL     1       0.656  -0.042  12.356  1.00  0.00    -0.374 N 
HETATM   27  N6  UNL     1       2.569   0.529  13.508  1.00  0.00    -0.064 NA
ATOM     28  H52 UNL     1       0.071   0.032  11.523  1.00  0.00     0.158 HD
ATOM     29  H51 UNL     1       0.354  -0.628  13.133  1.00  0.00     0.158 HD
ENDBRANCH  16  19
ENDBRANCH  14  15
ENDBRANCH  11  14
ENDBRANCH   5   8
ENDBRANCH   3   5
ENDBRANCH   2   3
BRANCH   2  30
HETATM   30  C16 UNL     1       5.342  -3.761  16.010  1.00  0.00     0.241 C 
HETATM   31  O4  UNL     1       4.929  -3.084  16.973  1.00  0.00    -0.271 OA
HETATM   32  N7  UNL     1       6.186  -4.857  16.245  1.00  0.00    -0.346 N 
ATOM     33  H7  UNL     1       6.522  -5.409  15.457  1.00  0.00     0.163 HD
BRANCH  32  34
HETATM   34  C17 UNL     1       6.598  -5.225  17.626  1.00  0.00     0.177 C 
BRANCH  34  35
HETATM   35  C18 UNL     1       8.077  -5.070  17.649  1.00  0.00     0.039 C 
BRANCH  35  36
HETATM   36  C19 UNL     1       8.821  -4.769  16.427  1.00  0.00    -0.012 C 
HETATM   37  C20 UNL     1       9.762  -3.587  16.477  1.00  0.00     0.005 C 
HETATM   38  C21 UNL     1       9.844  -3.064  15.028  1.00  0.00     0.000 C 
HETATM   39  C22 UNL     1      10.461  -4.166  14.185  1.00  0.00     0.000 C 
HETATM   40  C23 UNL     1       9.642  -5.445  14.257  1.00  0.00     0.000 C 
HETATM   41  C24 UNL     1       9.539  -5.880  15.738  1.00  0.00     0.005 C 
ENDBRANCH  35  36
ENDBRANCH  34  35
BRANCH  34  42
HETATM   42  C25 UNL     1       6.135  -6.644  17.737  1.00  0.00     0.243 C 
HETATM   43  O5  UNL     1       7.011  -7.517  17.541  1.00  0.00    -0.271 OA
HETATM   44  N8  UNL     1       4.814  -6.945  18.034  1.00  0.00    -0.338 N 
HETATM   45  C26 UNL     1       3.673  -6.036  18.241  1.00  0.00     0.127 C 
HETATM   46  C29 UNL     1       4.199  -8.240  18.218  1.00  0.00     0.163 C 
HETATM   47  C27 UNL     1       2.700  -6.609  17.216  1.00  0.00     0.022 C 
HETATM   48  C28 UNL     1       2.937  -8.115  17.375  1.00  0.00     0.035 C 
BRANCH  46  49
HETATM   49  C30 UNL     1       4.999  -9.409  17.944  1.00  0.00     0.159 C 
HETATM   50  N9  UNL     1       5.039  -9.903  16.745  1.00  0.00    -0.249 N 
ATOM     51  H9  UNL     1       4.497  -9.449  16.010  1.00  0.00     0.196 HD
BRANCH  49  52
HETATM   52  O6  UNL     1       5.739 -10.040  18.917  1.00  0.00    -0.347 OA
ATOM     53  H6  UNL     1       5.554 -10.927  19.202  1.00  0.00     0.219 HD
ENDBRANCH  49  52
BRANCH  50  54
HETATM   54  O7  UNL     1       5.779 -11.010  16.426  1.00  0.00    -0.288 OA
ATOM     55  H7  UNL     1       5.426 -11.737  15.927  1.00  0.00     0.244 HD
ENDBRANCH  50  54
ENDBRANCH  46  49
ENDBRANCH  34  42
ENDBRANCH  32  34
ENDBRANCH   2  30
TORSDOF 14
ENDMDL
MODEL 2
REMARK VINA RESULT: -9.688688808      0.844      1.425
REMARK  14 active torsions:
REMARK  status: ('A' for Active; 'I' for Inactive)
REMARK    1  A    between atoms: C2_2  and  N1_3 
REMARK    2  A    between atoms: C2_2  and  C16_30 
REMARK    3  A    between atoms: N1_3  and  S1_5 
REMARK    4  A    between atoms: S1_5  and  N2_8 
REMARK    5  A    between atoms: C5_11  and  C6_12 
REMARK    6  A    between atoms: C6_12  and  N3_13 
REMARK       I    between atoms: N3_13  and  C7_15 
REMARK    7  A    between atoms: C7_15  and  C8_17 
REMARK       I    between atoms: N4_22  and  C13_23 
REMARK       I    between atoms: C16_30  and  N7_32 
REMARK    8  A    between atoms: N7_32  and  C17_34 
REMARK    9  A    between atoms: C17_34  and  C18_35 
REMARK   10  A    between atoms: C17_34  and  C25_42 
REMARK   11  A    between atoms: C18_35  and  C19_36 
REMARK       I    between atoms: C25_42  and  N8_44 
REMARK   12  A    between atoms: C29_48  and  C30_49 
REMARK   13  A    between atoms: C30_49  and  O6_50 
REMARK   14  A    between atoms: N9_52  and  O7_54 
ROOT
HETATM    1  C1  UNL     1       3.482  -3.448  14.577  1.00  0.00     0.043 C 
HETATM    2  C2  UNL     1       4.988  -3.480  14.678  1.00  0.00     0.181 C 
ENDROOT
BRANCH   2   3
HETATM    3  N1  UNL     1       5.493  -2.174  14.301  1.00  0.00    -0.293 N 
ATOM      4  H1  UNL     1       5.304  -1.314  14.816  1.00  0.00     0.174 HD
BRANCH   3   5
HETATM    5  S1  UNL     1       6.454  -2.256  12.871  1.00  0.00     0.299 S 
HETATM    6  O1  UNL     1       7.263  -3.524  12.821  1.00  0.00    -0.188 OA
HETATM    7  O2  UNL     1       5.641  -2.178  11.627  1.00  0.00    -0.188 OA
BRANCH   5   8
HETATM    8  N2  UNL     1       7.587  -0.942  12.927  1.00  0.00    -0.193 NA
HETATM    9  C3  UNL     1       7.821  -0.386  11.634  1.00  0.00     0.109 C 
HETATM   10  C4  UNL     1       8.241   1.058  11.632  1.00  0.00     0.022 C 
HETATM   11  C5  UNL     1       7.366   1.970  12.424  1.00  0.00     0.006 C 
HETATM   12  C14 UNL     1       6.449   1.144  13.308  1.00  0.00     0.022 C 
HETATM   13  C15 UNL     1       7.189  -0.012  13.936  1.00  0.00     0.109 C 
BRANCH  11  14
HETATM   14  C6  UNL     1       6.588   2.941  11.600  1.00  0.00     0.127 C 
BRANCH  14  15
HETATM   15  N3  UNL     1       5.452   2.284  10.997  1.00  0.00    -0.359 N 
HETATM   16  C7  UNL     1       4.108   2.659  11.263  1.00  0.00     0.246 C 
HETATM   17  O3  UNL     1       4.021   3.640  12.090  1.00  0.00    -0.271 OA
ATOM     18  H3  UNL     1       5.623   1.515  10.349  1.00  0.00     0.162 HD
BRANCH  16  19
HETATM   19  C8  UNL     1       2.909   2.011  10.667  1.00  0.00     0.120 A 
HETATM   20  C9  UNL     1       3.161   1.079   9.626  1.00  0.00     0.049 A 
HETATM   21  C10 UNL     1       2.795   0.435  10.816  1.00  0.00     0.028 A 
HETATM   22  C11 UNL     1       3.139   0.521  12.256  1.00  0.00     0.027 C 
HETATM   23  C12 UNL     1       2.007   1.490  12.673  1.00  0.00     0.127 C 
HETATM   24  N4  UNL     1       1.765   2.251  11.463  1.00  0.00    -0.337 N 
HETATM   25  C13 UNL     1       0.647   3.045  11.154  1.00  0.00     0.185 C 
HETATM   26  N5  UNL     1      -0.532   2.591  10.942  1.00  0.00    -0.374 N 
HETATM   27  N6  UNL     1       0.794   4.473  11.059  1.00  0.00    -0.064 NA
ATOM     28  H52 UNL     1      -0.636   1.578  11.010  1.00  0.00     0.158 HD
ATOM     29  H51 UNL     1      -1.343   3.167  10.718  1.00  0.00     0.158 HD
ENDBRANCH  16  19
ENDBRANCH  14  15
ENDBRANCH  11  14
ENDBRANCH   5   8
ENDBRANCH   3   5
ENDBRANCH   2   3
BRANCH   2  30
HETATM   30  C16 UNL     1       5.406  -3.838  16.044  1.00  0.00     0.241 C 
HETATM   31  O4  UNL     1       5.045  -3.130  17.005  1.00  0.00    -0.271 OA
HETATM   32  N7  UNL     1       6.205  -4.968  16.276  1.00  0.00    -0.346 N 
ATOM     33  H7  UNL     1       6.498  -5.546  15.489  1.00  0.00     0.163 HD
BRANCH  32  34
HETATM   34  C17 UNL     1       6.630  -5.335  17.653  1.00  0.00     0.177 C 
BRANCH  34  35
HETATM   35  C18 UNL     1       8.113  -5.207  17.653  1.00  0.00     0.039 C 
BRANCH  35  36
HETATM   36  C19 UNL     1       8.838  -4.865  16.431  1.00  0.00    -0.012 C 
HETATM   37  C20 UNL     1       9.732  -3.648  16.489  1.00  0.00     0.005 C 
HETATM   38  C21 UNL     1       9.787  -3.108  15.045  1.00  0.00     0.000 C 
HETATM   39  C22 UNL     1      10.442  -4.176  14.187  1.00  0.00     0.000 C 
HETATM   40  C23 UNL     1       9.675  -5.487  14.251  1.00  0.00     0.000 C 
HETATM   41  C24 UNL     1       9.595  -5.940  15.728  1.00  0.00     0.005 C 
ENDBRANCH  35  36
ENDBRANCH  34  35
BRANCH  34  42
HETATM   42  C25 UNL     1       6.144  -6.746  17.780  1.00  0.00     0.243 C 
HETATM   43  O5  UNL     1       7.006  -7.635  17.593  1.00  0.00    -0.271 OA
HETATM   44  N8  UNL     1       4.819  -7.021  18.079  1.00  0.00    -0.338 N 
HETATM   45  C26 UNL     1       3.693  -6.091  18.277  1.00  0.00     0.127 C 
HETATM   46  C29 UNL     1       4.182  -8.304  18.278  1.00  0.00     0.163 C 
HETATM   47  C27 UNL     1       2.710  -6.659  17.259  1.00  0.00     0.022 C 
HETATM   48  C28 UNL     1       2.922  -8.167  17.433  1.00  0.00     0.035 C 
BRANCH  46  49
HETATM   49  C30 UNL     1       4.962  -9.489  18.016  1.00  0.00     0.159 C 
HETATM   50  N9  UNL     1       4.950 -10.028  16.837  1.00  0.00    -0.249 N 
ATOM     51  H9  UNL     1       4.382  -9.597  16.108  1.00  0.00     0.196 HD
BRANCH  49  52
HETATM   52  O6  UNL     1       5.737 -10.089  18.983  1.00  0.00    -0.347 OA
ATOM     53  H6  UNL     1       6.231 -10.883  18.817  1.00  0.00     0.219 HD
ENDBRANCH  49  52
BRANCH  50  54
HETATM   54  O7  UNL     1       5.670 -11.152  16.530  1.00  0.00    -0.288 OA
ATOM     55  H7  UNL     1       6.289 -11.185  15.810  1.00  0.00     0.244 HD
ENDBRANCH  50  54
ENDBRANCH  46  49
ENDBRANCH  34  42
ENDBRANCH  32  34
ENDBRANCH   2  30
TORSDOF 14
ENDMDL
MODEL 3
REMARK VINA RESULT: -9.683813901      2.114      2.911
REMARK  14 active torsions:
REMARK  status: ('A' for Active; 'I' for Inactive)
REMARK    1  A    between atoms: C2_2  and  N1_3 
REMARK    2  A    between atoms: C2_2  and  C16_30 
REMARK    3  A    between atoms: N1_3  and  S1_5 
REMARK    4  A    between atoms: S1_5  and  N2_8 
REMARK    5  A    between atoms: C5_11  and  C6_12 
REMARK    6  A    between atoms: C6_12  and  N3_13 
REMARK       I    between atoms: N3_13  and  C7_15 
REMARK    7  A    between atoms: C7_15  and  C8_17 
REMARK       I    between atoms: N4_22  and  C13_23 
REMARK       I    between atoms: C16_30  and  N7_32 
REMARK    8  A    between atoms: N7_32  and  C17_34 
REMARK    9  A    between atoms: C17_34  and  C18_35 
REMARK   10  A    between atoms: C17_34  and  C25_42 
REMARK   11  A    between atoms: C18_35  and  C19_36 
REMARK       I    between atoms: C25_42  and  N8_44 
REMARK   12  A    between atoms: C29_48  and  C30_49 
REMARK   13  A    between atoms: C30_49  and  O6_50 
REMARK   14  A    between atoms: N9_52  and  O7_54 
ROOT
HETATM    1  C1  UNL     1       5.268  -1.856  12.034  1.00  0.00     0.043 C 
HETATM    2  C2  UNL     1       6.384  -1.122  12.737  1.00  0.00     0.181 C 
ENDROOT
BRANCH   2   3
HETATM    3  N1  UNL     1       6.247   0.293  12.446  1.00  0.00    -0.293 N 
ATOM      4  H1  UNL     1       5.368   0.809  12.506  1.00  0.00     0.174 HD
BRANCH   3   5
HETATM    5  S1  UNL     1       7.754   0.994  11.985  1.00  0.00     0.299 S 
HETATM    6  O1  UNL     1       8.387   1.742  13.127  1.00  0.00    -0.188 OA
HETATM    7  O2  UNL     1       8.731  -0.015  11.497  1.00  0.00    -0.188 OA
BRANCH   5   8
HETATM    8  N2  UNL     1       7.429   2.161  10.742  1.00  0.00    -0.193 NA
HETATM    9  C3  UNL     1       6.126   1.995  10.184  1.00  0.00     0.109 C 
HETATM   10  C4  UNL     1       5.520   3.244   9.607  1.00  0.00     0.022 C 
HETATM   11  C5  UNL     1       5.536   4.430  10.512  1.00  0.00     0.006 C 
HETATM   12  C14 UNL     1       6.465   4.156  11.681  1.00  0.00     0.022 C 
HETATM   13  C15 UNL     1       7.731   3.470  11.227  1.00  0.00     0.109 C 
BRANCH  11  14
HETATM   14  C6  UNL     1       4.187   4.857  10.986  1.00  0.00     0.127 C 
BRANCH  14  15
HETATM   15  N3  UNL     1       3.414   3.706  11.389  1.00  0.00    -0.359 N 
HETATM   16  C7  UNL     1       2.003   3.629  11.241  1.00  0.00     0.246 C 
HETATM   17  O3  UNL     1       1.501   4.687  10.711  1.00  0.00    -0.271 OA
ATOM     18  H3  UNL     1       3.903   2.911  11.800  1.00  0.00     0.162 HD
BRANCH  16  19
HETATM   19  C8  UNL     1       1.166   2.467  11.644  1.00  0.00     0.120 A 
HETATM   20  C9  UNL     1      -0.232   2.703  11.711  1.00  0.00     0.049 A 
HETATM   21  C10 UNL     1       0.107   1.942  10.584  1.00  0.00     0.028 A 
HETATM   22  C11 UNL     1       1.129   1.974   9.511  1.00  0.00     0.027 C 
HETATM   23  C12 UNL     1       2.166   1.050  10.194  1.00  0.00     0.127 C 
HETATM   24  N4  UNL     1       1.920   1.271  11.606  1.00  0.00    -0.337 N 
HETATM   25  C13 UNL     1       2.338   0.476  12.687  1.00  0.00     0.185 C 
HETATM   26  N5  UNL     1       1.901  -0.703  12.934  1.00  0.00    -0.374 N 
HETATM   27  N6  UNL     1       3.322   0.984  13.605  1.00  0.00    -0.064 NA
ATOM     28  H52 UNL     1       1.203  -1.064  12.283  1.00  0.00     0.158 HD
ATOM     29  H51 UNL     1       2.204  -1.280  13.719  1.00  0.00     0.158 HD
ENDBRANCH  16  19
ENDBRANCH  14  15
ENDBRANCH  11  14
ENDBRANCH   5   8
ENDBRANCH   3   5
ENDBRANCH   2   3
BRANCH   2  30
HETATM   30  C16 UNL     1       6.335  -1.374  14.186  1.00  0.00     0.241 C 
HETATM   31  O4  UNL     1       6.201  -0.418  14.975  1.00  0.00    -0.271 OA
HETATM   32  N7  UNL     1       6.438  -2.679  14.691  1.00  0.00    -0.346 N 
ATOM     33  H7  UNL     1       6.548  -3.460  14.044  1.00  0.00     0.163 HD
BRANCH  32  34
HETATM   34  C17 UNL     1       6.389  -2.941  16.154  1.00  0.00     0.177 C 
BRANCH  34  35
HETATM   35  C18 UNL     1       7.797  -3.215  16.551  1.00  0.00     0.039 C 
BRANCH  35  36
HETATM   36  C19 UNL     1       8.774  -3.693  15.574  1.00  0.00    -0.012 C 
HETATM   37  C20 UNL     1      10.119  -3.003  15.562  1.00  0.00     0.005 C 
HETATM   38  C21 UNL     1      10.642  -3.145  14.118  1.00  0.00     0.000 C 
HETATM   39  C22 UNL     1      10.833  -4.628  13.850  1.00  0.00     0.000 C 
HETATM   40  C23 UNL     1       9.535  -5.397  14.039  1.00  0.00     0.000 C 
HETATM   41  C24 UNL     1       9.027  -5.160  15.481  1.00  0.00     0.005 C 
ENDBRANCH  35  36
ENDBRANCH  34  35
BRANCH  34  42
HETATM   42  C25 UNL     1       5.492  -4.136  16.242  1.00  0.00     0.243 C 
HETATM   43  O5  UNL     1       6.050  -5.211  16.563  1.00  0.00    -0.271 OA
HETATM   44  N8  UNL     1       4.136  -4.034  15.975  1.00  0.00    -0.338 N 
HETATM   45  C26 UNL     1       3.354  -2.860  15.545  1.00  0.00     0.127 C 
HETATM   46  C29 UNL     1       3.118  -5.058  16.046  1.00  0.00     0.163 C 
HETATM   47  C27 UNL     1       2.709  -3.430  14.287  1.00  0.00     0.022 C 
HETATM   48  C28 UNL     1       2.375  -4.859  14.731  1.00  0.00     0.035 C 
BRANCH  46  49
HETATM   49  C30 UNL     1       3.543  -6.412  16.303  1.00  0.00     0.159 C 
HETATM   50  N9  UNL     1       3.928  -7.170  15.324  1.00  0.00    -0.249 N 
ATOM     51  H9  UNL     1       3.922  -6.788  14.378  1.00  0.00     0.196 HD
BRANCH  49  52
HETATM   52  O6  UNL     1       3.561  -6.950  17.569  1.00  0.00    -0.347 OA
ATOM     53  H6  UNL     1       4.364  -7.231  17.991  1.00  0.00     0.219 HD
ENDBRANCH  49  52
BRANCH  50  54
HETATM   54  O7  UNL     1       4.342  -8.462  15.507  1.00  0.00    -0.288 OA
ATOM     55  H7  UNL     1       4.615  -9.021  14.789  1.00  0.00     0.244 HD
ENDBRANCH  50  54
ENDBRANCH  46  49
ENDBRANCH  34  42
ENDBRANCH  32  34
ENDBRANCH   2  30
TORSDOF 14
ENDMDL
MODEL 4
REMARK VINA RESULT: -9.408136707      3.557     12.201
REMARK  14 active torsions:
REMARK  status: ('A' for Active; 'I' for Inactive)
REMARK    1  A    between atoms: C2_2  and  N1_3 
REMARK    2  A    between atoms: C2_2  and  C16_30 
REMARK    3  A    between atoms: N1_3  and  S1_5 
REMARK    4  A    between atoms: S1_5  and  N2_8 
REMARK    5  A    between atoms: C5_11  and  C6_12 
REMARK    6  A    between atoms: C6_12  and  N3_13 
REMARK       I    between atoms: N3_13  and  C7_15 
REMARK    7  A    between atoms: C7_15  and  C8_17 
REMARK       I    between atoms: N4_22  and  C13_23 
REMARK       I    between atoms: C16_30  and  N7_32 
REMARK    8  A    between atoms: N7_32  and  C17_34 
REMARK    9  A    between atoms: C17_34  and  C18_35 
REMARK   10  A    between atoms: C17_34  and  C25_42 
REMARK   11  A    between atoms: C18_35  and  C19_36 
REMARK       I    between atoms: C25_42  and  N8_44 
REMARK   12  A    between atoms: C29_48  and  C30_49 
REMARK   13  A    between atoms: C30_49  and  O6_50 
REMARK   14  A    between atoms: N9_52  and  O7_54 
ROOT
HETATM    1  C1  UNL     1       6.815   4.508   8.831  1.00  0.00     0.043 C 
HETATM    2  C2  UNL     1       5.988   3.514   9.609  1.00  0.00     0.181 C 
ENDROOT
BRANCH   2   3
HETATM    3  N1  UNL     1       6.430   3.544  10.991  1.00  0.00    -0.293 N 
ATOM      4  H1  UNL     1       6.195   4.284  11.653  1.00  0.00     0.174 HD
BRANCH   3   5
HETATM    5  S1  UNL     1       7.403   2.173  11.374  1.00  0.00     0.299 S 
HETATM    6  O1  UNL     1       8.387   1.869  10.276  1.00  0.00    -0.188 OA
HETATM    7  O2  UNL     1       8.163   2.343  12.640  1.00  0.00    -0.188 OA
BRANCH   5   8
HETATM    8  N2  UNL     1       6.346   0.800  11.492  1.00  0.00    -0.193 NA
HETATM    9  C3  UNL     1       7.062  -0.397  11.793  1.00  0.00     0.109 C 
HETATM   10  C4  UNL     1       6.262  -1.449  12.512  1.00  0.00     0.022 C 
HETATM   11  C5  UNL     1       5.538  -0.972  13.725  1.00  0.00     0.006 C 
HETATM   12  C14 UNL     1       5.532   0.546  13.741  1.00  0.00     0.022 C 
HETATM   13  C15 UNL     1       5.260   1.108  12.367  1.00  0.00     0.109 C 
BRANCH  11  14
HETATM   14  C6  UNL     1       6.066  -1.521  15.009  1.00  0.00     0.127 C 
BRANCH  14  15
HETATM   15  N3  UNL     1       7.041  -2.553  14.745  1.00  0.00    -0.359 N 
HETATM   16  C7  UNL     1       7.622  -3.351  15.767  1.00  0.00     0.246 C 
HETATM   17  O3  UNL     1       7.183  -3.053  16.939  1.00  0.00    -0.271 OA
ATOM     18  H3  UNL     1       7.325  -2.718  13.779  1.00  0.00     0.162 HD
BRANCH  16  19
HETATM   19  C8  UNL     1       8.629  -4.422  15.543  1.00  0.00     0.120 A 
HETATM   20  C9  UNL     1       8.843  -4.799  14.190  1.00  0.00     0.049 A 
HETATM   21  C10 UNL     1       9.909  -4.037  14.687  1.00  0.00     0.028 A 
HETATM   22  C11 UNL     1      10.092  -2.794  15.474  1.00  0.00     0.027 C 
HETATM   23  C12 UNL     1      10.180  -3.452  16.871  1.00  0.00     0.127 C 
HETATM   24  N4  UNL     1       9.382  -4.653  16.717  1.00  0.00    -0.337 N 
HETATM   25  C13 UNL     1       9.364  -5.786  17.548  1.00  0.00     0.185 C 
HETATM   26  N5  UNL     1      10.336  -6.611  17.675  1.00  0.00    -0.374 N 
HETATM   27  N6  UNL     1       8.190  -6.078  18.327  1.00  0.00    -0.064 NA
ATOM     28  H52 UNL     1      11.168  -6.405  17.123  1.00  0.00     0.158 HD
ATOM     29  H51 UNL     1      10.322  -7.434  18.278  1.00  0.00     0.158 HD
ENDBRANCH  16  19
ENDBRANCH  14  15
ENDBRANCH  11  14
ENDBRANCH   5   8
ENDBRANCH   3   5
ENDBRANCH   2   3
BRANCH   2  30
HETATM   30  C16 UNL     1       4.556   3.839   9.502  1.00  0.00     0.241 C 
HETATM   31  O4  UNL     1       4.082   4.772  10.179  1.00  0.00    -0.271 OA
HETATM   32  N7  UNL     1       3.718   3.109   8.645  1.00  0.00    -0.346 N 
ATOM     33  H7  UNL     1       4.107   2.346   8.092  1.00  0.00     0.163 HD
BRANCH  32  34
HETATM   34  C17 UNL     1       2.270   3.431   8.531  1.00  0.00     0.177 C 
BRANCH  34  35
HETATM   35  C18 UNL     1       1.561   2.151   8.798  1.00  0.00     0.039 C 
BRANCH  35  36
HETATM   36  C19 UNL     1       1.277   1.719  10.165  1.00  0.00    -0.012 C 
HETATM   37  C20 UNL     1       0.046   2.302  10.822  1.00  0.00     0.005 C 
HETATM   38  C21 UNL     1       0.343   2.294  12.335  1.00  0.00     0.000 C 
HETATM   39  C22 UNL     1       0.502   0.843  12.757  1.00  0.00     0.000 C 
HETATM   40  C23 UNL     1       1.613   0.157  11.978  1.00  0.00     0.000 C 
HETATM   41  C24 UNL     1       1.293   0.259  10.469  1.00  0.00     0.005 C 
ENDBRANCH  35  36
ENDBRANCH  34  35
BRANCH  34  42
HETATM   42  C25 UNL     1       2.152   3.906   7.116  1.00  0.00     0.243 C 
HETATM   43  O5  UNL     1       2.383   3.046   6.235  1.00  0.00    -0.271 OA
HETATM   44  N8  UNL     1       1.814   5.219   6.828  1.00  0.00    -0.338 N 
HETATM   45  C26 UNL     1       1.562   6.342   7.748  1.00  0.00     0.127 C 
HETATM   46  C29 UNL     1       1.616   5.842   5.538  1.00  0.00     0.163 C 
HETATM   47  C27 UNL     1       2.557   7.355   7.192  1.00  0.00     0.022 C 
HETATM   48  C28 UNL     1       2.416   7.130   5.682  1.00  0.00     0.035 C 
BRANCH  46  49
HETATM   49  C30 UNL     1       1.924   5.065   4.362  1.00  0.00     0.159 C 
HETATM   50  N9  UNL     1       0.984   4.415   3.748  1.00  0.00    -0.249 N 
ATOM     51  H9  UNL     1       0.033   4.468   4.113  1.00  0.00     0.196 HD
BRANCH  49  52
HETATM   52  O6  UNL     1       3.197   4.979   3.849  1.00  0.00    -0.347 OA
ATOM     53  H6  UNL     1       3.397   5.189   2.945  1.00  0.00     0.219 HD
ENDBRANCH  49  52
BRANCH  50  54
HETATM   54  O7  UNL     1       1.216   3.662   2.628  1.00  0.00    -0.288 OA
ATOM     55  H7  UNL     1       0.742   3.792   1.815  1.00  0.00     0.244 HD
ENDBRANCH  50  54
ENDBRANCH  46  49
ENDBRANCH  34  42
ENDBRANCH  32  34
ENDBRANCH   2  30
TORSDOF 14
ENDMDL
MODEL 5
REMARK VINA RESULT: -9.387203751      2.171      4.372
REMARK  14 active torsions:
REMARK  status: ('A' for Active; 'I' for Inactive)
REMARK    1  A    between atoms: C2_2  and  N1_3 
REMARK    2  A    between atoms: C2_2  and  C16_30 
REMARK    3  A    between atoms: N1_3  and  S1_5 
REMARK    4  A    between atoms: S1_5  and  N2_8 
REMARK    5  A    between atoms: C5_11  and  C6_12 
REMARK    6  A    between atoms: C6_12  and  N3_13 
REMARK       I    between atoms: N3_13  and  C7_15 
REMARK    7  A    between atoms: C7_15  and  C8_17 
REMARK       I    between atoms: N4_22  and  C13_23 
REMARK       I    between atoms: C16_30  and  N7_32 
REMARK    8  A    between atoms: N7_32  and  C17_34 
REMARK    9  A    between atoms: C17_34  and  C18_35 
REMARK   10  A    between atoms: C17_34  and  C25_42 
REMARK   11  A    between atoms: C18_35  and  C19_36 
REMARK       I    between atoms: C25_42  and  N8_44 
REMARK   12  A    between atoms: C29_48  and  C30_49 
REMARK   13  A    between atoms: C30_49  and  O6_50 
REMARK   14  A    between atoms: N9_52  and  O7_54 
ROOT
HETATM    1  C1  UNL     1       5.313   0.373  15.440  1.00  0.00     0.043 C 
HETATM    2  C2  UNL     1       5.638  -0.397  14.183  1.00  0.00     0.181 C 
ENDROOT
BRANCH   2   3
HETATM    3  N1  UNL     1       7.026  -0.144  13.845  1.00  0.00    -0.293 N 
ATOM      4  H1  UNL     1       7.763   0.020  14.531  1.00  0.00     0.174 HD
BRANCH   3   5
HETATM    5  S1  UNL     1       7.274  -0.156  12.139  1.00  0.00     0.299 S 
HETATM    6  O1  UNL     1       8.324  -1.158  11.740  1.00  0.00    -0.188 OA
HETATM    7  O2  UNL     1       6.033  -0.462  11.379  1.00  0.00    -0.188 OA
BRANCH   5   8
HETATM    8  N2  UNL     1       7.880   1.408  11.689  1.00  0.00    -0.193 NA
HETATM    9  C3  UNL     1       7.536   1.745  10.346  1.00  0.00     0.109 C 
HETATM   10  C4  UNL     1       7.439   3.220  10.067  1.00  0.00     0.022 C 
HETATM   11  C5  UNL     1       6.583   3.986  11.017  1.00  0.00     0.006 C 
HETATM   12  C14 UNL     1       6.284   3.125  12.231  1.00  0.00     0.022 C 
HETATM   13  C15 UNL     1       7.509   2.366  12.681  1.00  0.00     0.109 C 
BRANCH  11  14
HETATM   14  C6  UNL     1       5.327   4.522  10.415  1.00  0.00     0.127 C 
BRANCH  14  15
HETATM   15  N3  UNL     1       4.212   3.666  10.745  1.00  0.00    -0.359 N 
HETATM   16  C7  UNL     1       2.901   3.870  10.240  1.00  0.00     0.246 C 
HETATM   17  O3  UNL     1       2.822   4.891   9.462  1.00  0.00    -0.271 OA
ATOM     18  H3  UNL     1       4.374   2.876  11.371  1.00  0.00     0.162 HD
BRANCH  16  19
HETATM   19  C8  UNL     1       1.723   3.017  10.554  1.00  0.00     0.120 A 
HETATM   20  C9  UNL     1       0.451   3.605  10.321  1.00  0.00     0.049 A 
HETATM   21  C10 UNL     1       0.762   2.646   9.347  1.00  0.00     0.028 A 
HETATM   22  C11 UNL     1       1.924   2.283   8.501  1.00  0.00     0.027 C 
HETATM   23  C12 UNL     1       2.536   1.222   9.447  1.00  0.00     0.127 C 
HETATM   24  N4  UNL     1       2.119   1.675  10.759  1.00  0.00    -0.337 N 
HETATM   25  C13 UNL     1       2.111   0.945  11.960  1.00  0.00     0.185 C 
HETATM   26  N5  UNL     1       1.335  -0.046  12.204  1.00  0.00    -0.374 N 
HETATM   27  N6  UNL     1       3.022   1.301  13.015  1.00  0.00    -0.064 NA
ATOM     28  H52 UNL     1       0.690  -0.298  11.456  1.00  0.00     0.158 HD
ATOM     29  H51 UNL     1       1.330  -0.576  13.075  1.00  0.00     0.158 HD
ENDBRANCH  16  19
ENDBRANCH  14  15
ENDBRANCH  11  14
ENDBRANCH   5   8
ENDBRANCH   3   5
ENDBRANCH   2   3
BRANCH   2  30
HETATM   30  C16 UNL     1       5.392  -1.835  14.381  1.00  0.00     0.241 C 
HETATM   31  O4  UNL     1       4.757  -2.476  13.520  1.00  0.00    -0.271 OA
HETATM   32  N7  UNL     1       5.864  -2.492  15.527  1.00  0.00    -0.346 N 
ATOM     33  H7  UNL     1       6.383  -1.966  16.230  1.00  0.00     0.163 HD
BRANCH  32  34
HETATM   34  C17 UNL     1       5.618  -3.945  15.733  1.00  0.00     0.177 C 
BRANCH  34  35
HETATM   35  C18 UNL     1       4.468  -4.020  16.674  1.00  0.00     0.039 C 
BRANCH  35  36
HETATM   36  C19 UNL     1       3.948  -5.309  17.124  1.00  0.00    -0.012 C 
HETATM   37  C20 UNL     1       3.042  -5.293  18.334  1.00  0.00     0.005 C 
HETATM   38  C21 UNL     1       3.216  -6.674  18.999  1.00  0.00     0.000 C 
HETATM   39  C22 UNL     1       2.722  -7.716  18.011  1.00  0.00     0.000 C 
HETATM   40  C23 UNL     1       3.483  -7.642  16.697  1.00  0.00     0.000 C 
HETATM   41  C24 UNL     1       3.327  -6.217  16.116  1.00  0.00     0.005 C 
ENDBRANCH  35  36
ENDBRANCH  34  35
BRANCH  34  42
HETATM   42  C25 UNL     1       6.913  -4.415  16.319  1.00  0.00     0.243 C 
HETATM   43  O5  UNL     1       6.885  -4.693  17.541  1.00  0.00    -0.271 OA
HETATM   44  N8  UNL     1       8.056  -4.519  15.541  1.00  0.00    -0.338 N 
HETATM   45  C26 UNL     1       8.251  -4.185  14.119  1.00  0.00     0.127 C 
HETATM   46  C29 UNL     1       9.371  -4.985  15.920  1.00  0.00     0.163 C 
HETATM   47  C27 UNL     1       9.431  -3.227  14.240  1.00  0.00     0.022 C 
HETATM   48  C28 UNL     1      10.272  -3.910  15.326  1.00  0.00     0.035 C 
BRANCH  46  49
HETATM   49  C30 UNL     1       9.607  -5.273  17.313  1.00  0.00     0.159 C 
HETATM   50  N9  UNL     1       9.289  -6.432  17.801  1.00  0.00    -0.249 N 
ATOM     51  H9  UNL     1       8.873  -7.127  17.180  1.00  0.00     0.196 HD
BRANCH  49  52
HETATM   52  O6  UNL     1      10.167  -4.353  18.170  1.00  0.00    -0.347 OA
ATOM     53  H6  UNL     1       9.790  -3.492  18.308  1.00  0.00     0.219 HD
ENDBRANCH  49  52
BRANCH  50  54
HETATM   54  O7  UNL     1       9.490  -6.761  19.115  1.00  0.00    -0.288 OA
ATOM     55  H7  UNL     1       8.785  -6.789  19.751  1.00  0.00     0.244 HD
ENDBRANCH  50  54
ENDBRANCH  46  49
ENDBRANCH  34  42
ENDBRANCH  32  34
ENDBRANCH   2  30
TORSDOF 14
ENDMDL
