MODEL 1
REMARK VINA RESULT: -4.196711255      0.000      0.000
REMARK  4 active torsions:
REMARK  status: ('A' for Active; 'I' for Inactive)
REMARK    1  A    between atoms: N1_2  and  C2_3 
REMARK    2  A    between atoms: C2_3  and  O1_4 
REMARK    3  A    between atoms: O1_4  and  N2_5 
REMARK    4  A    between atoms: N2_5  and  C3_7 
ROOT
HETATM    1  O1  UNL     1      24.829  32.611  25.583  1.00  0.00    -0.250 OA
ENDROOT
BRANCH   1   2
HETATM    2  C2  UNL     1      23.936  31.677  25.070  1.00  0.00     0.460 C 
BRANCH   2   3
HETATM    3  N1  UNL     1      24.388  30.363  25.449  1.00  0.00     0.031 N 
HETATM    4  C1  UNL     1      24.248  30.076  26.843  1.00  0.00     0.300 C 
HETATM    5  C4  UNL     1      23.747  29.295  24.666  1.00  0.00     0.280 C 
HETATM    6  C5  UNL     1      24.820  29.652  23.657  1.00  0.00     0.172 C 
HETATM    7  N4  UNL     1      25.597  29.965  24.857  1.00  0.00    -0.043 NA
ENDBRANCH   2   3
ENDBRANCH   1   2
BRANCH   1   8
HETATM    8  N2  UNL     1      24.938  33.681  24.763  1.00  0.00    -0.261 N 
ATOM      9  H2  UNL     1      24.830  34.635  25.109  1.00  0.00     0.195 HD
BRANCH   8  10
HETATM   10  C3  UNL     1      25.213  33.412  23.393  1.00  0.00     0.197 C 
HETATM   11  N3  UNL     1      26.416  33.346  22.956  1.00  0.00    -0.394 N 
ATOM     12  H32 UNL     1      27.180  33.493  23.615  1.00  0.00     0.156 HD
ATOM     13  H31 UNL     1      26.613  33.153  21.974  1.00  0.00     0.156 HD
ENDBRANCH   8  10
ENDBRANCH   1   8
TORSDOF 4
ENDMDL
MODEL 2
REMARK VINA RESULT: -4.187336845      2.404      3.900
REMARK  4 active torsions:
REMARK  status: ('A' for Active; 'I' for Inactive)
REMARK    1  A    between atoms: N1_2  and  C2_3 
REMARK    2  A    between atoms: C2_3  and  O1_4 
REMARK    3  A    between atoms: O1_4  and  N2_5 
REMARK    4  A    between atoms: N2_5  and  C3_7 
ROOT
HETATM    1  O1  UNL     1      23.572  28.947  26.097  1.00  0.00    -0.250 OA
ENDROOT
BRANCH   1   2
HETATM    2  C2  UNL     1      23.354  29.762  24.992  1.00  0.00     0.460 C 
BRANCH   2   3
HETATM    3  N1  UNL     1      24.429  29.553  24.057  1.00  0.00     0.031 N 
HETATM    4  C1  UNL     1      24.406  28.275  23.416  1.00  0.00     0.300 C 
HETATM    5  C4  UNL     1      24.506  30.609  23.036  1.00  0.00     0.280 C 
HETATM    6  C5  UNL     1      25.258  31.346  24.127  1.00  0.00     0.172 C 
HETATM    7  N4  UNL     1      25.686  29.997  24.499  1.00  0.00    -0.043 NA
ENDBRANCH   2   3
ENDBRANCH   1   2
BRANCH   1   8
HETATM    8  N2  UNL     1      24.076  29.655  27.134  1.00  0.00    -0.261 N 
ATOM      9  H2  UNL     1      24.992  29.443  27.532  1.00  0.00     0.195 HD
BRANCH   8  10
HETATM   10  C3  UNL     1      23.268  30.709  27.642  1.00  0.00     0.197 C 
HETATM   11  N3  UNL     1      22.726  30.633  28.801  1.00  0.00    -0.394 N 
ATOM     12  H32 UNL     1      22.888  29.794  29.358  1.00  0.00     0.156 HD
ATOM     13  H31 UNL     1      22.146  31.389  29.166  1.00  0.00     0.156 HD
ENDBRANCH   8  10
ENDBRANCH   1   8
TORSDOF 4
ENDMDL
MODEL 3
REMARK VINA RESULT: -4.131880989      1.865      2.492
REMARK  4 active torsions:
REMARK  status: ('A' for Active; 'I' for Inactive)
REMARK    1  A    between atoms: N1_2  and  C2_3 
REMARK    2  A    between atoms: C2_3  and  O1_4 
REMARK    3  A    between atoms: O1_4  and  N2_5 
REMARK    4  A    between atoms: N2_5  and  C3_7 
ROOT
HETATM    1  O1  UNL     1      25.085  32.881  26.413  1.00  0.00    -0.250 OA
ENDROOT
BRANCH   1   2
HETATM    2  C2  UNL     1      24.288  32.089  25.595  1.00  0.00     0.460 C 
BRANCH   2   3
HETATM    3  N1  UNL     1      24.670  30.714  25.784  1.00  0.00     0.031 N 
HETATM    4  C1  UNL     1      24.552  30.255  27.134  1.00  0.00     0.300 C 
HETATM    5  C4  UNL     1      23.946  29.795  24.893  1.00  0.00     0.280 C 
HETATM    6  C5  UNL     1      25.011  30.221  23.902  1.00  0.00     0.172 C 
HETATM    7  N4  UNL     1      25.837  30.330  25.104  1.00  0.00    -0.043 NA
ENDBRANCH   2   3
ENDBRANCH   1   2
BRANCH   1   8
HETATM    8  N2  UNL     1      24.699  34.177  26.363  1.00  0.00    -0.261 N 
ATOM      9  H2  UNL     1      25.109  34.833  25.698  1.00  0.00     0.195 HD
BRANCH   8  10
HETATM   10  C3  UNL     1      23.692  34.580  27.283  1.00  0.00     0.197 C 
HETATM   11  N3  UNL     1      23.848  35.607  28.034  1.00  0.00    -0.394 N 
ATOM     12  H32 UNL     1      24.717  36.135  27.958  1.00  0.00     0.156 HD
ATOM     13  H31 UNL     1      23.126  35.896  28.693  1.00  0.00     0.156 HD
ENDBRANCH   8  10
ENDBRANCH   1   8
TORSDOF 4
ENDMDL
MODEL 4
REMARK VINA RESULT: -4.123434975      8.874     10.389
REMARK  4 active torsions:
REMARK  status: ('A' for Active; 'I' for Inactive)
REMARK    1  A    between atoms: N1_2  and  C2_3 
REMARK    2  A    between atoms: C2_3  and  O1_4 
REMARK    3  A    between atoms: O1_4  and  N2_5 
REMARK    4  A    between atoms: N2_5  and  C3_7 
ROOT
HETATM    1  O1  UNL     1      20.109  36.306  29.501  1.00  0.00    -0.250 OA
ENDROOT
BRANCH   1   2
HETATM    2  C2  UNL     1      19.783  37.640  29.286  1.00  0.00     0.460 C 
BRANCH   2   3
HETATM    3  N1  UNL     1      20.961  38.437  29.512  1.00  0.00     0.031 N 
HETATM    4  C1  UNL     1      22.078  38.070  28.698  1.00  0.00     0.300 C 
HETATM    5  C4  UNL     1      20.708  39.878  29.371  1.00  0.00     0.280 C 
HETATM    6  C5  UNL     1      20.217  39.739  30.798  1.00  0.00     0.172 C 
HETATM    7  N4  UNL     1      21.243  38.698  30.863  1.00  0.00    -0.043 NA
ENDBRANCH   2   3
ENDBRANCH   1   2
BRANCH   1   8
HETATM    8  N2  UNL     1      19.847  35.940  30.777  1.00  0.00    -0.261 N 
ATOM      9  H2  UNL     1      20.515  35.398  31.327  1.00  0.00     0.195 HD
BRANCH   8  10
HETATM   10  C3  UNL     1      18.595  36.347  31.315  1.00  0.00     0.197 C 
HETATM   11  N3  UNL     1      17.939  35.593  32.119  1.00  0.00    -0.394 N 
ATOM     12  H32 UNL     1      18.336  34.687  32.367  1.00  0.00     0.156 HD
ATOM     13  H31 UNL     1      17.041  35.885  32.505  1.00  0.00     0.156 HD
ENDBRANCH   8  10
ENDBRANCH   1   8
TORSDOF 4
ENDMDL
MODEL 5
REMARK VINA RESULT: -4.117249341      1.595      1.595
REMARK  4 active torsions:
REMARK  status: ('A' for Active; 'I' for Inactive)
REMARK    1  A    between atoms: N1_2  and  C2_3 
REMARK    2  A    between atoms: C2_3  and  O1_4 
REMARK    3  A    between atoms: O1_4  and  N2_5 
REMARK    4  A    between atoms: N2_5  and  C3_7 
ROOT
HETATM    1  O1  UNL     1      24.590  32.799  26.717  1.00  0.00    -0.250 OA
ENDROOT
BRANCH   1   2
HETATM    2  C2  UNL     1      24.344  32.101  25.541  1.00  0.00     0.460 C 
BRANCH   2   3
HETATM    3  N1  UNL     1      24.731  30.728  25.738  1.00  0.00     0.031 N 
HETATM    4  C1  UNL     1      24.645  30.286  27.096  1.00  0.00     0.300 C 
HETATM    5  C4  UNL     1      23.986  29.798  24.876  1.00  0.00     0.280 C 
HETATM    6  C5  UNL     1      25.027  30.212  23.854  1.00  0.00     0.172 C 
HETATM    7  N4  UNL     1      25.882  30.336  25.035  1.00  0.00    -0.043 NA
ENDBRANCH   2   3
ENDBRANCH   1   2
BRANCH   1   8
HETATM    8  N2  UNL     1      25.129  34.013  26.460  1.00  0.00    -0.261 N 
ATOM      9  H2  UNL     1      25.884  34.396  27.028  1.00  0.00     0.195 HD
BRANCH   8  10
HETATM   10  C3  UNL     1      24.588  34.731  25.357  1.00  0.00     0.197 C 
HETATM   11  N3  UNL     1      25.015  35.901  25.050  1.00  0.00    -0.394 N 
ATOM     12  H32 UNL     1      25.756  36.310  25.619  1.00  0.00     0.156 HD
ATOM     13  H31 UNL     1      24.628  36.415  24.259  1.00  0.00     0.156 HD
ENDBRANCH   8  10
ENDBRANCH   1   8
TORSDOF 4
ENDMDL
