MODEL 1
REMARK VINA RESULT: -8.761090205      0.000      0.000
REMARK  4 active torsions:
REMARK  status: ('A' for Active; 'I' for Inactive)
REMARK    1  A    between atoms: C2_2  and  O1_3 
REMARK    2  A    between atoms: C6_11  and  C7_12 
REMARK    3  A    between atoms: C6_11  and  C8_15 
REMARK       I    between atoms: C8_15  and  N3_17 
REMARK    4  A    between atoms: N3_17  and  N4_19 
REMARK       I    between atoms: N4_19  and  C9_21 
ROOT
HETATM    1  C1  UNL     1      24.051  90.123  72.915  1.00  0.00     0.081 C 
HETATM    2  C2  UNL     1      23.063  89.100  72.365  1.00  0.00     0.255 A 
HETATM    3  N1  UNL     1      21.879  89.522  71.684  1.00  0.00    -0.027 N 
ATOM      4  H11 UNL     1      21.437  89.305  70.790  1.00  0.00     0.282 HD
ATOM      5  H12 UNL     1      21.568  90.380  71.228  1.00  0.00     0.282 HD
HETATM    6  C3  UNL     1      21.812  88.987  73.019  1.00  0.00     0.187 A 
HETATM    7  C4  UNL     1      21.298  89.988  74.046  1.00  0.00     0.046 C 
HETATM    8  C5  UNL     1      19.789  89.713  73.905  1.00  0.00     0.031 C 
HETATM    9  C6  UNL     1      19.799  88.183  73.979  1.00  0.00     0.123 C 
HETATM   10  C10 UNL     1      21.074  87.746  73.351  1.00  0.00     0.073 C 
ENDROOT
BRANCH   9  11
HETATM   11  C7  UNL     1      18.665  87.663  73.196  1.00  0.00     0.249 C 
HETATM   12  N2  UNL     1      18.836  86.902  72.005  1.00  0.00    -0.061 NA
HETATM   13  O2  UNL     1      17.454  87.871  73.551  1.00  0.00    -0.275 OA
ENDBRANCH   9  11
BRANCH   9  14
HETATM   14  C8  UNL     1      19.707  87.832  75.420  1.00  0.00     0.254 C 
HETATM   15  O3  UNL     1      18.758  88.266  76.144  1.00  0.00    -0.270 OA
HETATM   16  N3  UNL     1      20.662  87.001  76.064  1.00  0.00    -0.265 N 
ATOM     17  H3  UNL     1      21.443  86.625  75.527  1.00  0.00     0.190 HD
BRANCH  16  18
HETATM   18  N4  UNL     1      20.551  86.697  77.396  1.00  0.00    -0.251 N 
HETATM   19  C9  UNL     1      21.208  87.409  78.434  1.00  0.00     0.347 C 
HETATM   20  N5  UNL     1      21.044  87.031  79.789  1.00  0.00    -0.038 NA
HETATM   21  O4  UNL     1      21.949  88.388  78.191  1.00  0.00    -0.249 OA
ATOM     22  H4  UNL     1      19.959  85.909  77.658  1.00  0.00     0.191 HD
ENDBRANCH  16  18
ENDBRANCH   9  14
BRANCH   2  23
HETATM   23  O1  UNL     1      23.663  87.953  71.839  1.00  0.00    -0.363 OA
ATOM     24  H1  UNL     1      24.558  88.082  71.550  1.00  0.00     0.212 HD
ENDBRANCH   2  23
TORSDOF 4
ENDMDL
MODEL 2
REMARK VINA RESULT: -8.738920318      1.739      1.969
REMARK  4 active torsions:
REMARK  status: ('A' for Active; 'I' for Inactive)
REMARK    1  A    between atoms: C2_2  and  O1_3 
REMARK    2  A    between atoms: C6_11  and  C7_12 
REMARK    3  A    between atoms: C6_11  and  C8_15 
REMARK       I    between atoms: C8_15  and  N3_17 
REMARK    4  A    between atoms: N3_17  and  N4_19 
REMARK       I    between atoms: N4_19  and  C9_21 
ROOT
HETATM    1  C1  UNL     1      25.486  90.540  72.453  1.00  0.00     0.081 C 
HETATM    2  C2  UNL     1      24.604  89.305  72.310  1.00  0.00     0.255 A 
HETATM    3  N1  UNL     1      23.337  89.385  71.654  1.00  0.00    -0.027 N 
ATOM      4  H11 UNL     1      22.872  88.872  70.904  1.00  0.00     0.282 HD
ATOM      5  H12 UNL     1      22.893  90.036  71.006  1.00  0.00     0.282 HD
HETATM    6  C3  UNL     1      23.421  89.258  73.086  1.00  0.00     0.187 A 
HETATM    7  C4  UNL     1      22.847  90.456  73.832  1.00  0.00     0.046 C 
HETATM    8  C5  UNL     1      21.380  89.997  73.919  1.00  0.00     0.031 C 
HETATM    9  C6  UNL     1      21.588  88.565  74.421  1.00  0.00     0.123 C 
HETATM   10  C10 UNL     1      22.868  88.098  73.823  1.00  0.00     0.073 C 
ENDROOT
BRANCH   9  11
HETATM   11  C7  UNL     1      20.484  87.724  73.928  1.00  0.00     0.249 C 
HETATM   12  N2  UNL     1      19.480  87.192  74.785  1.00  0.00    -0.061 NA
HETATM   13  O2  UNL     1      20.370  87.426  72.690  1.00  0.00    -0.275 OA
ENDBRANCH   9  11
BRANCH   9  14
HETATM   14  C8  UNL     1      21.630  88.641  75.904  1.00  0.00     0.254 C 
HETATM   15  O3  UNL     1      21.338  89.715  76.517  1.00  0.00    -0.270 OA
HETATM   16  N3  UNL     1      21.994  87.533  76.714  1.00  0.00    -0.265 N 
ATOM     17  H3  UNL     1      22.236  86.646  76.272  1.00  0.00     0.190 HD
BRANCH  16  18
HETATM   18  N4  UNL     1      22.026  87.635  78.081  1.00  0.00    -0.251 N 
HETATM   19  C9  UNL     1      20.980  87.201  78.938  1.00  0.00     0.347 C 
HETATM   20  N5  UNL     1      21.089  87.344  80.343  1.00  0.00    -0.038 NA
HETATM   21  O4  UNL     1      19.935  86.682  78.486  1.00  0.00    -0.249 OA
ATOM     22  H4  UNL     1      22.854  88.050  78.509  1.00  0.00     0.191 HD
ENDBRANCH  16  18
ENDBRANCH   9  14
BRANCH   2  23
HETATM   23  O1  UNL     1      25.312  88.123  72.075  1.00  0.00    -0.363 OA
ATOM     24  H1  UNL     1      25.578  87.667  72.864  1.00  0.00     0.212 HD
ENDBRANCH   2  23
TORSDOF 4
ENDMDL
MODEL 3
REMARK VINA RESULT: -8.736340962      1.390      1.502
REMARK  4 active torsions:
REMARK  status: ('A' for Active; 'I' for Inactive)
REMARK    1  A    between atoms: C2_2  and  O1_3 
REMARK    2  A    between atoms: C6_11  and  C7_12 
REMARK    3  A    between atoms: C6_11  and  C8_15 
REMARK       I    between atoms: C8_15  and  N3_17 
REMARK    4  A    between atoms: N3_17  and  N4_19 
REMARK       I    between atoms: N4_19  and  C9_21 
ROOT
HETATM    1  C1  UNL     1      24.455  90.651  72.645  1.00  0.00     0.081 C 
HETATM    2  C2  UNL     1      23.518  89.486  72.348  1.00  0.00     0.255 A 
HETATM    3  N1  UNL     1      22.217  89.716  71.803  1.00  0.00    -0.027 N 
ATOM      4  H11 UNL     1      21.687  89.358  71.009  1.00  0.00     0.282 HD
ATOM      5  H12 UNL     1      21.759  90.483  71.311  1.00  0.00     0.282 HD
HETATM    6  C3  UNL     1      22.383  89.335  73.182  1.00  0.00     0.187 A 
HETATM    7  C4  UNL     1      21.904  90.398  74.163  1.00  0.00     0.046 C 
HETATM    8  C5  UNL     1      20.428  89.972  74.267  1.00  0.00     0.031 C 
HETATM    9  C6  UNL     1      20.610  88.469  74.496  1.00  0.00     0.123 C 
HETATM   10  C10 UNL     1      21.831  88.079  73.741  1.00  0.00     0.073 C 
ENDROOT
BRANCH   9  11
HETATM   11  C7  UNL     1      19.445  87.760  73.939  1.00  0.00     0.249 C 
HETATM   12  N2  UNL     1      18.130  87.909  74.464  1.00  0.00    -0.061 NA
HETATM   13  O2  UNL     1      19.557  86.964  72.945  1.00  0.00    -0.275 OA
ENDBRANCH   9  11
BRANCH   9  14
HETATM   14  C8  UNL     1      20.746  88.280  75.963  1.00  0.00     0.254 C 
HETATM   15  O3  UNL     1      21.478  89.048  76.661  1.00  0.00    -0.270 OA
HETATM   16  N3  UNL     1      20.074  87.244  76.664  1.00  0.00    -0.265 N 
ATOM     17  H3  UNL     1      19.471  86.600  76.151  1.00  0.00     0.190 HD
BRANCH  16  18
HETATM   18  N4  UNL     1      20.221  87.094  78.019  1.00  0.00    -0.251 N 
HETATM   19  C9  UNL     1      21.056  86.120  78.627  1.00  0.00     0.347 C 
HETATM   20  N5  UNL     1      21.153  86.028  80.037  1.00  0.00    -0.038 NA
HETATM   21  O4  UNL     1      21.730  85.316  77.945  1.00  0.00    -0.249 OA
ATOM     22  H4  UNL     1      19.696  87.721  78.628  1.00  0.00     0.191 HD
ENDBRANCH  16  18
ENDBRANCH   9  14
BRANCH   2  23
HETATM   23  O1  UNL     1      24.162  88.345  71.863  1.00  0.00    -0.363 OA
ATOM     24  H1  UNL     1      23.766  87.528  72.142  1.00  0.00     0.212 HD
ENDBRANCH   2  23
TORSDOF 4
ENDMDL
MODEL 4
REMARK VINA RESULT: -8.305866203      2.238      5.308
REMARK  4 active torsions:
REMARK  status: ('A' for Active; 'I' for Inactive)
REMARK    1  A    between atoms: C2_2  and  O1_3 
REMARK    2  A    between atoms: C6_11  and  C7_12 
REMARK    3  A    between atoms: C6_11  and  C8_15 
REMARK       I    between atoms: C8_15  and  N3_17 
REMARK    4  A    between atoms: N3_17  and  N4_19 
REMARK       I    between atoms: N4_19  and  C9_21 
ROOT
HETATM    1  C1  UNL     1      21.721  86.878  79.491  1.00  0.00     0.081 C 
HETATM    2  C2  UNL     1      22.040  86.365  78.091  1.00  0.00     0.255 A 
HETATM    3  N1  UNL     1      23.112  86.930  77.334  1.00  0.00    -0.027 N 
ATOM      4  H11 UNL     1      23.920  86.563  76.831  1.00  0.00     0.282 HD
ATOM      5  H12 UNL     1      23.941  87.485  77.548  1.00  0.00     0.282 HD
HETATM    6  C3  UNL     1      21.741  87.219  77.002  1.00  0.00     0.187 A 
HETATM    7  C4  UNL     1      21.382  88.692  77.153  1.00  0.00     0.046 C 
HETATM    8  C5  UNL     1      21.780  89.175  75.746  1.00  0.00     0.031 C 
HETATM    9  C6  UNL     1      21.088  88.101  74.901  1.00  0.00     0.123 C 
HETATM   10  C10 UNL     1      21.133  86.849  75.703  1.00  0.00     0.073 C 
ENDROOT
BRANCH   9  11
HETATM   11  C7  UNL     1      21.854  87.912  73.656  1.00  0.00     0.249 C 
HETATM   12  N2  UNL     1      23.233  88.245  73.542  1.00  0.00    -0.061 NA
HETATM   13  O2  UNL     1      21.310  87.433  72.603  1.00  0.00    -0.275 OA
ENDBRANCH   9  11
BRANCH   9  14
HETATM   14  C8  UNL     1      19.707  88.587  74.653  1.00  0.00     0.254 C 
HETATM   15  O3  UNL     1      18.757  88.305  75.448  1.00  0.00    -0.270 OA
HETATM   16  N3  UNL     1      19.369  89.386  73.528  1.00  0.00    -0.265 N 
ATOM     17  H3  UNL     1      20.096  89.642  72.859  1.00  0.00     0.190 HD
BRANCH  16  18
HETATM   18  N4  UNL     1      18.084  89.817  73.325  1.00  0.00    -0.251 N 
HETATM   19  C9  UNL     1      17.107  89.095  72.591  1.00  0.00     0.347 C 
HETATM   20  N5  UNL     1      15.798  89.610  72.424  1.00  0.00    -0.038 NA
HETATM   21  O4  UNL     1      17.365  87.987  72.069  1.00  0.00    -0.249 OA
ATOM     22  H4  UNL     1      17.813  90.714  73.727  1.00  0.00     0.191 HD
ENDBRANCH  16  18
ENDBRANCH   9  14
BRANCH   2  23
HETATM   23  O1  UNL     1      21.879  84.986  77.939  1.00  0.00    -0.363 OA
ATOM     24  H1  UNL     1      21.058  84.734  77.532  1.00  0.00     0.212 HD
ENDBRANCH   2  23
TORSDOF 4
ENDMDL
MODEL 5
REMARK VINA RESULT: -8.218332554      1.697      1.955
REMARK  4 active torsions:
REMARK  status: ('A' for Active; 'I' for Inactive)
REMARK    1  A    between atoms: C2_2  and  O1_3 
REMARK    2  A    between atoms: C6_11  and  C7_12 
REMARK    3  A    between atoms: C6_11  and  C8_15 
REMARK       I    between atoms: C8_15  and  N3_17 
REMARK    4  A    between atoms: N3_17  and  N4_19 
REMARK       I    between atoms: N4_19  and  C9_21 
ROOT
HETATM    1  C1  UNL     1      23.856  91.084  73.288  1.00  0.00     0.081 C 
HETATM    2  C2  UNL     1      22.889  89.985  72.860  1.00  0.00     0.255 A 
HETATM    3  N1  UNL     1      21.484  90.237  72.785  1.00  0.00    -0.027 N 
ATOM      4  H11 UNL     1      20.758  90.103  72.081  1.00  0.00     0.282 HD
ATOM      5  H12 UNL     1      20.896  91.068  72.724  1.00  0.00     0.282 HD
HETATM    6  C3  UNL     1      22.037  89.445  73.854  1.00  0.00     0.187 A 
HETATM    7  C4  UNL     1      21.838  90.068  75.230  1.00  0.00     0.046 C 
HETATM    8  C5  UNL     1      20.457  89.472  75.558  1.00  0.00     0.031 C 
HETATM    9  C6  UNL     1      20.717  88.006  75.197  1.00  0.00     0.123 C 
HETATM   10  C10 UNL     1      21.682  88.023  74.065  1.00  0.00     0.073 C 
ENDROOT
BRANCH   9  11
HETATM   11  C7  UNL     1      19.452  87.395  74.752  1.00  0.00     0.249 C 
HETATM   12  N2  UNL     1      18.208  87.645  75.397  1.00  0.00    -0.061 NA
HETATM   13  O2  UNL     1      19.409  86.601  73.751  1.00  0.00    -0.275 OA
ENDBRANCH   9  11
BRANCH   9  14
HETATM   14  C8  UNL     1      21.262  87.363  76.421  1.00  0.00     0.254 C 
HETATM   15  O3  UNL     1      22.513  87.306  76.633  1.00  0.00    -0.270 OA
HETATM   16  N3  UNL     1      20.428  86.781  77.412  1.00  0.00    -0.265 N 
ATOM     17  H3  UNL     1      19.415  86.802  77.291  1.00  0.00     0.190 HD
BRANCH  16  18
HETATM   18  N4  UNL     1      20.961  86.192  78.529  1.00  0.00    -0.251 N 
HETATM   19  C9  UNL     1      20.668  86.594  79.860  1.00  0.00     0.347 C 
HETATM   20  N5  UNL     1      21.262  85.934  80.963  1.00  0.00    -0.038 NA
HETATM   21  O4  UNL     1      19.881  87.536  80.102  1.00  0.00    -0.249 OA
ATOM     22  H4  UNL     1      21.609  85.416  78.397  1.00  0.00     0.191 HD
ENDBRANCH  16  18
ENDBRANCH   9  14
BRANCH   2  23
HETATM   23  O1  UNL     1      23.388  89.145  71.861  1.00  0.00    -0.363 OA
ATOM     24  H1  UNL     1      24.159  88.652  72.118  1.00  0.00     0.212 HD
ENDBRANCH   2  23
TORSDOF 4
ENDMDL
