MODEL 1
REMARK VINA RESULT: -6.254343032      0.000      0.000
REMARK  6 active torsions:
REMARK  status: ('A' for Active; 'I' for Inactive)
REMARK    1  A    between atoms: O1_1  and  C1_3 
REMARK    2  A    between atoms: C1_3  and  C2_4 
REMARK    3  A    between atoms: C3_5  and  C4_6 
REMARK    4  A    between atoms: C4_6  and  C5_7 
REMARK    5  A    between atoms: C7_9  and  C8_10 
REMARK    6  A    between atoms: C9_11  and  C10_12 
ROOT
HETATM    1  C5  UNL     1      -0.811  16.797  18.453  1.00  0.00     0.015 A 
HETATM    2  C6  UNL     1       0.114  17.128  19.422  1.00  0.00     0.048 A 
HETATM    3  C7  UNL     1       0.907  18.170  18.958  1.00  0.00     0.053 A 
HETATM    4  C13 UNL     1       0.437  18.453  17.697  1.00  0.00     0.099 A 
HETATM    5 BR1  UNL     1       1.171  19.818  16.583  1.00  0.00    -0.030 Br
HETATM    6  N2  UNL     1      -0.584  17.624  17.420  1.00  0.00    -0.352 N 
ATOM      7  H2  UNL     1      -1.112  17.623  16.547  1.00  0.00     0.166 HD
ENDROOT
BRANCH   3   8
HETATM    8  C8  UNL     1       1.999  18.808  19.676  1.00  0.00    -0.064 C 
HETATM    9  C9  UNL     1       2.887  19.350  20.270  1.00  0.00    -0.093 C 
BRANCH   9  10
HETATM   10  C10 UNL     1       3.962  20.037  20.999  1.00  0.00     0.116 C 
HETATM   11  C11 UNL     1       3.467  20.897  22.146  1.00  0.00     0.251 C 
HETATM   12  N1  UNL     1       3.476  22.088  21.297  1.00  0.00    -0.073 N 
HETATM   13  C12 UNL     1       4.376  21.357  20.408  1.00  0.00     0.251 C 
ATOM     14  H12 UNL     1       2.608  22.497  20.950  1.00  0.00     0.277 HD
ATOM     15  H11 UNL     1       3.728  23.003  21.670  1.00  0.00     0.277 HD
ENDBRANCH   9  10
ENDBRANCH   3   8
BRANCH   1  16
HETATM   16  C4  UNL     1      -1.854  15.741  18.532  1.00  0.00     0.084 C 
BRANCH  16  17
HETATM   17  C3  UNL     1      -2.123  15.205  17.159  1.00  0.00    -0.023 C 
HETATM   18  C2  UNL     1      -1.745  14.007  16.775  1.00  0.00    -0.005 C 
BRANCH  18  19
HETATM   19  C1  UNL     1      -2.040  13.538  15.412  1.00  0.00     0.191 C 
BRANCH  19  20
HETATM   20  O1  UNL     1      -3.316  13.903  14.982  1.00  0.00    -0.397 OA
ATOM     21  H1  UNL     1      -3.298  14.461  14.213  1.00  0.00     0.209 HD
ENDBRANCH  19  20
ENDBRANCH  18  19
ENDBRANCH  16  17
ENDBRANCH   1  16
TORSDOF 6
ENDMDL
MODEL 2
REMARK VINA RESULT: -6.250460813      2.787      4.104
REMARK  6 active torsions:
REMARK  status: ('A' for Active; 'I' for Inactive)
REMARK    1  A    between atoms: O1_1  and  C1_3 
REMARK    2  A    between atoms: C1_3  and  C2_4 
REMARK    3  A    between atoms: C3_5  and  C4_6 
REMARK    4  A    between atoms: C4_6  and  C5_7 
REMARK    5  A    between atoms: C7_9  and  C8_10 
REMARK    6  A    between atoms: C9_11  and  C10_12 
ROOT
HETATM    1  C5  UNL     1      -0.567  16.705  18.903  1.00  0.00     0.015 A 
HETATM    2  C6  UNL     1      -0.506  17.548  17.812  1.00  0.00     0.048 A 
HETATM    3  C7  UNL     1       0.554  18.430  17.976  1.00  0.00     0.053 A 
HETATM    4  C13 UNL     1       1.123  18.097  19.182  1.00  0.00     0.099 A 
HETATM    5 BR1  UNL     1       2.637  18.998  19.915  1.00  0.00    -0.030 Br
HETATM    6  N2  UNL     1       0.439  17.069  19.714  1.00  0.00    -0.352 N 
ATOM      7  H2  UNL     1       0.654  16.627  20.608  1.00  0.00     0.166 HD
ENDROOT
BRANCH   3   8
HETATM    8  C8  UNL     1       0.955  19.477  17.050  1.00  0.00    -0.064 C 
HETATM    9  C9  UNL     1       1.281  20.327  16.271  1.00  0.00    -0.093 C 
BRANCH   9  10
HETATM   10  C10 UNL     1       1.673  21.354  15.296  1.00  0.00     0.116 C 
HETATM   11  C11 UNL     1       0.614  21.637  14.249  1.00  0.00     0.251 C 
HETATM   12  N1  UNL     1       1.247  20.709  13.314  1.00  0.00    -0.073 N 
HETATM   13  C12 UNL     1       2.458  20.836  14.122  1.00  0.00     0.251 C 
ATOM     14  H12 UNL     1       0.838  19.796  13.114  1.00  0.00     0.277 HD
ATOM     15  H11 UNL     1       1.259  20.893  12.310  1.00  0.00     0.277 HD
ENDBRANCH   9  10
ENDBRANCH   3   8
BRANCH   1  16
HETATM   16  C4  UNL     1      -1.545  15.611  19.138  1.00  0.00     0.084 C 
BRANCH  16  17
HETATM   17  C3  UNL     1      -2.081  15.131  17.825  1.00  0.00    -0.023 C 
HETATM   18  C2  UNL     1      -1.540  14.141  17.152  1.00  0.00    -0.005 C 
BRANCH  18  19
HETATM   19  C1  UNL     1      -2.115  13.717  15.866  1.00  0.00     0.191 C 
BRANCH  19  20
HETATM   20  O1  UNL     1      -2.065  12.335  15.684  1.00  0.00    -0.397 OA
ATOM     21  H1  UNL     1      -1.931  12.090  14.776  1.00  0.00     0.209 HD
ENDBRANCH  19  20
ENDBRANCH  18  19
ENDBRANCH  16  17
ENDBRANCH   1  16
TORSDOF 6
ENDMDL
MODEL 3
REMARK VINA RESULT: -6.088005171      1.418      1.451
REMARK  6 active torsions:
REMARK  status: ('A' for Active; 'I' for Inactive)
REMARK    1  A    between atoms: O1_1  and  C1_3 
REMARK    2  A    between atoms: C1_3  and  C2_4 
REMARK    3  A    between atoms: C3_5  and  C4_6 
REMARK    4  A    between atoms: C4_6  and  C5_7 
REMARK    5  A    between atoms: C7_9  and  C8_10 
REMARK    6  A    between atoms: C9_11  and  C10_12 
ROOT
HETATM    1  C5  UNL     1      -0.797  16.853  18.384  1.00  0.00     0.015 A 
HETATM    2  C6  UNL     1       0.106  17.174  19.377  1.00  0.00     0.048 A 
HETATM    3  C7  UNL     1       0.913  18.217  18.940  1.00  0.00     0.053 A 
HETATM    4  C13 UNL     1       0.475  18.510  17.670  1.00  0.00     0.099 A 
HETATM    5 BR1  UNL     1       1.240  19.880  16.584  1.00  0.00    -0.030 Br
HETATM    6  N2  UNL     1      -0.542  17.686  17.363  1.00  0.00    -0.352 N 
ATOM      7  H2  UNL     1      -1.049  17.692  16.477  1.00  0.00     0.166 HD
ENDROOT
BRANCH   3   8
HETATM    8  C8  UNL     1       1.989  18.846  19.689  1.00  0.00    -0.064 C 
HETATM    9  C9  UNL     1       2.867  19.383  20.302  1.00  0.00    -0.093 C 
BRANCH   9  10
HETATM   10  C10 UNL     1       3.934  20.064  21.049  1.00  0.00     0.116 C 
HETATM   11  C11 UNL     1       3.425  20.930  22.185  1.00  0.00     0.251 C 
HETATM   12  N1  UNL     1       3.455  22.118  21.334  1.00  0.00    -0.073 N 
HETATM   13  C12 UNL     1       4.366  21.380  20.463  1.00  0.00     0.251 C 
ATOM     14  H12 UNL     1       2.596  22.533  20.972  1.00  0.00     0.277 HD
ATOM     15  H11 UNL     1       3.706  23.033  21.710  1.00  0.00     0.277 HD
ENDBRANCH   9  10
ENDBRANCH   3   8
BRANCH   1  16
HETATM   16  C4  UNL     1      -1.844  15.799  18.429  1.00  0.00     0.084 C 
BRANCH  16  17
HETATM   17  C3  UNL     1      -1.451  14.668  17.531  1.00  0.00    -0.023 C 
HETATM   18  C2  UNL     1      -0.720  13.655  17.938  1.00  0.00    -0.005 C 
BRANCH  18  19
HETATM   19  C1  UNL     1      -0.367  12.573  17.005  1.00  0.00     0.191 C 
BRANCH  19  20
HETATM   20  O1  UNL     1       0.950  12.140  17.156  1.00  0.00    -0.397 OA
ATOM     21  H1  UNL     1       1.332  11.838  16.341  1.00  0.00     0.209 HD
ENDBRANCH  19  20
ENDBRANCH  18  19
ENDBRANCH  16  17
ENDBRANCH   1  16
TORSDOF 6
ENDMDL
MODEL 4
REMARK VINA RESULT: -6.009754355      2.873      3.692
REMARK  6 active torsions:
REMARK  status: ('A' for Active; 'I' for Inactive)
REMARK    1  A    between atoms: O1_1  and  C1_3 
REMARK    2  A    between atoms: C1_3  and  C2_4 
REMARK    3  A    between atoms: C3_5  and  C4_6 
REMARK    4  A    between atoms: C4_6  and  C5_7 
REMARK    5  A    between atoms: C7_9  and  C8_10 
REMARK    6  A    between atoms: C9_11  and  C10_12 
ROOT
HETATM    1  C5  UNL     1      -0.572  16.889  18.881  1.00  0.00     0.015 A 
HETATM    2  C6  UNL     1      -0.449  17.754  17.814  1.00  0.00     0.048 A 
HETATM    3  C7  UNL     1       0.671  18.555  18.002  1.00  0.00     0.053 A 
HETATM    4  C13 UNL     1       1.212  18.150  19.199  1.00  0.00     0.099 A 
HETATM    5 BR1  UNL     1       2.785  18.921  19.957  1.00  0.00    -0.030 Br
HETATM    6  N2  UNL     1       0.456  17.158  19.702  1.00  0.00    -0.352 N 
ATOM      7  H2  UNL     1       0.637  16.678  20.584  1.00  0.00     0.166 HD
ENDROOT
BRANCH   3   8
HETATM    8  C8  UNL     1       1.147  19.596  17.105  1.00  0.00    -0.064 C 
HETATM    9  C9  UNL     1       1.559  20.446  16.368  1.00  0.00    -0.093 C 
BRANCH   9  10
HETATM   10  C10 UNL     1       2.087  21.479  15.467  1.00  0.00     0.116 C 
HETATM   11  C11 UNL     1       2.560  20.938  14.131  1.00  0.00     0.251 C 
HETATM   12  N1  UNL     1       3.937  20.858  14.616  1.00  0.00    -0.073 N 
HETATM   13  C12 UNL     1       3.544  21.796  15.664  1.00  0.00     0.251 C 
ATOM     14  H12 UNL     1       4.367  19.961  14.843  1.00  0.00     0.277 HD
ATOM     15  H11 UNL     1       4.728  21.051  14.001  1.00  0.00     0.277 HD
ENDBRANCH   9  10
ENDBRANCH   3   8
BRANCH   1  16
HETATM   16  C4  UNL     1      -1.625  15.861  19.086  1.00  0.00     0.084 C 
BRANCH  16  17
HETATM   17  C3  UNL     1      -2.086  15.348  17.757  1.00  0.00    -0.023 C 
HETATM   18  C2  UNL     1      -1.574  14.281  17.187  1.00  0.00    -0.005 C 
BRANCH  18  19
HETATM   19  C1  UNL     1      -2.071  13.828  15.878  1.00  0.00     0.191 C 
BRANCH  19  20
HETATM   20  O1  UNL     1      -2.068  12.439  15.753  1.00  0.00    -0.397 OA
ATOM     21  H1  UNL     1      -1.680  12.146  14.937  1.00  0.00     0.209 HD
ENDBRANCH  19  20
ENDBRANCH  18  19
ENDBRANCH  16  17
ENDBRANCH   1  16
TORSDOF 6
ENDMDL
MODEL 5
REMARK VINA RESULT: -5.966674130      3.142      3.962
REMARK  6 active torsions:
REMARK  status: ('A' for Active; 'I' for Inactive)
REMARK    1  A    between atoms: O1_1  and  C1_3 
REMARK    2  A    between atoms: C1_3  and  C2_4 
REMARK    3  A    between atoms: C3_5  and  C4_6 
REMARK    4  A    between atoms: C4_6  and  C5_7 
REMARK    5  A    between atoms: C7_9  and  C8_10 
REMARK    6  A    between atoms: C9_11  and  C10_12 
ROOT
HETATM    1  C5  UNL     1      -0.613  16.872  18.928  1.00  0.00     0.015 A 
HETATM    2  C6  UNL     1      -0.496  17.702  17.833  1.00  0.00     0.048 A 
HETATM    3  C7  UNL     1       0.621  18.513  17.992  1.00  0.00     0.053 A 
HETATM    4  C13 UNL     1       1.167  18.150  19.200  1.00  0.00     0.099 A 
HETATM    5 BR1  UNL     1       2.737  18.953  19.928  1.00  0.00    -0.030 Br
HETATM    6  N2  UNL     1       0.416  17.173  19.738  1.00  0.00    -0.352 N 
ATOM      7  H2  UNL     1       0.601  16.723  20.634  1.00  0.00     0.166 HD
ENDROOT
BRANCH   3   8
HETATM    8  C8  UNL     1       1.090  19.525  17.059  1.00  0.00    -0.064 C 
HETATM    9  C9  UNL     1       1.479  20.372  16.306  1.00  0.00    -0.093 C 
BRANCH   9  10
HETATM   10  C10 UNL     1       1.958  21.427  15.403  1.00  0.00     0.116 C 
HETATM   11  C11 UNL     1       2.484  20.905  14.080  1.00  0.00     0.251 C 
HETATM   12  N1  UNL     1       3.856  20.913  14.588  1.00  0.00    -0.073 N 
HETATM   13  C12 UNL     1       3.390  21.835  15.620  1.00  0.00     0.251 C 
ATOM     14  H12 UNL     1       4.336  20.046  14.831  1.00  0.00     0.277 HD
ATOM     15  H11 UNL     1       4.643  21.148  13.984  1.00  0.00     0.277 HD
ENDBRANCH   9  10
ENDBRANCH   3   8
BRANCH   1  16
HETATM   16  C4  UNL     1      -1.661  15.846  19.170  1.00  0.00     0.084 C 
BRANCH  16  17
HETATM   17  C3  UNL     1      -1.501  14.729  18.186  1.00  0.00    -0.023 C 
HETATM   18  C2  UNL     1      -0.517  13.861  18.247  1.00  0.00    -0.005 C 
BRANCH  18  19
HETATM   19  C1  UNL     1      -0.416  12.784  17.248  1.00  0.00     0.191 C 
BRANCH  19  20
HETATM   20  O1  UNL     1       0.861  12.227  17.187  1.00  0.00    -0.397 OA
ATOM     21  H1  UNL     1       1.040  11.812  16.351  1.00  0.00     0.209 HD
ENDBRANCH  19  20
ENDBRANCH  18  19
ENDBRANCH  16  17
ENDBRANCH   1  16
TORSDOF 6
ENDMDL
