MODEL 1
REMARK VINA RESULT: -5.755835993      0.000      0.000
REMARK  3 active torsions:
REMARK  status: ('A' for Active; 'I' for Inactive)
REMARK    1  A    between atoms: C2_2  and  C4_4 
REMARK    2  A    between atoms: C7_7  and  C8_8 
REMARK    3  A    between atoms: C8_8  and  C9_9 
ROOT
HETATM    1  C4  UNL     1       1.093  19.477  19.793  1.00  0.00     0.045 C 
HETATM    2  C5  UNL     1       1.010  19.100  18.370  1.00  0.00     0.019 C 
HETATM    3  C6  UNL     1      -0.297  18.305  18.269  1.00  0.00     0.033 C 
HETATM    4  C7  UNL     1       0.061  16.936  18.720  1.00  0.00     0.194 C 
HETATM    5  N3  UNL     1       0.403  17.149  20.154  1.00  0.00    -0.064 N 
ATOM      6  H31 UNL     1       1.362  16.888  20.381  1.00  0.00     0.278 HD
ATOM      7  H32 UNL     1      -0.062  16.491  20.780  1.00  0.00     0.278 HD
HETATM    8  C11 UNL     1       0.105  18.519  20.452  1.00  0.00     0.209 C 
HETATM    9  C12 UNL     1      -1.083  18.767  19.515  1.00  0.00     0.095 C 
HETATM   10 BR1  UNL     1      -1.593  20.600  19.420  1.00  0.00    -0.088 Br
ENDROOT
BRANCH   4  11
HETATM   11  C8  UNL     1      -0.992  15.931  18.558  1.00  0.00     0.066 C 
BRANCH  11  12
HETATM   12  C9  UNL     1      -1.498  15.686  17.185  1.00  0.00     0.151 A 
HETATM   13  N1  UNL     1      -2.905  15.662  16.873  1.00  0.00    -0.367 N 
HETATM   14  C10 UNL     1      -2.122  14.396  16.841  1.00  0.00     0.094 A 
ATOM     15  H1  UNL     1      -3.791  16.154  16.757  1.00  0.00     0.161 HD
HETATM   16  N2  UNL     1      -2.096  13.134  16.643  1.00  0.00    -0.387 N 
ATOM     17  H22 UNL     1      -1.559  12.267  16.621  1.00  0.00     0.157 HD
ATOM     18  H21 UNL     1      -2.528  12.241  16.404  1.00  0.00     0.157 HD
ENDBRANCH  11  12
ENDBRANCH   4  11
BRANCH   1  19
HETATM   19  C2  UNL     1       2.385  19.500  20.444  1.00  0.00    -0.087 C 
HETATM   20  C1  UNL     1       3.421  18.838  20.034  1.00  0.00     0.014 C 
HETATM   21  C3  UNL     1       2.518  20.344  21.677  1.00  0.00     0.043 C 
ENDBRANCH   1  19
TORSDOF 3
ENDMDL
MODEL 2
REMARK VINA RESULT: -5.734350486      1.161      1.384
REMARK  3 active torsions:
REMARK  status: ('A' for Active; 'I' for Inactive)
REMARK    1  A    between atoms: C2_2  and  C4_4 
REMARK    2  A    between atoms: C7_7  and  C8_8 
REMARK    3  A    between atoms: C8_8  and  C9_9 
ROOT
HETATM    1  C4  UNL     1       1.108  19.456  19.673  1.00  0.00     0.045 C 
HETATM    2  C5  UNL     1       0.883  18.945  18.309  1.00  0.00     0.019 C 
HETATM    3  C6  UNL     1      -0.513  18.313  18.371  1.00  0.00     0.033 C 
HETATM    4  C7  UNL     1      -0.289  16.965  18.954  1.00  0.00     0.194 C 
HETATM    5  N3  UNL     1       0.174  17.284  20.333  1.00  0.00    -0.064 N 
ATOM      6  H31 UNL     1       1.110  16.930  20.534  1.00  0.00     0.278 HD
ATOM      7  H32 UNL     1      -0.320  16.759  21.054  1.00  0.00     0.278 HD
HETATM    8  C11 UNL     1       0.062  18.704  20.491  1.00  0.00     0.209 C 
HETATM    9  C12 UNL     1      -1.150  18.999  19.599  1.00  0.00     0.095 C 
HETATM   10 BR1  UNL     1      -1.446  20.860  19.326  1.00  0.00    -0.088 Br
ENDROOT
BRANCH   4  11
HETATM   11  C8  UNL     1      -1.462  16.088  18.966  1.00  0.00     0.066 C 
BRANCH  11  12
HETATM   12  C9  UNL     1      -1.238  14.652  19.261  1.00  0.00     0.151 A 
HETATM   13  N1  UNL     1       0.081  14.091  19.414  1.00  0.00    -0.367 N 
HETATM   14  C10 UNL     1      -0.731  13.747  18.214  1.00  0.00     0.094 A 
ATOM     15  H1  UNL     1       0.943  13.997  19.952  1.00  0.00     0.161 HD
HETATM   16  N2  UNL     1      -0.832  13.110  17.111  1.00  0.00    -0.387 N 
ATOM     17  H22 UNL     1      -1.388  12.875  16.289  1.00  0.00     0.157 HD
ATOM     18  H21 UNL     1      -0.480  12.484  16.386  1.00  0.00     0.157 HD
ENDBRANCH  11  12
ENDBRANCH   4  11
BRANCH   1  19
HETATM   19  C2  UNL     1       2.436  19.386  20.244  1.00  0.00    -0.087 C 
HETATM   20  C1  UNL     1       3.371  18.595  19.821  1.00  0.00     0.014 C 
HETATM   21  C3  UNL     1       2.732  20.287  21.405  1.00  0.00     0.043 C 
ENDBRANCH   1  19
TORSDOF 3
ENDMDL
MODEL 3
REMARK VINA RESULT: -5.731676605      2.186      3.154
REMARK  3 active torsions:
REMARK  status: ('A' for Active; 'I' for Inactive)
REMARK    1  A    between atoms: C2_2  and  C4_4 
REMARK    2  A    between atoms: C7_7  and  C8_8 
REMARK    3  A    between atoms: C8_8  and  C9_9 
ROOT
HETATM    1  C4  UNL     1      -0.578  19.569  18.835  1.00  0.00     0.045 C 
HETATM    2  C5  UNL     1      -1.098  18.721  19.923  1.00  0.00     0.019 C 
HETATM    3  C6  UNL     1      -0.386  17.377  19.724  1.00  0.00     0.033 C 
HETATM    4  C7  UNL     1      -1.173  16.689  18.668  1.00  0.00     0.194 C 
HETATM    5  N3  UNL     1      -0.941  17.554  17.479  1.00  0.00    -0.064 N 
ATOM      6  H31 UNL     1      -1.799  17.952  17.098  1.00  0.00     0.278 HD
ATOM      7  H32 UNL     1      -0.662  17.031  16.650  1.00  0.00     0.278 HD
HETATM    8  C11 UNL     1       0.016  18.548  17.869  1.00  0.00     0.209 C 
HETATM    9  C12 UNL     1       0.852  17.760  18.885  1.00  0.00     0.095 C 
HETATM   10 BR1  UNL     1       2.080  18.850  19.850  1.00  0.00    -0.088 Br
ENDROOT
BRANCH   4  11
HETATM   11  C8  UNL     1      -0.788  15.300  18.410  1.00  0.00     0.066 C 
BRANCH  11  12
HETATM   12  C9  UNL     1      -1.845  14.376  17.931  1.00  0.00     0.151 A 
HETATM   13  N1  UNL     1      -1.544  13.080  17.374  1.00  0.00    -0.367 N 
HETATM   14  C10 UNL     1      -2.048  14.163  16.487  1.00  0.00     0.094 A 
ATOM     15  H1  UNL     1      -1.221  12.120  17.499  1.00  0.00     0.161 HD
HETATM   16  N2  UNL     1      -2.387  14.545  15.315  1.00  0.00    -0.387 N 
ATOM     17  H22 UNL     1      -2.733  15.287  14.707  1.00  0.00     0.157 HD
ATOM     18  H21 UNL     1      -2.528  14.398  14.315  1.00  0.00     0.157 HD
ENDBRANCH  11  12
ENDBRANCH   4  11
BRANCH   1  19
HETATM   19  C2  UNL     1      -1.463  20.514  18.190  1.00  0.00    -0.087 C 
HETATM   20  C1  UNL     1      -1.431  20.798  16.926  1.00  0.00     0.014 C 
HETATM   21  C3  UNL     1      -2.473  21.208  19.053  1.00  0.00     0.043 C 
ENDBRANCH   1  19
TORSDOF 3
ENDMDL
MODEL 4
REMARK VINA RESULT: -5.712505856      1.161      1.310
REMARK  3 active torsions:
REMARK  status: ('A' for Active; 'I' for Inactive)
REMARK    1  A    between atoms: C2_2  and  C4_4 
REMARK    2  A    between atoms: C7_7  and  C8_8 
REMARK    3  A    between atoms: C8_8  and  C9_9 
ROOT
HETATM    1  C4  UNL     1       1.073  19.656  20.075  1.00  0.00     0.045 C 
HETATM    2  C5  UNL     1      -0.038  19.879  19.133  1.00  0.00     0.019 C 
HETATM    3  C6  UNL     1      -0.968  18.681  19.359  1.00  0.00     0.033 C 
HETATM    4  C7  UNL     1      -0.367  17.584  18.558  1.00  0.00     0.194 C 
HETATM    5  N3  UNL     1       0.927  17.347  19.256  1.00  0.00    -0.064 N 
ATOM      6  H31 UNL     1       1.739  17.496  18.657  1.00  0.00     0.278 HD
ATOM      7  H32 UNL     1       1.098  16.363  19.462  1.00  0.00     0.278 HD
HETATM    8  C11 UNL     1       0.927  18.178  20.424  1.00  0.00     0.209 C 
HETATM    9  C12 UNL     1      -0.567  18.192  20.768  1.00  0.00     0.095 C 
HETATM   10 BR1  UNL     1      -1.012  19.445  22.131  1.00  0.00    -0.088 Br
ENDROOT
BRANCH   4  11
HETATM   11  C8  UNL     1      -1.169  16.361  18.476  1.00  0.00     0.066 C 
BRANCH  11  12
HETATM   12  C9  UNL     1      -1.498  15.850  17.122  1.00  0.00     0.151 A 
HETATM   13  N1  UNL     1      -2.855  15.735  16.649  1.00  0.00    -0.367 N 
HETATM   14  C10 UNL     1      -2.076  14.504  16.955  1.00  0.00     0.094 A 
ATOM     15  H1  UNL     1      -3.719  16.176  16.333  1.00  0.00     0.161 HD
HETATM   16  N2  UNL     1      -2.027  13.228  17.006  1.00  0.00    -0.387 N 
ATOM     17  H22 UNL     1      -1.493  12.385  17.216  1.00  0.00     0.157 HD
ATOM     18  H21 UNL     1      -2.427  12.297  16.890  1.00  0.00     0.157 HD
ENDBRANCH  11  12
ENDBRANCH   4  11
BRANCH   1  19
HETATM   19  C2  UNL     1       2.418  20.018  19.683  1.00  0.00    -0.087 C 
HETATM   20  C1  UNL     1       2.721  20.587  18.559  1.00  0.00     0.014 C 
HETATM   21  C3  UNL     1       3.523  19.704  20.646  1.00  0.00     0.043 C 
ENDBRANCH   1  19
TORSDOF 3
ENDMDL
MODEL 5
REMARK VINA RESULT: -5.676360372      1.356      1.920
REMARK  3 active torsions:
REMARK  status: ('A' for Active; 'I' for Inactive)
REMARK    1  A    between atoms: C2_2  and  C4_4 
REMARK    2  A    between atoms: C7_7  and  C8_8 
REMARK    3  A    between atoms: C8_8  and  C9_9 
ROOT
HETATM    1  C4  UNL     1       0.914  19.852  19.459  1.00  0.00     0.045 C 
HETATM    2  C5  UNL     1      -0.220  19.543  18.570  1.00  0.00     0.019 C 
HETATM    3  C6  UNL     1      -0.949  18.395  19.278  1.00  0.00     0.033 C 
HETATM    4  C7  UNL     1      -0.185  17.178  18.903  1.00  0.00     0.194 C 
HETATM    5  N3  UNL     1       1.131  17.409  19.558  1.00  0.00    -0.064 N 
ATOM      6  H31 UNL     1       1.909  17.440  18.899  1.00  0.00     0.278 HD
ATOM      7  H32 UNL     1       1.456  16.609  20.102  1.00  0.00     0.278 HD
HETATM    8  C11 UNL     1       1.003  18.606  20.336  1.00  0.00     0.209 C 
HETATM    9  C12 UNL     1      -0.474  18.531  20.741  1.00  0.00     0.095 C 
HETATM   10 BR1  UNL     1      -1.107  20.124  21.571  1.00  0.00    -0.088 Br
ENDROOT
BRANCH   4  11
HETATM   11  C8  UNL     1      -0.785  15.910  19.325  1.00  0.00     0.066 C 
BRANCH  11  12
HETATM   12  C9  UNL     1      -1.701  15.236  18.372  1.00  0.00     0.151 A 
HETATM   13  N1  UNL     1      -1.221  14.466  17.252  1.00  0.00    -0.367 N 
HETATM   14  C10 UNL     1      -1.889  15.775  17.013  1.00  0.00     0.094 A 
ATOM     15  H1  UNL     1      -0.759  13.633  16.888  1.00  0.00     0.161 HD
HETATM   16  N2  UNL     1      -2.294  16.659  16.183  1.00  0.00    -0.387 N 
ATOM     17  H22 UNL     1      -2.751  17.555  16.020  1.00  0.00     0.157 HD
ATOM     18  H21 UNL     1      -2.424  17.032  15.243  1.00  0.00     0.157 HD
ENDBRANCH  11  12
ENDBRANCH   4  11
BRANCH   1  19
HETATM   19  C2  UNL     1       2.184  20.232  18.880  1.00  0.00    -0.087 C 
HETATM   20  C1  UNL     1       3.184  20.701  19.558  1.00  0.00     0.014 C 
HETATM   21  C3  UNL     1       2.337  20.074  17.397  1.00  0.00     0.043 C 
ENDBRANCH   1  19
TORSDOF 3
ENDMDL
