MODEL 1
REMARK VINA RESULT: -5.778472093      0.000      0.000
REMARK  15 active torsions:
REMARK  status: ('A' for Active; 'I' for Inactive)
REMARK       I    between atoms: C2_5  and  N4_7 
REMARK    1  A    between atoms: N4_7  and  C3_9 
REMARK    2  A    between atoms: C3_9  and  C4_10 
REMARK    3  A    between atoms: C4_10  and  C5_11 
REMARK    4  A    between atoms: C5_11  and  C6_12 
REMARK    5  A    between atoms: C6_12  and  C7_13 
REMARK    6  A    between atoms: C7_13  and  C8_14 
REMARK    7  A    between atoms: C8_14  and  C9_15 
REMARK    8  A    between atoms: C9_15  and  N5_16 
REMARK    9  A    between atoms: N5_16  and  C10_17 
REMARK   10  A    between atoms: N5_16  and  C18_31 
REMARK   11  A    between atoms: C10_17  and  O1_18 
REMARK   12  A    between atoms: C10_17  and  N6_20 
REMARK   13  A    between atoms: N6_20  and  C11_22 
REMARK   14  A    between atoms: C11_22  and  C12_23 
REMARK   15  A    between atoms: C18_31  and  C19_33 
ROOT
HETATM    1  N1  UNL     1      42.143  25.496  38.498  1.00  0.00    -0.172 NA
HETATM    2  C1  UNL     1      41.255  24.791  38.383  1.00  0.00     0.184 C 
HETATM    3  N2  UNL     1      40.156  23.939  38.256  1.00  0.00    -0.268 N 
ATOM      4  H2  UNL     1      39.226  24.350  38.341  1.00  0.00     0.180 HD
HETATM    5  C2  UNL     1      40.231  22.696  38.044  1.00  0.00     0.197 C 
HETATM    6  N3  UNL     1      39.098  21.885  37.925  1.00  0.00    -0.063 NA
HETATM    7  N4  UNL     1      41.534  22.069  37.913  1.00  0.00    -0.364 N 
ATOM      8  H4  UNL     1      42.158  21.932  38.707  1.00  0.00     0.162 HD
ENDROOT
BRANCH   7   9
HETATM    9  C3  UNL     1      41.873  21.661  36.602  1.00  0.00     0.122 C 
BRANCH   9  10
HETATM   10  C4  UNL     1      42.529  20.375  36.339  1.00  0.00     0.020 C 
BRANCH  10  11
HETATM   11  C5  UNL     1      41.875  19.466  35.377  1.00  0.00     0.002 C 
BRANCH  11  12
HETATM   12  C6  UNL     1      41.857  18.017  35.721  1.00  0.00     0.000 C 
BRANCH  12  13
HETATM   13  C7  UNL     1      40.433  17.469  35.625  1.00  0.00     0.002 C 
BRANCH  13  14
HETATM   14  C8  UNL     1      39.401  18.531  35.461  1.00  0.00     0.020 C 
BRANCH  14  15
HETATM   15  C9  UNL     1      38.020  17.957  35.638  1.00  0.00     0.133 C 
BRANCH  15  16
HETATM   16  N5  UNL     1      37.089  19.073  35.995  1.00  0.00    -0.307 N 
BRANCH  16  17
HETATM   17  C10 UNL     1      36.736  19.201  37.336  1.00  0.00     0.220 C 
BRANCH  17  18
HETATM   18  O1  UNL     1      35.453  19.215  37.625  1.00  0.00    -0.332 OA
ATOM     19  H1  UNL     1      35.175  18.745  38.402  1.00  0.00     0.220 HD
ENDBRANCH  17  18
BRANCH  17  20
HETATM   20  N6  UNL     1      37.569  19.322  38.436  1.00  0.00    -0.352 N 
ATOM     21  H6  UNL     1      37.942  20.231  38.714  1.00  0.00     0.163 HD
BRANCH  20  22
HETATM   22  C11 UNL     1      37.901  18.103  39.196  1.00  0.00     0.163 C 
BRANCH  22  23
HETATM   23  C12 UNL     1      39.347  17.904  39.264  1.00  0.00    -0.017 A 
HETATM   24  C13 UNL     1      40.235  18.926  39.405  1.00  0.00     0.011 A 
HETATM   25  C14 UNL     1      41.593  18.625  39.408  1.00  0.00     0.002 A 
HETATM   26  C15 UNL     1      42.089  17.346  39.276  1.00  0.00     0.026 A 
HETATM   27  C16 UNL     1      41.151  16.319  39.132  1.00  0.00     0.056 A 
HETATM   28 CL1  UNL     1      41.732  14.657  38.959  1.00  0.00    -0.083 Cl
HETATM   29  C17 UNL     1      39.823  16.602  39.128  1.00  0.00     0.063 A 
HETATM   30 CL2  UNL     1      38.675  15.282  38.949  1.00  0.00    -0.082 Cl
ENDBRANCH  22  23
ENDBRANCH  20  22
ENDBRANCH  17  20
ENDBRANCH  16  17
BRANCH  16  31
HETATM   31  C18 UNL     1      36.726  19.893  34.938  1.00  0.00     0.092 C 
HETATM   32  S1  UNL     1      36.975  21.522  34.948  1.00  0.00    -0.064 SA
BRANCH  31  33
HETATM   33  C19 UNL     1      36.009  19.377  33.712  1.00  0.00     0.154 C 
HETATM   34 BR1  UNL     1      35.638  20.843  32.471  1.00  0.00    -0.089 Br
ENDBRANCH  31  33
ENDBRANCH  16  31
ENDBRANCH  15  16
ENDBRANCH  14  15
ENDBRANCH  13  14
ENDBRANCH  12  13
ENDBRANCH  11  12
ENDBRANCH  10  11
ENDBRANCH   9  10
ENDBRANCH   7   9
TORSDOF 15
ENDMDL
MODEL 2
REMARK VINA RESULT: -5.026204648      2.868      3.806
REMARK  15 active torsions:
REMARK  status: ('A' for Active; 'I' for Inactive)
REMARK       I    between atoms: C2_5  and  N4_7 
REMARK    1  A    between atoms: N4_7  and  C3_9 
REMARK    2  A    between atoms: C3_9  and  C4_10 
REMARK    3  A    between atoms: C4_10  and  C5_11 
REMARK    4  A    between atoms: C5_11  and  C6_12 
REMARK    5  A    between atoms: C6_12  and  C7_13 
REMARK    6  A    between atoms: C7_13  and  C8_14 
REMARK    7  A    between atoms: C8_14  and  C9_15 
REMARK    8  A    between atoms: C9_15  and  N5_16 
REMARK    9  A    between atoms: N5_16  and  C10_17 
REMARK   10  A    between atoms: N5_16  and  C18_31 
REMARK   11  A    between atoms: C10_17  and  O1_18 
REMARK   12  A    between atoms: C10_17  and  N6_20 
REMARK   13  A    between atoms: N6_20  and  C11_22 
REMARK   14  A    between atoms: C11_22  and  C12_23 
REMARK   15  A    between atoms: C18_31  and  C19_33 
ROOT
HETATM    1  N1  UNL     1      47.284  20.035  35.772  1.00  0.00    -0.172 NA
HETATM    2  C1  UNL     1      46.971  20.815  35.001  1.00  0.00     0.184 C 
HETATM    3  N2  UNL     1      46.609  21.774  34.052  1.00  0.00    -0.268 N 
ATOM      4  H2  UNL     1      47.216  21.891  33.241  1.00  0.00     0.180 HD
HETATM    5  C2  UNL     1      45.583  22.507  34.128  1.00  0.00     0.197 C 
HETATM    6  N3  UNL     1      45.264  23.455  33.151  1.00  0.00    -0.063 NA
HETATM    7  N4  UNL     1      44.689  22.374  35.264  1.00  0.00    -0.364 N 
ATOM      8  H4  UNL     1      44.940  22.694  36.200  1.00  0.00     0.162 HD
ENDROOT
BRANCH   7   9
HETATM    9  C3  UNL     1      43.444  21.768  34.978  1.00  0.00     0.122 C 
BRANCH   9  10
HETATM   10  C4  UNL     1      42.844  20.774  35.878  1.00  0.00     0.020 C 
BRANCH  10  11
HETATM   11  C5  UNL     1      41.948  21.277  36.938  1.00  0.00     0.002 C 
BRANCH  11  12
HETATM   12  C6  UNL     1      40.732  22.018  36.499  1.00  0.00     0.000 C 
BRANCH  12  13
HETATM   13  C7  UNL     1      39.562  21.714  37.435  1.00  0.00     0.002 C 
BRANCH  13  14
HETATM   14  C8  UNL     1      38.356  21.199  36.726  1.00  0.00     0.020 C 
BRANCH  14  15
HETATM   15  C9  UNL     1      38.636  19.848  36.123  1.00  0.00     0.133 C 
BRANCH  15  16
HETATM   16  N5  UNL     1      37.421  18.994  36.301  1.00  0.00    -0.307 N 
BRANCH  16  17
HETATM   17  C10 UNL     1      36.836  18.975  37.564  1.00  0.00     0.220 C 
BRANCH  17  18
HETATM   18  O1  UNL     1      35.567  19.313  37.648  1.00  0.00    -0.332 OA
ATOM     19  H1  UNL     1      35.241  19.950  37.022  1.00  0.00     0.220 HD
ENDBRANCH  17  18
BRANCH  17  20
HETATM   20  N6  UNL     1      37.418  18.644  38.776  1.00  0.00    -0.352 N 
ATOM     21  H6  UNL     1      37.422  19.305  39.554  1.00  0.00     0.163 HD
BRANCH  20  22
HETATM   22  C11 UNL     1      38.032  17.310  38.914  1.00  0.00     0.163 C 
BRANCH  22  23
HETATM   23  C12 UNL     1      39.470  17.416  39.151  1.00  0.00    -0.017 A 
HETATM   24  C13 UNL     1      40.105  18.600  39.370  1.00  0.00     0.011 A 
HETATM   25  C14 UNL     1      41.486  18.587  39.535  1.00  0.00     0.002 A 
HETATM   26  C15 UNL     1      42.248  17.440  39.489  1.00  0.00     0.026 A 
HETATM   27  C16 UNL     1      41.565  16.240  39.262  1.00  0.00     0.056 A 
HETATM   28 CL1  UNL     1      42.493  14.736  39.194  1.00  0.00    -0.083 Cl
HETATM   29  C17 UNL     1      40.217  16.241  39.099  1.00  0.00     0.063 A 
HETATM   30 CL2  UNL     1      39.396  14.712  38.820  1.00  0.00    -0.082 Cl
ENDBRANCH  22  23
ENDBRANCH  20  22
ENDBRANCH  17  20
ENDBRANCH  16  17
BRANCH  16  31
HETATM   31  C18 UNL     1      36.982  18.353  35.152  1.00  0.00     0.092 C 
HETATM   32  S1  UNL     1      36.222  19.147  33.925  1.00  0.00    -0.064 SA
BRANCH  31  33
HETATM   33  C19 UNL     1      37.104  16.860  34.952  1.00  0.00     0.154 C 
HETATM   34 BR1  UNL     1      35.551  15.942  35.709  1.00  0.00    -0.089 Br
ENDBRANCH  31  33
ENDBRANCH  16  31
ENDBRANCH  15  16
ENDBRANCH  14  15
ENDBRANCH  13  14
ENDBRANCH  12  13
ENDBRANCH  11  12
ENDBRANCH  10  11
ENDBRANCH   9  10
ENDBRANCH   7   9
TORSDOF 15
ENDMDL
MODEL 3
REMARK VINA RESULT: -5.020367128      3.950      5.596
REMARK  15 active torsions:
REMARK  status: ('A' for Active; 'I' for Inactive)
REMARK       I    between atoms: C2_5  and  N4_7 
REMARK    1  A    between atoms: N4_7  and  C3_9 
REMARK    2  A    between atoms: C3_9  and  C4_10 
REMARK    3  A    between atoms: C4_10  and  C5_11 
REMARK    4  A    between atoms: C5_11  and  C6_12 
REMARK    5  A    between atoms: C6_12  and  C7_13 
REMARK    6  A    between atoms: C7_13  and  C8_14 
REMARK    7  A    between atoms: C8_14  and  C9_15 
REMARK    8  A    between atoms: C9_15  and  N5_16 
REMARK    9  A    between atoms: N5_16  and  C10_17 
REMARK   10  A    between atoms: N5_16  and  C18_31 
REMARK   11  A    between atoms: C10_17  and  O1_18 
REMARK   12  A    between atoms: C10_17  and  N6_20 
REMARK   13  A    between atoms: N6_20  and  C11_22 
REMARK   14  A    between atoms: C11_22  and  C12_23 
REMARK   15  A    between atoms: C18_31  and  C19_33 
ROOT
HETATM    1  N1  UNL     1      40.323  25.266  38.618  1.00  0.00    -0.172 NA
HETATM    2  C1  UNL     1      40.823  24.242  38.610  1.00  0.00     0.184 C 
HETATM    3  N2  UNL     1      41.453  22.995  38.610  1.00  0.00    -0.268 N 
ATOM      4  H2  UNL     1      42.063  22.772  39.396  1.00  0.00     0.180 HD
HETATM    5  C2  UNL     1      41.320  22.123  37.705  1.00  0.00     0.197 C 
HETATM    6  N3  UNL     1      41.974  20.888  37.751  1.00  0.00    -0.063 NA
HETATM    7  N4  UNL     1      40.459  22.396  36.568  1.00  0.00    -0.364 N 
ATOM      8  H4  UNL     1      40.711  23.061  35.837  1.00  0.00     0.162 HD
ENDROOT
BRANCH   7   9
HETATM    9  C3  UNL     1      39.246  21.670  36.548  1.00  0.00     0.122 C 
BRANCH   9  10
HETATM   10  C4  UNL     1      38.244  21.871  35.494  1.00  0.00     0.020 C 
BRANCH  10  11
HETATM   11  C5  UNL     1      37.218  20.822  35.329  1.00  0.00     0.002 C 
BRANCH  11  12
HETATM   12  C6  UNL     1      37.676  19.504  34.808  1.00  0.00     0.000 C 
BRANCH  12  13
HETATM   13  C7  UNL     1      36.784  18.384  35.344  1.00  0.00     0.002 C 
BRANCH  13  14
HETATM   14  C8  UNL     1      37.541  17.312  36.050  1.00  0.00     0.020 C 
BRANCH  14  15
HETATM   15  C9  UNL     1      38.773  17.879  36.704  1.00  0.00     0.133 C 
BRANCH  15  16
HETATM   16  N5  UNL     1      38.653  17.684  38.182  1.00  0.00    -0.307 N 
BRANCH  16  17
HETATM   17  C10 UNL     1      37.552  18.259  38.812  1.00  0.00     0.220 C 
BRANCH  17  18
HETATM   18  O1  UNL     1      37.404  19.562  38.703  1.00  0.00    -0.332 OA
ATOM     19  H1  UNL     1      37.318  20.060  39.508  1.00  0.00     0.220 HD
ENDBRANCH  17  18
BRANCH  17  20
HETATM   20  N6  UNL     1      36.566  17.635  39.558  1.00  0.00    -0.352 N 
ATOM     21  H6  UNL     1      36.359  16.644  39.429  1.00  0.00     0.163 HD
BRANCH  20  22
HETATM   22  C11 UNL     1      35.822  18.442  40.544  1.00  0.00     0.163 C 
BRANCH  22  23
HETATM   23  C12 UNL     1      34.400  18.109  40.528  1.00  0.00    -0.017 A 
HETATM   24  C13 UNL     1      33.512  18.671  39.662  1.00  0.00     0.011 A 
HETATM   25  C14 UNL     1      32.171  18.316  39.769  1.00  0.00     0.002 A 
HETATM   26  C15 UNL     1      31.692  17.426  40.705  1.00  0.00     0.026 A 
HETATM   27  C16 UNL     1      32.629  16.867  41.580  1.00  0.00     0.056 A 
HETATM   28 CL1  UNL     1      32.069  15.718  42.803  1.00  0.00    -0.083 Cl
HETATM   29  C17 UNL     1      33.941  17.207  41.484  1.00  0.00     0.063 A 
HETATM   30 CL2  UNL     1      35.088  16.480  42.600  1.00  0.00    -0.082 Cl
ENDBRANCH  22  23
ENDBRANCH  20  22
ENDBRANCH  17  20
ENDBRANCH  16  17
BRANCH  16  31
HETATM   31  C18 UNL     1      39.640  16.895  38.751  1.00  0.00     0.092 C 
HETATM   32  S1  UNL     1      39.528  15.253  38.841  1.00  0.00    -0.064 SA
BRANCH  31  33
HETATM   33  C19 UNL     1      40.878  17.474  39.398  1.00  0.00     0.154 C 
HETATM   34 BR1  UNL     1      42.272  16.109  39.546  1.00  0.00    -0.089 Br
ENDBRANCH  31  33
ENDBRANCH  16  31
ENDBRANCH  15  16
ENDBRANCH  14  15
ENDBRANCH  13  14
ENDBRANCH  12  13
ENDBRANCH  11  12
ENDBRANCH  10  11
ENDBRANCH   9  10
ENDBRANCH   7   9
TORSDOF 15
ENDMDL
MODEL 4
REMARK VINA RESULT: -5.003493194      3.536      4.614
REMARK  15 active torsions:
REMARK  status: ('A' for Active; 'I' for Inactive)
REMARK       I    between atoms: C2_5  and  N4_7 
REMARK    1  A    between atoms: N4_7  and  C3_9 
REMARK    2  A    between atoms: C3_9  and  C4_10 
REMARK    3  A    between atoms: C4_10  and  C5_11 
REMARK    4  A    between atoms: C5_11  and  C6_12 
REMARK    5  A    between atoms: C6_12  and  C7_13 
REMARK    6  A    between atoms: C7_13  and  C8_14 
REMARK    7  A    between atoms: C8_14  and  C9_15 
REMARK    8  A    between atoms: C9_15  and  N5_16 
REMARK    9  A    between atoms: N5_16  and  C10_17 
REMARK   10  A    between atoms: N5_16  and  C18_31 
REMARK   11  A    between atoms: C10_17  and  O1_18 
REMARK   12  A    between atoms: C10_17  and  N6_20 
REMARK   13  A    between atoms: N6_20  and  C11_22 
REMARK   14  A    between atoms: C11_22  and  C12_23 
REMARK   15  A    between atoms: C18_31  and  C19_33 
ROOT
HETATM    1  N1  UNL     1      44.567  23.080  35.023  1.00  0.00    -0.172 NA
HETATM    2  C1  UNL     1      45.391  22.605  34.395  1.00  0.00     0.184 C 
HETATM    3  N2  UNL     1      46.402  22.041  33.613  1.00  0.00    -0.268 N 
ATOM      4  H2  UNL     1      47.087  22.672  33.197  1.00  0.00     0.180 HD
HETATM    5  C2  UNL     1      46.529  20.806  33.386  1.00  0.00     0.197 C 
HETATM    6  N3  UNL     1      47.560  20.290  32.594  1.00  0.00    -0.063 NA
HETATM    7  N4  UNL     1      45.580  19.869  33.961  1.00  0.00    -0.364 N 
ATOM      8  H4  UNL     1      44.618  19.793  33.631  1.00  0.00     0.162 HD
ENDROOT
BRANCH   7   9
HETATM    9  C3  UNL     1      46.087  19.072  35.012  1.00  0.00     0.122 C 
BRANCH   9  10
HETATM   10  C4  UNL     1      45.984  17.608  34.989  1.00  0.00     0.020 C 
BRANCH  10  11
HETATM   11  C5  UNL     1      44.674  17.029  34.629  1.00  0.00     0.002 C 
BRANCH  11  12
HETATM   12  C6  UNL     1      43.855  16.465  35.738  1.00  0.00     0.000 C 
BRANCH  12  13
HETATM   13  C7  UNL     1      43.190  17.591  36.530  1.00  0.00     0.002 C 
BRANCH  13  14
HETATM   14  C8  UNL     1      41.949  18.111  35.889  1.00  0.00     0.020 C 
BRANCH  14  15
HETATM   15  C9  UNL     1      41.999  19.612  35.784  1.00  0.00     0.133 C 
BRANCH  15  16
HETATM   16  N5  UNL     1      40.998  20.183  36.738  1.00  0.00    -0.307 N 
BRANCH  16  17
HETATM   17  C10 UNL     1      41.445  20.490  38.020  1.00  0.00     0.220 C 
BRANCH  17  18
HETATM   18  O1  UNL     1      41.867  21.718  38.235  1.00  0.00    -0.332 OA
ATOM     19  H1  UNL     1      41.778  22.063  39.117  1.00  0.00     0.220 HD
ENDBRANCH  17  18
BRANCH  17  20
HETATM   20  N6  UNL     1      41.512  19.663  39.129  1.00  0.00    -0.352 N 
ATOM     21  H6  UNL     1      42.282  19.739  39.794  1.00  0.00     0.163 HD
BRANCH  20  22
HETATM   22  C11 UNL     1      40.438  18.670  39.324  1.00  0.00     0.163 C 
BRANCH  22  23
HETATM   23  C12 UNL     1      40.970  17.310  39.296  1.00  0.00    -0.017 A 
HETATM   24  C13 UNL     1      42.164  16.964  39.851  1.00  0.00     0.011 A 
HETATM   25  C14 UNL     1      42.595  15.648  39.722  1.00  0.00     0.002 A 
HETATM   26  C15 UNL     1      41.879  14.674  39.061  1.00  0.00     0.026 A 
HETATM   27  C16 UNL     1      40.657  15.062  38.502  1.00  0.00     0.056 A 
HETATM   28 CL1  UNL     1      39.695  13.852  37.642  1.00  0.00    -0.083 Cl
HETATM   29  C17 UNL     1      40.226  16.344  38.622  1.00  0.00     0.063 A 
HETATM   30 CL2  UNL     1      38.684  16.791  37.909  1.00  0.00    -0.082 Cl
ENDBRANCH  22  23
ENDBRANCH  20  22
ENDBRANCH  17  20
ENDBRANCH  16  17
BRANCH  16  31
HETATM   31  C18 UNL     1      39.735  20.391  36.206  1.00  0.00     0.092 C 
HETATM   32  S1  UNL     1      39.448  20.439  34.584  1.00  0.00    -0.064 SA
BRANCH  31  33
HETATM   33  C19 UNL     1      38.520  20.660  37.065  1.00  0.00     0.154 C 
HETATM   34 BR1  UNL     1      36.887  20.157  36.113  1.00  0.00    -0.089 Br
ENDBRANCH  31  33
ENDBRANCH  16  31
ENDBRANCH  15  16
ENDBRANCH  14  15
ENDBRANCH  13  14
ENDBRANCH  12  13
ENDBRANCH  11  12
ENDBRANCH  10  11
ENDBRANCH   9  10
ENDBRANCH   7   9
TORSDOF 15
ENDMDL
MODEL 5
REMARK VINA RESULT: -4.983300962      3.852      5.276
REMARK  15 active torsions:
REMARK  status: ('A' for Active; 'I' for Inactive)
REMARK       I    between atoms: C2_5  and  N4_7 
REMARK    1  A    between atoms: N4_7  and  C3_9 
REMARK    2  A    between atoms: C3_9  and  C4_10 
REMARK    3  A    between atoms: C4_10  and  C5_11 
REMARK    4  A    between atoms: C5_11  and  C6_12 
REMARK    5  A    between atoms: C6_12  and  C7_13 
REMARK    6  A    between atoms: C7_13  and  C8_14 
REMARK    7  A    between atoms: C8_14  and  C9_15 
REMARK    8  A    between atoms: C9_15  and  N5_16 
REMARK    9  A    between atoms: N5_16  and  C10_17 
REMARK   10  A    between atoms: N5_16  and  C18_31 
REMARK   11  A    between atoms: C10_17  and  O1_18 
REMARK   12  A    between atoms: C10_17  and  N6_20 
REMARK   13  A    between atoms: N6_20  and  C11_22 
REMARK   14  A    between atoms: C11_22  and  C12_23 
REMARK   15  A    between atoms: C18_31  and  C19_33 
ROOT
HETATM    1  N1  UNL     1      41.938  25.205  38.770  1.00  0.00    -0.172 NA
HETATM    2  C1  UNL     1      41.257  24.681  38.021  1.00  0.00     0.184 C 
HETATM    3  N2  UNL     1      40.410  24.057  37.103  1.00  0.00    -0.268 N 
ATOM      4  H2  UNL     1      39.950  24.644  36.407  1.00  0.00     0.180 HD
HETATM    5  C2  UNL     1      40.172  22.817  37.074  1.00  0.00     0.197 C 
HETATM    6  N3  UNL     1      39.313  22.239  36.133  1.00  0.00    -0.063 NA
HETATM    7  N4  UNL     1      40.806  21.942  38.044  1.00  0.00    -0.364 N 
ATOM      8  H4  UNL     1      40.539  21.931  39.028  1.00  0.00     0.162 HD
ENDROOT
BRANCH   7   9
HETATM    9  C3  UNL     1      41.820  21.106  37.523  1.00  0.00     0.122 C 
BRANCH   9  10
HETATM   10  C4  UNL     1      41.766  19.646  37.669  1.00  0.00     0.020 C 
BRANCH  10  11
HETATM   11  C5  UNL     1      40.893  19.104  38.729  1.00  0.00     0.002 C 
BRANCH  11  12
HETATM   12  C6  UNL     1      41.563  18.463  39.895  1.00  0.00     0.000 C 
BRANCH  12  13
HETATM   13  C7  UNL     1      42.081  17.077  39.510  1.00  0.00     0.002 C 
BRANCH  13  14
HETATM   14  C8  UNL     1      40.999  16.064  39.355  1.00  0.00     0.020 C 
BRANCH  14  15
HETATM   15  C9  UNL     1      41.580  14.722  38.998  1.00  0.00     0.133 C 
BRANCH  15  16
HETATM   16  N5  UNL     1      40.453  13.759  38.798  1.00  0.00    -0.307 N 
BRANCH  16  17
HETATM   17  C10 UNL     1      39.558  13.600  39.852  1.00  0.00     0.220 C 
BRANCH  17  18
HETATM   18  O1  UNL     1      40.021  13.068  40.964  1.00  0.00    -0.332 OA
ATOM     19  H1  UNL     1      39.396  12.895  41.659  1.00  0.00     0.220 HD
ENDBRANCH  17  18
BRANCH  17  20
HETATM   20  N6  UNL     1      38.213  13.928  39.896  1.00  0.00    -0.352 N 
ATOM     21  H6  UNL     1      37.629  13.641  40.682  1.00  0.00     0.163 HD
BRANCH  20  22
HETATM   22  C11 UNL     1      37.648  14.705  38.777  1.00  0.00     0.163 C 
BRANCH  22  23
HETATM   23  C12 UNL     1      37.174  16.010  39.230  1.00  0.00    -0.017 A 
HETATM   24  C13 UNL     1      36.380  16.177  40.323  1.00  0.00     0.011 A 
HETATM   25  C14 UNL     1      35.947  17.462  40.634  1.00  0.00     0.002 A 
HETATM   26  C15 UNL     1      36.279  18.577  39.895  1.00  0.00     0.026 A 
HETATM   27  C16 UNL     1      37.095  18.371  38.778  1.00  0.00     0.056 A 
HETATM   28 CL1  UNL     1      37.552  19.767  37.793  1.00  0.00    -0.083 Cl
HETATM   29  C17 UNL     1      37.523  17.121  38.465  1.00  0.00     0.063 A 
HETATM   30 CL2  UNL     1      38.551  16.905  37.056  1.00  0.00    -0.082 Cl
ENDBRANCH  22  23
ENDBRANCH  20  22
ENDBRANCH  17  20
ENDBRANCH  16  17
BRANCH  16  31
HETATM   31  C18 UNL     1      40.401  13.171  37.544  1.00  0.00     0.092 C 
HETATM   32  S1  UNL     1      40.729  13.999  36.157  1.00  0.00    -0.064 SA
BRANCH  31  33
HETATM   33  C19 UNL     1      39.975  11.736  37.330  1.00  0.00     0.154 C 
HETATM   34 BR1  UNL     1      38.189  11.666  36.536  1.00  0.00    -0.089 Br
ENDBRANCH  31  33
ENDBRANCH  16  31
ENDBRANCH  15  16
ENDBRANCH  14  15
ENDBRANCH  13  14
ENDBRANCH  12  13
ENDBRANCH  11  12
ENDBRANCH  10  11
ENDBRANCH   9  10
ENDBRANCH   7   9
TORSDOF 15
ENDMDL
