MODEL 1
REMARK VINA RESULT: -8.361837962      0.000      0.000
REMARK  3 active torsions:
REMARK  status: ('A' for Active; 'I' for Inactive)
REMARK    1  A    between atoms: C1_2  and  C2_4 
REMARK       I    between atoms: N1_7  and  C5_8 
REMARK    2  A    between atoms: C5_8  and  C6_10 
REMARK    3  A    between atoms: C6_10  and  N2_11 
ROOT
HETATM    1  N2  UNL     1      -3.366   2.752  11.381  1.00  0.00    -0.287 N 
HETATM    2  N3  UNL     1      -2.457   1.846  10.931  1.00  0.00    -0.309 N 
ATOM      3  H3  UNL     1      -2.640   0.851  10.809  1.00  0.00     0.186 HD
HETATM    4  C7  UNL     1      -1.302   2.438  10.673  1.00  0.00     0.116 A 
HETATM    5  C8  UNL     1      -1.497   3.775  10.974  1.00  0.00    -0.016 A 
HETATM    6  C9  UNL     1      -2.817   3.976  11.423  1.00  0.00     0.045 A 
HETATM    7  C10 UNL     1      -3.399   5.268  11.753  1.00  0.00     0.008 C 
HETATM    8  C11 UNL     1      -2.406   6.389  11.416  1.00  0.00     0.016 C 
HETATM    9  C12 UNL     1      -1.179   6.528  12.167  1.00  0.00     0.001 C 
HETATM   10  C13 UNL     1      -0.104   5.532  12.028  1.00  0.00     0.005 C 
HETATM   11  C14 UNL     1      -0.358   4.704  10.789  1.00  0.00     0.042 C 
HETATM   12  C15 UNL     1      -4.503   5.661  10.732  1.00  0.00     0.042 C 
HETATM   13  C16 UNL     1      -5.108   6.978  11.016  1.00  0.00     0.168 C 
HETATM   14  O4  UNL     1      -5.281   7.347  12.298  1.00  0.00    -0.391 OA
HETATM   15  C17 UNL     1      -4.358   6.966  13.226  1.00  0.00     0.168 C 
HETATM   16  C18 UNL     1      -4.064   5.486  13.040  1.00  0.00     0.042 C 
ENDROOT
BRANCH   1  17
HETATM   17  C6  UNL     1      -4.654   2.335  11.804  1.00  0.00     0.251 C 
BRANCH  17  18
HETATM   18  C5  UNL     1      -4.542   1.094  12.634  1.00  0.00     0.241 C 
HETATM   19  N1  UNL     1      -4.241   1.129  14.026  1.00  0.00    -0.329 N 
HETATM   20  C4  UNL     1      -3.988   2.300  14.811  1.00  0.00     0.131 C 
HETATM   21  C19 UNL     1      -4.180  -0.138  14.731  1.00  0.00     0.297 C 
HETATM   22  C3  UNL     1      -4.443   1.979  16.225  1.00  0.00     0.063 C 
HETATM   23  C2  UNL     1      -5.604   1.020  16.130  1.00  0.00     0.225 C 
HETATM   24  O5  UNL     1      -5.228  -0.216  15.627  1.00  0.00    -0.356 OA
HETATM   25  O3  UNL     1      -4.721  -0.009  12.069  1.00  0.00    -0.271 OA
BRANCH  23  26
HETATM   26  C1  UNL     1      -6.216   0.785  17.474  1.00  0.00     0.203 C 
HETATM   27  O1  UNL     1      -5.533   0.433  18.482  1.00  0.00    -0.646 OA
HETATM   28  O2  UNL     1      -7.574   0.938  17.698  1.00  0.00    -0.646 OA
ENDBRANCH  23  26
ENDBRANCH  17  18
ENDBRANCH   1  17
TORSDOF 3
ENDMDL
MODEL 2
REMARK VINA RESULT: -8.336786994      0.950      1.130
REMARK  3 active torsions:
REMARK  status: ('A' for Active; 'I' for Inactive)
REMARK    1  A    between atoms: C1_2  and  C2_4 
REMARK       I    between atoms: N1_7  and  C5_8 
REMARK    2  A    between atoms: C5_8  and  C6_10 
REMARK    3  A    between atoms: C6_10  and  N2_11 
ROOT
HETATM    1  N2  UNL     1      -3.391   2.270  11.100  1.00  0.00    -0.287 N 
HETATM    2  N3  UNL     1      -2.362   1.384  11.026  1.00  0.00    -0.309 N 
ATOM      3  H3  UNL     1      -2.423   0.399  11.281  1.00  0.00     0.186 HD
HETATM    4  C7  UNL     1      -1.270   1.980  10.576  1.00  0.00     0.116 A 
HETATM    5  C8  UNL     1      -1.631   3.297  10.356  1.00  0.00    -0.016 A 
HETATM    6  C9  UNL     1      -2.988   3.482  10.688  1.00  0.00     0.045 A 
HETATM    7  C10 UNL     1      -3.730   4.720  10.509  1.00  0.00     0.008 C 
HETATM    8  C11 UNL     1      -2.854   5.753   9.787  1.00  0.00     0.016 C 
HETATM    9  C12 UNL     1      -1.694   6.313  10.441  1.00  0.00     0.001 C 
HETATM   10  C13 UNL     1      -0.506   5.479  10.692  1.00  0.00     0.005 C 
HETATM   11  C14 UNL     1      -0.597   4.229   9.847  1.00  0.00     0.042 C 
HETATM   12  C15 UNL     1      -4.815   4.567   9.406  1.00  0.00     0.042 C 
HETATM   13  C16 UNL     1      -5.581   5.809   9.176  1.00  0.00     0.168 C 
HETATM   14  O4  UNL     1      -5.864   6.599  10.227  1.00  0.00    -0.391 OA
HETATM   15  C17 UNL     1      -4.954   6.706  11.238  1.00  0.00     0.168 C 
HETATM   16  C18 UNL     1      -4.484   5.311  11.618  1.00  0.00     0.042 C 
ENDROOT
BRANCH   1  17
HETATM   17  C6  UNL     1      -4.643   1.879  11.638  1.00  0.00     0.251 C 
BRANCH  17  18
HETATM   18  C5  UNL     1      -4.457   0.744  12.597  1.00  0.00     0.241 C 
HETATM   19  N1  UNL     1      -4.208   0.948  13.984  1.00  0.00    -0.329 N 
HETATM   20  C4  UNL     1      -4.082   2.211  14.647  1.00  0.00     0.131 C 
HETATM   21  C19 UNL     1      -4.065  -0.229  14.820  1.00  0.00     0.297 C 
HETATM   22  C3  UNL     1      -4.558   1.998  16.076  1.00  0.00     0.063 C 
HETATM   23  C2  UNL     1      -5.630   0.937  16.052  1.00  0.00     0.225 C 
HETATM   24  O5  UNL     1      -5.134  -0.306  15.692  1.00  0.00    -0.356 OA
HETATM   25  O3  UNL     1      -4.523  -0.422  12.146  1.00  0.00    -0.271 OA
BRANCH  23  26
HETATM   26  C1  UNL     1      -6.267   0.789  17.397  1.00  0.00     0.203 C 
HETATM   27  O1  UNL     1      -5.612   0.447  18.427  1.00  0.00    -0.646 OA
HETATM   28  O2  UNL     1      -7.618   1.018  17.598  1.00  0.00    -0.646 OA
ENDBRANCH  23  26
ENDBRANCH  17  18
ENDBRANCH   1  17
TORSDOF 3
ENDMDL
MODEL 3
REMARK VINA RESULT: -8.039612121      2.836      4.628
REMARK  3 active torsions:
REMARK  status: ('A' for Active; 'I' for Inactive)
REMARK    1  A    between atoms: C1_2  and  C2_4 
REMARK       I    between atoms: N1_7  and  C5_8 
REMARK    2  A    between atoms: C5_8  and  C6_10 
REMARK    3  A    between atoms: C6_10  and  N2_11 
ROOT
HETATM    1  N2  UNL     1      -4.694   7.285  12.373  1.00  0.00    -0.287 N 
HETATM    2  N3  UNL     1      -3.579   7.703  13.030  1.00  0.00    -0.309 N 
ATOM      3  H3  UNL     1      -3.143   7.210  13.809  1.00  0.00     0.186 HD
HETATM    4  C7  UNL     1      -3.140   8.841  12.518  1.00  0.00     0.116 A 
HETATM    5  C8  UNL     1      -4.016   9.148  11.492  1.00  0.00    -0.016 A 
HETATM    6  C9  UNL     1      -5.009   8.152  11.398  1.00  0.00     0.045 A 
HETATM    7  C10 UNL     1      -6.050   8.104  10.384  1.00  0.00     0.008 C 
HETATM    8  C11 UNL     1      -5.831   9.225   9.358  1.00  0.00     0.016 C 
HETATM    9  C12 UNL     1      -5.993  10.609   9.742  1.00  0.00     0.001 C 
HETATM   10  C13 UNL     1      -5.026  11.248  10.649  1.00  0.00     0.005 C 
HETATM   11  C14 UNL     1      -3.782  10.393  10.723  1.00  0.00     0.042 C 
HETATM   12  C15 UNL     1      -5.838   6.903   9.420  1.00  0.00     0.042 C 
HETATM   13  C16 UNL     1      -6.863   6.828   8.359  1.00  0.00     0.168 C 
HETATM   14  O4  UNL     1      -8.128   7.177   8.656  1.00  0.00    -0.391 OA
HETATM   15  C17 UNL     1      -8.344   8.189   9.544  1.00  0.00     0.168 C 
HETATM   16  C18 UNL     1      -7.459   7.966  10.760  1.00  0.00     0.042 C 
ENDROOT
BRANCH   1  17
HETATM   17  C6  UNL     1      -5.395   6.130  12.802  1.00  0.00     0.251 C 
BRANCH  17  18
HETATM   18  C5  UNL     1      -4.628   4.898  12.430  1.00  0.00     0.241 C 
HETATM   19  N1  UNL     1      -3.878   4.148  13.380  1.00  0.00    -0.329 N 
HETATM   20  C4  UNL     1      -3.727   4.450  14.772  1.00  0.00     0.131 C 
HETATM   21  C19 UNL     1      -3.193   2.960  12.907  1.00  0.00     0.297 C 
HETATM   22  C3  UNL     1      -3.531   3.121  15.484  1.00  0.00     0.063 C 
HETATM   23  C2  UNL     1      -4.305   2.072  14.724  1.00  0.00     0.225 C 
HETATM   24  O5  UNL     1      -3.779   1.839  13.462  1.00  0.00    -0.356 OA
HETATM   25  O3  UNL     1      -4.657   4.528  11.234  1.00  0.00    -0.271 OA
BRANCH  23  26
HETATM   26  C1  UNL     1      -4.299   0.767  15.455  1.00  0.00     0.203 C 
HETATM   27  O1  UNL     1      -3.743   0.622  16.585  1.00  0.00    -0.646 OA
HETATM   28  O2  UNL     1      -4.903  -0.366  14.937  1.00  0.00    -0.646 OA
ENDBRANCH  23  26
ENDBRANCH  17  18
ENDBRANCH   1  17
TORSDOF 3
ENDMDL
MODEL 4
REMARK VINA RESULT: -7.875960391      2.590      5.856
REMARK  3 active torsions:
REMARK  status: ('A' for Active; 'I' for Inactive)
REMARK    1  A    between atoms: C1_2  and  C2_4 
REMARK       I    between atoms: N1_7  and  C5_8 
REMARK    2  A    between atoms: C5_8  and  C6_10 
REMARK    3  A    between atoms: C6_10  and  N2_11 
ROOT
HETATM    1  N2  UNL     1      -3.961   2.136  14.349  1.00  0.00    -0.287 N 
HETATM    2  N3  UNL     1      -4.363   1.153  15.199  1.00  0.00    -0.309 N 
ATOM      3  H3  UNL     1      -4.548   1.283  16.193  1.00  0.00     0.186 HD
HETATM    4  C7  UNL     1      -4.481   0.004  14.554  1.00  0.00     0.116 A 
HETATM    5  C8  UNL     1      -4.141   0.280  13.241  1.00  0.00    -0.016 A 
HETATM    6  C9  UNL     1      -3.810   1.643  13.109  1.00  0.00     0.045 A 
HETATM    7  C10 UNL     1      -3.479   2.305  11.858  1.00  0.00     0.008 C 
HETATM    8  C11 UNL     1      -3.669   1.330  10.687  1.00  0.00     0.016 C 
HETATM    9  C12 UNL     1      -2.798   0.186  10.541  1.00  0.00     0.001 C 
HETATM   10  C13 UNL     1      -2.878  -0.937  11.490  1.00  0.00     0.005 C 
HETATM   11  C14 UNL     1      -4.172  -0.834  12.264  1.00  0.00     0.042 C 
HETATM   12  C15 UNL     1      -4.583   3.323  11.454  1.00  0.00     0.042 C 
HETATM   13  C16 UNL     1      -4.298   4.005  10.175  1.00  0.00     0.168 C 
HETATM   14  O4  UNL     1      -3.023   4.312   9.876  1.00  0.00    -0.391 OA
HETATM   15  C17 UNL     1      -2.029   3.465  10.270  1.00  0.00     0.168 C 
HETATM   16  C18 UNL     1      -2.253   3.096  11.727  1.00  0.00     0.042 C 
ENDROOT
BRANCH   1  17
HETATM   17  C6  UNL     1      -3.683   3.440  14.832  1.00  0.00     0.251 C 
BRANCH  17  18
HETATM   18  C5  UNL     1      -4.944   4.245  14.887  1.00  0.00     0.241 C 
HETATM   19  N1  UNL     1      -5.023   5.577  14.390  1.00  0.00    -0.329 N 
HETATM   20  C4  UNL     1      -3.954   6.330  13.806  1.00  0.00     0.131 C 
HETATM   21  C19 UNL     1      -6.305   6.252  14.478  1.00  0.00     0.297 C 
HETATM   22  C3  UNL     1      -4.593   7.288  12.812  1.00  0.00     0.063 C 
HETATM   23  C2  UNL     1      -5.823   6.618  12.251  1.00  0.00     0.225 C 
HETATM   24  O5  UNL     1      -6.811   6.444  13.207  1.00  0.00    -0.356 OA
HETATM   25  O3  UNL     1      -5.958   3.714  15.394  1.00  0.00    -0.271 OA
BRANCH  23  26
HETATM   26  C1  UNL     1      -6.415   7.429  11.143  1.00  0.00     0.203 C 
HETATM   27  O1  UNL     1      -6.564   8.685  11.222  1.00  0.00    -0.646 OA
HETATM   28  O2  UNL     1      -6.839   6.851   9.957  1.00  0.00    -0.646 OA
ENDBRANCH  23  26
ENDBRANCH  17  18
ENDBRANCH   1  17
TORSDOF 3
ENDMDL
MODEL 5
REMARK VINA RESULT: -7.709152856      2.337      4.189
REMARK  3 active torsions:
REMARK  status: ('A' for Active; 'I' for Inactive)
REMARK    1  A    between atoms: C1_2  and  C2_4 
REMARK       I    between atoms: N1_7  and  C5_8 
REMARK    2  A    between atoms: C5_8  and  C6_10 
REMARK    3  A    between atoms: C6_10  and  N2_11 
ROOT
HETATM    1  N2  UNL     1      -5.039   5.993  12.985  1.00  0.00    -0.287 N 
HETATM    2  N3  UNL     1      -6.124   5.717  13.758  1.00  0.00    -0.309 N 
ATOM      3  H3  UNL     1      -6.148   5.016  14.498  1.00  0.00     0.186 HD
HETATM    4  C7  UNL     1      -7.144   6.485  13.414  1.00  0.00     0.116 A 
HETATM    5  C8  UNL     1      -6.678   7.280  12.382  1.00  0.00    -0.016 A 
HETATM    6  C9  UNL     1      -5.332   6.967  12.109  1.00  0.00     0.045 A 
HETATM    7  C10 UNL     1      -4.494   7.656  11.141  1.00  0.00     0.008 C 
HETATM    8  C11 UNL     1      -5.253   8.855  10.554  1.00  0.00     0.016 C 
HETATM    9  C12 UNL     1      -6.404   8.647   9.706  1.00  0.00     0.001 C 
HETATM   10  C13 UNL     1      -7.660   8.126  10.270  1.00  0.00     0.005 C 
HETATM   11  C14 UNL     1      -7.614   8.256  11.776  1.00  0.00     0.042 C 
HETATM   12  C15 UNL     1      -3.365   8.457  11.847  1.00  0.00     0.042 C 
HETATM   13  C16 UNL     1      -2.500   9.192  10.901  1.00  0.00     0.168 C 
HETATM   14  O4  UNL     1      -2.219   8.629   9.712  1.00  0.00    -0.391 OA
HETATM   15  C17 UNL     1      -3.172   7.872   9.096  1.00  0.00     0.168 C 
HETATM   16  C18 UNL     1      -3.761   6.910  10.115  1.00  0.00     0.042 C 
ENDROOT
BRANCH   1  17
HETATM   17  C6  UNL     1      -3.849   5.232  13.112  1.00  0.00     0.251 C 
BRANCH  17  18
HETATM   18  C5  UNL     1      -4.158   3.773  12.983  1.00  0.00     0.241 C 
HETATM   19  N1  UNL     1      -3.874   2.837  14.018  1.00  0.00    -0.329 N 
HETATM   20  C4  UNL     1      -3.257   3.125  15.278  1.00  0.00     0.131 C 
HETATM   21  C19 UNL     1      -4.238   1.451  13.788  1.00  0.00     0.297 C 
HETATM   22  C3  UNL     1      -3.805   2.110  16.269  1.00  0.00     0.063 C 
HETATM   23  C2  UNL     1      -5.216   1.773  15.853  1.00  0.00     0.225 C 
HETATM   24  O5  UNL     1      -5.262   1.096  14.644  1.00  0.00    -0.356 OA
HETATM   25  O3  UNL     1      -4.685   3.376  11.918  1.00  0.00    -0.271 OA
BRANCH  23  26
HETATM   26  C1  UNL     1      -5.882   0.907  16.874  1.00  0.00     0.203 C 
HETATM   27  O1  UNL     1      -5.282   0.487  17.908  1.00  0.00    -0.646 OA
HETATM   28  O2  UNL     1      -7.203   0.510  16.748  1.00  0.00    -0.646 OA
ENDBRANCH  23  26
ENDBRANCH  17  18
ENDBRANCH   1  17
TORSDOF 3
ENDMDL
