MODEL 1
REMARK VINA RESULT: -6.948899828      0.000      0.000
REMARK  6 active torsions:
REMARK  status: ('A' for Active; 'I' for Inactive)
REMARK    1  A    between atoms: O1_2  and  C2_3 
REMARK    2  A    between atoms: C2_3  and  C3_5 
REMARK    3  A    between atoms: C6_8  and  C18_22 
REMARK    4  A    between atoms: C8_10  and  O3_11 
REMARK    5  A    between atoms: C20_25  and  C21_26 
REMARK    6  A    between atoms: C21_26  and  O5_27 
ROOT
HETATM    1  C3  UNL     1      -2.831   3.453  12.318  1.00  0.00     0.098 C 
HETATM    2  C4  UNL     1      -2.827   3.582  13.781  1.00  0.00     0.043 C 
HETATM    3  C5  UNL     1      -2.713   4.884  14.466  1.00  0.00     0.015 C 
HETATM    4  C6  UNL     1      -4.121   5.530  14.340  1.00  0.00     0.023 C 
HETATM    5  C7  UNL     1      -4.852   4.372  14.907  1.00  0.00     0.045 C 
HETATM    6  C8  UNL     1      -4.033   3.100  14.575  1.00  0.00     0.066 C 
HETATM    7  C10 UNL     1      -4.780   1.988  14.007  1.00  0.00     0.046 C 
HETATM    8  C11 UNL     1      -4.464   1.557  12.606  1.00  0.00     0.033 A 
HETATM    9  C12 UNL     1      -4.810   2.566  11.560  1.00  0.00     0.140 A 
HETATM   10  O4  UNL     1      -4.872   3.848  12.007  1.00  0.00    -0.372 OA
HETATM   11  C13 UNL     1      -3.658   4.409  11.654  1.00  0.00     0.087 C 
HETATM   12  C14 UNL     1      -4.046   4.809  10.358  1.00  0.00     0.075 C 
HETATM   13  C15 UNL     1      -4.784   6.108  10.778  1.00  0.00     0.226 C 
HETATM   14  C16 UNL     1      -3.452   6.809  11.109  1.00  0.00     0.045 C 
HETATM   15  C17 UNL     1      -3.197   5.720  12.182  1.00  0.00     0.057 C 
HETATM   16  C18 UNL     1      -4.306   6.172  13.100  1.00  0.00     0.234 C 
HETATM   17  N1  UNL     1      -5.329   6.105  12.132  1.00  0.00     0.094 N 
HETATM   18  C19 UNL     1      -6.322   7.134  12.181  1.00  0.00     0.310 C 
HETATM   19  C20 UNL     1      -3.354   2.125  11.916  1.00  0.00     0.034 A 
ENDROOT
BRANCH   1  20
HETATM   20  C2  UNL     1      -1.422   3.552  11.828  1.00  0.00     0.271 C 
HETATM   21  O2  UNL     1      -0.439   3.149  12.499  1.00  0.00    -0.264 OA
BRANCH  20  22
HETATM   22  O1  UNL     1      -1.098   4.101  10.582  1.00  0.00    -0.326 OA
HETATM   23  C1  UNL     1       0.128   3.787   9.929  1.00  0.00     0.213 C 
ENDBRANCH  20  22
ENDBRANCH   1  20
BRANCH  19  24
HETATM   24  C21 UNL     1      -2.663   1.290  10.846  1.00  0.00     0.178 C 
BRANCH  24  25
HETATM   25  O5  UNL     1      -2.152   0.129  11.457  1.00  0.00    -0.400 OA
ATOM     26  H5  UNL     1      -2.125  -0.561  10.804  1.00  0.00     0.209 HD
ENDBRANCH  24  25
ENDBRANCH  19  24
BRANCH   6  27
HETATM   27  O3  UNL     1      -3.443   2.656  15.761  1.00  0.00    -0.385 OA
HETATM   28  C9  UNL     1      -3.921   1.541  16.343  1.00  0.00     0.202 C 
ENDBRANCH   6  27
TORSDOF 6
ENDMDL
MODEL 2
REMARK VINA RESULT: -6.780601706      2.083      4.320
REMARK  6 active torsions:
REMARK  status: ('A' for Active; 'I' for Inactive)
REMARK    1  A    between atoms: O1_2  and  C2_3 
REMARK    2  A    between atoms: C2_3  and  C3_5 
REMARK    3  A    between atoms: C6_8  and  C18_22 
REMARK    4  A    between atoms: C8_10  and  O3_11 
REMARK    5  A    between atoms: C20_25  and  C21_26 
REMARK    6  A    between atoms: C21_26  and  O5_27 
ROOT
HETATM    1  C3  UNL     1      -4.241   3.493  14.566  1.00  0.00     0.098 C 
HETATM    2  C4  UNL     1      -3.316   4.600  14.844  1.00  0.00     0.043 C 
HETATM    3  C5  UNL     1      -2.039   4.770  14.125  1.00  0.00     0.015 C 
HETATM    4  C6  UNL     1      -2.433   5.352  12.738  1.00  0.00     0.023 C 
HETATM    5  C7  UNL     1      -3.219   6.484  13.284  1.00  0.00     0.045 C 
HETATM    6  C8  UNL     1      -3.789   6.033  14.652  1.00  0.00     0.066 C 
HETATM    7  C10 UNL     1      -5.207   6.281  14.867  1.00  0.00     0.046 C 
HETATM    8  C11 UNL     1      -6.122   5.104  15.028  1.00  0.00     0.033 A 
HETATM    9  C12 UNL     1      -6.264   4.265  13.800  1.00  0.00     0.140 A 
HETATM   10  O4  UNL     1      -5.229   4.358  12.925  1.00  0.00    -0.372 OA
HETATM   11  C13 UNL     1      -4.447   3.245  13.175  1.00  0.00     0.087 C 
HETATM   12  C14 UNL     1      -5.140   2.373  12.310  1.00  0.00     0.075 C 
HETATM   13  C15 UNL     1      -4.460   2.839  10.995  1.00  0.00     0.226 C 
HETATM   14  C16 UNL     1      -3.135   2.156  11.388  1.00  0.00     0.045 C 
HETATM   15  C17 UNL     1      -3.075   3.089  12.625  1.00  0.00     0.057 C 
HETATM   16  C18 UNL     1      -2.836   4.351  11.834  1.00  0.00     0.234 C 
HETATM   17  N1  UNL     1      -3.965   4.212  11.000  1.00  0.00     0.094 N 
HETATM   18  C19 UNL     1      -3.801   4.599   9.633  1.00  0.00     0.310 C 
HETATM   19  C20 UNL     1      -5.583   3.788  15.123  1.00  0.00     0.034 A 
ENDROOT
BRANCH   1  20
HETATM   20  C2  UNL     1      -3.730   2.263  15.246  1.00  0.00     0.271 C 
HETATM   21  O2  UNL     1      -2.963   2.305  16.240  1.00  0.00    -0.264 OA
BRANCH  20  22
HETATM   22  O1  UNL     1      -4.070   0.975  14.820  1.00  0.00    -0.326 OA
HETATM   23  C1  UNL     1      -4.452  -0.037  15.748  1.00  0.00     0.213 C 
ENDBRANCH  20  22
ENDBRANCH   1  20
BRANCH  19  24
HETATM   24  C21 UNL     1      -6.368   2.740  15.900  1.00  0.00     0.178 C 
BRANCH  24  25
HETATM   25  O5  UNL     1      -6.971   3.372  17.004  1.00  0.00    -0.400 OA
ATOM     26  H5  UNL     1      -7.890   3.131  17.018  1.00  0.00     0.209 HD
ENDBRANCH  24  25
ENDBRANCH  19  24
BRANCH   6  27
HETATM   27  O3  UNL     1      -3.082   6.710  15.649  1.00  0.00    -0.385 OA
HETATM   28  C9  UNL     1      -2.687   7.975  15.417  1.00  0.00     0.202 C 
ENDBRANCH   6  27
TORSDOF 6
ENDMDL
MODEL 3
REMARK VINA RESULT: -6.545731706      2.010      4.627
REMARK  6 active torsions:
REMARK  status: ('A' for Active; 'I' for Inactive)
REMARK    1  A    between atoms: O1_2  and  C2_3 
REMARK    2  A    between atoms: C2_3  and  C3_5 
REMARK    3  A    between atoms: C6_8  and  C18_22 
REMARK    4  A    between atoms: C8_10  and  O3_11 
REMARK    5  A    between atoms: C20_25  and  C21_26 
REMARK    6  A    between atoms: C21_26  and  O5_27 
ROOT
HETATM    1  C3  UNL     1      -5.118   3.477  13.913  1.00  0.00     0.098 C 
HETATM    2  C4  UNL     1      -5.168   2.610  12.730  1.00  0.00     0.043 C 
HETATM    3  C5  UNL     1      -4.773   3.073  11.386  1.00  0.00     0.015 C 
HETATM    4  C6  UNL     1      -3.220   3.082  11.402  1.00  0.00     0.023 C 
HETATM    5  C7  UNL     1      -3.081   1.677  11.855  1.00  0.00     0.045 C 
HETATM    6  C8  UNL     1      -4.332   1.338  12.701  1.00  0.00     0.066 C 
HETATM    7  C10 UNL     1      -4.082   0.700  13.985  1.00  0.00     0.046 C 
HETATM    8  C11 UNL     1      -4.453   1.439  15.235  1.00  0.00     0.033 A 
HETATM    9  C12 UNL     1      -3.645   2.672  15.482  1.00  0.00     0.140 A 
HETATM   10  O4  UNL     1      -3.084   3.214  14.370  1.00  0.00    -0.372 OA
HETATM   11  C13 UNL     1      -3.923   4.254  14.014  1.00  0.00     0.087 C 
HETATM   12  C14 UNL     1      -3.317   5.228  14.834  1.00  0.00     0.075 C 
HETATM   13  C15 UNL     1      -2.133   5.556  13.885  1.00  0.00     0.226 C 
HETATM   14  C16 UNL     1      -3.069   6.285  12.900  1.00  0.00     0.045 C 
HETATM   15  C17 UNL     1      -3.829   4.949  12.704  1.00  0.00     0.057 C 
HETATM   16  C18 UNL     1      -2.699   4.254  11.985  1.00  0.00     0.234 C 
HETATM   17  N1  UNL     1      -1.734   4.476  12.989  1.00  0.00     0.094 N 
HETATM   18  C19 UNL     1      -0.408   4.776  12.545  1.00  0.00     0.310 C 
HETATM   19  C20 UNL     1      -5.173   2.666  15.153  1.00  0.00     0.034 A 
ENDROOT
BRANCH   1  20
HETATM   20  C2  UNL     1      -6.319   4.367  13.902  1.00  0.00     0.271 C 
HETATM   21  O2  UNL     1      -7.484   3.935  13.716  1.00  0.00    -0.264 OA
BRANCH  20  22
HETATM   22  O1  UNL     1      -6.231   5.750  14.099  1.00  0.00    -0.326 OA
HETATM   23  C1  UNL     1      -7.033   6.659  13.352  1.00  0.00     0.213 C 
ENDBRANCH  20  22
ENDBRANCH   1  20
BRANCH  19  24
HETATM   24  C21 UNL     1      -6.075   3.055  16.317  1.00  0.00     0.178 C 
BRANCH  24  25
HETATM   25  O5  UNL     1      -6.827   1.923  16.687  1.00  0.00    -0.400 OA
ATOM     26  H5  UNL     1      -7.397   2.169  17.406  1.00  0.00     0.209 HD
ENDBRANCH  24  25
ENDBRANCH  19  24
BRANCH   6  27
HETATM   27  O3  UNL     1      -5.134   0.479  11.947  1.00  0.00    -0.385 OA
HETATM   28  C9  UNL     1      -4.580  -0.631  11.425  1.00  0.00     0.202 C 
ENDBRANCH   6  27
TORSDOF 6
ENDMDL
MODEL 4
REMARK VINA RESULT: -6.467635706      1.995      4.603
REMARK  6 active torsions:
REMARK  status: ('A' for Active; 'I' for Inactive)
REMARK    1  A    between atoms: O1_2  and  C2_3 
REMARK    2  A    between atoms: C2_3  and  C3_5 
REMARK    3  A    between atoms: C6_8  and  C18_22 
REMARK    4  A    between atoms: C8_10  and  O3_11 
REMARK    5  A    between atoms: C20_25  and  C21_26 
REMARK    6  A    between atoms: C21_26  and  O5_27 
ROOT
HETATM    1  C3  UNL     1      -3.968   4.955  12.899  1.00  0.00     0.098 C 
HETATM    2  C4  UNL     1      -4.353   3.846  12.017  1.00  0.00     0.043 C 
HETATM    3  C5  UNL     1      -3.881   3.736  10.623  1.00  0.00     0.015 C 
HETATM    4  C6  UNL     1      -2.414   3.235  10.733  1.00  0.00     0.023 C 
HETATM    5  C7  UNL     1      -2.735   2.062  11.580  1.00  0.00     0.045 C 
HETATM    6  C8  UNL     1      -3.992   2.421  12.409  1.00  0.00     0.066 C 
HETATM    7  C10 UNL     1      -3.919   2.142  13.836  1.00  0.00     0.046 C 
HETATM    8  C11 UNL     1      -3.970   3.294  14.793  1.00  0.00     0.033 A 
HETATM    9  C12 UNL     1      -2.788   4.204  14.722  1.00  0.00     0.140 A 
HETATM   10  O4  UNL     1      -2.122   4.179  13.537  1.00  0.00    -0.372 OA
HETATM   11  C13 UNL     1      -2.580   5.285  12.845  1.00  0.00     0.087 C 
HETATM   12  C14 UNL     1      -1.650   6.198  13.383  1.00  0.00     0.075 C 
HETATM   13  C15 UNL     1      -0.464   5.822  12.455  1.00  0.00     0.226 C 
HETATM   14  C16 UNL     1      -1.141   6.498  11.246  1.00  0.00     0.045 C 
HETATM   15  C17 UNL     1      -2.311   5.493  11.397  1.00  0.00     0.057 C 
HETATM   16  C18 UNL     1      -1.508   4.285  10.982  1.00  0.00     0.234 C 
HETATM   17  N1  UNL     1      -0.485   4.459  11.937  1.00  0.00     0.094 N 
HETATM   18  C19 UNL     1       0.846   4.158  11.508  1.00  0.00     0.310 C 
HETATM   19  C20 UNL     1      -4.242   4.609  14.315  1.00  0.00     0.034 A 
ENDROOT
BRANCH   1  20
HETATM   20  C2  UNL     1      -4.802   6.148  12.556  1.00  0.00     0.271 C 
HETATM   21  O2  UNL     1      -4.336   7.314  12.514  1.00  0.00    -0.264 OA
BRANCH  20  22
HETATM   22  O1  UNL     1      -6.166   6.049  12.258  1.00  0.00    -0.326 OA
HETATM   23  C1  UNL     1      -7.045   7.157  12.427  1.00  0.00     0.213 C 
ENDBRANCH  20  22
ENDBRANCH   1  20
BRANCH  19  24
HETATM   24  C21 UNL     1      -4.913   5.597  15.258  1.00  0.00     0.178 C 
BRANCH  24  25
HETATM   25  O5  UNL     1      -6.268   5.235  15.381  1.00  0.00    -0.400 OA
ATOM     26  H5  UNL     1      -6.567   5.495  16.245  1.00  0.00     0.209 HD
ENDBRANCH  24  25
ENDBRANCH  19  24
BRANCH   6  27
HETATM   27  O3  UNL     1      -5.065   1.694  11.887  1.00  0.00    -0.385 OA
HETATM   28  C9  UNL     1      -4.855   0.427  11.487  1.00  0.00     0.202 C 
ENDBRANCH   6  27
TORSDOF 6
ENDMDL
MODEL 5
REMARK VINA RESULT: -6.446976799      1.415      1.615
REMARK  6 active torsions:
REMARK  status: ('A' for Active; 'I' for Inactive)
REMARK    1  A    between atoms: O1_2  and  C2_3 
REMARK    2  A    between atoms: C2_3  and  C3_5 
REMARK    3  A    between atoms: C6_8  and  C18_22 
REMARK    4  A    between atoms: C8_10  and  O3_11 
REMARK    5  A    between atoms: C20_25  and  C21_26 
REMARK    6  A    between atoms: C21_26  and  O5_27 
ROOT
HETATM    1  C3  UNL     1      -3.290   4.397  12.970  1.00  0.00     0.098 C 
HETATM    2  C4  UNL     1      -4.066   4.114  14.185  1.00  0.00     0.043 C 
HETATM    3  C5  UNL     1      -4.640   5.179  15.029  1.00  0.00     0.015 C 
HETATM    4  C6  UNL     1      -5.893   5.675  14.257  1.00  0.00     0.023 C 
HETATM    5  C7  UNL     1      -6.503   4.332  14.112  1.00  0.00     0.045 C 
HETATM    6  C8  UNL     1      -5.348   3.301  14.078  1.00  0.00     0.066 C 
HETATM    7  C10 UNL     1      -5.402   2.315  13.009  1.00  0.00     0.046 C 
HETATM    8  C11 UNL     1      -4.321   2.327  11.971  1.00  0.00     0.033 A 
HETATM    9  C12 UNL     1      -4.317   3.542  11.102  1.00  0.00     0.140 A 
HETATM   10  O4  UNL     1      -4.909   4.635  11.651  1.00  0.00    -0.372 OA
HETATM   11  C13 UNL     1      -3.866   5.403  12.135  1.00  0.00     0.087 C 
HETATM   12  C14 UNL     1      -3.620   6.101  10.935  1.00  0.00     0.075 C 
HETATM   13  C15 UNL     1      -4.760   7.143  11.091  1.00  0.00     0.226 C 
HETATM   14  C16 UNL     1      -4.002   7.867  12.221  1.00  0.00     0.045 C 
HETATM   15  C17 UNL     1      -4.075   6.558  13.047  1.00  0.00     0.057 C 
HETATM   16  C18 UNL     1      -5.569   6.612  13.256  1.00  0.00     0.234 C 
HETATM   17  N1  UNL     1      -5.900   6.705  11.889  1.00  0.00     0.094 N 
HETATM   18  C19 UNL     1      -6.995   7.563  11.554  1.00  0.00     0.310 C 
HETATM   19  C20 UNL     1      -3.191   3.183  12.124  1.00  0.00     0.034 A 
ENDROOT
BRANCH   1  20
HETATM   20  C2  UNL     1      -1.903   4.783  13.371  1.00  0.00     0.271 C 
HETATM   21  O2  UNL     1      -1.307   4.262  14.347  1.00  0.00    -0.264 OA
BRANCH  20  22
HETATM   22  O1  UNL     1      -1.166   5.755  12.685  1.00  0.00    -0.326 OA
HETATM   23  C1  UNL     1       0.153   5.493  12.216  1.00  0.00     0.213 C 
ENDBRANCH  20  22
ENDBRANCH   1  20
BRANCH  19  24
HETATM   24  C21 UNL     1      -1.872   2.761  11.494  1.00  0.00     0.178 C 
BRANCH  24  25
HETATM   25  O5  UNL     1      -1.635   1.414  11.832  1.00  0.00    -0.400 OA
ATOM     26  H5  UNL     1      -0.767   1.180  11.524  1.00  0.00     0.209 HD
ENDBRANCH  24  25
ENDBRANCH  19  24
BRANCH   6  27
HETATM   27  O3  UNL     1      -5.359   2.613  15.294  1.00  0.00    -0.385 OA
HETATM   28  C9  UNL     1      -4.593   1.515  15.422  1.00  0.00     0.202 C 
ENDBRANCH   6  27
TORSDOF 6
ENDMDL
