MODEL 1
REMARK VINA RESULT: -7.253131981      0.000      0.000
REMARK  6 active torsions:
REMARK  status: ('A' for Active; 'I' for Inactive)
REMARK       I    between atoms: C1_2  and  N1_3 
REMARK    1  A    between atoms: C1_2  and  C15_25 
REMARK    2  A    between atoms: N1_3  and  C2_5 
REMARK    3  A    between atoms: C2_5  and  C3_6 
REMARK    4  A    between atoms: C3_6  and  C4_7 
REMARK    5  A    between atoms: C4_7  and  C5_8 
REMARK       I    between atoms: C5_8  and  N2_10 
REMARK    6  A    between atoms: C9_14  and  C10_15 
REMARK       I    between atoms: C10_15  and  N3_17 
ROOT
HETATM    1  C5  UNL     1      -5.978   4.525  14.662  1.00  0.00     0.220 C 
HETATM    2  O2  UNL     1      -6.380   3.834  13.692  1.00  0.00    -0.273 OA
HETATM    3  N2  UNL     1      -5.113   5.644  14.444  1.00  0.00    -0.339 N 
HETATM    4  C6  UNL     1      -4.558   6.539  15.438  1.00  0.00     0.127 C 
HETATM    5  C7  UNL     1      -3.285   6.992  14.758  1.00  0.00     0.022 C 
HETATM    6  C8  UNL     1      -3.832   7.296  13.354  1.00  0.00     0.037 C 
HETATM    7  C9  UNL     1      -4.665   6.037  13.112  1.00  0.00     0.179 C 
ENDROOT
BRANCH   1   8
HETATM    8  C4  UNL     1      -6.425   4.146  16.017  1.00  0.00     0.104 C 
BRANCH   8   9
HETATM    9  C3  UNL     1      -6.128   2.725  16.399  1.00  0.00     0.029 C 
BRANCH   9  10
HETATM   10  C2  UNL     1      -4.698   2.321  16.265  1.00  0.00     0.123 C 
BRANCH  10  11
HETATM   11  N1  UNL     1      -4.379   2.019  14.894  1.00  0.00    -0.357 N 
HETATM   12  C1  UNL     1      -4.539   0.721  14.371  1.00  0.00     0.273 C 
HETATM   13  O1  UNL     1      -4.958  -0.249  15.060  1.00  0.00    -0.268 OA
ATOM     14  H1  UNL     1      -4.029   2.761  14.288  1.00  0.00     0.162 HD
BRANCH  12  15
HETATM   15  C15 UNL     1      -4.191   0.506  12.930  1.00  0.00     0.353 C 
HETATM   16  O4  UNL     1      -5.054   1.175  12.089  1.00  0.00    -0.351 OA
HETATM   17  C16 UNL     1      -4.774   0.590  10.842  1.00  0.00     0.197 C 
HETATM   18  C17 UNL     1      -4.040  -0.711  11.167  1.00  0.00     0.197 C 
HETATM   19  O5  UNL     1      -4.349  -0.823  12.543  1.00  0.00    -0.351 OA
ENDBRANCH  12  15
ENDBRANCH  10  11
ENDBRANCH   9  10
ENDBRANCH   8   9
ENDBRANCH   1   8
BRANCH   7  20
HETATM   20  C10 UNL     1      -3.830   4.953  12.578  1.00  0.00     0.242 C 
HETATM   21  O3  UNL     1      -3.175   4.195  13.336  1.00  0.00    -0.271 OA
HETATM   22  N3  UNL     1      -3.754   4.744  11.185  1.00  0.00    -0.347 N 
HETATM   23  C11 UNL     1      -4.467   5.531  10.201  1.00  0.00     0.153 C 
HETATM   24  C14 UNL     1      -2.908   3.668  10.649  1.00  0.00     0.153 C 
HETATM   25  C12 UNL     1      -3.444   6.052   9.198  1.00  0.00     0.252 C 
HETATM   26  N4  UNL     1      -2.769   4.917   8.620  1.00  0.00    -0.072 N 
HETATM   27  C13 UNL     1      -1.940   4.331   9.678  1.00  0.00     0.252 C 
ATOM     28  H42 UNL     1      -3.406   4.246   8.192  1.00  0.00     0.277 HD
ATOM     29  H41 UNL     1      -2.242   5.149   7.779  1.00  0.00     0.277 HD
ENDBRANCH   7  20
TORSDOF 6
ENDMDL
MODEL 2
REMARK VINA RESULT: -6.951703414      1.067      1.170
REMARK  6 active torsions:
REMARK  status: ('A' for Active; 'I' for Inactive)
REMARK       I    between atoms: C1_2  and  N1_3 
REMARK    1  A    between atoms: C1_2  and  C15_25 
REMARK    2  A    between atoms: N1_3  and  C2_5 
REMARK    3  A    between atoms: C2_5  and  C3_6 
REMARK    4  A    between atoms: C3_6  and  C4_7 
REMARK    5  A    between atoms: C4_7  and  C5_8 
REMARK       I    between atoms: C5_8  and  N2_10 
REMARK    6  A    between atoms: C9_14  and  C10_15 
REMARK       I    between atoms: C10_15  and  N3_17 
ROOT
HETATM    1  C5  UNL     1      -5.749   5.443  14.434  1.00  0.00     0.220 C 
HETATM    2  O2  UNL     1      -6.375   5.033  13.424  1.00  0.00    -0.273 OA
HETATM    3  N2  UNL     1      -4.652   6.350  14.286  1.00  0.00    -0.339 N 
HETATM    4  C6  UNL     1      -3.827   6.916  15.332  1.00  0.00     0.127 C 
HETATM    5  C7  UNL     1      -2.531   7.164  14.592  1.00  0.00     0.022 C 
HETATM    6  C8  UNL     1      -3.080   7.812  13.312  1.00  0.00     0.037 C 
HETATM    7  C9  UNL     1      -4.213   6.839  12.983  1.00  0.00     0.179 C 
ENDROOT
BRANCH   1   8
HETATM    8  C4  UNL     1      -6.182   4.963  15.760  1.00  0.00     0.104 C 
BRANCH   8   9
HETATM    9  C3  UNL     1      -5.970   3.495  15.995  1.00  0.00     0.029 C 
BRANCH   9  10
HETATM   10  C2  UNL     1      -4.564   3.026  15.820  1.00  0.00     0.123 C 
BRANCH  10  11
HETATM   11  N1  UNL     1      -4.306   2.688  14.445  1.00  0.00    -0.357 N 
HETATM   12  C1  UNL     1      -4.457   1.371  13.970  1.00  0.00     0.273 C 
HETATM   13  O1  UNL     1      -4.815   0.412  14.709  1.00  0.00    -0.268 OA
ATOM     14  H1  UNL     1      -4.007   3.419  13.799  1.00  0.00     0.162 HD
BRANCH  12  15
HETATM   15  C15 UNL     1      -4.176   1.119  12.521  1.00  0.00     0.353 C 
HETATM   16  O4  UNL     1      -4.440  -0.187  12.167  1.00  0.00    -0.351 OA
HETATM   17  C16 UNL     1      -3.813  -0.293  10.913  1.00  0.00     0.197 C 
HETATM   18  C17 UNL     1      -2.847   0.890  10.849  1.00  0.00     0.197 C 
HETATM   19  O5  UNL     1      -2.823   1.255  12.216  1.00  0.00    -0.351 OA
ENDBRANCH  12  15
ENDBRANCH  10  11
ENDBRANCH   9  10
ENDBRANCH   8   9
ENDBRANCH   1   8
BRANCH   7  20
HETATM   20  C10 UNL     1      -3.711   5.693  12.216  1.00  0.00     0.242 C 
HETATM   21  O3  UNL     1      -2.969   4.825  12.742  1.00  0.00    -0.271 OA
HETATM   22  N3  UNL     1      -4.060   5.547  10.857  1.00  0.00    -0.347 N 
HETATM   23  C11 UNL     1      -4.918   6.461  10.132  1.00  0.00     0.153 C 
HETATM   24  C14 UNL     1      -3.547   4.407  10.084  1.00  0.00     0.153 C 
HETATM   25  C12 UNL     1      -4.165   6.907   8.884  1.00  0.00     0.252 C 
HETATM   26  N4  UNL     1      -3.833   5.731   8.119  1.00  0.00    -0.072 N 
HETATM   27  C13 UNL     1      -2.819   4.999   8.885  1.00  0.00     0.252 C 
ATOM     28  H42 UNL     1      -4.646   5.163   7.884  1.00  0.00     0.277 HD
ATOM     29  H41 UNL     1      -3.542   5.941   7.165  1.00  0.00     0.277 HD
ENDBRANCH   7  20
TORSDOF 6
ENDMDL
MODEL 3
REMARK VINA RESULT: -6.798251250      1.557      1.905
REMARK  6 active torsions:
REMARK  status: ('A' for Active; 'I' for Inactive)
REMARK       I    between atoms: C1_2  and  N1_3 
REMARK    1  A    between atoms: C1_2  and  C15_25 
REMARK    2  A    between atoms: N1_3  and  C2_5 
REMARK    3  A    between atoms: C2_5  and  C3_6 
REMARK    4  A    between atoms: C3_6  and  C4_7 
REMARK    5  A    between atoms: C4_7  and  C5_8 
REMARK       I    between atoms: C5_8  and  N2_10 
REMARK    6  A    between atoms: C9_14  and  C10_15 
REMARK       I    between atoms: C10_15  and  N3_17 
ROOT
HETATM    1  C5  UNL     1      -5.076   5.874  13.418  1.00  0.00     0.220 C 
HETATM    2  O2  UNL     1      -5.210   5.192  12.370  1.00  0.00    -0.273 OA
HETATM    3  N2  UNL     1      -3.852   6.568  13.677  1.00  0.00    -0.339 N 
HETATM    4  C6  UNL     1      -3.529   7.391  14.824  1.00  0.00     0.127 C 
HETATM    5  C7  UNL     1      -2.025   7.245  14.884  1.00  0.00     0.022 C 
HETATM    6  C8  UNL     1      -1.682   7.448  13.399  1.00  0.00     0.037 C 
HETATM    7  C9  UNL     1      -2.720   6.527  12.757  1.00  0.00     0.179 C 
ENDROOT
BRANCH   1   8
HETATM    8  C4  UNL     1      -6.212   5.932  14.358  1.00  0.00     0.104 C 
BRANCH   8   9
HETATM    9  C3  UNL     1      -5.966   5.265  15.680  1.00  0.00     0.029 C 
BRANCH   9  10
HETATM   10  C2  UNL     1      -6.311   3.814  15.729  1.00  0.00     0.123 C 
BRANCH  10  11
HETATM   11  N1  UNL     1      -5.870   3.144  14.533  1.00  0.00    -0.357 N 
HETATM   12  C1  UNL     1      -4.731   2.315  14.532  1.00  0.00     0.273 C 
HETATM   13  O1  UNL     1      -4.028   2.115  15.561  1.00  0.00    -0.268 OA
ATOM     14  H1  UNL     1      -6.394   3.272  13.668  1.00  0.00     0.162 HD
BRANCH  12  15
HETATM   15  C15 UNL     1      -4.357   1.652  13.243  1.00  0.00     0.353 C 
HETATM   16  O4  UNL     1      -5.202   2.015  12.216  1.00  0.00    -0.351 OA
HETATM   17  C16 UNL     1      -4.900   1.063  11.227  1.00  0.00     0.197 C 
HETATM   18  C17 UNL     1      -4.177  -0.064  11.964  1.00  0.00     0.197 C 
HETATM   19  O5  UNL     1      -4.512   0.269  13.298  1.00  0.00    -0.351 OA
ENDBRANCH  12  15
ENDBRANCH  10  11
ENDBRANCH   9  10
ENDBRANCH   8   9
ENDBRANCH   1   8
BRANCH   7  20
HETATM   20  C10 UNL     1      -2.230   5.143  12.706  1.00  0.00     0.242 C 
HETATM   21  O3  UNL     1      -1.978   4.497  13.754  1.00  0.00    -0.271 OA
HETATM   22  N3  UNL     1      -2.036   4.511  11.460  1.00  0.00    -0.347 N 
HETATM   23  C11 UNL     1      -2.302   5.131  10.179  1.00  0.00     0.153 C 
HETATM   24  C14 UNL     1      -1.533   3.131  11.408  1.00  0.00     0.153 C 
HETATM   25  C12 UNL     1      -1.036   5.014   9.339  1.00  0.00     0.252 C 
HETATM   26  N4  UNL     1      -0.706   3.616   9.222  1.00  0.00    -0.072 N 
HETATM   27  C13 UNL     1      -0.274   3.169  10.551  1.00  0.00     0.252 C 
ATOM     28  H42 UNL     1      -1.464   3.054   8.836  1.00  0.00     0.277 HD
ATOM     29  H41 UNL     1      -0.020   3.424   8.492  1.00  0.00     0.277 HD
ENDBRANCH   7  20
TORSDOF 6
ENDMDL
MODEL 4
REMARK VINA RESULT: -6.695255999      2.438      4.204
REMARK  6 active torsions:
REMARK  status: ('A' for Active; 'I' for Inactive)
REMARK       I    between atoms: C1_2  and  N1_3 
REMARK    1  A    between atoms: C1_2  and  C15_25 
REMARK    2  A    between atoms: N1_3  and  C2_5 
REMARK    3  A    between atoms: C2_5  and  C3_6 
REMARK    4  A    between atoms: C3_6  and  C4_7 
REMARK    5  A    between atoms: C4_7  and  C5_8 
REMARK       I    between atoms: C5_8  and  N2_10 
REMARK    6  A    between atoms: C9_14  and  C10_15 
REMARK       I    between atoms: C10_15  and  N3_17 
ROOT
HETATM    1  C5  UNL     1      -3.885   3.409  11.371  1.00  0.00     0.220 C 
HETATM    2  O2  UNL     1      -3.462   3.308  10.191  1.00  0.00    -0.273 OA
HETATM    3  N2  UNL     1      -3.241   4.290  12.297  1.00  0.00    -0.339 N 
HETATM    4  C6  UNL     1      -3.593   4.525  13.682  1.00  0.00     0.127 C 
HETATM    5  C7  UNL     1      -2.257   4.928  14.266  1.00  0.00     0.022 C 
HETATM    6  C8  UNL     1      -1.787   5.917  13.188  1.00  0.00     0.037 C 
HETATM    7  C9  UNL     1      -2.088   5.104  11.929  1.00  0.00     0.179 C 
ENDROOT
BRANCH   1   8
HETATM    8  C4  UNL     1      -5.055   2.598  11.759  1.00  0.00     0.104 C 
BRANCH   8   9
HETATM    9  C3  UNL     1      -4.795   1.120  11.834  1.00  0.00     0.029 C 
BRANCH   9  10
HETATM   10  C2  UNL     1      -3.993   0.680  13.013  1.00  0.00     0.123 C 
BRANCH  10  11
HETATM   11  N1  UNL     1      -4.438   1.345  14.211  1.00  0.00    -0.357 N 
HETATM   12  C1  UNL     1      -4.787   0.621  15.367  1.00  0.00     0.273 C 
HETATM   13  O1  UNL     1      -4.743  -0.639  15.427  1.00  0.00    -0.268 OA
ATOM     14  H1  UNL     1      -4.501   2.363  14.221  1.00  0.00     0.162 HD
BRANCH  12  15
HETATM   15  C15 UNL     1      -5.228   1.401  16.567  1.00  0.00     0.353 C 
HETATM   16  O4  UNL     1      -5.476   0.582  17.647  1.00  0.00    -0.351 OA
HETATM   17  C16 UNL     1      -6.174   1.436  18.520  1.00  0.00     0.197 C 
HETATM   18  C17 UNL     1      -6.648   2.598  17.646  1.00  0.00     0.197 C 
HETATM   19  O5  UNL     1      -6.455   2.029  16.366  1.00  0.00    -0.351 OA
ENDBRANCH  12  15
ENDBRANCH  10  11
ENDBRANCH   9  10
ENDBRANCH   8   9
ENDBRANCH   1   8
BRANCH   7  20
HETATM   20  C10 UNL     1      -0.976   4.196  11.615  1.00  0.00     0.242 C 
HETATM   21  O3  UNL     1      -0.737   3.184  12.320  1.00  0.00    -0.271 OA
HETATM   22  N3  UNL     1      -0.152   4.451  10.500  1.00  0.00    -0.347 N 
HETATM   23  C11 UNL     1      -0.325   5.569   9.595  1.00  0.00     0.153 C 
HETATM   24  C14 UNL     1       0.969   3.551  10.193  1.00  0.00     0.153 C 
HETATM   25  C12 UNL     1       1.004   6.312   9.522  1.00  0.00     0.252 C 
HETATM   26  N4  UNL     1       2.010   5.384   9.072  1.00  0.00    -0.072 N 
HETATM   27  C13 UNL     1       2.217   4.422  10.161  1.00  0.00     0.252 C 
ATOM     28  H42 UNL     1       1.779   4.940   8.184  1.00  0.00     0.277 HD
ATOM     29  H41 UNL     1       2.871   5.839   8.769  1.00  0.00     0.277 HD
ENDBRANCH   7  20
TORSDOF 6
ENDMDL
MODEL 5
REMARK VINA RESULT: -6.665066509      1.591      4.932
REMARK  6 active torsions:
REMARK  status: ('A' for Active; 'I' for Inactive)
REMARK       I    between atoms: C1_2  and  N1_3 
REMARK    1  A    between atoms: C1_2  and  C15_25 
REMARK    2  A    between atoms: N1_3  and  C2_5 
REMARK    3  A    between atoms: C2_5  and  C3_6 
REMARK    4  A    between atoms: C3_6  and  C4_7 
REMARK    5  A    between atoms: C4_7  and  C5_8 
REMARK       I    between atoms: C5_8  and  N2_10 
REMARK    6  A    between atoms: C9_14  and  C10_15 
REMARK       I    between atoms: C10_15  and  N3_17 
ROOT
HETATM    1  C5  UNL     1      -1.581   3.587  11.508  1.00  0.00     0.220 C 
HETATM    2  O2  UNL     1      -1.218   3.741  12.702  1.00  0.00    -0.273 OA
HETATM    3  N2  UNL     1      -2.380   4.583  10.861  1.00  0.00    -0.339 N 
HETATM    4  C6  UNL     1      -2.883   4.566   9.503  1.00  0.00     0.127 C 
HETATM    5  C7  UNL     1      -4.128   5.416   9.634  1.00  0.00     0.022 C 
HETATM    6  C8  UNL     1      -3.564   6.582  10.461  1.00  0.00     0.037 C 
HETATM    7  C9  UNL     1      -2.804   5.805  11.536  1.00  0.00     0.179 C 
ENDROOT
BRANCH   1   8
HETATM    8  C4  UNL     1      -1.157   2.360  10.807  1.00  0.00     0.104 C 
BRANCH   8   9
HETATM    9  C3  UNL     1      -1.940   1.130  11.167  1.00  0.00     0.029 C 
BRANCH   9  10
HETATM   10  C2  UNL     1      -3.405   1.348  11.355  1.00  0.00     0.123 C 
BRANCH  10  11
HETATM   11  N1  UNL     1      -3.701   1.671  12.726  1.00  0.00    -0.357 N 
HETATM   12  C1  UNL     1      -4.303   0.735  13.589  1.00  0.00     0.273 C 
HETATM   13  O1  UNL     1      -4.625  -0.429  13.221  1.00  0.00    -0.268 OA
ATOM     14  H1  UNL     1      -3.471   2.599  13.081  1.00  0.00     0.162 HD
BRANCH  12  15
HETATM   15  C15 UNL     1      -4.563   1.159  15.001  1.00  0.00     0.353 C 
HETATM   16  O4  UNL     1      -5.189   0.168  15.727  1.00  0.00    -0.351 OA
HETATM   17  C16 UNL     1      -5.630   0.862  16.867  1.00  0.00     0.197 C 
HETATM   18  C17 UNL     1      -5.579   2.340  16.480  1.00  0.00     0.197 C 
HETATM   19  O5  UNL     1      -5.469   2.216  15.075  1.00  0.00    -0.351 OA
ENDBRANCH  12  15
ENDBRANCH  10  11
ENDBRANCH   9  10
ENDBRANCH   8   9
ENDBRANCH   1   8
BRANCH   7  20
HETATM   20  C10 UNL     1      -3.699   5.425  12.637  1.00  0.00     0.242 C 
HETATM   21  O3  UNL     1      -4.665   4.641  12.458  1.00  0.00    -0.271 OA
HETATM   22  N3  UNL     1      -3.482   5.942  13.931  1.00  0.00    -0.347 N 
HETATM   23  C11 UNL     1      -2.400   6.839  14.282  1.00  0.00     0.153 C 
HETATM   24  C14 UNL     1      -4.385   5.573  15.031  1.00  0.00     0.153 C 
HETATM   25  C12 UNL     1      -3.015   8.061  14.953  1.00  0.00     0.252 C 
HETATM   26  N4  UNL     1      -3.759   7.612  16.103  1.00  0.00    -0.072 N 
HETATM   27  C13 UNL     1      -4.924   6.881  15.595  1.00  0.00     0.252 C 
ATOM     28  H42 UNL     1      -3.197   7.068  16.757  1.00  0.00     0.277 HD
ATOM     29  H41 UNL     1      -4.006   8.367  16.742  1.00  0.00     0.277 HD
ENDBRANCH   7  20
TORSDOF 6
ENDMDL
