MODEL 1
REMARK VINA RESULT: -7.052139346      0.000      0.000
REMARK  8 active torsions:
REMARK  status: ('A' for Active; 'I' for Inactive)
REMARK       I    between atoms: N1_7  and  C7_8 
REMARK    1  A    between atoms: C7_8  and  C8_10 
REMARK    2  A    between atoms: C8_10  and  O2_11 
REMARK    3  A    between atoms: C8_10  and  C9_13 
REMARK    4  A    between atoms: C9_13  and  N2_14 
REMARK    5  A    between atoms: N2_14  and  C10_16 
REMARK    6  A    between atoms: C10_16  and  C11_17 
REMARK    7  A    between atoms: C10_16  and  C16_24 
REMARK    8  A    between atoms: C11_17  and  N3_18 
ROOT
HETATM    1  C1  UNL     1      -3.633   8.215  16.369  1.00  0.00     0.014 C 
HETATM    2  C2  UNL     1      -4.028   7.197  15.854  1.00  0.00    -0.092 C 
HETATM    3  C3  UNL     1      -4.485   5.961  15.215  1.00  0.00     0.166 C 
HETATM    4  C4  UNL     1      -6.004   5.951  15.418  1.00  0.00     0.040 C 
HETATM    5  C5  UNL     1      -6.492   5.478  14.069  1.00  0.00     0.023 C 
HETATM    6  C6  UNL     1      -5.545   6.270  13.145  1.00  0.00     0.127 C 
HETATM    7  N1  UNL     1      -4.263   5.975  13.791  1.00  0.00    -0.335 N 
HETATM    8  C7  UNL     1      -3.057   5.741  13.121  1.00  0.00     0.251 C 
HETATM    9  O1  UNL     1      -3.084   5.819  11.839  1.00  0.00    -0.270 OA
ENDROOT
BRANCH   8  10
HETATM   10  C8  UNL     1      -1.746   5.415  13.692  1.00  0.00     0.227 C 
BRANCH  10  11
HETATM   11  O2  UNL     1      -1.757   4.246  14.432  1.00  0.00    -0.385 OA
ATOM     12  H2  UNL     1      -0.907   4.032  14.798  1.00  0.00     0.210 HD
ENDBRANCH  10  11
BRANCH  10  13
HETATM   13  C9  UNL     1      -0.750   5.381  12.547  1.00  0.00     0.156 C 
BRANCH  13  14
HETATM   14  N2  UNL     1      -0.350   4.049  12.197  1.00  0.00    -0.406 N 
ATOM     15  H2  UNL     1       0.336   3.532  12.747  1.00  0.00     0.154 HD
BRANCH  14  16
HETATM   16  C10 UNL     1      -0.955   3.491  11.054  1.00  0.00     0.173 C 
BRANCH  16  17
HETATM   17  C11 UNL     1      -1.359   2.070  11.080  1.00  0.00     0.304 C 
BRANCH  17  18
HETATM   18  N3  UNL     1      -2.655   1.734  11.541  1.00  0.00     0.095 N 
HETATM   19  C12 UNL     1      -2.933   0.300  11.396  1.00  0.00     0.298 C 
HETATM   20  C13 UNL     1      -4.001   0.007  10.383  1.00  0.00     0.198 C 
HETATM   21  O3  UNL     1      -5.224   0.585  10.722  1.00  0.00    -0.388 OA
HETATM   22  C14 UNL     1      -5.039   1.734  11.495  1.00  0.00     0.198 C 
HETATM   23  C15 UNL     1      -3.774   2.420  10.970  1.00  0.00     0.298 C 
ENDBRANCH  17  18
ENDBRANCH  16  17
BRANCH  16  24
HETATM   24  C16 UNL     1      -0.033   3.781   9.886  1.00  0.00     0.099 C 
HETATM   25  N4  UNL     1       1.249   3.762   9.902  1.00  0.00    -0.377 N 
HETATM   26  C17 UNL     1       1.845   4.078   8.645  1.00  0.00     0.141 C 
ATOM     27  H4  UNL     1       1.792   3.541  10.737  1.00  0.00     0.160 HD
HETATM   28  C18 UNL     1       0.686   3.870   7.680  1.00  0.00     0.143 C 
HETATM   29  N5  UNL     1      -0.429   4.127   8.567  1.00  0.00    -0.372 N 
HETATM   30  C19 UNL     1      -1.693   4.650   8.122  1.00  0.00     0.150 C 
ENDBRANCH  16  24
ENDBRANCH  14  16
ENDBRANCH  13  14
ENDBRANCH  10  13
ENDBRANCH   8  10
TORSDOF 8
ENDMDL
MODEL 2
REMARK VINA RESULT: -7.044770712      3.016      6.104
REMARK  8 active torsions:
REMARK  status: ('A' for Active; 'I' for Inactive)
REMARK       I    between atoms: N1_7  and  C7_8 
REMARK    1  A    between atoms: C7_8  and  C8_10 
REMARK    2  A    between atoms: C8_10  and  O2_11 
REMARK    3  A    between atoms: C8_10  and  C9_13 
REMARK    4  A    between atoms: C9_13  and  N2_14 
REMARK    5  A    between atoms: N2_14  and  C10_16 
REMARK    6  A    between atoms: C10_16  and  C11_17 
REMARK    7  A    between atoms: C10_16  and  C16_24 
REMARK    8  A    between atoms: C11_17  and  N3_18 
ROOT
HETATM    1  C1  UNL     1      -4.491   5.866   9.880  1.00  0.00     0.014 C 
HETATM    2  C2  UNL     1      -3.648   5.056   9.580  1.00  0.00    -0.092 C 
HETATM    3  C3  UNL     1      -2.636   4.055   9.235  1.00  0.00     0.166 C 
HETATM    4  C4  UNL     1      -1.515   4.849   8.554  1.00  0.00     0.040 C 
HETATM    5  C5  UNL     1      -0.282   4.220   9.158  1.00  0.00     0.023 C 
HETATM    6  C6  UNL     1      -0.742   4.069  10.621  1.00  0.00     0.127 C 
HETATM    7  N1  UNL     1      -2.053   3.449  10.406  1.00  0.00    -0.335 N 
HETATM    8  C7  UNL     1      -2.611   2.443  11.204  1.00  0.00     0.251 C 
HETATM    9  O1  UNL     1      -1.919   2.059  12.216  1.00  0.00    -0.270 OA
ENDROOT
BRANCH   8  10
HETATM   10  C8  UNL     1      -3.897   1.759  11.039  1.00  0.00     0.227 C 
BRANCH  10  11
HETATM   11  O2  UNL     1      -3.802   0.613  10.271  1.00  0.00    -0.385 OA
ATOM     12  H2  UNL     1      -4.350  -0.095  10.592  1.00  0.00     0.210 HD
ENDBRANCH  10  11
BRANCH  10  13
HETATM   13  C9  UNL     1      -4.450   1.496  12.429  1.00  0.00     0.156 C 
BRANCH  13  14
HETATM   14  N2  UNL     1      -5.089   2.647  12.999  1.00  0.00    -0.406 N 
ATOM     15  H2  UNL     1      -5.818   3.158  12.502  1.00  0.00     0.154 HD
BRANCH  14  16
HETATM   16  C10 UNL     1      -4.656   3.034  14.282  1.00  0.00     0.173 C 
BRANCH  16  17
HETATM   17  C11 UNL     1      -5.667   3.316  15.322  1.00  0.00     0.304 C 
BRANCH  17  18
HETATM   18  N3  UNL     1      -5.728   2.480  16.465  1.00  0.00     0.095 N 
HETATM   19  C12 UNL     1      -4.615   1.525  16.504  1.00  0.00     0.298 C 
HETATM   20  C13 UNL     1      -5.055   0.101  16.327  1.00  0.00     0.198 C 
HETATM   21  O3  UNL     1      -5.927  -0.311  17.334  1.00  0.00    -0.388 OA
HETATM   22  C14 UNL     1      -6.643   0.771  17.852  1.00  0.00     0.198 C 
HETATM   23  C15 UNL     1      -6.919   1.718  16.680  1.00  0.00     0.298 C 
ENDBRANCH  17  18
ENDBRANCH  16  17
BRANCH  16  24
HETATM   24  C16 UNL     1      -3.718   4.209  14.092  1.00  0.00     0.099 C 
HETATM   25  N4  UNL     1      -2.470   4.245  14.384  1.00  0.00    -0.377 N 
HETATM   26  C17 UNL     1      -1.845   5.493  14.089  1.00  0.00     0.141 C 
ATOM     27  H4  UNL     1      -1.970   3.454  14.789  1.00  0.00     0.160 HD
HETATM   28  C18 UNL     1      -2.838   6.128  13.124  1.00  0.00     0.143 C 
HETATM   29  N5  UNL     1      -4.058   5.479  13.556  1.00  0.00    -0.372 N 
HETATM   30  C19 UNL     1      -5.360   6.080  13.439  1.00  0.00     0.150 C 
ENDBRANCH  16  24
ENDBRANCH  14  16
ENDBRANCH  13  14
ENDBRANCH  10  13
ENDBRANCH   8  10
TORSDOF 8
ENDMDL
MODEL 3
REMARK VINA RESULT: -7.031795115      2.848      6.225
REMARK  8 active torsions:
REMARK  status: ('A' for Active; 'I' for Inactive)
REMARK       I    between atoms: N1_7  and  C7_8 
REMARK    1  A    between atoms: C7_8  and  C8_10 
REMARK    2  A    between atoms: C8_10  and  O2_11 
REMARK    3  A    between atoms: C8_10  and  C9_13 
REMARK    4  A    between atoms: C9_13  and  N2_14 
REMARK    5  A    between atoms: N2_14  and  C10_16 
REMARK    6  A    between atoms: C10_16  and  C11_17 
REMARK    7  A    between atoms: C10_16  and  C16_24 
REMARK    8  A    between atoms: C11_17  and  N3_18 
ROOT
HETATM    1  C1  UNL     1      -3.811   6.499  11.079  1.00  0.00     0.014 C 
HETATM    2  C2  UNL     1      -3.504   5.606  10.327  1.00  0.00    -0.092 C 
HETATM    3  C3  UNL     1      -3.142   4.504   9.432  1.00  0.00     0.166 C 
HETATM    4  C4  UNL     1      -2.045   5.078   8.527  1.00  0.00     0.040 C 
HETATM    5  C5  UNL     1      -1.063   3.932   8.469  1.00  0.00     0.023 C 
HETATM    6  C6  UNL     1      -1.097   3.471   9.940  1.00  0.00     0.127 C 
HETATM    7  N1  UNL     1      -2.547   3.402  10.146  1.00  0.00    -0.335 N 
HETATM    8  C7  UNL     1      -3.209   2.424  10.896  1.00  0.00     0.251 C 
HETATM    9  O1  UNL     1      -2.475   1.536  11.464  1.00  0.00    -0.270 OA
ENDROOT
BRANCH   8  10
HETATM   10  C8  UNL     1      -4.650   2.273  11.125  1.00  0.00     0.227 C 
BRANCH  10  11
HETATM   11  O2  UNL     1      -5.185   1.172  10.480  1.00  0.00    -0.385 OA
ATOM     12  H2  UNL     1      -6.110   1.051  10.660  1.00  0.00     0.210 HD
ENDBRANCH  10  11
BRANCH  10  13
HETATM   13  C9  UNL     1      -4.867   2.243  12.627  1.00  0.00     0.156 C 
BRANCH  13  14
HETATM   14  N2  UNL     1      -5.174   3.535  13.169  1.00  0.00    -0.406 N 
ATOM     15  H2  UNL     1      -5.645   4.251  12.617  1.00  0.00     0.154 HD
BRANCH  14  16
HETATM   16  C10 UNL     1      -4.792   3.761  14.505  1.00  0.00     0.173 C 
BRANCH  16  17
HETATM   17  C11 UNL     1      -5.810   3.648  15.570  1.00  0.00     0.304 C 
BRANCH  17  18
HETATM   18  N3  UNL     1      -5.673   2.630  16.545  1.00  0.00     0.095 N 
HETATM   19  C12 UNL     1      -4.462   1.828  16.333  1.00  0.00     0.298 C 
HETATM   20  C13 UNL     1      -4.757   0.411  15.936  1.00  0.00     0.198 C 
HETATM   21  O3  UNL     1      -5.481  -0.271  16.914  1.00  0.00    -0.388 OA
HETATM   22  C14 UNL     1      -6.261   0.610  17.667  1.00  0.00     0.198 C 
HETATM   23  C15 UNL     1      -6.747   1.700  16.706  1.00  0.00     0.298 C 
ENDBRANCH  17  18
ENDBRANCH  16  17
BRANCH  16  24
HETATM   24  C16 UNL     1      -4.106   5.113  14.541  1.00  0.00     0.099 C 
HETATM   25  N4  UNL     1      -4.650   6.238  14.831  1.00  0.00    -0.377 N 
HETATM   26  C17 UNL     1      -3.749   7.343  14.781  1.00  0.00     0.141 C 
ATOM     27  H4  UNL     1      -5.635   6.333  15.075  1.00  0.00     0.160 HD
HETATM   28  C18 UNL     1      -2.392   6.652  14.835  1.00  0.00     0.143 C 
HETATM   29  N5  UNL     1      -2.739   5.372  14.256  1.00  0.00    -0.372 N 
HETATM   30  C19 UNL     1      -1.809   4.554  13.524  1.00  0.00     0.150 C 
ENDBRANCH  16  24
ENDBRANCH  14  16
ENDBRANCH  13  14
ENDBRANCH  10  13
ENDBRANCH   8  10
TORSDOF 8
ENDMDL
MODEL 4
REMARK VINA RESULT: -6.933232467      2.932      4.779
REMARK  8 active torsions:
REMARK  status: ('A' for Active; 'I' for Inactive)
REMARK       I    between atoms: N1_7  and  C7_8 
REMARK    1  A    between atoms: C7_8  and  C8_10 
REMARK    2  A    between atoms: C8_10  and  O2_11 
REMARK    3  A    between atoms: C8_10  and  C9_13 
REMARK    4  A    between atoms: C9_13  and  N2_14 
REMARK    5  A    between atoms: N2_14  and  C10_16 
REMARK    6  A    between atoms: C10_16  and  C11_17 
REMARK    7  A    between atoms: C10_16  and  C16_24 
REMARK    8  A    between atoms: C11_17  and  N3_18 
ROOT
HETATM    1  C1  UNL     1      -3.676   7.877  16.427  1.00  0.00     0.014 C 
HETATM    2  C2  UNL     1      -3.336   8.182  15.310  1.00  0.00    -0.092 C 
HETATM    3  C3  UNL     1      -2.934   8.528  13.944  1.00  0.00     0.166 C 
HETATM    4  C4  UNL     1      -1.869   9.617  14.113  1.00  0.00     0.040 C 
HETATM    5  C5  UNL     1      -0.840   9.203  13.088  1.00  0.00     0.023 C 
HETATM    6  C6  UNL     1      -0.845   7.676  13.300  1.00  0.00     0.127 C 
HETATM    7  N1  UNL     1      -2.289   7.426  13.275  1.00  0.00    -0.335 N 
HETATM    8  C7  UNL     1      -2.905   6.314  12.690  1.00  0.00     0.251 C 
HETATM    9  O1  UNL     1      -2.131   5.438  12.157  1.00  0.00    -0.270 OA
ENDROOT
BRANCH   8  10
HETATM   10  C8  UNL     1      -4.337   6.009  12.601  1.00  0.00     0.227 C 
BRANCH  10  11
HETATM   11  O2  UNL     1      -4.693   5.445  11.389  1.00  0.00    -0.385 OA
ATOM     12  H2  UNL     1      -5.226   6.023  10.855  1.00  0.00     0.210 HD
ENDBRANCH  10  11
BRANCH  10  13
HETATM   13  C9  UNL     1      -4.684   5.128  13.788  1.00  0.00     0.156 C 
BRANCH  13  14
HETATM   14  N2  UNL     1      -3.789   4.018  13.937  1.00  0.00    -0.406 N 
ATOM     15  H2  UNL     1      -2.843   4.136  14.299  1.00  0.00     0.154 HD
BRANCH  14  16
HETATM   16  C10 UNL     1      -4.284   2.756  13.557  1.00  0.00     0.173 C 
BRANCH  16  17
HETATM   17  C11 UNL     1      -4.539   1.743  14.602  1.00  0.00     0.304 C 
BRANCH  17  18
HETATM   18  N3  UNL     1      -5.050   2.164  15.855  1.00  0.00     0.095 N 
HETATM   19  C12 UNL     1      -4.938   1.113  16.872  1.00  0.00     0.298 C 
HETATM   20  C13 UNL     1      -6.269   0.583  17.319  1.00  0.00     0.198 C 
HETATM   21  O3  UNL     1      -7.064   1.571  17.898  1.00  0.00    -0.388 OA
HETATM   22  C14 UNL     1      -6.748   2.833  17.388  1.00  0.00     0.198 C 
HETATM   23  C15 UNL     1      -6.399   2.635  15.910  1.00  0.00     0.298 C 
ENDBRANCH  17  18
ENDBRANCH  16  17
BRANCH  16  24
HETATM   24  C16 UNL     1      -3.349   2.222  12.489  1.00  0.00     0.099 C 
HETATM   25  N4  UNL     1      -2.141   2.596  12.276  1.00  0.00    -0.377 N 
HETATM   26  C17 UNL     1      -1.508   1.909  11.198  1.00  0.00     0.141 C 
ATOM     27  H4  UNL     1      -1.676   3.317  12.827  1.00  0.00     0.160 HD
HETATM   28  C18 UNL     1      -2.399   0.686  11.030  1.00  0.00     0.143 C 
HETATM   29  N5  UNL     1      -3.649   1.214  11.535  1.00  0.00    -0.372 N 
HETATM   30  C19 UNL     1      -4.940   0.755  11.097  1.00  0.00     0.150 C 
ENDBRANCH  16  24
ENDBRANCH  14  16
ENDBRANCH  13  14
ENDBRANCH  10  13
ENDBRANCH   8  10
TORSDOF 8
ENDMDL
MODEL 5
REMARK VINA RESULT: -6.851661832      3.160      5.805
REMARK  8 active torsions:
REMARK  status: ('A' for Active; 'I' for Inactive)
REMARK       I    between atoms: N1_7  and  C7_8 
REMARK    1  A    between atoms: C7_8  and  C8_10 
REMARK    2  A    between atoms: C8_10  and  O2_11 
REMARK    3  A    between atoms: C8_10  and  C9_13 
REMARK    4  A    between atoms: C9_13  and  N2_14 
REMARK    5  A    between atoms: N2_14  and  C10_16 
REMARK    6  A    between atoms: C10_16  and  C11_17 
REMARK    7  A    between atoms: C10_16  and  C16_24 
REMARK    8  A    between atoms: C11_17  and  N3_18 
ROOT
HETATM    1  C1  UNL     1      -2.794   6.846   9.787  1.00  0.00     0.014 C 
HETATM    2  C2  UNL     1      -3.607   7.503  10.390  1.00  0.00    -0.092 C 
HETATM    3  C3  UNL     1      -4.590   8.284  11.144  1.00  0.00     0.166 C 
HETATM    4  C4  UNL     1      -5.334   9.106  10.085  1.00  0.00     0.040 C 
HETATM    5  C5  UNL     1      -6.765   8.990  10.553  1.00  0.00     0.023 C 
HETATM    6  C6  UNL     1      -6.796   7.504  10.964  1.00  0.00     0.127 C 
HETATM    7  N1  UNL     1      -5.577   7.445  11.776  1.00  0.00    -0.335 N 
HETATM    8  C7  UNL     1      -5.429   6.707  12.956  1.00  0.00     0.251 C 
HETATM    9  O1  UNL     1      -6.441   6.010  13.333  1.00  0.00    -0.270 OA
ENDROOT
BRANCH   8  10
HETATM   10  C8  UNL     1      -4.257   6.619  13.833  1.00  0.00     0.227 C 
BRANCH  10  11
HETATM   11  O2  UNL     1      -4.585   6.669  15.176  1.00  0.00    -0.385 OA
ATOM     12  H2  UNL     1      -3.824   6.730  15.741  1.00  0.00     0.210 HD
ENDBRANCH  10  11
BRANCH  10  13
HETATM   13  C9  UNL     1      -3.504   5.356  13.455  1.00  0.00     0.156 C 
BRANCH  13  14
HETATM   14  N2  UNL     1      -3.462   4.395  14.519  1.00  0.00    -0.406 N 
ATOM     15  H2  UNL     1      -2.959   4.576  15.387  1.00  0.00     0.154 HD
BRANCH  14  16
HETATM   16  C10 UNL     1      -4.151   3.186  14.302  1.00  0.00     0.173 C 
BRANCH  16  17
HETATM   17  C11 UNL     1      -4.734   2.925  12.969  1.00  0.00     0.304 C 
BRANCH  17  18
HETATM   18  N3  UNL     1      -4.551   1.650  12.379  1.00  0.00     0.095 N 
HETATM   19  C12 UNL     1      -3.132   1.347  12.158  1.00  0.00     0.298 C 
HETATM   20  C13 UNL     1      -2.764   1.277  10.705  1.00  0.00     0.198 C 
HETATM   21  O3  UNL     1      -3.462   0.275  10.032  1.00  0.00    -0.388 OA
HETATM   22  C14 UNL     1      -4.697   0.028  10.637  1.00  0.00     0.198 C 
HETATM   23  C15 UNL     1      -5.217   1.378  11.142  1.00  0.00     0.298 C 
ENDBRANCH  17  18
ENDBRANCH  16  17
BRANCH  16  24
HETATM   24  C16 UNL     1      -5.199   3.078  15.392  1.00  0.00     0.099 C 
HETATM   25  N4  UNL     1      -5.990   4.008  15.785  1.00  0.00    -0.377 N 
HETATM   26  C17 UNL     1      -6.872   3.608  16.833  1.00  0.00     0.141 C 
ATOM     27  H4  UNL     1      -5.989   4.946  15.386  1.00  0.00     0.160 HD
HETATM   28  C18 UNL     1      -6.807   2.089  16.744  1.00  0.00     0.143 C 
HETATM   29  N5  UNL     1      -5.487   1.927  16.172  1.00  0.00    -0.372 N 
HETATM   30  C19 UNL     1      -4.659   0.773  16.401  1.00  0.00     0.150 C 
ENDBRANCH  16  24
ENDBRANCH  14  16
ENDBRANCH  13  14
ENDBRANCH  10  13
ENDBRANCH   8  10
TORSDOF 8
ENDMDL
