MODEL 1
REMARK VINA RESULT: -6.909107805      0.000      0.000
REMARK  8 active torsions:
REMARK  status: ('A' for Active; 'I' for Inactive)
REMARK    1  A    between atoms: C2_2  and  N1_3 
REMARK    2  A    between atoms: C4_5  and  N2_6 
REMARK    3  A    between atoms: N2_6  and  C5_8 
REMARK    4  A    between atoms: C5_8  and  N3_10 
REMARK    5  A    between atoms: C10_16  and  O2_17 
REMARK    6  A    between atoms: C10_16  and  C11_19 
REMARK    7  A    between atoms: C12_20  and  C13_21 
REMARK    8  A    between atoms: C13_21  and  S2_22 
ROOT
HETATM    1  N1  UNL     1      -3.535   6.280  12.262  1.00  0.00    -0.368 N 
HETATM    2  C3  UNL     1      -4.709   5.439  12.202  1.00  0.00     0.153 C 
HETATM    3  C4  UNL     1      -4.373   4.108  12.836  1.00  0.00     0.150 C 
HETATM    4  C10 UNL     1      -3.186   3.435  12.238  1.00  0.00     0.165 C 
HETATM    5  C15 UNL     1      -2.411   4.259  11.230  1.00  0.00     0.208 C 
HETATM    6  C16 UNL     1      -1.020   3.817  11.143  1.00  0.00     0.075 C 
HETATM    7  N4  UNL     1       0.089   3.464  11.056  1.00  0.00    -0.196 NA
HETATM    8  C17 UNL     1      -2.394   5.690  11.597  1.00  0.00     0.095 C 
HETATM    9  N5  UNL     1      -1.375   6.402  11.326  1.00  0.00    -0.388 N 
ATOM     10  H51 UNL     1      -0.570   5.985  10.857  1.00  0.00     0.157 HD
ATOM     11  H52 UNL     1      -1.362   7.390  11.580  1.00  0.00     0.157 HD
ENDROOT
BRANCH   4  12
HETATM   12  O2  UNL     1      -2.263   3.206  13.278  1.00  0.00    -0.373 OA
ATOM     13  H2  UNL     1      -1.530   2.729  12.907  1.00  0.00     0.212 HD
ENDBRANCH   4  12
BRANCH   4  14
HETATM   14  C11 UNL     1      -3.517   2.190  11.542  1.00  0.00    -0.063 C 
HETATM   15  C12 UNL     1      -3.813   1.145  10.975  1.00  0.00    -0.091 C 
BRANCH  15  16
HETATM   16  C13 UNL     1      -4.186  -0.094  10.286  1.00  0.00     0.202 C 
BRANCH  16  17
HETATM   17  S2  UNL     1      -4.407  -1.337  11.524  1.00  0.00     0.022 S 
HETATM   18  C14 UNL     1      -3.120  -2.533  11.522  1.00  0.00     0.128 C 
HETATM   19  O3  UNL     1      -4.633  -0.664  13.052  1.00  0.00    -0.258 OA
ENDBRANCH  16  17
ENDBRANCH  15  16
ENDBRANCH   4  14
BRANCH   3  20
HETATM   20  N2  UNL     1      -4.320   4.292  14.252  1.00  0.00    -0.357 N 
ATOM     21  H2  UNL     1      -3.422   4.540  14.665  1.00  0.00     0.162 HD
BRANCH  20  22
HETATM   22  C5  UNL     1      -5.428   4.155  15.118  1.00  0.00     0.170 C 
HETATM   23  S1  UNL     1      -6.399   5.408  15.481  1.00  0.00    -0.041 SA
BRANCH  22  24
HETATM   24  N3  UNL     1      -5.731   2.906  15.747  1.00  0.00    -0.354 N 
HETATM   25  C6  UNL     1      -4.831   1.795  15.524  1.00  0.00     0.151 C 
HETATM   26  C7  UNL     1      -5.150   0.577  16.325  1.00  0.00     0.187 C 
HETATM   27  O1  UNL     1      -6.451   0.474  16.745  1.00  0.00    -0.388 OA
HETATM   28  C8  UNL     1      -6.726   1.586  17.540  1.00  0.00     0.187 C 
HETATM   29  C9  UNL     1      -6.901   2.748  16.579  1.00  0.00     0.151 C 
ENDBRANCH  22  24
ENDBRANCH  20  22
ENDBRANCH   3  20
BRANCH   1  30
HETATM   30  C2  UNL     1      -3.458   7.564  12.890  1.00  0.00     0.119 C 
HETATM   31  C1  UNL     1      -2.973   7.482  14.330  1.00  0.00     0.026 C 
ENDBRANCH   1  30
TORSDOF 8
ENDMDL
MODEL 2
REMARK VINA RESULT: -6.384927646      3.373      5.192
REMARK  8 active torsions:
REMARK  status: ('A' for Active; 'I' for Inactive)
REMARK    1  A    between atoms: C2_2  and  N1_3 
REMARK    2  A    between atoms: C4_5  and  N2_6 
REMARK    3  A    between atoms: N2_6  and  C5_8 
REMARK    4  A    between atoms: C5_8  and  N3_10 
REMARK    5  A    between atoms: C10_16  and  O2_17 
REMARK    6  A    between atoms: C10_16  and  C11_19 
REMARK    7  A    between atoms: C12_20  and  C13_21 
REMARK    8  A    between atoms: C13_21  and  S2_22 
ROOT
HETATM    1  N1  UNL     1      -1.851   4.644  11.385  1.00  0.00    -0.368 N 
HETATM    2  C3  UNL     1      -2.643   5.407  12.323  1.00  0.00     0.153 C 
HETATM    3  C4  UNL     1      -4.102   5.102  12.070  1.00  0.00     0.150 C 
HETATM    4  C10 UNL     1      -4.536   5.342  10.666  1.00  0.00     0.165 C 
HETATM    5  C15 UNL     1      -3.425   5.674   9.690  1.00  0.00     0.208 C 
HETATM    6  C16 UNL     1      -3.801   5.321   8.321  1.00  0.00     0.075 C 
HETATM    7  N4  UNL     1      -4.094   5.056   7.223  1.00  0.00    -0.196 NA
HETATM    8  C17 UNL     1      -2.186   4.937  10.009  1.00  0.00     0.095 C 
HETATM    9  N5  UNL     1      -1.412   4.562   9.070  1.00  0.00    -0.388 N 
ATOM     10  H51 UNL     1      -1.649   4.769   8.100  1.00  0.00     0.157 HD
ATOM     11  H52 UNL     1      -0.556   4.053   9.290  1.00  0.00     0.157 HD
ENDROOT
BRANCH   4  12
HETATM   12  O2  UNL     1      -5.073   4.134  10.178  1.00  0.00    -0.373 OA
ATOM     13  H2  UNL     1      -5.526   4.331   9.366  1.00  0.00     0.212 HD
ENDBRANCH   4  12
BRANCH   4  14
HETATM   14  C11 UNL     1      -5.499   6.437  10.537  1.00  0.00    -0.063 C 
HETATM   15  C12 UNL     1      -6.308   7.349  10.405  1.00  0.00    -0.091 C 
BRANCH  15  16
HETATM   16  C13 UNL     1      -7.294   8.422  10.246  1.00  0.00     0.202 C 
BRANCH  16  17
HETATM   17  S2  UNL     1      -8.376   7.949   8.930  1.00  0.00     0.022 S 
HETATM   18  C14 UNL     1      -8.647   9.244   7.774  1.00  0.00     0.128 C 
HETATM   19  O3  UNL     1      -7.860   6.534   8.175  1.00  0.00    -0.258 OA
ENDBRANCH  16  17
ENDBRANCH  15  16
ENDBRANCH   4  14
BRANCH   3  20
HETATM   20  N2  UNL     1      -4.377   3.795  12.578  1.00  0.00    -0.357 N 
ATOM     21  H2  UNL     1      -4.053   2.997  12.034  1.00  0.00     0.162 HD
BRANCH  20  22
HETATM   22  C5  UNL     1      -5.067   3.535  13.783  1.00  0.00     0.170 C 
HETATM   23  S1  UNL     1      -5.945   4.677  14.539  1.00  0.00    -0.041 SA
BRANCH  22  24
HETATM   24  N3  UNL     1      -4.999   2.254  14.419  1.00  0.00    -0.354 N 
HETATM   25  C6  UNL     1      -4.587   1.120  13.621  1.00  0.00     0.151 C 
HETATM   26  C7  UNL     1      -4.414  -0.144  14.395  1.00  0.00     0.187 C 
HETATM   27  O1  UNL     1      -5.113  -0.212  15.573  1.00  0.00    -0.388 OA
HETATM   28  C8  UNL     1      -4.680   0.841  16.380  1.00  0.00     0.187 C 
HETATM   29  C9  UNL     1      -5.333   2.089  15.814  1.00  0.00     0.151 C 
ENDBRANCH  22  24
ENDBRANCH  20  22
ENDBRANCH   3  20
BRANCH   1  30
HETATM   30  C2  UNL     1      -0.832   3.699  11.726  1.00  0.00     0.119 C 
HETATM   31  C1  UNL     1      -1.348   2.267  11.749  1.00  0.00     0.026 C 
ENDBRANCH   1  30
TORSDOF 8
ENDMDL
MODEL 3
REMARK VINA RESULT: -6.381664809      2.401      3.149
REMARK  8 active torsions:
REMARK  status: ('A' for Active; 'I' for Inactive)
REMARK    1  A    between atoms: C2_2  and  N1_3 
REMARK    2  A    between atoms: C4_5  and  N2_6 
REMARK    3  A    between atoms: N2_6  and  C5_8 
REMARK    4  A    between atoms: C5_8  and  N3_10 
REMARK    5  A    between atoms: C10_16  and  O2_17 
REMARK    6  A    between atoms: C10_16  and  C11_19 
REMARK    7  A    between atoms: C12_20  and  C13_21 
REMARK    8  A    between atoms: C13_21  and  S2_22 
ROOT
HETATM    1  N1  UNL     1      -1.563   6.799  10.584  1.00  0.00    -0.368 N 
HETATM    2  C3  UNL     1      -2.731   6.049  10.989  1.00  0.00     0.153 C 
HETATM    3  C4  UNL     1      -2.314   5.059  12.053  1.00  0.00     0.150 C 
HETATM    4  C10 UNL     1      -1.202   4.159  11.641  1.00  0.00     0.165 C 
HETATM    5  C15 UNL     1      -0.555   4.492  10.311  1.00  0.00     0.208 C 
HETATM    6  C16 UNL     1       0.819   3.996  10.253  1.00  0.00     0.075 C 
HETATM    7  N4  UNL     1       1.913   3.593  10.190  1.00  0.00    -0.196 NA
HETATM    8  C17 UNL     1      -0.504   5.951  10.084  1.00  0.00     0.095 C 
HETATM    9  N5  UNL     1       0.472   6.459   9.444  1.00  0.00    -0.388 N 
ATOM     10  H51 UNL     1       1.219   5.860   9.091  1.00  0.00     0.157 HD
ATOM     11  H52 UNL     1       0.507   7.466   9.287  1.00  0.00     0.157 HD
ENDROOT
BRANCH   4  12
HETATM   12  O2  UNL     1      -0.162   4.318  12.579  1.00  0.00    -0.373 OA
ATOM     13  H2  UNL     1       0.472   3.627  12.421  1.00  0.00     0.212 HD
ENDBRANCH   4  12
BRANCH   4  14
HETATM   14  C11 UNL     1      -1.604   2.756  11.530  1.00  0.00    -0.063 C 
HETATM   15  C12 UNL     1      -1.953   1.583  11.459  1.00  0.00    -0.091 C 
BRANCH  15  16
HETATM   16  C13 UNL     1      -2.395   0.189  11.365  1.00  0.00     0.202 C 
BRANCH  16  17
HETATM   17  S2  UNL     1      -4.155   0.207  11.195  1.00  0.00     0.022 S 
HETATM   18  C14 UNL     1      -4.906   1.544  12.052  1.00  0.00     0.128 C 
HETATM   19  O3  UNL     1      -4.627   0.155   9.579  1.00  0.00    -0.258 OA
ENDBRANCH  16  17
ENDBRANCH  15  16
ENDBRANCH   4  14
BRANCH   3  20
HETATM   20  N2  UNL     1      -2.098   5.779  13.268  1.00  0.00    -0.357 N 
ATOM     21  H2  UNL     1      -1.134   5.942  13.559  1.00  0.00     0.162 HD
BRANCH  20  22
HETATM   22  C5  UNL     1      -3.128   6.283  14.093  1.00  0.00     0.170 C 
HETATM   23  S1  UNL     1      -2.905   7.571  15.061  1.00  0.00    -0.041 SA
BRANCH  22  24
HETATM   24  N3  UNL     1      -4.415   5.659  14.143  1.00  0.00    -0.354 N 
HETATM   25  C6  UNL     1      -4.553   4.444  14.917  1.00  0.00     0.151 C 
HETATM   26  C7  UNL     1      -5.953   3.941  15.024  1.00  0.00     0.187 C 
HETATM   27  O1  UNL     1      -6.803   4.349  14.027  1.00  0.00    -0.388 OA
HETATM   28  C8  UNL     1      -6.850   5.743  14.061  1.00  0.00     0.187 C 
HETATM   29  C9  UNL     1      -5.548   6.217  13.442  1.00  0.00     0.151 C 
ENDBRANCH  22  24
ENDBRANCH  20  22
ENDBRANCH   3  20
BRANCH   1  30
HETATM   30  C2  UNL     1      -1.422   8.222  10.645  1.00  0.00     0.119 C 
HETATM   31  C1  UNL     1      -2.571   8.891  11.385  1.00  0.00     0.026 C 
ENDBRANCH   1  30
TORSDOF 8
ENDMDL
MODEL 4
REMARK VINA RESULT: -6.249740128      3.698      6.190
REMARK  8 active torsions:
REMARK  status: ('A' for Active; 'I' for Inactive)
REMARK    1  A    between atoms: C2_2  and  N1_3 
REMARK    2  A    between atoms: C4_5  and  N2_6 
REMARK    3  A    between atoms: N2_6  and  C5_8 
REMARK    4  A    between atoms: C5_8  and  N3_10 
REMARK    5  A    between atoms: C10_16  and  O2_17 
REMARK    6  A    between atoms: C10_16  and  C11_19 
REMARK    7  A    between atoms: C12_20  and  C13_21 
REMARK    8  A    between atoms: C13_21  and  S2_22 
ROOT
HETATM    1  N1  UNL     1      -4.388   3.291  13.903  1.00  0.00    -0.368 N 
HETATM    2  C3  UNL     1      -3.608   4.474  13.616  1.00  0.00     0.153 C 
HETATM    3  C4  UNL     1      -3.756   4.796  12.146  1.00  0.00     0.150 C 
HETATM    4  C10 UNL     1      -3.396   3.670  11.241  1.00  0.00     0.165 C 
HETATM    5  C15 UNL     1      -3.116   2.348  11.927  1.00  0.00     0.208 C 
HETATM    6  C16 UNL     1      -3.352   1.224  11.023  1.00  0.00     0.075 C 
HETATM    7  N4  UNL     1      -3.525   0.319  10.306  1.00  0.00    -0.196 NA
HETATM    8  C17 UNL     1      -3.986   2.154  13.104  1.00  0.00     0.095 C 
HETATM    9  N5  UNL     1      -4.378   0.985  13.416  1.00  0.00    -0.388 N 
ATOM     10  H51 UNL     1      -4.095   0.183  12.853  1.00  0.00     0.157 HD
ATOM     11  H52 UNL     1      -4.980   0.850  14.230  1.00  0.00     0.157 HD
ENDROOT
BRANCH   4  12
HETATM   12  O2  UNL     1      -4.517   3.407  10.429  1.00  0.00    -0.373 OA
ATOM     13  H2  UNL     1      -4.514   2.477  10.233  1.00  0.00     0.212 HD
ENDBRANCH   4  12
BRANCH   4  14
HETATM   14  C11 UNL     1      -2.207   3.939  10.428  1.00  0.00    -0.063 C 
HETATM   15  C12 UNL     1      -1.224   4.154   9.729  1.00  0.00    -0.091 C 
BRANCH  15  16
HETATM   16  C13 UNL     1      -0.061   4.432   8.882  1.00  0.00     0.202 C 
BRANCH  16  17
HETATM   17  S2  UNL     1       1.320   4.692   9.956  1.00  0.00     0.022 S 
HETATM   18  C14 UNL     1       0.839   5.004  11.617  1.00  0.00     0.128 C 
HETATM   19  O3  UNL     1       2.437   3.436   9.854  1.00  0.00    -0.258 OA
ENDBRANCH  16  17
ENDBRANCH  15  16
ENDBRANCH   4  14
BRANCH   3  20
HETATM   20  N2  UNL     1      -5.058   5.350  11.943  1.00  0.00    -0.357 N 
ATOM     21  H2  UNL     1      -5.860   4.802  12.251  1.00  0.00     0.162 HD
BRANCH  20  22
HETATM   22  C5  UNL     1      -5.308   6.604  11.344  1.00  0.00     0.170 C 
HETATM   23  S1  UNL     1      -4.545   7.958  11.825  1.00  0.00    -0.041 SA
BRANCH  22  24
HETATM   24  N3  UNL     1      -6.277   6.752  10.301  1.00  0.00    -0.354 N 
HETATM   25  C6  UNL     1      -7.345   7.708  10.494  1.00  0.00     0.151 C 
HETATM   26  C7  UNL     1      -8.226   7.893   9.305  1.00  0.00     0.187 C 
HETATM   27  O1  UNL     1      -8.249   6.844   8.422  1.00  0.00    -0.388 OA
HETATM   28  C8  UNL     1      -6.947   6.656   7.958  1.00  0.00     0.187 C 
HETATM   29  C9  UNL     1      -6.201   5.970   9.089  1.00  0.00     0.151 C 
ENDBRANCH  22  24
ENDBRANCH  20  22
ENDBRANCH   3  20
BRANCH   1  30
HETATM   30  C2  UNL     1      -5.445   3.200  14.864  1.00  0.00     0.119 C 
HETATM   31  C1  UNL     1      -6.171   4.522  15.061  1.00  0.00     0.026 C 
ENDBRANCH   1  30
TORSDOF 8
ENDMDL
MODEL 5
REMARK VINA RESULT: -6.160122424      3.646      6.349
REMARK  8 active torsions:
REMARK  status: ('A' for Active; 'I' for Inactive)
REMARK    1  A    between atoms: C2_2  and  N1_3 
REMARK    2  A    between atoms: C4_5  and  N2_6 
REMARK    3  A    between atoms: N2_6  and  C5_8 
REMARK    4  A    between atoms: C5_8  and  N3_10 
REMARK    5  A    between atoms: C10_16  and  O2_17 
REMARK    6  A    between atoms: C10_16  and  C11_19 
REMARK    7  A    between atoms: C12_20  and  C13_21 
REMARK    8  A    between atoms: C13_21  and  S2_22 
ROOT
HETATM    1  N1  UNL     1      -4.588   3.674  13.802  1.00  0.00    -0.368 N 
HETATM    2  C3  UNL     1      -3.896   4.883  13.414  1.00  0.00     0.153 C 
HETATM    3  C4  UNL     1      -4.042   5.053  11.918  1.00  0.00     0.150 C 
HETATM    4  C10 UNL     1      -3.579   3.879  11.127  1.00  0.00     0.165 C 
HETATM    5  C15 UNL     1      -3.211   2.653  11.939  1.00  0.00     0.208 C 
HETATM    6  C16 UNL     1      -3.343   1.433  11.143  1.00  0.00     0.075 C 
HETATM    7  N4  UNL     1      -3.433   0.454  10.514  1.00  0.00    -0.196 NA
HETATM    8  C17 UNL     1      -4.085   2.503  13.120  1.00  0.00     0.095 C 
HETATM    9  N5  UNL     1      -4.392   1.340  13.537  1.00  0.00    -0.388 N 
ATOM     10  H51 UNL     1      -4.038   0.514  13.056  1.00  0.00     0.157 HD
ATOM     11  H52 UNL     1      -4.996   1.236  14.353  1.00  0.00     0.157 HD
ENDROOT
BRANCH   4  12
HETATM   12  O2  UNL     1      -4.661   3.453  10.332  1.00  0.00    -0.373 OA
ATOM     13  H2  UNL     1      -4.804   2.532  10.515  1.00  0.00     0.212 HD
ENDBRANCH   4  12
BRANCH   4  14
HETATM   14  C11 UNL     1      -2.400   4.163  10.306  1.00  0.00    -0.063 C 
HETATM   15  C12 UNL     1      -1.400   4.385   9.634  1.00  0.00    -0.091 C 
BRANCH  15  16
HETATM   16  C13 UNL     1      -0.206   4.628   8.819  1.00  0.00     0.202 C 
BRANCH  16  17
HETATM   17  S2  UNL     1       1.157   4.820   9.929  1.00  0.00     0.022 S 
HETATM   18  C14 UNL     1       0.656   5.312  11.540  1.00  0.00     0.128 C 
HETATM   19  O3  UNL     1       2.129   3.445   9.969  1.00  0.00    -0.258 OA
ENDBRANCH  16  17
ENDBRANCH  15  16
ENDBRANCH   4  14
BRANCH   3  20
HETATM   20  N2  UNL     1      -5.378   5.481  11.649  1.00  0.00    -0.357 N 
ATOM     21  H2  UNL     1      -6.140   4.961  12.083  1.00  0.00     0.162 HD
BRANCH  20  22
HETATM   22  C5  UNL     1      -5.715   6.576  10.823  1.00  0.00     0.170 C 
HETATM   23  S1  UNL     1      -6.349   7.948  11.426  1.00  0.00    -0.041 SA
BRANCH  22  24
HETATM   24  N3  UNL     1      -5.546   6.519   9.403  1.00  0.00    -0.354 N 
HETATM   25  C6  UNL     1      -4.331   7.066   8.840  1.00  0.00     0.151 C 
HETATM   26  C7  UNL     1      -4.180   6.841   7.373  1.00  0.00     0.187 C 
HETATM   27  O1  UNL     1      -5.348   6.628   6.687  1.00  0.00    -0.388 OA
HETATM   28  C8  UNL     1      -5.952   5.493   7.228  1.00  0.00     0.187 C 
HETATM   29  C9  UNL     1      -6.555   5.936   8.549  1.00  0.00     0.151 C 
ENDBRANCH  22  24
ENDBRANCH  20  22
ENDBRANCH   3  20
BRANCH   1  30
HETATM   30  C2  UNL     1      -5.652   3.591  14.756  1.00  0.00     0.119 C 
HETATM   31  C1  UNL     1      -6.197   4.958  15.143  1.00  0.00     0.026 C 
ENDBRANCH   1  30
TORSDOF 8
ENDMDL
