MODEL 1
REMARK VINA RESULT: -7.205045400      0.000      0.000
REMARK  6 active torsions:
REMARK  status: ('A' for Active; 'I' for Inactive)
REMARK    1  A    between atoms: C2_2  and  C3_3 
REMARK    2  A    between atoms: C3_3  and  N1_4 
REMARK    3  A    between atoms: N1_4  and  C4_6 
REMARK    4  A    between atoms: C5_9  and  C6_10 
REMARK    5  A    between atoms: C8_14  and  C9_15 
REMARK    6  A    between atoms: C11_21  and  N6_22 
ROOT
HETATM    1  C4  UNL     1      -2.745   1.547  11.936  1.00  0.00     0.694 A 
HETATM    2  N2  UNL     1      -3.725   1.664  12.845  1.00  0.00    -0.173 N 
ATOM      3  H2  UNL     1      -4.376   0.891  12.985  1.00  0.00     0.186 HD
HETATM    4  C5  UNL     1      -3.860   2.780  13.571  1.00  0.00     0.164 A 
HETATM    5  N5  UNL     1      -2.986   3.780  13.364  1.00  0.00    -0.173 N 
ATOM      6  H5  UNL     1      -3.086   4.633  13.916  1.00  0.00     0.186 HD
HETATM    7  C11 UNL     1      -1.988   3.713  12.468  1.00  0.00     0.696 A 
HETATM    8  N8  UNL     1      -1.894   2.571  11.762  1.00  0.00    -0.022 N 
ATOM      9  H8  UNL     1      -1.149   2.481  11.070  1.00  0.00     0.203 HD
ENDROOT
BRANCH   4  10
HETATM   10  C6  UNL     1      -4.913   2.944  14.571  1.00  0.00     0.094 A 
HETATM   11  C7  UNL     1      -5.775   4.008  14.730  1.00  0.00     0.122 A 
HETATM   12  N3  UNL     1      -6.585   3.752  15.768  1.00  0.00    -0.353 N 
HETATM   13  C8  UNL     1      -6.276   2.559  16.283  1.00  0.00     0.081 A 
ATOM     14  H3  UNL     1      -7.320   4.370  16.110  1.00  0.00     0.166 HD
HETATM   15  N4  UNL     1      -5.249   2.077  15.539  1.00  0.00    -0.342 N 
ATOM     16  H4  UNL     1      -4.795   1.177  15.694  1.00  0.00     0.167 HD
BRANCH  13  17
HETATM   17  C9  UNL     1      -6.939   1.917  17.438  1.00  0.00     0.072 C 
HETATM   18  C10 UNL     1      -6.284   0.585  17.718  1.00  0.00     0.013 C 
ENDBRANCH  13  17
ENDBRANCH   4  10
BRANCH   1  19
HETATM   19  N1  UNL     1      -2.579   0.492  11.215  1.00  0.00    -0.226 N 
ATOM     20  H1  UNL     1      -1.623   0.168  11.069  1.00  0.00     0.177 HD
BRANCH  19  21
HETATM   21  C3  UNL     1      -3.632  -0.262  10.604  1.00  0.00     0.137 C 
BRANCH  21  22
HETATM   22  C2  UNL     1      -4.020  -1.373  11.578  1.00  0.00     0.016 C 
HETATM   23  C1  UNL     1      -2.916  -2.425  11.500  1.00  0.00     0.006 C 
ENDBRANCH  21  22
ENDBRANCH  19  21
ENDBRANCH   1  19
BRANCH   7  24
HETATM   24  N6  UNL     1      -1.073   4.813  12.278  1.00  0.00    -0.214 N 
HETATM   25  C12 UNL     1      -1.302   5.997  13.043  1.00  0.00     0.160 C 
HETATM   26  C13 UNL     1      -0.539   7.199  12.609  1.00  0.00     0.136 C 
HETATM   27  N7  UNL     1       0.776   6.959  12.129  1.00  0.00    -0.414 N 
HETATM   28  C14 UNL     1       1.199   7.830  11.068  1.00  0.00     0.143 C 
HETATM   29  C15 UNL     1       1.138   5.595  11.951  1.00  0.00     0.136 C 
HETATM   30  C16 UNL     1       0.023   4.752  11.373  1.00  0.00     0.160 C 
ENDBRANCH   7  24
TORSDOF 6
ENDMDL
MODEL 2
REMARK VINA RESULT: -7.171295035      0.456      1.088
REMARK  6 active torsions:
REMARK  status: ('A' for Active; 'I' for Inactive)
REMARK    1  A    between atoms: C2_2  and  C3_3 
REMARK    2  A    between atoms: C3_3  and  N1_4 
REMARK    3  A    between atoms: N1_4  and  C4_6 
REMARK    4  A    between atoms: C5_9  and  C6_10 
REMARK    5  A    between atoms: C8_14  and  C9_15 
REMARK    6  A    between atoms: C11_21  and  N6_22 
ROOT
HETATM    1  C4  UNL     1      -2.686   1.503  11.905  1.00  0.00     0.694 A 
HETATM    2  N2  UNL     1      -3.685   1.687  12.783  1.00  0.00    -0.173 N 
ATOM      3  H2  UNL     1      -4.381   0.953  12.914  1.00  0.00     0.186 HD
HETATM    4  C5  UNL     1      -3.779   2.820  13.489  1.00  0.00     0.164 A 
HETATM    5  N5  UNL     1      -2.846   3.768  13.295  1.00  0.00    -0.173 N 
ATOM      6  H5  UNL     1      -2.915   4.633  13.831  1.00  0.00     0.186 HD
HETATM    7  C11 UNL     1      -1.828   3.632  12.430  1.00  0.00     0.696 A 
HETATM    8  N8  UNL     1      -1.776   2.476  11.743  1.00  0.00    -0.022 N 
ATOM      9  H8  UNL     1      -1.017   2.334  11.075  1.00  0.00     0.203 HD
ENDROOT
BRANCH   4  10
HETATM   10  C6  UNL     1      -4.851   3.057  14.454  1.00  0.00     0.094 A 
HETATM   11  C7  UNL     1      -5.641   4.178  14.588  1.00  0.00     0.122 A 
HETATM   12  N3  UNL     1      -6.500   3.979  15.599  1.00  0.00    -0.353 N 
HETATM   13  C8  UNL     1      -6.292   2.767  16.120  1.00  0.00     0.081 A 
ATOM     14  H3  UNL     1      -7.201   4.647  15.918  1.00  0.00     0.166 HD
HETATM   15  N4  UNL     1      -5.278   2.215  15.409  1.00  0.00    -0.342 N 
ATOM     16  H4  UNL     1      -4.892   1.285  15.576  1.00  0.00     0.167 HD
BRANCH  13  17
HETATM   17  C9  UNL     1      -7.035   2.173  17.251  1.00  0.00     0.072 C 
HETATM   18  C10 UNL     1      -6.435   0.831  17.599  1.00  0.00     0.013 C 
ENDBRANCH  13  17
ENDBRANCH   4  10
BRANCH   1  19
HETATM   19  N1  UNL     1      -2.557   0.429  11.205  1.00  0.00    -0.226 N 
ATOM     20  H1  UNL     1      -1.612   0.079  11.050  1.00  0.00     0.177 HD
BRANCH  19  21
HETATM   21  C3  UNL     1      -3.638  -0.311  10.627  1.00  0.00     0.137 C 
BRANCH  21  22
HETATM   22  C2  UNL     1      -4.000  -1.427  11.604  1.00  0.00     0.016 C 
HETATM   23  C1  UNL     1      -2.880  -2.461  11.518  1.00  0.00     0.006 C 
ENDBRANCH  21  22
ENDBRANCH  19  21
ENDBRANCH   1  19
BRANCH   7  24
HETATM   24  N6  UNL     1      -0.848   4.677  12.252  1.00  0.00    -0.214 N 
HETATM   25  C12 UNL     1       0.315   4.363  11.486  1.00  0.00     0.160 C 
HETATM   26  C13 UNL     1       1.428   5.347  11.575  1.00  0.00     0.136 C 
HETATM   27  N7  UNL     1       1.045   6.711  11.675  1.00  0.00    -0.414 N 
HETATM   28  C14 UNL     1       1.906   7.521  12.490  1.00  0.00     0.143 C 
HETATM   29  C15 UNL     1      -0.344   6.958  11.860  1.00  0.00     0.136 C 
HETATM   30  C16 UNL     1      -1.005   5.978  12.806  1.00  0.00     0.160 C 
ENDBRANCH   7  24
TORSDOF 6
ENDMDL
MODEL 3
REMARK VINA RESULT: -6.943614714      2.600      6.320
REMARK  6 active torsions:
REMARK  status: ('A' for Active; 'I' for Inactive)
REMARK    1  A    between atoms: C2_2  and  C3_3 
REMARK    2  A    between atoms: C3_3  and  N1_4 
REMARK    3  A    between atoms: N1_4  and  C4_6 
REMARK    4  A    between atoms: C5_9  and  C6_10 
REMARK    5  A    between atoms: C8_14  and  C9_15 
REMARK    6  A    between atoms: C11_21  and  N6_22 
ROOT
HETATM    1  C4  UNL     1      -3.352   1.921  12.325  1.00  0.00     0.694 A 
HETATM    2  N2  UNL     1      -3.500   3.135  11.770  1.00  0.00    -0.173 N 
ATOM      3  H2  UNL     1      -3.065   3.332  10.869  1.00  0.00     0.186 HD
HETATM    4  C5  UNL     1      -4.210   4.089  12.383  1.00  0.00     0.164 A 
HETATM    5  N5  UNL     1      -4.772   3.797  13.570  1.00  0.00    -0.173 N 
ATOM      6  H5  UNL     1      -5.314   4.523  14.040  1.00  0.00     0.186 HD
HETATM    7  C11 UNL     1      -4.655   2.600  14.165  1.00  0.00     0.696 A 
HETATM    8  N8  UNL     1      -3.931   1.673  13.511  1.00  0.00    -0.022 N 
ATOM      9  H8  UNL     1      -3.818   0.750  13.931  1.00  0.00     0.203 HD
ENDROOT
BRANCH   4  10
HETATM   10  C6  UNL     1      -4.393   5.421  11.812  1.00  0.00     0.094 A 
HETATM   11  C7  UNL     1      -3.569   6.089  10.931  1.00  0.00     0.122 A 
HETATM   12  N3  UNL     1      -4.111   7.286  10.661  1.00  0.00    -0.353 N 
HETATM   13  C8  UNL     1      -5.256   7.414  11.337  1.00  0.00     0.081 A 
ATOM     14  H3  UNL     1      -3.712   7.988  10.039  1.00  0.00     0.166 HD
HETATM   15  N4  UNL     1      -5.415   6.263  12.038  1.00  0.00    -0.342 N 
ATOM     16  H4  UNL     1      -6.204   6.064  12.653  1.00  0.00     0.167 HD
BRANCH  13  17
HETATM   17  C9  UNL     1      -6.152   8.589  11.308  1.00  0.00     0.072 C 
HETATM   18  C10 UNL     1      -7.540   8.175  11.738  1.00  0.00     0.013 C 
ENDBRANCH  13  17
ENDBRANCH   4  10
BRANCH   1  19
HETATM   19  N1  UNL     1      -2.678   0.974  11.770  1.00  0.00    -0.226 N 
ATOM     20  H1  UNL     1      -1.700   0.872  12.041  1.00  0.00     0.177 HD
BRANCH  19  21
HETATM   21  C3  UNL     1      -3.194   0.055  10.801  1.00  0.00     0.137 C 
BRANCH  21  22
HETATM   22  C2  UNL     1      -3.900  -1.063  11.566  1.00  0.00     0.016 C 
HETATM   23  C1  UNL     1      -2.994  -2.289  11.480  1.00  0.00     0.006 C 
ENDBRANCH  21  22
ENDBRANCH  19  21
ENDBRANCH   1  19
BRANCH   7  24
HETATM   24  N6  UNL     1      -5.274   2.331  15.441  1.00  0.00    -0.214 N 
HETATM   25  C12 UNL     1      -6.489   3.020  15.739  1.00  0.00     0.160 C 
HETATM   26  C13 UNL     1      -6.933   2.956  17.158  1.00  0.00     0.136 C 
HETATM   27  N7  UNL     1      -6.678   1.732  17.833  1.00  0.00    -0.414 N 
HETATM   28  C14 UNL     1      -6.362   1.868  19.227  1.00  0.00     0.143 C 
HETATM   29  C15 UNL     1      -5.874   0.789  17.135  1.00  0.00     0.136 C 
HETATM   30  C16 UNL     1      -4.722   1.424  16.387  1.00  0.00     0.160 C 
ENDBRANCH   7  24
TORSDOF 6
ENDMDL
MODEL 4
REMARK VINA RESULT: -6.877966528      1.735      6.355
REMARK  6 active torsions:
REMARK  status: ('A' for Active; 'I' for Inactive)
REMARK    1  A    between atoms: C2_2  and  C3_3 
REMARK    2  A    between atoms: C3_3  and  N1_4 
REMARK    3  A    between atoms: N1_4  and  C4_6 
REMARK    4  A    between atoms: C5_9  and  C6_10 
REMARK    5  A    between atoms: C8_14  and  C9_15 
REMARK    6  A    between atoms: C11_21  and  N6_22 
ROOT
HETATM    1  C4  UNL     1      -2.674   2.804  12.044  1.00  0.00     0.694 A 
HETATM    2  N2  UNL     1      -2.140   4.033  12.119  1.00  0.00    -0.173 N 
ATOM      3  H2  UNL     1      -1.522   4.359  11.376  1.00  0.00     0.186 HD
HETATM    4  C5  UNL     1      -2.406   4.836  13.156  1.00  0.00     0.164 A 
HETATM    5  N5  UNL     1      -3.225   4.377  14.119  1.00  0.00    -0.173 N 
ATOM      6  H5  UNL     1      -3.430   4.986  14.911  1.00  0.00     0.186 HD
HETATM    7  C11 UNL     1      -3.785   3.157  14.089  1.00  0.00     0.696 A 
HETATM    8  N8  UNL     1      -3.487   2.386  13.027  1.00  0.00    -0.022 N 
ATOM      9  H8  UNL     1      -3.892   1.452  12.968  1.00  0.00     0.203 HD
ENDROOT
BRANCH   4  10
HETATM   10  C6  UNL     1      -1.844   6.180  13.274  1.00  0.00     0.094 A 
HETATM   11  C7  UNL     1      -0.933   6.795  12.443  1.00  0.00     0.122 A 
HETATM   12  N3  UNL     1      -0.687   8.027  12.914  1.00  0.00    -0.353 N 
HETATM   13  C8  UNL     1      -1.409   8.227  14.020  1.00  0.00     0.081 A 
ATOM     14  H3  UNL     1      -0.050   8.703  12.494  1.00  0.00     0.166 HD
HETATM   15  N4  UNL     1      -2.112   7.086  14.227  1.00  0.00    -0.342 N 
ATOM     16  H4  UNL     1      -2.758   6.937  15.003  1.00  0.00     0.167 HD
BRANCH  13  17
HETATM   17  C9  UNL     1      -1.418   9.459  14.836  1.00  0.00     0.072 C 
HETATM   18  C10 UNL     1      -1.811   9.121  16.255  1.00  0.00     0.013 C 
ENDBRANCH  13  17
ENDBRANCH   4  10
BRANCH   1  19
HETATM   19  N1  UNL     1      -2.444   1.998  11.064  1.00  0.00    -0.226 N 
ATOM     20  H1  UNL     1      -2.404   2.397  10.127  1.00  0.00     0.177 HD
BRANCH  19  21
HETATM   21  C3  UNL     1      -2.241   0.587  11.191  1.00  0.00     0.137 C 
BRANCH  21  22
HETATM   22  C2  UNL     1      -3.447  -0.105  10.558  1.00  0.00     0.016 C 
HETATM   23  C1  UNL     1      -4.137  -0.883  11.676  1.00  0.00     0.006 C 
ENDBRANCH  21  22
ENDBRANCH  19  21
ENDBRANCH   1  19
BRANCH   7  24
HETATM   24  N6  UNL     1      -4.658   2.705  15.147  1.00  0.00    -0.214 N 
HETATM   25  C12 UNL     1      -5.963   3.280  15.211  1.00  0.00     0.160 C 
HETATM   26  C13 UNL     1      -6.717   3.024  16.469  1.00  0.00     0.136 C 
HETATM   27  N7  UNL     1      -6.520   1.749  17.062  1.00  0.00    -0.414 N 
HETATM   28  C14 UNL     1      -6.548   1.741  18.497  1.00  0.00     0.143 C 
HETATM   29  C15 UNL     1      -5.498   0.944  16.488  1.00  0.00     0.136 C 
HETATM   30  C16 UNL     1      -4.263   1.729  16.104  1.00  0.00     0.160 C 
ENDBRANCH   7  24
TORSDOF 6
ENDMDL
MODEL 5
REMARK VINA RESULT: -6.782672624      1.902      7.361
REMARK  6 active torsions:
REMARK  status: ('A' for Active; 'I' for Inactive)
REMARK    1  A    between atoms: C2_2  and  C3_3 
REMARK    2  A    between atoms: C3_3  and  N1_4 
REMARK    3  A    between atoms: N1_4  and  C4_6 
REMARK    4  A    between atoms: C5_9  and  C6_10 
REMARK    5  A    between atoms: C8_14  and  C9_15 
REMARK    6  A    between atoms: C11_21  and  N6_22 
ROOT
HETATM    1  C4  UNL     1      -3.781   5.470  12.909  1.00  0.00     0.694 A 
HETATM    2  N2  UNL     1      -2.540   5.970  12.805  1.00  0.00    -0.173 N 
ATOM      3  H2  UNL     1      -2.376   6.957  13.005  1.00  0.00     0.186 HD
HETATM    4  C5  UNL     1      -1.514   5.191  12.443  1.00  0.00     0.164 A 
HETATM    5  N5  UNL     1      -1.761   3.895  12.187  1.00  0.00    -0.173 N 
ATOM      6  H5  UNL     1      -0.981   3.298  11.911  1.00  0.00     0.186 HD
HETATM    7  C11 UNL     1      -2.983   3.347  12.277  1.00  0.00     0.696 A 
HETATM    8  N8  UNL     1      -3.983   4.170  12.644  1.00  0.00    -0.022 N 
ATOM      9  H8  UNL     1      -4.927   3.791  12.724  1.00  0.00     0.203 HD
ENDROOT
BRANCH   4  10
HETATM   10  C6  UNL     1      -0.149   5.698  12.319  1.00  0.00     0.094 A 
HETATM   11  C7  UNL     1       0.262   7.005  12.163  1.00  0.00     0.122 A 
HETATM   12  N3  UNL     1       1.601   7.027  12.091  1.00  0.00    -0.353 N 
HETATM   13  C8  UNL     1       2.069   5.781  12.197  1.00  0.00     0.081 A 
ATOM     14  H3  UNL     1       2.172   7.864  11.974  1.00  0.00     0.166 HD
HETATM   15  N4  UNL     1       0.984   4.978  12.336  1.00  0.00    -0.342 N 
ATOM     16  H4  UNL     1       1.025   3.963  12.439  1.00  0.00     0.167 HD
BRANCH  13  17
HETATM   17  C9  UNL     1       3.492   5.385  12.165  1.00  0.00     0.072 C 
HETATM   18  C10 UNL     1       4.167   5.825  13.443  1.00  0.00     0.013 C 
ENDBRANCH  13  17
ENDBRANCH   4  10
BRANCH   1  19
HETATM   19  N1  UNL     1      -4.798   6.183  13.254  1.00  0.00    -0.226 N 
ATOM     20  H1  UNL     1      -4.689   7.197  13.235  1.00  0.00     0.177 HD
BRANCH  19  21
HETATM   21  C3  UNL     1      -6.068   5.663  13.662  1.00  0.00     0.137 C 
BRANCH  21  22
HETATM   22  C2  UNL     1      -6.006   5.446  15.173  1.00  0.00     0.016 C 
HETATM   23  C1  UNL     1      -6.383   3.988  15.419  1.00  0.00     0.006 C 
ENDBRANCH  21  22
ENDBRANCH  19  21
ENDBRANCH   1  19
BRANCH   7  24
HETATM   24  N6  UNL     1      -3.203   1.949  11.992  1.00  0.00    -0.214 N 
HETATM   25  C12 UNL     1      -4.343   1.329  12.588  1.00  0.00     0.160 C 
HETATM   26  C13 UNL     1      -4.373  -0.158  12.524  1.00  0.00     0.136 C 
HETATM   27  N7  UNL     1      -3.840  -0.739  11.342  1.00  0.00    -0.414 N 
HETATM   28  C14 UNL     1      -3.165  -1.991  11.537  1.00  0.00     0.143 C 
HETATM   29  C15 UNL     1      -3.183   0.153  10.449  1.00  0.00     0.136 C 
HETATM   30  C16 UNL     1      -2.338   1.191  11.155  1.00  0.00     0.160 C 
ENDBRANCH   7  24
TORSDOF 6
ENDMDL
