MODEL 1
REMARK VINA RESULT: -7.679439619      0.000      0.000
REMARK  7 active torsions:
REMARK  status: ('A' for Active; 'I' for Inactive)
REMARK    1  A    between atoms: C2_2  and  C4_4 
REMARK    2  A    between atoms: C5_5  and  C6_6 
REMARK    3  A    between atoms: C6_6  and  C7_8 
REMARK    4  A    between atoms: C14_17  and  C15_18 
REMARK    5  A    between atoms: C15_18  and  O4_19 
REMARK    6  A    between atoms: C15_18  and  C16_21 
REMARK    7  A    between atoms: C16_21  and  O5_22 
ROOT
HETATM    1  C7  UNL     1      -4.392   4.342  11.904  1.00  0.00     0.130 C 
HETATM    2  C8  UNL     1      -3.927   3.358  10.887  1.00  0.00     0.023 C 
HETATM    3  C9  UNL     1      -4.658   2.045  10.934  1.00  0.00     0.038 C 
HETATM    4  C10 UNL     1      -3.745   1.059  11.674  1.00  0.00     0.057 C 
HETATM    5  C11 UNL     1      -2.652   0.701  10.652  1.00  0.00     0.045 C 
HETATM    6  C12 UNL     1      -4.464  -0.189  12.019  1.00  0.00     0.045 C 
HETATM    7  O2  UNL     1      -3.140   1.726  12.677  1.00  0.00    -0.350 OA
HETATM    8  C13 UNL     1      -3.652   1.672  13.918  1.00  0.00     0.275 C 
HETATM    9  O3  UNL     1      -4.911   1.208  14.142  1.00  0.00    -0.351 OA
HETATM   10  C14 UNL     1      -5.107   2.206  15.084  1.00  0.00     0.171 C 
HETATM   11  C17 UNL     1      -4.126   3.054  14.325  1.00  0.00     0.143 C 
HETATM   12  C18 UNL     1      -4.753   3.758  13.202  1.00  0.00     0.149 C 
HETATM   13  O6  UNL     1      -5.966   3.910  13.410  1.00  0.00    -0.296 OA
ENDROOT
BRANCH   1  14
HETATM   14  C6  UNL     1      -3.279   5.342  12.171  1.00  0.00     0.160 C 
HETATM   15  O1  UNL     1      -2.127   4.895  12.295  1.00  0.00    -0.292 OA
BRANCH  14  16
HETATM   16  C5  UNL     1      -3.616   6.728  12.263  1.00  0.00     0.047 C 
HETATM   17  C4  UNL     1      -3.576   7.449  13.337  1.00  0.00    -0.019 C 
BRANCH  17  18
HETATM   18  C2  UNL     1      -3.199   7.078  14.682  1.00  0.00    -0.000 C 
HETATM   19  C1  UNL     1      -2.681   8.273  15.487  1.00  0.00     0.013 C 
HETATM   20  C3  UNL     1      -4.481   6.657  15.440  1.00  0.00     0.013 C 
ENDBRANCH  17  18
ENDBRANCH  14  16
ENDBRANCH   1  14
BRANCH  10  21
HETATM   21  C15 UNL     1      -4.628   1.868  16.477  1.00  0.00     0.171 C 
BRANCH  21  22
HETATM   22  O4  UNL     1      -3.738   0.808  16.489  1.00  0.00    -0.391 OA
ATOM     23  H4  UNL     1      -2.999   0.960  17.066  1.00  0.00     0.210 HD
ENDBRANCH  21  22
BRANCH  21  24
HETATM   24  C16 UNL     1      -5.854   1.475  17.298  1.00  0.00     0.198 C 
BRANCH  24  25
HETATM   25  O5  UNL     1      -6.449   0.348  16.737  1.00  0.00    -0.398 OA
ATOM     26  H5  UNL     1      -7.394   0.450  16.745  1.00  0.00     0.209 HD
ENDBRANCH  24  25
ENDBRANCH  21  24
ENDBRANCH  10  21
TORSDOF 7
ENDMDL
MODEL 2
REMARK VINA RESULT: -7.625200983      2.008      5.249
REMARK  7 active torsions:
REMARK  status: ('A' for Active; 'I' for Inactive)
REMARK    1  A    between atoms: C2_2  and  C4_4 
REMARK    2  A    between atoms: C5_5  and  C6_6 
REMARK    3  A    between atoms: C6_6  and  C7_8 
REMARK    4  A    between atoms: C14_17  and  C15_18 
REMARK    5  A    between atoms: C15_18  and  O4_19 
REMARK    6  A    between atoms: C15_18  and  C16_21 
REMARK    7  A    between atoms: C16_21  and  O5_22 
ROOT
HETATM    1  C7  UNL     1      -4.461   2.972  14.614  1.00  0.00     0.130 C 
HETATM    2  C8  UNL     1      -3.649   4.204  14.412  1.00  0.00     0.023 C 
HETATM    3  C9  UNL     1      -3.797   4.811  13.044  1.00  0.00     0.038 C 
HETATM    4  C10 UNL     1      -2.563   4.387  12.238  1.00  0.00     0.057 C 
HETATM    5  C11 UNL     1      -1.424   5.268  12.781  1.00  0.00     0.045 C 
HETATM    6  C12 UNL     1      -2.725   4.697  10.799  1.00  0.00     0.045 C 
HETATM    7  O2  UNL     1      -2.267   3.115  12.570  1.00  0.00    -0.350 OA
HETATM    8  C13 UNL     1      -2.708   2.104  11.802  1.00  0.00     0.275 C 
HETATM    9  O3  UNL     1      -3.677   2.300  10.868  1.00  0.00    -0.351 OA
HETATM   10  C14 UNL     1      -4.248   1.085  11.211  1.00  0.00     0.171 C 
HETATM   11  C17 UNL     1      -3.689   1.264  12.595  1.00  0.00     0.143 C 
HETATM   12  C18 UNL     1      -4.552   2.098  13.438  1.00  0.00     0.149 C 
HETATM   13  O6  UNL     1      -5.724   2.053  13.036  1.00  0.00    -0.296 OA
ENDROOT
BRANCH   1  14
HETATM   14  C6  UNL     1      -3.835   2.144  15.725  1.00  0.00     0.160 C 
HETATM   15  O1  UNL     1      -2.821   2.602  16.277  1.00  0.00    -0.292 OA
BRANCH  14  16
HETATM   16  C5  UNL     1      -4.443   0.896  16.069  1.00  0.00     0.047 C 
HETATM   17  C4  UNL     1      -5.527   0.745  16.759  1.00  0.00    -0.019 C 
BRANCH  17  18
HETATM   18  C2  UNL     1      -6.390   1.742  17.349  1.00  0.00    -0.000 C 
HETATM   19  C1  UNL     1      -7.872   1.415  17.150  1.00  0.00     0.013 C 
HETATM   20  C3  UNL     1      -6.208   1.686  18.885  1.00  0.00     0.013 C 
ENDBRANCH  17  18
ENDBRANCH  14  16
ENDBRANCH   1  14
BRANCH  10  21
HETATM   21  C15 UNL     1      -3.665  -0.115  10.500  1.00  0.00     0.171 C 
BRANCH  21  22
HETATM   22  O4  UNL     1      -4.154  -0.258   9.213  1.00  0.00    -0.391 OA
ATOM     23  H4  UNL     1      -5.014  -0.660   9.193  1.00  0.00     0.210 HD
ENDBRANCH  21  22
BRANCH  21  24
HETATM   24  C16 UNL     1      -4.055  -1.354  11.302  1.00  0.00     0.198 C 
BRANCH  24  25
HETATM   25  O5  UNL     1      -2.978  -2.234  11.354  1.00  0.00    -0.398 OA
ATOM     26  H5  UNL     1      -3.223  -3.062  10.957  1.00  0.00     0.209 HD
ENDBRANCH  24  25
ENDBRANCH  21  24
ENDBRANCH  10  21
TORSDOF 7
ENDMDL
MODEL 3
REMARK VINA RESULT: -7.613677508      1.407      2.017
REMARK  7 active torsions:
REMARK  status: ('A' for Active; 'I' for Inactive)
REMARK    1  A    between atoms: C2_2  and  C4_4 
REMARK    2  A    between atoms: C5_5  and  C6_6 
REMARK    3  A    between atoms: C6_6  and  C7_8 
REMARK    4  A    between atoms: C14_17  and  C15_18 
REMARK    5  A    between atoms: C15_18  and  O4_19 
REMARK    6  A    between atoms: C15_18  and  C16_21 
REMARK    7  A    between atoms: C16_21  and  O5_22 
ROOT
HETATM    1  C7  UNL     1      -4.712   5.411  13.527  1.00  0.00     0.130 C 
HETATM    2  C8  UNL     1      -3.967   5.164  12.260  1.00  0.00     0.023 C 
HETATM    3  C9  UNL     1      -4.431   3.945  11.511  1.00  0.00     0.038 C 
HETATM    4  C10 UNL     1      -3.420   2.831  11.815  1.00  0.00     0.057 C 
HETATM    5  C11 UNL     1      -2.184   3.189  10.971  1.00  0.00     0.045 C 
HETATM    6  C12 UNL     1      -3.914   1.513  11.353  1.00  0.00     0.045 C 
HETATM    7  O2  UNL     1      -3.057   2.941  13.108  1.00  0.00    -0.350 OA
HETATM    8  C13 UNL     1      -3.668   2.189  14.039  1.00  0.00     0.275 C 
HETATM    9  O3  UNL     1      -4.829   1.534  13.766  1.00  0.00    -0.351 OA
HETATM   10  C14 UNL     1      -5.306   1.863  15.025  1.00  0.00     0.171 C 
HETATM   11  C17 UNL     1      -4.438   3.090  14.985  1.00  0.00     0.143 C 
HETATM   12  C18 UNL     1      -5.078   4.198  14.269  1.00  0.00     0.149 C 
HETATM   13  O6  UNL     1      -6.311   4.078  14.297  1.00  0.00    -0.296 OA
ENDROOT
BRANCH   1  14
HETATM   14  C6  UNL     1      -3.845   6.245  14.455  1.00  0.00     0.160 C 
HETATM   15  O1  UNL     1      -4.369   6.671  15.498  1.00  0.00    -0.292 OA
BRANCH  14  16
HETATM   16  C5  UNL     1      -2.487   6.491  14.081  1.00  0.00     0.047 C 
HETATM   17  C4  UNL     1      -1.847   7.605  14.236  1.00  0.00    -0.019 C 
BRANCH  17  18
HETATM   18  C2  UNL     1      -2.298   8.855  14.803  1.00  0.00    -0.000 C 
HETATM   19  C1  UNL     1      -1.768   9.072  16.222  1.00  0.00     0.013 C 
HETATM   20  C3  UNL     1      -1.654  10.008  13.994  1.00  0.00     0.013 C 
ENDBRANCH  17  18
ENDBRANCH  14  16
ENDBRANCH   1  14
BRANCH  10  21
HETATM   21  C15 UNL     1      -4.908   0.905  16.125  1.00  0.00     0.171 C 
BRANCH  21  22
HETATM   22  O4  UNL     1      -4.946  -0.416  15.718  1.00  0.00    -0.391 OA
ATOM     23  H4  UNL     1      -5.556  -0.937  16.226  1.00  0.00     0.210 HD
ENDBRANCH  21  22
BRANCH  21  24
HETATM   24  C16 UNL     1      -5.906   1.084  17.267  1.00  0.00     0.198 C 
BRANCH  24  25
HETATM   25  O5  UNL     1      -7.109   0.466  16.936  1.00  0.00    -0.398 OA
ATOM     26  H5  UNL     1      -7.751   0.634  17.616  1.00  0.00     0.209 HD
ENDBRANCH  24  25
ENDBRANCH  21  24
ENDBRANCH  10  21
TORSDOF 7
ENDMDL
MODEL 4
REMARK VINA RESULT: -7.530363040      1.060      1.748
REMARK  7 active torsions:
REMARK  status: ('A' for Active; 'I' for Inactive)
REMARK    1  A    between atoms: C2_2  and  C4_4 
REMARK    2  A    between atoms: C5_5  and  C6_6 
REMARK    3  A    between atoms: C6_6  and  C7_8 
REMARK    4  A    between atoms: C14_17  and  C15_18 
REMARK    5  A    between atoms: C15_18  and  O4_19 
REMARK    6  A    between atoms: C15_18  and  C16_21 
REMARK    7  A    between atoms: C16_21  and  O5_22 
ROOT
HETATM    1  C7  UNL     1      -4.454   4.374  11.996  1.00  0.00     0.130 C 
HETATM    2  C8  UNL     1      -3.977   3.417  10.958  1.00  0.00     0.023 C 
HETATM    3  C9  UNL     1      -4.691   2.094  10.979  1.00  0.00     0.038 C 
HETATM    4  C10 UNL     1      -3.763   1.104  11.698  1.00  0.00     0.057 C 
HETATM    5  C11 UNL     1      -2.667   0.782  10.667  1.00  0.00     0.045 C 
HETATM    6  C12 UNL     1      -4.465  -0.160  12.018  1.00  0.00     0.045 C 
HETATM    7  O2  UNL     1      -3.165   1.759  12.714  1.00  0.00    -0.350 OA
HETATM    8  C13 UNL     1      -3.675   1.673  13.954  1.00  0.00     0.275 C 
HETATM    9  O3  UNL     1      -4.927   1.187  14.169  1.00  0.00    -0.351 OA
HETATM   10  C14 UNL     1      -5.135   2.163  15.132  1.00  0.00     0.171 C 
HETATM   11  C17 UNL     1      -4.166   3.039  14.389  1.00  0.00     0.143 C 
HETATM   12  C18 UNL     1      -4.805   3.758  13.282  1.00  0.00     0.149 C 
HETATM   13  O6  UNL     1      -6.019   3.889  13.494  1.00  0.00    -0.296 OA
ENDROOT
BRANCH   1  14
HETATM   14  C6  UNL     1      -3.353   5.382  12.282  1.00  0.00     0.160 C 
HETATM   15  O1  UNL     1      -2.227   5.148  11.813  1.00  0.00    -0.292 OA
BRANCH  14  16
HETATM   16  C5  UNL     1      -3.672   6.534  13.067  1.00  0.00     0.047 C 
HETATM   17  C4  UNL     1      -4.514   7.462  12.744  1.00  0.00    -0.019 C 
BRANCH  17  18
HETATM   18  C2  UNL     1      -5.332   7.593  11.560  1.00  0.00    -0.000 C 
HETATM   19  C1  UNL     1      -6.815   7.355  11.851  1.00  0.00     0.013 C 
HETATM   20  C3  UNL     1      -5.283   9.073  11.106  1.00  0.00     0.013 C 
ENDBRANCH  17  18
ENDBRANCH  14  16
ENDBRANCH   1  14
BRANCH  10  21
HETATM   21  C15 UNL     1      -4.649   1.803  16.518  1.00  0.00     0.171 C 
BRANCH  21  22
HETATM   22  O4  UNL     1      -3.743   0.757  16.506  1.00  0.00    -0.391 OA
ATOM     23  H4  UNL     1      -4.069  -0.013  16.958  1.00  0.00     0.210 HD
ENDBRANCH  21  22
BRANCH  21  24
HETATM   24  C16 UNL     1      -5.868   1.373  17.331  1.00  0.00     0.198 C 
BRANCH  24  25
HETATM   25  O5  UNL     1      -6.462   0.267  16.731  1.00  0.00    -0.398 OA
ATOM     26  H5  UNL     1      -6.957  -0.219  17.380  1.00  0.00     0.209 HD
ENDBRANCH  24  25
ENDBRANCH  21  24
ENDBRANCH  10  21
TORSDOF 7
ENDMDL
MODEL 5
REMARK VINA RESULT: -7.360479347      1.829      5.855
REMARK  7 active torsions:
REMARK  status: ('A' for Active; 'I' for Inactive)
REMARK    1  A    between atoms: C2_2  and  C4_4 
REMARK    2  A    between atoms: C5_5  and  C6_6 
REMARK    3  A    between atoms: C6_6  and  C7_8 
REMARK    4  A    between atoms: C14_17  and  C15_18 
REMARK    5  A    between atoms: C15_18  and  O4_19 
REMARK    6  A    between atoms: C15_18  and  C16_21 
REMARK    7  A    between atoms: C16_21  and  O5_22 
ROOT
HETATM    1  C7  UNL     1      -4.888   3.114  14.638  1.00  0.00     0.130 C 
HETATM    2  C8  UNL     1      -4.996   4.507  15.155  1.00  0.00     0.023 C 
HETATM    3  C9  UNL     1      -5.338   5.521  14.099  1.00  0.00     0.038 C 
HETATM    4  C10 UNL     1      -4.026   6.224  13.723  1.00  0.00     0.057 C 
HETATM    5  C11 UNL     1      -3.743   7.173  14.901  1.00  0.00     0.045 C 
HETATM    6  C12 UNL     1      -4.187   7.052  12.506  1.00  0.00     0.045 C 
HETATM    7  O2  UNL     1      -3.045   5.299  13.721  1.00  0.00    -0.350 OA
HETATM    8  C13 UNL     1      -2.680   4.716  12.567  1.00  0.00     0.275 C 
HETATM    9  O3  UNL     1      -3.454   4.814  11.452  1.00  0.00    -0.351 OA
HETATM   10  C14 UNL     1      -3.184   3.487  11.154  1.00  0.00     0.171 C 
HETATM   11  C17 UNL     1      -3.011   3.238  12.626  1.00  0.00     0.143 C 
HETATM   12  C18 UNL     1      -4.290   3.000  13.303  1.00  0.00     0.149 C 
HETATM   13  O6  UNL     1      -5.131   2.569  12.500  1.00  0.00    -0.296 OA
ENDROOT
BRANCH   1  14
HETATM   14  C6  UNL     1      -4.011   2.304  15.579  1.00  0.00     0.160 C 
HETATM   15  O1  UNL     1      -2.933   2.810  15.933  1.00  0.00    -0.292 OA
BRANCH  14  16
HETATM   16  C5  UNL     1      -4.469   1.017  15.999  1.00  0.00     0.047 C 
HETATM   17  C4  UNL     1      -5.488   0.787  16.763  1.00  0.00    -0.019 C 
BRANCH  17  18
HETATM   18  C2  UNL     1      -6.407   1.717  17.378  1.00  0.00    -0.000 C 
HETATM   19  C1  UNL     1      -7.868   1.313  17.166  1.00  0.00     0.013 C 
HETATM   20  C3  UNL     1      -6.224   1.627  18.913  1.00  0.00     0.013 C 
ENDBRANCH  17  18
ENDBRANCH  14  16
ENDBRANCH   1  14
BRANCH  10  21
HETATM   21  C15 UNL     1      -1.911   3.258  10.371  1.00  0.00     0.171 C 
BRANCH  21  22
HETATM   22  O4  UNL     1      -2.023   3.650   9.049  1.00  0.00    -0.391 OA
ATOM     23  H4  UNL     1      -1.314   3.319   8.510  1.00  0.00     0.210 HD
ENDBRANCH  21  22
BRANCH  21  24
HETATM   24  C16 UNL     1      -1.620   1.760  10.405  1.00  0.00     0.198 C 
BRANCH  24  25
HETATM   25  O5  UNL     1      -2.780   1.053  10.101  1.00  0.00    -0.398 OA
ATOM     26  H5  UNL     1      -2.609   0.452   9.385  1.00  0.00     0.209 HD
ENDBRANCH  24  25
ENDBRANCH  21  24
ENDBRANCH  10  21
TORSDOF 7
ENDMDL
