MODEL 1
REMARK VINA RESULT: -7.103486288      0.000      0.000
REMARK  8 active torsions:
REMARK  status: ('A' for Active; 'I' for Inactive)
REMARK    1  A    between atoms: O1_1  and  C1_3 
REMARK    2  A    between atoms: C1_3  and  C2_4 
REMARK    3  A    between atoms: C3_6  and  S1_7 
REMARK    4  A    between atoms: S1_7  and  S2_8 
REMARK    5  A    between atoms: S2_8  and  C4_9 
REMARK    6  A    between atoms: C10_15  and  O3_16 
REMARK    7  A    between atoms: C11_18  and  O4_19 
REMARK    8  A    between atoms: C12_21  and  O5_22 
ROOT
HETATM    1  C2  UNL     1       1.581  10.435  14.136  1.00  0.00     0.178 C 
HETATM    2  O2  UNL     1       2.257   9.274  13.841  1.00  0.00    -0.362 OA
HETATM    3  C3  UNL     1       2.683   8.553  14.936  1.00  0.00     0.225 C 
HETATM    4  C10 UNL     1       1.606   8.309  15.959  1.00  0.00     0.189 C 
HETATM    5  C11 UNL     1       0.871   9.555  16.364  1.00  0.00     0.181 C 
HETATM    6  C12 UNL     1       0.444  10.258  15.103  1.00  0.00     0.180 C 
ENDROOT
BRANCH   3   7
HETATM    7  S1  UNL     1       3.163   6.912  14.293  1.00  0.00    -0.062 SA
BRANCH   7   8
HETATM    8  S2  UNL     1       5.292   6.947  14.100  1.00  0.00    -0.090 SA
BRANCH   8   9
HETATM    9  C4  UNL     1       5.955   6.272  15.632  1.00  0.00     0.058 C 
HETATM   10  C5  UNL     1       5.594   4.798  15.767  1.00  0.00     0.016 C 
HETATM   11  C6  UNL     1       6.654   4.215  16.696  1.00  0.00     0.001 C 
HETATM   12  C7  UNL     1       6.702   5.099  17.923  1.00  0.00     0.000 C 
HETATM   13  C8  UNL     1       5.523   6.026  18.026  1.00  0.00     0.001 C 
HETATM   14  C9  UNL     1       5.461   6.979  16.862  1.00  0.00     0.016 C 
ENDBRANCH   8   9
ENDBRANCH   7   8
ENDBRANCH   3   7
BRANCH   4  15
HETATM   15  O3  UNL     1       2.157   7.670  17.054  1.00  0.00    -0.389 OA
ATOM     16  H3  UNL     1       1.643   6.897  17.256  1.00  0.00     0.210 HD
ENDBRANCH   4  15
BRANCH   1  17
HETATM   17  C1  UNL     1       2.458  11.551  14.630  1.00  0.00     0.198 C 
BRANCH  17  18
HETATM   18  O1  UNL     1       3.467  11.724  13.667  1.00  0.00    -0.398 OA
ATOM     19  H1  UNL     1       4.206  11.201  13.953  1.00  0.00     0.209 HD
ENDBRANCH  17  18
ENDBRANCH   1  17
BRANCH   5  20
HETATM   20  O4  UNL     1      -0.300   9.144  17.019  1.00  0.00    -0.390 OA
ATOM     21  H4  UNL     1      -0.799   9.930  17.212  1.00  0.00     0.210 HD
ENDBRANCH   5  20
BRANCH   6  22
HETATM   22  O5  UNL     1      -0.583   9.547  14.493  1.00  0.00    -0.390 OA
ATOM     23  H5  UNL     1      -1.025  10.101  13.862  1.00  0.00     0.210 HD
ENDBRANCH   6  22
TORSDOF 8
ENDMDL
MODEL 2
REMARK VINA RESULT: -6.628274947      8.575      9.460
REMARK  8 active torsions:
REMARK  status: ('A' for Active; 'I' for Inactive)
REMARK    1  A    between atoms: O1_1  and  C1_3 
REMARK    2  A    between atoms: C1_3  and  C2_4 
REMARK    3  A    between atoms: C3_6  and  S1_7 
REMARK    4  A    between atoms: S1_7  and  S2_8 
REMARK    5  A    between atoms: S2_8  and  C4_9 
REMARK    6  A    between atoms: C10_15  and  O3_16 
REMARK    7  A    between atoms: C11_18  and  O4_19 
REMARK    8  A    between atoms: C12_21  and  O5_22 
ROOT
HETATM    1  C2  UNL     1      -1.688   5.373   6.242  1.00  0.00     0.178 C 
HETATM    2  O2  UNL     1      -0.314   5.342   6.231  1.00  0.00    -0.362 OA
HETATM    3  C3  UNL     1       0.293   6.040   7.254  1.00  0.00     0.225 C 
HETATM    4  C10 UNL     1      -0.247   5.707   8.619  1.00  0.00     0.189 C 
HETATM    5  C11 UNL     1      -1.744   5.782   8.706  1.00  0.00     0.181 C 
HETATM    6  C12 UNL     1      -2.304   4.986   7.558  1.00  0.00     0.180 C 
ENDROOT
BRANCH   3   7
HETATM    7  S1  UNL     1       2.041   5.508   7.248  1.00  0.00    -0.062 SA
BRANCH   7   8
HETATM    8  S2  UNL     1       2.038   3.459   6.636  1.00  0.00    -0.090 SA
BRANCH   8   9
HETATM    9  C4  UNL     1       1.930   2.476   8.141  1.00  0.00     0.058 C 
HETATM   10  C5  UNL     1       2.401   1.051   7.883  1.00  0.00     0.016 C 
HETATM   11  C6  UNL     1       2.839   0.527   9.247  1.00  0.00     0.001 C 
HETATM   12  C7  UNL     1       1.700   0.786  10.208  1.00  0.00     0.000 C 
HETATM   13  C8  UNL     1       0.413   1.137   9.513  1.00  0.00     0.001 C 
HETATM   14  C9  UNL     1       0.541   2.404   8.711  1.00  0.00     0.016 C 
ENDBRANCH   8   9
ENDBRANCH   7   8
ENDBRANCH   3   7
BRANCH   4  15
HETATM   15  O3  UNL     1       0.355   6.528   9.556  1.00  0.00    -0.389 OA
ATOM     16  H3  UNL     1       0.979   6.019  10.060  1.00  0.00     0.210 HD
ENDBRANCH   4  15
BRANCH   1  17
HETATM   17  C1  UNL     1      -2.280   6.684   5.805  1.00  0.00     0.198 C 
BRANCH  17  18
HETATM   18  O1  UNL     1      -3.171   6.393   4.759  1.00  0.00    -0.398 OA
ATOM     19  H1  UNL     1      -4.041   6.602   5.078  1.00  0.00     0.209 HD
ENDBRANCH  17  18
ENDBRANCH   1  17
BRANCH   5  20
HETATM   20  O4  UNL     1      -2.120   5.119   9.884  1.00  0.00    -0.390 OA
ATOM     21  H4  UNL     1      -2.690   4.403   9.629  1.00  0.00     0.210 HD
ENDBRANCH   5  20
BRANCH   6  22
HETATM   22  O5  UNL     1      -2.106   3.629   7.786  1.00  0.00    -0.390 OA
ATOM     23  H5  UNL     1      -2.917   3.233   8.081  1.00  0.00     0.210 HD
ENDBRANCH   6  22
TORSDOF 8
ENDMDL
MODEL 3
REMARK VINA RESULT: -6.619772299      9.259     10.387
REMARK  8 active torsions:
REMARK  status: ('A' for Active; 'I' for Inactive)
REMARK    1  A    between atoms: O1_1  and  C1_3 
REMARK    2  A    between atoms: C1_3  and  C2_4 
REMARK    3  A    between atoms: C3_6  and  S1_7 
REMARK    4  A    between atoms: S1_7  and  S2_8 
REMARK    5  A    between atoms: S2_8  and  C4_9 
REMARK    6  A    between atoms: C10_15  and  O3_16 
REMARK    7  A    between atoms: C11_18  and  O4_19 
REMARK    8  A    between atoms: C12_21  and  O5_22 
ROOT
HETATM    1  C2  UNL     1       0.424   6.877   5.206  1.00  0.00     0.178 C 
HETATM    2  O2  UNL     1       0.454   6.664   6.564  1.00  0.00    -0.362 OA
HETATM    3  C3  UNL     1      -0.625   7.171   7.257  1.00  0.00     0.225 C 
HETATM    4  C10 UNL     1      -1.958   6.782   6.675  1.00  0.00     0.189 C 
HETATM    5  C11 UNL     1      -2.068   7.048   5.201  1.00  0.00     0.181 C 
HETATM    6  C12 UNL     1      -0.855   6.449   4.541  1.00  0.00     0.180 C 
ENDROOT
BRANCH   3   7
HETATM    7  S1  UNL     1      -0.548   6.413   8.917  1.00  0.00    -0.062 SA
BRANCH   7   8
HETATM    8  S2  UNL     1      -1.179   4.385   8.677  1.00  0.00    -0.090 SA
BRANCH   8   9
HETATM    9  C4  UNL     1       0.317   3.405   8.467  1.00  0.00     0.058 C 
HETATM   10  C5  UNL     1       0.655   3.256   6.989  1.00  0.00     0.016 C 
HETATM   11  C6  UNL     1       2.155   2.983   6.952  1.00  0.00     0.001 C 
HETATM   12  C7  UNL     1       2.421   1.842   7.910  1.00  0.00     0.000 C 
HETATM   13  C8  UNL     1       1.170   1.118   8.324  1.00  0.00     0.001 C 
HETATM   14  C9  UNL     1       0.219   2.027   9.056  1.00  0.00     0.016 C 
ENDBRANCH   8   9
ENDBRANCH   7   8
ENDBRANCH   3   7
BRANCH   4  15
HETATM   15  O3  UNL     1      -2.963   7.419   7.379  1.00  0.00    -0.389 OA
ATOM     16  H3  UNL     1      -2.968   8.341   7.149  1.00  0.00     0.210 HD
ENDBRANCH   4  15
BRANCH   1  17
HETATM   17  C1  UNL     1       0.725   8.292   4.796  1.00  0.00     0.198 C 
BRANCH  17  18
HETATM   18  O1  UNL     1       0.729   8.310   3.392  1.00  0.00    -0.398 OA
ATOM     19  H1  UNL     1       0.196   9.050   3.129  1.00  0.00     0.209 HD
ENDBRANCH  17  18
ENDBRANCH   1  17
BRANCH   5  20
HETATM   20  O4  UNL     1      -3.181   6.329   4.738  1.00  0.00    -0.390 OA
ATOM     21  H4  UNL     1      -3.116   6.300   3.790  1.00  0.00     0.210 HD
ENDBRANCH   5  20
BRANCH   6  22
HETATM   22  O5  UNL     1      -0.948   5.062   4.555  1.00  0.00    -0.390 OA
ATOM     23  H5  UNL     1      -0.355   4.695   3.911  1.00  0.00     0.210 HD
ENDBRANCH   6  22
TORSDOF 8
ENDMDL
MODEL 4
REMARK VINA RESULT: -6.545250989      2.557      6.376
REMARK  8 active torsions:
REMARK  status: ('A' for Active; 'I' for Inactive)
REMARK    1  A    between atoms: O1_1  and  C1_3 
REMARK    2  A    between atoms: C1_3  and  C2_4 
REMARK    3  A    between atoms: C3_6  and  S1_7 
REMARK    4  A    between atoms: S1_7  and  S2_8 
REMARK    5  A    between atoms: S2_8  and  C4_9 
REMARK    6  A    between atoms: C10_15  and  O3_16 
REMARK    7  A    between atoms: C11_18  and  O4_19 
REMARK    8  A    between atoms: C12_21  and  O5_22 
ROOT
HETATM    1  C2  UNL     1       6.072   6.732  14.580  1.00  0.00     0.178 C 
HETATM    2  O2  UNL     1       5.190   7.214  13.641  1.00  0.00    -0.362 OA
HETATM    3  C3  UNL     1       3.887   6.792  13.795  1.00  0.00     0.225 C 
HETATM    4  C10 UNL     1       3.350   6.976  15.189  1.00  0.00     0.189 C 
HETATM    5  C11 UNL     1       4.247   6.414  16.255  1.00  0.00     0.181 C 
HETATM    6  C12 UNL     1       5.634   6.940  16.003  1.00  0.00     0.180 C 
ENDROOT
BRANCH   3   7
HETATM    7  S1  UNL     1       2.886   7.870  12.712  1.00  0.00    -0.062 SA
BRANCH   7   8
HETATM    8  S2  UNL     1       2.504   9.650  13.832  1.00  0.00    -0.090 SA
BRANCH   8   9
HETATM    9  C4  UNL     1       0.720   9.734  14.066  1.00  0.00     0.058 C 
HETATM   10  C5  UNL     1       0.099  10.719  13.084  1.00  0.00     0.016 C 
HETATM   11  C6  UNL     1      -1.353  10.274  12.945  1.00  0.00     0.001 C 
HETATM   12  C7  UNL     1      -1.914  10.144  14.344  1.00  0.00     0.000 C 
HETATM   13  C8  UNL     1      -1.045  10.791  15.387  1.00  0.00     0.001 C 
HETATM   14  C9  UNL     1       0.317  10.152  15.451  1.00  0.00     0.016 C 
ENDBRANCH   8   9
ENDBRANCH   7   8
ENDBRANCH   3   7
BRANCH   4  15
HETATM   15  O3  UNL     1       2.080   6.433  15.260  1.00  0.00    -0.389 OA
ATOM     16  H3  UNL     1       1.515   7.026  15.742  1.00  0.00     0.210 HD
ENDBRANCH   4  15
BRANCH   1  17
HETATM   17  C1  UNL     1       6.435   5.284  14.399  1.00  0.00     0.198 C 
BRANCH  17  18
HETATM   18  O1  UNL     1       7.151   5.198  13.193  1.00  0.00    -0.398 OA
ATOM     19  H1  UNL     1       6.626   4.669  12.604  1.00  0.00     0.209 HD
ENDBRANCH  17  18
ENDBRANCH   1  17
BRANCH   5  20
HETATM   20  O4  UNL     1       3.820   6.958  17.477  1.00  0.00    -0.390 OA
ATOM     21  H4  UNL     1       4.086   6.350  18.158  1.00  0.00     0.210 HD
ENDBRANCH   5  20
BRANCH   6  22
HETATM   22  O5  UNL     1       5.688   8.294  16.316  1.00  0.00    -0.390 OA
ATOM     23  H5  UNL     1       4.836   8.688  16.174  1.00  0.00     0.210 HD
ENDBRANCH   6  22
TORSDOF 8
ENDMDL
MODEL 5
REMARK VINA RESULT: -6.533544730      8.832     10.783
REMARK  8 active torsions:
REMARK  status: ('A' for Active; 'I' for Inactive)
REMARK    1  A    between atoms: O1_1  and  C1_3 
REMARK    2  A    between atoms: C1_3  and  C2_4 
REMARK    3  A    between atoms: C3_6  and  S1_7 
REMARK    4  A    between atoms: S1_7  and  S2_8 
REMARK    5  A    between atoms: S2_8  and  C4_9 
REMARK    6  A    between atoms: C10_15  and  O3_16 
REMARK    7  A    between atoms: C11_18  and  O4_19 
REMARK    8  A    between atoms: C12_21  and  O5_22 
ROOT
HETATM    1  C2  UNL     1       1.029   4.834   6.289  1.00  0.00     0.178 C 
HETATM    2  O2  UNL     1      -0.136   5.555   6.175  1.00  0.00    -0.362 OA
HETATM    3  C3  UNL     1      -1.270   4.801   5.961  1.00  0.00     0.225 C 
HETATM    4  C10 UNL     1      -1.432   3.659   6.928  1.00  0.00     0.189 C 
HETATM    5  C11 UNL     1      -0.206   2.799   7.049  1.00  0.00     0.181 C 
HETATM    6  C12 UNL     1       0.966   3.713   7.289  1.00  0.00     0.180 C 
ENDROOT
BRANCH   3   7
HETATM    7  S1  UNL     1      -2.678   5.927   6.257  1.00  0.00    -0.062 SA
BRANCH   7   8
HETATM    8  S2  UNL     1      -1.834   7.869   6.559  1.00  0.00    -0.090 SA
BRANCH   8   9
HETATM    9  C4  UNL     1      -1.778   8.130   8.340  1.00  0.00     0.058 C 
HETATM   10  C5  UNL     1      -1.866   6.800   9.078  1.00  0.00     0.016 C 
HETATM   11  C6  UNL     1      -1.220   7.059  10.435  1.00  0.00     0.001 C 
HETATM   12  C7  UNL     1      -1.879   8.292  11.013  1.00  0.00     0.000 C 
HETATM   13  C8  UNL     1      -3.143   8.674  10.295  1.00  0.00     0.001 C 
HETATM   14  C9  UNL     1      -2.882   9.012   8.851  1.00  0.00     0.016 C 
ENDBRANCH   8   9
ENDBRANCH   7   8
ENDBRANCH   3   7
BRANCH   4  15
HETATM   15  O3  UNL     1      -2.538   2.912   6.567  1.00  0.00    -0.389 OA
ATOM     16  H3  UNL     1      -3.323   3.353   6.869  1.00  0.00     0.210 HD
ENDBRANCH   4  15
BRANCH   1  17
HETATM   17  C1  UNL     1       1.544   4.284   4.988  1.00  0.00     0.198 C 
BRANCH  17  18
HETATM   18  O1  UNL     1       2.892   3.951   5.199  1.00  0.00    -0.398 OA
ATOM     19  H1  UNL     1       3.149   3.391   4.476  1.00  0.00     0.209 HD
ENDBRANCH  17  18
ENDBRANCH   1  17
BRANCH   5  20
HETATM   20  O4  UNL     1      -0.362   2.023   8.207  1.00  0.00    -0.390 OA
ATOM     21  H4  UNL     1       0.060   1.188   8.040  1.00  0.00     0.210 HD
ENDBRANCH   5  20
BRANCH   6  22
HETATM   22  O5  UNL     1       0.898   4.236   8.575  1.00  0.00    -0.390 OA
ATOM     23  H5  UNL     1       1.291   3.628   9.189  1.00  0.00     0.210 HD
ENDBRANCH   6  22
TORSDOF 8
ENDMDL
