MODEL 1
REMARK VINA RESULT: -6.923663233      0.000      0.000
REMARK  7 active torsions:
REMARK  status: ('A' for Active; 'I' for Inactive)
REMARK    1  A    between atoms: O1_1  and  C1_3 
REMARK    2  A    between atoms: C1_3  and  O2_4 
REMARK    3  A    between atoms: O2_4  and  C2_5 
REMARK    4  A    between atoms: C3_6  and  O3_7 
REMARK    5  A    between atoms: C6_12  and  C7_13 
REMARK    6  A    between atoms: C7_13  and  C8_14 
REMARK    7  A    between atoms: C8_14  and  C9_15 
ROOT
HETATM    1  C2  UNL     1      -0.895   3.718   7.162  1.00  0.00     0.184 C 
HETATM    2  C3  UNL     1      -0.073   2.476   7.490  1.00  0.00     0.152 C 
HETATM    3  C4  UNL     1       1.361   2.976   7.548  1.00  0.00     0.069 C 
HETATM    4  C5  UNL     1       1.159   4.332   8.195  1.00  0.00     0.156 C 
HETATM    5  O4  UNL     1       2.232   5.170   8.048  1.00  0.00    -0.376 OA
HETATM    6  C6  UNL     1       1.796   6.478   8.248  1.00  0.00     0.146 C 
HETATM    7  C12 UNL     1       0.423   6.541   8.874  1.00  0.00     0.200 C 
HETATM    8  O6  UNL     1      -0.549   5.920   8.096  1.00  0.00    -0.378 OA
HETATM    9  C13 UNL     1       0.020   4.891   7.364  1.00  0.00     0.182 C 
ENDROOT
BRANCH   6  10
HETATM   10  C7  UNL     1       2.761   7.103   9.243  1.00  0.00     0.041 C 
BRANCH  10  11
HETATM   11  C8  UNL     1       1.946   7.578  10.453  1.00  0.00     0.069 C 
BRANCH  11  12
HETATM   12  C9  UNL     1       2.727   7.395  11.698  1.00  0.00     0.071 A 
HETATM   13  C10 UNL     1       4.098   7.405  11.793  1.00  0.00     0.123 A 
HETATM   14  N1  UNL     1       4.376   7.202  13.108  1.00  0.00    -0.335 N 
HETATM   15  C11 UNL     1       3.185   7.082  13.723  1.00  0.00     0.219 A 
ATOM     16  H1  UNL     1       5.299   7.151  13.540  1.00  0.00     0.168 HD
HETATM   17  S1  UNL     1       2.981   6.825  15.318  1.00  0.00    -0.033 SA
HETATM   18  O5  UNL     1       2.214   7.199  12.870  1.00  0.00    -0.287 OA
ENDBRANCH  11  12
ENDBRANCH  10  11
ENDBRANCH   6  10
BRANCH   2  19
HETATM   19  O3  UNL     1      -0.420   2.099   8.793  1.00  0.00    -0.393 OA
ATOM     20  H3  UNL     1       0.389   1.865   9.233  1.00  0.00     0.210 HD
ENDBRANCH   2  19
BRANCH   1  21
HETATM   21  O2  UNL     1      -2.057   3.783   7.877  1.00  0.00    -0.357 OA
BRANCH  21  22
HETATM   22  C1  UNL     1      -3.136   3.900   7.003  1.00  0.00     0.335 C 
BRANCH  22  23
HETATM   23  O1  UNL     1      -3.576   2.700   6.504  1.00  0.00    -0.377 OA
ATOM     24  H1  UNL     1      -4.349   2.774   5.956  1.00  0.00     0.212 HD
ENDBRANCH  22  23
ENDBRANCH  21  22
ENDBRANCH   1  21
TORSDOF 7
ENDMDL
MODEL 2
REMARK VINA RESULT: -6.704222771      3.757      5.694
REMARK  7 active torsions:
REMARK  status: ('A' for Active; 'I' for Inactive)
REMARK    1  A    between atoms: O1_1  and  C1_3 
REMARK    2  A    between atoms: C1_3  and  O2_4 
REMARK    3  A    between atoms: O2_4  and  C2_5 
REMARK    4  A    between atoms: C3_6  and  O3_7 
REMARK    5  A    between atoms: C6_12  and  C7_13 
REMARK    6  A    between atoms: C7_13  and  C8_14 
REMARK    7  A    between atoms: C8_14  and  C9_15 
ROOT
HETATM    1  C2  UNL     1      -1.798   7.584   9.383  1.00  0.00     0.184 C 
HETATM    2  C3  UNL     1      -1.425   7.048  10.762  1.00  0.00     0.152 C 
HETATM    3  C4  UNL     1      -1.679   5.553  10.667  1.00  0.00     0.069 C 
HETATM    4  C5  UNL     1      -1.221   5.279   9.249  1.00  0.00     0.156 C 
HETATM    5  O4  UNL     1      -1.667   4.083   8.754  1.00  0.00    -0.376 OA
HETATM    6  C6  UNL     1      -1.600   4.131   7.363  1.00  0.00     0.146 C 
HETATM    7  C12 UNL     1      -0.773   5.293   6.865  1.00  0.00     0.200 C 
HETATM    8  O6  UNL     1      -1.278   6.524   7.275  1.00  0.00    -0.378 OA
HETATM    9  C13 UNL     1      -1.929   6.385   8.490  1.00  0.00     0.182 C 
ENDROOT
BRANCH   6  10
HETATM   10  C7  UNL     1      -0.883   2.864   6.925  1.00  0.00     0.041 C 
BRANCH  10  11
HETATM   11  C8  UNL     1       0.626   3.138   6.973  1.00  0.00     0.069 C 
BRANCH  11  12
HETATM   12  C9  UNL     1       1.284   2.206   7.918  1.00  0.00     0.071 A 
HETATM   13  C10 UNL     1       2.488   1.576   7.715  1.00  0.00     0.123 A 
HETATM   14  N1  UNL     1       2.702   0.825   8.827  1.00  0.00    -0.335 N 
HETATM   15  C11 UNL     1       1.638   1.035   9.625  1.00  0.00     0.219 A 
ATOM     16  H1  UNL     1       3.503   0.224   9.019  1.00  0.00     0.168 HD
HETATM   17  S1  UNL     1       1.419   0.355  11.087  1.00  0.00    -0.033 SA
HETATM   18  O5  UNL     1       0.803   1.859   9.068  1.00  0.00    -0.287 OA
ENDBRANCH  11  12
ENDBRANCH  10  11
ENDBRANCH   6  10
BRANCH   2  19
HETATM   19  O3  UNL     1      -0.040   7.212  10.893  1.00  0.00    -0.393 OA
ATOM     20  H3  UNL     1       0.103   8.114  11.156  1.00  0.00     0.210 HD
ENDBRANCH   2  19
BRANCH   1  21
HETATM   21  O2  UNL     1      -0.920   8.528   8.932  1.00  0.00    -0.357 OA
BRANCH  21  22
HETATM   22  C1  UNL     1      -1.547   9.772   8.905  1.00  0.00     0.335 C 
BRANCH  22  23
HETATM   23  O1  UNL     1      -2.917   9.701   8.906  1.00  0.00    -0.377 OA
ATOM     24  H1  UNL     1      -3.290   9.514   9.760  1.00  0.00     0.212 HD
ENDBRANCH  22  23
ENDBRANCH  21  22
ENDBRANCH   1  21
TORSDOF 7
ENDMDL
MODEL 3
REMARK VINA RESULT: -6.701678074      1.134      1.179
REMARK  7 active torsions:
REMARK  status: ('A' for Active; 'I' for Inactive)
REMARK    1  A    between atoms: O1_1  and  C1_3 
REMARK    2  A    between atoms: C1_3  and  O2_4 
REMARK    3  A    between atoms: O2_4  and  C2_5 
REMARK    4  A    between atoms: C3_6  and  O3_7 
REMARK    5  A    between atoms: C6_12  and  C7_13 
REMARK    6  A    between atoms: C7_13  and  C8_14 
REMARK    7  A    between atoms: C8_14  and  C9_15 
ROOT
HETATM    1  C2  UNL     1      -0.686   3.500   7.154  1.00  0.00     0.184 C 
HETATM    2  C3  UNL     1       0.012   2.210   7.573  1.00  0.00     0.152 C 
HETATM    3  C4  UNL     1       1.490   2.565   7.576  1.00  0.00     0.069 C 
HETATM    4  C5  UNL     1       1.438   3.982   8.112  1.00  0.00     0.156 C 
HETATM    5  O4  UNL     1       2.587   4.692   7.886  1.00  0.00    -0.376 OA
HETATM    6  C6  UNL     1       2.289   6.049   7.983  1.00  0.00     0.146 C 
HETATM    7  C12 UNL     1       0.941   6.301   8.616  1.00  0.00     0.200 C 
HETATM    8  O6  UNL     1      -0.103   5.722   7.902  1.00  0.00    -0.378 OA
HETATM    9  C13 UNL     1       0.347   4.585   7.250  1.00  0.00     0.182 C 
ENDROOT
BRANCH   6  10
HETATM   10  C7  UNL     1       3.330   6.651   8.914  1.00  0.00     0.041 C 
BRANCH  10  11
HETATM   11  C8  UNL     1       2.601   7.568   9.904  1.00  0.00     0.069 C 
BRANCH  11  12
HETATM   12  C9  UNL     1       3.147   7.382  11.268  1.00  0.00     0.071 A 
HETATM   13  C10 UNL     1       2.432   7.479  12.437  1.00  0.00     0.123 A 
HETATM   14  N1  UNL     1       3.323   7.236  13.434  1.00  0.00    -0.335 N 
HETATM   15  C11 UNL     1       4.504   7.011  12.827  1.00  0.00     0.219 A 
ATOM     16  H1  UNL     1       3.137   7.226  14.437  1.00  0.00     0.168 HD
HETATM   17  S1  UNL     1       5.897   6.671  13.596  1.00  0.00    -0.033 SA
HETATM   18  O5  UNL     1       4.381   7.102  11.538  1.00  0.00    -0.287 OA
ENDBRANCH  11  12
ENDBRANCH  10  11
ENDBRANCH   6  10
BRANCH   2  19
HETATM   19  O3  UNL     1      -0.347   1.977   8.907  1.00  0.00    -0.393 OA
ATOM     20  H3  UNL     1      -1.265   1.732   8.902  1.00  0.00     0.210 HD
ENDBRANCH   2  19
BRANCH   1  21
HETATM   21  O2  UNL     1      -1.822   3.740   7.873  1.00  0.00    -0.357 OA
BRANCH  21  22
HETATM   22  C1  UNL     1      -2.889   3.952   7.002  1.00  0.00     0.335 C 
BRANCH  22  23
HETATM   23  O1  UNL     1      -3.599   2.814   6.710  1.00  0.00    -0.377 OA
ATOM     24  H1  UNL     1      -3.139   2.213   6.136  1.00  0.00     0.212 HD
ENDBRANCH  22  23
ENDBRANCH  21  22
ENDBRANCH   1  21
TORSDOF 7
ENDMDL
MODEL 4
REMARK VINA RESULT: -6.688359200      1.796      1.966
REMARK  7 active torsions:
REMARK  status: ('A' for Active; 'I' for Inactive)
REMARK    1  A    between atoms: O1_1  and  C1_3 
REMARK    2  A    between atoms: C1_3  and  O2_4 
REMARK    3  A    between atoms: O2_4  and  C2_5 
REMARK    4  A    between atoms: C3_6  and  O3_7 
REMARK    5  A    between atoms: C6_12  and  C7_13 
REMARK    6  A    between atoms: C7_13  and  C8_14 
REMARK    7  A    between atoms: C8_14  and  C9_15 
ROOT
HETATM    1  C2  UNL     1      -0.783   3.337   7.128  1.00  0.00     0.184 C 
HETATM    2  C3  UNL     1       0.014   2.202   7.763  1.00  0.00     0.152 C 
HETATM    3  C4  UNL     1       1.467   2.607   7.571  1.00  0.00     0.069 C 
HETATM    4  C5  UNL     1       1.372   4.104   7.787  1.00  0.00     0.156 C 
HETATM    5  O4  UNL     1       2.460   4.791   7.321  1.00  0.00    -0.376 OA
HETATM    6  C6  UNL     1       2.094   6.123   7.141  1.00  0.00     0.146 C 
HETATM    7  C12 UNL     1       0.780   6.456   7.808  1.00  0.00     0.200 C 
HETATM    8  O6  UNL     1      -0.276   5.691   7.322  1.00  0.00    -0.378 OA
HETATM    9  C13 UNL     1       0.191   4.456   6.902  1.00  0.00     0.182 C 
ENDROOT
BRANCH   6  10
HETATM   10  C7  UNL     1       3.160   6.958   7.832  1.00  0.00     0.041 C 
BRANCH  10  11
HETATM   11  C8  UNL     1       2.644   7.314   9.232  1.00  0.00     0.069 C 
BRANCH  11  12
HETATM   12  C9  UNL     1       3.752   7.258  10.214  1.00  0.00     0.071 A 
HETATM   13  C10 UNL     1       3.630   7.430  11.571  1.00  0.00     0.123 A 
HETATM   14  N1  UNL     1       4.886   7.297  12.073  1.00  0.00    -0.335 N 
HETATM   15  C11 UNL     1       5.683   7.057  11.015  1.00  0.00     0.219 A 
ATOM     16  H1  UNL     1       5.168   7.365  13.051  1.00  0.00     0.168 HD
HETATM   17  S1  UNL     1       7.292   6.823  11.093  1.00  0.00    -0.033 SA
HETATM   18  O5  UNL     1       4.992   7.037   9.916  1.00  0.00    -0.287 OA
ENDBRANCH  11  12
ENDBRANCH  10  11
ENDBRANCH   6  10
BRANCH   2  19
HETATM   19  O3  UNL     1      -0.239   2.257   9.140  1.00  0.00    -0.393 OA
ATOM     20  H3  UNL     1      -0.926   1.624   9.315  1.00  0.00     0.210 HD
ENDBRANCH   2  19
BRANCH   1  21
HETATM   21  O2  UNL     1      -1.879   3.685   7.864  1.00  0.00    -0.357 OA
BRANCH  21  22
HETATM   22  C1  UNL     1      -2.963   3.895   7.015  1.00  0.00     0.335 C 
BRANCH  22  23
HETATM   23  O1  UNL     1      -3.565   2.737   6.590  1.00  0.00    -0.377 OA
ATOM     24  H1  UNL     1      -3.957   2.231   7.292  1.00  0.00     0.212 HD
ENDBRANCH  22  23
ENDBRANCH  21  22
ENDBRANCH   1  21
TORSDOF 7
ENDMDL
MODEL 5
REMARK VINA RESULT: -6.442787884      5.742      7.684
REMARK  7 active torsions:
REMARK  status: ('A' for Active; 'I' for Inactive)
REMARK    1  A    between atoms: O1_1  and  C1_3 
REMARK    2  A    between atoms: C1_3  and  O2_4 
REMARK    3  A    between atoms: O2_4  and  C2_5 
REMARK    4  A    between atoms: C3_6  and  O3_7 
REMARK    5  A    between atoms: C6_12  and  C7_13 
REMARK    6  A    between atoms: C7_13  and  C8_14 
REMARK    7  A    between atoms: C8_14  and  C9_15 
ROOT
HETATM    1  C2  UNL     1       1.313   2.656   8.157  1.00  0.00     0.184 C 
HETATM    2  C3  UNL     1      -0.166   2.822   8.489  1.00  0.00     0.152 C 
HETATM    3  C4  UNL     1      -0.481   4.258   8.100  1.00  0.00     0.069 C 
HETATM    4  C5  UNL     1       0.361   4.401   6.848  1.00  0.00     0.156 C 
HETATM    5  O4  UNL     1       0.564   5.702   6.475  1.00  0.00    -0.376 OA
HETATM    6  C6  UNL     1       1.678   5.750   5.640  1.00  0.00     0.146 C 
HETATM    7  C12 UNL     1       2.090   4.382   5.148  1.00  0.00     0.200 C 
HETATM    8  O6  UNL     1       2.417   3.515   6.186  1.00  0.00    -0.378 OA
HETATM    9  C13 UNL     1       1.690   3.843   7.320  1.00  0.00     0.182 C 
ENDROOT
BRANCH   6  10
HETATM   10  C7  UNL     1       1.262   6.549   4.415  1.00  0.00     0.041 C 
BRANCH  10  11
HETATM   11  C8  UNL     1       0.589   5.584   3.431  1.00  0.00     0.069 C 
BRANCH  11  12
HETATM   12  C9  UNL     1       1.226   5.689   2.098  1.00  0.00     0.071 A 
HETATM   13  C10 UNL     1       0.937   6.634   1.144  1.00  0.00     0.123 A 
HETATM   14  N1  UNL     1       1.750   6.354   0.091  1.00  0.00    -0.335 N 
HETATM   15  C11 UNL     1       2.471   5.277   0.457  1.00  0.00     0.219 A 
ATOM     16  H1  UNL     1       1.804   6.857  -0.795  1.00  0.00     0.168 HD
HETATM   17  S1  UNL     1       3.596   4.550  -0.467  1.00  0.00    -0.033 SA
HETATM   18  O5  UNL     1       2.146   4.894   1.654  1.00  0.00    -0.287 OA
ENDBRANCH  11  12
ENDBRANCH  10  11
ENDBRANCH   6  10
BRANCH   2  19
HETATM   19  O3  UNL     1      -0.871   2.002   7.600  1.00  0.00    -0.393 OA
ATOM     20  H3  UNL     1      -1.792   2.095   7.815  1.00  0.00     0.210 HD
ENDBRANCH   2  19
BRANCH   1  21
HETATM   21  O2  UNL     1       1.588   1.450   7.577  1.00  0.00    -0.357 OA
BRANCH  21  22
HETATM   22  C1  UNL     1       2.448   0.723   8.399  1.00  0.00     0.335 C 
BRANCH  22  23
HETATM   23  O1  UNL     1       3.639   0.397   7.802  1.00  0.00    -0.377 OA
ATOM     24  H1  UNL     1       3.550   0.122   6.897  1.00  0.00     0.212 HD
ENDBRANCH  22  23
ENDBRANCH  21  22
ENDBRANCH   1  21
TORSDOF 7
ENDMDL
