MODEL 1
REMARK VINA RESULT: -5.198847332      0.000      0.000
REMARK  8 active torsions:
REMARK  status: ('A' for Active; 'I' for Inactive)
REMARK    1  A    between atoms: C8_19  and  N6_20 
REMARK       I    between atoms: N6_20  and  C9_22 
REMARK    2  A    between atoms: C9_22  and  C10_24 
REMARK    3  A    between atoms: C10_24  and  N7_25 
REMARK    4  A    between atoms: C10_24  and  C11_29 
REMARK    5  A    between atoms: C11_29  and  C12_30 
REMARK    6  A    between atoms: C12_30  and  C13_31 
REMARK    7  A    between atoms: C13_31  and  N8_32 
REMARK       I    between atoms: N8_32  and  C14_34 
REMARK    8  A    between atoms: N11_39  and  O2_40 
ROOT
HETATM    1  C1  UNL     1      -2.548  52.202  26.864  1.00  0.00     0.177 C 
HETATM    2  N1  UNL     1      -2.987  51.465  28.018  1.00  0.00    -0.169 N 
HETATM    3  C2  UNL     1      -3.373  50.154  27.938  1.00  0.00     0.168 A 
HETATM    4  C3  UNL     1      -3.824  49.441  29.050  1.00  0.00     0.089 A 
HETATM    5  C4  UNL     1      -3.891  50.049  30.278  1.00  0.00     0.152 A 
HETATM    6  N2  UNL     1      -4.344  49.358  31.430  1.00  0.00    -0.081 NA
HETATM    7  N3  UNL     1      -3.515  51.313  30.344  1.00  0.00    -0.177 N 
ATOM      8  H3  UNL     1      -3.553  51.793  31.243  1.00  0.00     0.185 HD
HETATM    9  C5  UNL     1      -3.081  51.992  29.262  1.00  0.00     0.680 A 
HETATM   10  N4  UNL     1      -2.736  53.208  29.503  1.00  0.00    -0.234 N 
ATOM     11  H41 UNL     1      -2.808  53.605  30.440  1.00  0.00     0.174 HD
ATOM     12  H42 UNL     1      -2.408  53.721  28.684  1.00  0.00     0.174 HD
HETATM   13  S1  UNL     1      -4.379  47.732  29.147  1.00  0.00    -0.117 SA
HETATM   14  C6  UNL     1      -5.437  47.344  27.706  1.00  0.00     0.135 C 
HETATM   15  C7  UNL     1      -5.239  48.349  26.624  1.00  0.00     0.034 C 
HETATM   16  N5  UNL     1      -6.313  48.954  26.294  1.00  0.00    -0.402 N 
ATOM     17  H51 UNL     1      -6.177  49.642  25.553  1.00  0.00     0.155 HD
ATOM     18  H52 UNL     1      -7.153  48.677  26.802  1.00  0.00     0.155 HD
HETATM   19  C8  UNL     1      -4.036  48.746  25.895  1.00  0.00     0.263 C 
HETATM   20  N11 UNL     1      -3.206  49.700  26.600  1.00  0.00    -0.213 N 
ENDROOT
BRANCH  19  21
HETATM   21  N6  UNL     1      -4.262  49.129  24.524  1.00  0.00    -0.331 N 
HETATM   22  C9  UNL     1      -4.085  48.325  23.395  1.00  0.00     0.250 C 
HETATM   23  O1  UNL     1      -3.693  47.136  23.491  1.00  0.00    -0.271 OA
ATOM     24  H6  UNL     1      -4.583  50.083  24.362  1.00  0.00     0.165 HD
BRANCH  22  25
HETATM   25  C10 UNL     1      -4.356  48.849  22.034  1.00  0.00     0.274 C 
BRANCH  25  26
HETATM   26  N7  UNL     1      -3.237  48.655  21.141  1.00  0.00    -0.067 N 
ATOM     27  H73 UNL     1      -2.384  48.445  21.659  1.00  0.00     0.275 HD
ATOM     28  H72 UNL     1      -3.328  47.783  20.619  1.00  0.00     0.275 HD
ATOM     29  H71 UNL     1      -3.102  49.448  20.514  1.00  0.00     0.275 HD
ENDBRANCH  25  26
BRANCH  25  30
HETATM   30  C11 UNL     1      -4.733  50.298  22.167  1.00  0.00     0.044 C 
BRANCH  30  31
HETATM   31  C12 UNL     1      -6.157  50.592  21.824  1.00  0.00     0.022 C 
BRANCH  31  32
HETATM   32  C13 UNL     1      -7.087  50.347  22.999  1.00  0.00     0.122 C 
BRANCH  32  33
HETATM   33  N8  UNL     1      -7.398  51.620  23.640  1.00  0.00    -0.365 N 
HETATM   34  C14 UNL     1      -6.830  51.963  24.895  1.00  0.00     0.181 C 
HETATM   35  N9  UNL     1      -5.613  52.340  25.054  1.00  0.00    -0.374 N 
HETATM   36  N10 UNL     1      -7.671  51.886  26.055  1.00  0.00    -0.064 NA
ATOM     37  H92 UNL     1      -5.015  52.395  24.229  1.00  0.00     0.158 HD
ATOM     38  H91 UNL     1      -5.205  52.587  25.956  1.00  0.00     0.158 HD
ATOM     39  H8  UNL     1      -8.032  52.272  23.180  1.00  0.00     0.162 HD
ENDBRANCH  32  33
ENDBRANCH  31  32
ENDBRANCH  30  31
ENDBRANCH  25  30
ENDBRANCH  22  25
ENDBRANCH  19  21
BRANCH  20  40
HETATM   40  O2  UNL     1      -2.150  50.251  26.006  1.00  0.00    -0.283 OA
ATOM     41  H2  UNL     1      -1.946  51.111  26.356  1.00  0.00     0.245 HD
ENDBRANCH  20  40
TORSDOF 8
ENDMDL
MODEL 2
REMARK VINA RESULT: -4.913708535      7.399     10.053
REMARK  8 active torsions:
REMARK  status: ('A' for Active; 'I' for Inactive)
REMARK    1  A    between atoms: C8_19  and  N6_20 
REMARK       I    between atoms: N6_20  and  C9_22 
REMARK    2  A    between atoms: C9_22  and  C10_24 
REMARK    3  A    between atoms: C10_24  and  N7_25 
REMARK    4  A    between atoms: C10_24  and  C11_29 
REMARK    5  A    between atoms: C11_29  and  C12_30 
REMARK    6  A    between atoms: C12_30  and  C13_31 
REMARK    7  A    between atoms: C13_31  and  N8_32 
REMARK       I    between atoms: N8_32  and  C14_34 
REMARK    8  A    between atoms: N11_39  and  O2_40 
ROOT
HETATM    1  C1  UNL     1       2.613  58.749  28.476  1.00  0.00     0.177 C 
HETATM    2  N1  UNL     1       3.880  58.122  28.734  1.00  0.00    -0.169 N 
HETATM    3  C2  UNL     1       4.033  56.761  28.718  1.00  0.00     0.168 A 
HETATM    4  C3  UNL     1       5.254  56.145  28.992  1.00  0.00     0.089 A 
HETATM    5  C4  UNL     1       6.359  56.904  29.288  1.00  0.00     0.152 A 
HETATM    6  N2  UNL     1       7.617  56.315  29.571  1.00  0.00    -0.081 NA
HETATM    7  N3  UNL     1       6.201  58.215  29.298  1.00  0.00    -0.177 N 
ATOM      8  H3  UNL     1       7.003  58.807  29.514  1.00  0.00     0.185 HD
HETATM    9  C5  UNL     1       5.014  58.800  29.032  1.00  0.00     0.680 A 
HETATM   10  N4  UNL     1       5.037  60.085  29.066  1.00  0.00    -0.234 N 
ATOM     11  H41 UNL     1       5.891  60.595  29.291  1.00  0.00     0.174 HD
ATOM     12  H42 UNL     1       4.140  60.527  28.865  1.00  0.00     0.174 HD
HETATM   13  S1  UNL     1       5.652  54.390  29.030  1.00  0.00    -0.117 SA
HETATM   14  C6  UNL     1       4.307  53.471  29.865  1.00  0.00     0.135 C 
HETATM   15  C7  UNL     1       3.066  54.293  29.919  1.00  0.00     0.034 C 
HETATM   16  N5  UNL     1       2.642  54.492  31.107  1.00  0.00    -0.402 N 
ATOM     17  H51 UNL     1       1.792  55.054  31.143  1.00  0.00     0.155 HD
ATOM     18  H52 UNL     1       3.197  54.070  31.851  1.00  0.00     0.155 HD
HETATM   19  C8  UNL     1       2.270  54.898  28.852  1.00  0.00     0.263 C 
HETATM   20  N11 UNL     1       2.793  56.158  28.367  1.00  0.00    -0.213 N 
ENDROOT
BRANCH  19  21
HETATM   21  N6  UNL     1       0.856  54.960  29.117  1.00  0.00    -0.331 N 
HETATM   22  C9  UNL     1      -0.157  54.317  28.399  1.00  0.00     0.250 C 
HETATM   23  O1  UNL     1       0.103  53.592  27.407  1.00  0.00    -0.271 OA
ATOM     24  H6  UNL     1       0.564  55.532  29.910  1.00  0.00     0.165 HD
BRANCH  22  25
HETATM   25  C10 UNL     1      -1.581  54.469  28.783  1.00  0.00     0.274 C 
BRANCH  25  26
HETATM   26  N7  UNL     1      -2.467  54.369  27.647  1.00  0.00    -0.067 N 
ATOM     27  H73 UNL     1      -2.938  55.255  27.467  1.00  0.00     0.275 HD
ATOM     28  H72 UNL     1      -1.942  54.283  26.777  1.00  0.00     0.275 HD
ATOM     29  H71 UNL     1      -3.139  53.608  27.748  1.00  0.00     0.275 HD
ENDBRANCH  25  26
BRANCH  25  30
HETATM   30  C11 UNL     1      -1.724  55.782  29.502  1.00  0.00     0.044 C 
BRANCH  30  31
HETATM   31  C12 UNL     1      -2.247  56.891  28.648  1.00  0.00     0.022 C 
BRANCH  31  32
HETATM   32  C13 UNL     1      -1.176  57.923  28.339  1.00  0.00     0.122 C 
BRANCH  32  33
HETATM   33  N8  UNL     1      -0.854  57.871  26.917  1.00  0.00    -0.365 N 
HETATM   34  C14 UNL     1      -1.878  57.908  25.935  1.00  0.00     0.181 C 
HETATM   35  N9  UNL     1      -2.522  58.970  25.607  1.00  0.00    -0.374 N 
HETATM   36  N10 UNL     1      -2.210  56.683  25.266  1.00  0.00    -0.064 NA
ATOM     37  H92 UNL     1      -2.286  59.841  26.082  1.00  0.00     0.158 HD
ATOM     38  H91 UNL     1      -3.258  58.996  24.901  1.00  0.00     0.158 HD
ATOM     39  H8  UNL     1       0.120  57.807  26.625  1.00  0.00     0.162 HD
ENDBRANCH  32  33
ENDBRANCH  31  32
ENDBRANCH  30  31
ENDBRANCH  25  30
ENDBRANCH  22  25
ENDBRANCH  19  21
BRANCH  20  40
HETATM   40  O2  UNL     1       2.105  56.886  27.491  1.00  0.00    -0.283 OA
ATOM     41  H2  UNL     1       1.239  56.530  27.326  1.00  0.00     0.245 HD
ENDBRANCH  20  40
TORSDOF 8
ENDMDL
MODEL 3
REMARK VINA RESULT: -4.812713277      8.272     11.507
REMARK  8 active torsions:
REMARK  status: ('A' for Active; 'I' for Inactive)
REMARK    1  A    between atoms: C8_19  and  N6_20 
REMARK       I    between atoms: N6_20  and  C9_22 
REMARK    2  A    between atoms: C9_22  and  C10_24 
REMARK    3  A    between atoms: C10_24  and  N7_25 
REMARK    4  A    between atoms: C10_24  and  C11_29 
REMARK    5  A    between atoms: C11_29  and  C12_30 
REMARK    6  A    between atoms: C12_30  and  C13_31 
REMARK    7  A    between atoms: C13_31  and  N8_32 
REMARK       I    between atoms: N8_32  and  C14_34 
REMARK    8  A    between atoms: N11_39  and  O2_40 
ROOT
HETATM    1  C1  UNL     1       2.064  59.987  26.936  1.00  0.00     0.177 C 
HETATM    2  N1  UNL     1       1.224  60.917  26.232  1.00  0.00    -0.169 N 
HETATM    3  C2  UNL     1      -0.126  60.984  26.450  1.00  0.00     0.168 A 
HETATM    4  C3  UNL     1      -0.950  61.866  25.751  1.00  0.00     0.089 A 
HETATM    5  C4  UNL     1      -0.416  62.710  24.808  1.00  0.00     0.152 A 
HETATM    6  N2  UNL     1      -1.222  63.620  24.078  1.00  0.00    -0.081 NA
HETATM    7  N3  UNL     1       0.887  62.638  24.608  1.00  0.00    -0.177 N 
ATOM      8  H3  UNL     1       1.314  63.252  23.914  1.00  0.00     0.185 HD
HETATM    9  C5  UNL     1       1.674  61.780  25.290  1.00  0.00     0.680 A 
HETATM   10  N4  UNL     1       2.921  61.850  24.986  1.00  0.00    -0.234 N 
ATOM     11  H41 UNL     1       3.260  62.500  24.276  1.00  0.00     0.174 HD
ATOM     12  H42 UNL     1       3.517  61.201  25.502  1.00  0.00     0.174 HD
HETATM   13  S1  UNL     1      -2.730  62.097  25.885  1.00  0.00    -0.117 SA
HETATM   14  C6  UNL     1      -3.555  60.468  26.014  1.00  0.00     0.135 C 
HETATM   15  C7  UNL     1      -2.576  59.415  26.402  1.00  0.00     0.034 C 
HETATM   16  N5  UNL     1      -2.498  58.461  25.557  1.00  0.00    -0.402 N 
ATOM     17  H51 UNL     1      -1.828  57.740  25.823  1.00  0.00     0.155 HD
ATOM     18  H52 UNL     1      -3.105  58.541  24.741  1.00  0.00     0.155 HD
HETATM   19  C8  UNL     1      -1.706  59.299  27.572  1.00  0.00     0.263 C 
HETATM   20  N11 UNL     1      -0.479  60.060  27.473  1.00  0.00    -0.213 N 
ENDROOT
BRANCH  19  21
HETATM   21  N6  UNL     1      -1.476  57.949  28.019  1.00  0.00    -0.331 N 
HETATM   22  C9  UNL     1      -2.251  57.229  28.932  1.00  0.00     0.250 C 
HETATM   23  O1  UNL     1      -3.270  57.732  29.466  1.00  0.00    -0.271 OA
ATOM     24  H6  UNL     1      -0.664  57.470  27.629  1.00  0.00     0.165 HD
BRANCH  22  25
HETATM   25  C10 UNL     1      -1.897  55.838  29.306  1.00  0.00     0.274 C 
BRANCH  25  26
HETATM   26  N7  UNL     1      -1.019  55.787  30.451  1.00  0.00    -0.067 N 
ATOM     27  H73 UNL     1      -1.037  54.867  30.889  1.00  0.00     0.275 HD
ATOM     28  H72 UNL     1      -0.039  55.813  30.166  1.00  0.00     0.275 HD
ATOM     29  H71 UNL     1      -1.225  56.521  31.128  1.00  0.00     0.275 HD
ENDBRANCH  25  26
BRANCH  25  30
HETATM   30  C11 UNL     1      -1.295  55.177  28.097  1.00  0.00     0.044 C 
BRANCH  30  31
HETATM   31  C12 UNL     1      -0.287  54.122  28.417  1.00  0.00     0.022 C 
BRANCH  31  32
HETATM   32  C13 UNL     1       1.023  54.347  27.683  1.00  0.00     0.122 C 
BRANCH  32  33
HETATM   33  N8  UNL     1       1.233  55.779  27.500  1.00  0.00    -0.365 N 
HETATM   34  C14 UNL     1       2.073  56.512  28.378  1.00  0.00     0.181 C 
HETATM   35  N9  UNL     1       3.356  56.463  28.354  1.00  0.00    -0.374 N 
HETATM   36  N10 UNL     1       1.448  57.361  29.351  1.00  0.00    -0.064 NA
ATOM     37  H92 UNL     1       3.801  55.860  27.662  1.00  0.00     0.158 HD
ATOM     38  H91 UNL     1       3.960  56.991  28.985  1.00  0.00     0.158 HD
ATOM     39  H8  UNL     1       0.769  56.260  26.730  1.00  0.00     0.162 HD
ENDBRANCH  32  33
ENDBRANCH  31  32
ENDBRANCH  30  31
ENDBRANCH  25  30
ENDBRANCH  22  25
ENDBRANCH  19  21
BRANCH  20  40
HETATM   40  O2  UNL     1       0.467  59.947  28.402  1.00  0.00    -0.283 OA
ATOM     41  H2  UNL     1       0.324  60.532  29.137  1.00  0.00     0.245 HD
ENDBRANCH  20  40
TORSDOF 8
ENDMDL
MODEL 4
REMARK VINA RESULT: -4.793719989      7.677     11.270
REMARK  8 active torsions:
REMARK  status: ('A' for Active; 'I' for Inactive)
REMARK    1  A    between atoms: C8_19  and  N6_20 
REMARK       I    between atoms: N6_20  and  C9_22 
REMARK    2  A    between atoms: C9_22  and  C10_24 
REMARK    3  A    between atoms: C10_24  and  N7_25 
REMARK    4  A    between atoms: C10_24  and  C11_29 
REMARK    5  A    between atoms: C11_29  and  C12_30 
REMARK    6  A    between atoms: C12_30  and  C13_31 
REMARK    7  A    between atoms: C13_31  and  N8_32 
REMARK       I    between atoms: N8_32  and  C14_34 
REMARK    8  A    between atoms: N11_39  and  O2_40 
ROOT
HETATM    1  C1  UNL     1      -1.257  57.262  26.578  1.00  0.00     0.177 C 
HETATM    2  N1  UNL     1      -0.931  58.639  26.322  1.00  0.00    -0.169 N 
HETATM    3  C2  UNL     1       0.341  59.121  26.468  1.00  0.00     0.168 A 
HETATM    4  C3  UNL     1       0.660  60.462  26.246  1.00  0.00     0.089 A 
HETATM    5  C4  UNL     1      -0.316  61.349  25.864  1.00  0.00     0.152 A 
HETATM    6  N2  UNL     1      -0.031  62.717  25.629  1.00  0.00    -0.081 NA
HETATM    7  N3  UNL     1      -1.539  60.871  25.724  1.00  0.00    -0.177 N 
ATOM      8  H3  UNL     1      -2.287  61.506  25.442  1.00  0.00     0.185 HD
HETATM    9  C5  UNL     1      -1.835  59.573  25.943  1.00  0.00     0.680 A 
HETATM   10  N4  UNL     1      -3.069  59.271  25.745  1.00  0.00    -0.234 N 
ATOM     11  H41 UNL     1      -3.750  59.975  25.460  1.00  0.00     0.174 HD
ATOM     12  H42 UNL     1      -3.293  58.289  25.910  1.00  0.00     0.174 HD
HETATM   13  S1  UNL     1       2.254  61.284  26.392  1.00  0.00    -0.117 SA
HETATM   14  C6  UNL     1       3.116  60.696  27.896  1.00  0.00     0.135 C 
HETATM   15  C7  UNL     1       2.517  59.420  28.377  1.00  0.00     0.034 C 
HETATM   16  N5  UNL     1       2.076  59.489  29.574  1.00  0.00    -0.402 N 
ATOM     17  H51 UNL     1       1.667  58.615  29.903  1.00  0.00     0.155 HD
ATOM     18  H52 UNL     1       2.189  60.390  30.037  1.00  0.00     0.155 HD
HETATM   19  C8  UNL     1       2.355  58.128  27.714  1.00  0.00     0.263 C 
HETATM   20  N11 UNL     1       1.206  58.053  26.837  1.00  0.00    -0.213 N 
ENDROOT
BRANCH  19  21
HETATM   21  N6  UNL     1       2.449  56.987  28.589  1.00  0.00    -0.331 N 
HETATM   22  C9  UNL     1       3.596  56.237  28.862  1.00  0.00     0.250 C 
HETATM   23  O1  UNL     1       4.702  56.516  28.335  1.00  0.00    -0.271 OA
ATOM     24  H6  UNL     1       1.590  56.696  29.056  1.00  0.00     0.165 HD
BRANCH  22  25
HETATM   25  C10 UNL     1       3.551  55.080  29.788  1.00  0.00     0.274 C 
BRANCH  25  26
HETATM   26  N7  UNL     1       3.408  53.825  29.087  1.00  0.00    -0.067 N 
ATOM     27  H73 UNL     1       2.479  53.428  29.227  1.00  0.00     0.275 HD
ATOM     28  H72 UNL     1       3.372  53.969  28.077  1.00  0.00     0.275 HD
ATOM     29  H71 UNL     1       4.136  53.157  29.339  1.00  0.00     0.275 HD
ENDBRANCH  25  26
BRANCH  25  30
HETATM   30  C11 UNL     1       2.432  55.316  30.764  1.00  0.00     0.044 C 
BRANCH  30  31
HETATM   31  C12 UNL     1       1.575  54.118  31.013  1.00  0.00     0.022 C 
BRANCH  31  32
HETATM   32  C13 UNL     1       0.098  54.433  30.855  1.00  0.00     0.122 C 
BRANCH  32  33
HETATM   33  N8  UNL     1      -0.135  54.994  29.529  1.00  0.00    -0.365 N 
HETATM   34  C14 UNL     1      -0.257  54.154  28.392  1.00  0.00     0.181 C 
HETATM   35  N9  UNL     1      -1.298  53.452  28.124  1.00  0.00    -0.374 N 
HETATM   36  N10 UNL     1       0.853  54.089  27.484  1.00  0.00    -0.064 NA
ATOM     37  H92 UNL     1      -2.087  53.498  28.769  1.00  0.00     0.158 HD
ATOM     38  H91 UNL     1      -1.385  52.848  27.306  1.00  0.00     0.158 HD
ATOM     39  H8  UNL     1      -0.212  56.004  29.418  1.00  0.00     0.162 HD
ENDBRANCH  32  33
ENDBRANCH  31  32
ENDBRANCH  30  31
ENDBRANCH  25  30
ENDBRANCH  22  25
ENDBRANCH  19  21
BRANCH  20  40
HETATM   40  O2  UNL     1       0.858  56.901  26.270  1.00  0.00    -0.283 OA
ATOM     41  H2  UNL     1       1.268  56.153  26.690  1.00  0.00     0.245 HD
ENDBRANCH  20  40
TORSDOF 8
ENDMDL
MODEL 5
REMARK VINA RESULT: -4.704776639      8.944     12.249
REMARK  8 active torsions:
REMARK  status: ('A' for Active; 'I' for Inactive)
REMARK    1  A    between atoms: C8_19  and  N6_20 
REMARK       I    between atoms: N6_20  and  C9_22 
REMARK    2  A    between atoms: C9_22  and  C10_24 
REMARK    3  A    between atoms: C10_24  and  N7_25 
REMARK    4  A    between atoms: C10_24  and  C11_29 
REMARK    5  A    between atoms: C11_29  and  C12_30 
REMARK    6  A    between atoms: C12_30  and  C13_31 
REMARK    7  A    between atoms: C13_31  and  N8_32 
REMARK       I    between atoms: N8_32  and  C14_34 
REMARK    8  A    between atoms: N11_39  and  O2_40 
ROOT
HETATM    1  C1  UNL     1      -1.719  57.323  26.115  1.00  0.00     0.177 C 
HETATM    2  N1  UNL     1      -1.320  58.704  26.126  1.00  0.00    -0.169 N 
HETATM    3  C2  UNL     1      -0.060  59.092  26.497  1.00  0.00     0.168 A 
HETATM    4  C3  UNL     1       0.325  60.433  26.533  1.00  0.00     0.089 A 
HETATM    5  C4  UNL     1      -0.567  61.417  26.188  1.00  0.00     0.152 A 
HETATM    6  N2  UNL     1      -0.211  62.790  26.212  1.00  0.00    -0.081 NA
HETATM    7  N3  UNL     1      -1.777  61.031  25.829  1.00  0.00    -0.177 N 
ATOM      8  H3  UNL     1      -2.463  61.739  25.566  1.00  0.00     0.185 HD
HETATM    9  C5  UNL     1      -2.139  59.731  25.798  1.00  0.00     0.680 A 
HETATM   10  N4  UNL     1      -3.348  59.527  25.410  1.00  0.00    -0.234 N 
ATOM     11  H41 UNL     1      -3.965  60.302  25.164  1.00  0.00     0.174 HD
ATOM     12  H42 UNL     1      -3.621  58.544  25.386  1.00  0.00     0.174 HD
HETATM   13  S1  UNL     1       1.914  61.140  26.998  1.00  0.00    -0.117 SA
HETATM   14  C6  UNL     1       2.562  60.280  28.478  1.00  0.00     0.135 C 
HETATM   15  C7  UNL     1       1.868  58.977  28.673  1.00  0.00     0.034 C 
HETATM   16  N5  UNL     1       1.284  58.880  29.804  1.00  0.00    -0.402 N 
ATOM     17  H51 UNL     1       0.809  57.987  29.938  1.00  0.00     0.155 HD
ATOM     18  H52 UNL     1       1.366  59.690  30.417  1.00  0.00     0.155 HD
HETATM   19  C8  UNL     1       1.749  57.814  27.795  1.00  0.00     0.263 C 
HETATM   20  N11 UNL     1       0.717  57.937  26.789  1.00  0.00    -0.213 N 
ENDROOT
BRANCH  19  21
HETATM   21  N6  UNL     1       1.697  56.547  28.479  1.00  0.00    -0.331 N 
HETATM   22  C9  UNL     1       2.774  55.697  28.745  1.00  0.00     0.250 C 
HETATM   23  O1  UNL     1       3.942  55.989  28.388  1.00  0.00    -0.271 OA
ATOM     24  H6  UNL     1       0.780  56.238  28.801  1.00  0.00     0.165 HD
BRANCH  22  25
HETATM   25  C10 UNL     1       2.577  54.414  29.462  1.00  0.00     0.274 C 
BRANCH  25  26
HETATM   26  N7  UNL     1       2.063  54.607  30.797  1.00  0.00    -0.067 N 
ATOM     27  H73 UNL     1       2.802  54.516  31.494  1.00  0.00     0.275 HD
ATOM     28  H72 UNL     1       1.809  55.582  30.957  1.00  0.00     0.275 HD
ATOM     29  H71 UNL     1       1.283  53.984  31.005  1.00  0.00     0.275 HD
ENDBRANCH  25  26
BRANCH  25  30
HETATM   30  C11 UNL     1       3.889  53.680  29.458  1.00  0.00     0.044 C 
BRANCH  30  31
HETATM   31  C12 UNL     1       4.627  53.742  30.756  1.00  0.00     0.022 C 
BRANCH  31  32
HETATM   32  C13 UNL     1       5.994  54.386  30.602  1.00  0.00     0.122 C 
BRANCH  32  33
HETATM   33  N8  UNL     1       6.443  54.239  29.223  1.00  0.00    -0.365 N 
HETATM   34  C14 UNL     1       7.473  55.063  28.698  1.00  0.00     0.181 C 
HETATM   35  N9  UNL     1       8.719  54.919  28.972  1.00  0.00    -0.374 N 
HETATM   36  N10 UNL     1       7.095  56.121  27.805  1.00  0.00    -0.064 NA
ATOM     37  H92 UNL     1       8.987  54.167  29.607  1.00  0.00     0.158 HD
ATOM     38  H91 UNL     1       9.459  55.511  28.594  1.00  0.00     0.158 HD
ATOM     39  H8  UNL     1       6.011  53.534  28.627  1.00  0.00     0.162 HD
ENDBRANCH  32  33
ENDBRANCH  31  32
ENDBRANCH  30  31
ENDBRANCH  25  30
ENDBRANCH  22  25
ENDBRANCH  19  21
BRANCH  20  40
HETATM   40  O2  UNL     1       0.406  56.906  26.006  1.00  0.00    -0.283 OA
ATOM     41  H2  UNL     1       0.524  57.104  25.084  1.00  0.00     0.245 HD
ENDBRANCH  20  40
TORSDOF 8
ENDMDL
