MODEL 1
REMARK VINA RESULT: -10.864420830      0.000      0.000
REMARK  14 active torsions:
REMARK  status: ('A' for Active; 'I' for Inactive)
REMARK    1  A    between atoms: N1_1  and  N2_4 
REMARK    2  A    between atoms: N5_22  and  C14_24 
REMARK    3  A    between atoms: C14_24  and  C15_25 
REMARK    4  A    between atoms: C14_24  and  C28_50 
REMARK    5  A    between atoms: C15_25  and  O1_26 
REMARK    6  A    between atoms: O1_26  and  C16_27 
REMARK    7  A    between atoms: C20_31  and  C21_32 
REMARK    8  A    between atoms: C21_32  and  O2_33 
REMARK    9  A    between atoms: O2_33  and  C22_34 
REMARK   10  A    between atoms: C23_36  and  C24_37 
REMARK   11  A    between atoms: C24_37  and  O4_38 
REMARK   12  A    between atoms: C25_40  and  O5_41 
REMARK   13  A    between atoms: C26_43  and  O6_44 
REMARK   14  A    between atoms: C27_46  and  O7_47 
ROOT
HETATM    1  C14 UNL     1      22.972   8.624  20.923  1.00  0.00     0.140 C 
ENDROOT
BRANCH   1   2
HETATM    2  N5  UNL     1      21.566   8.319  20.580  1.00  0.00    -0.362 N 
HETATM    3  C13 UNL     1      20.648   8.165  21.451  1.00  0.00     0.147 A 
HETATM    4  N4  UNL     1      20.768   8.245  22.780  1.00  0.00    -0.283 N 
HETATM    5  C34 UNL     1      19.323   7.887  21.213  1.00  0.00     0.124 A 
HETATM    6  N3  UNL     1      19.603   8.033  23.361  1.00  0.00    -0.296 N 
ATOM      7  H4  UNL     1      21.637   8.443  23.274  1.00  0.00     0.188 HD
HETATM    8  C12 UNL     1      18.664   7.805  22.431  1.00  0.00     0.091 A 
ATOM      9  H3  UNL     1      19.441   8.042  24.368  1.00  0.00     0.187 HD
HETATM   10  C11 UNL     1      17.239   7.525  22.530  1.00  0.00     0.003 A 
HETATM   11  C2  UNL     1      16.536   7.340  21.351  1.00  0.00    -0.025 A 
HETATM   12  C10 UNL     1      16.578   7.441  23.732  1.00  0.00     0.026 A 
HETATM   13  C1  UNL     1      17.148   7.412  20.013  1.00  0.00     0.188 A 
HETATM   14  C3  UNL     1      15.180   7.071  21.409  1.00  0.00     0.022 A 
HETATM   15  N2  UNL     1      18.550   7.685  20.039  1.00  0.00    -0.289 N 
HETATM   16  C4  UNL     1      14.533   6.989  22.638  1.00  0.00    -0.025 A 
HETATM   17  C5  UNL     1      13.178   6.725  22.733  1.00  0.00     0.012 A 
HETATM   18  C9  UNL     1      15.221   7.173  23.832  1.00  0.00    -0.025 A 
HETATM   19  C6  UNL     1      12.528   6.646  23.960  1.00  0.00     0.001 A 
HETATM   20  C7  UNL     1      13.236   6.834  25.134  1.00  0.00     0.001 A 
HETATM   21  C8  UNL     1      14.578   7.095  25.050  1.00  0.00     0.012 A 
ATOM     22  H5  UNL     1      21.317   8.226  19.595  1.00  0.00     0.162 HD
BRANCH  15  23
HETATM   23  N1  UNL     1      19.162   7.756  18.927  1.00  0.00    -0.342 N 
ATOM     24  H12 UNL     1      19.302   8.687  18.535  1.00  0.00     0.177 HD
ATOM     25  H11 UNL     1      19.473   6.884  18.498  1.00  0.00     0.177 HD
ENDBRANCH  15  23
ENDBRANCH   1   2
BRANCH   1  26
HETATM   26  C15 UNL     1      23.198  10.101  20.955  1.00  0.00     0.201 C 
BRANCH  26  27
HETATM   27  O1  UNL     1      23.373  10.674  22.167  1.00  0.00    -0.359 OA
BRANCH  27  28
HETATM   28  C16 UNL     1      22.718  11.872  22.413  1.00  0.00     0.264 C 
HETATM   29  C17 UNL     1      23.445  12.763  23.351  1.00  0.00     0.087 C 
HETATM   30  C18 UNL     1      22.545  13.827  23.854  1.00  0.00    -0.023 C 
HETATM   31  C19 UNL     1      21.336  13.431  24.264  1.00  0.00     0.003 C 
HETATM   32  C20 UNL     1      21.150  11.931  24.114  1.00  0.00     0.171 C 
HETATM   33  O8  UNL     1      21.452  11.562  22.811  1.00  0.00    -0.350 OA
BRANCH  32  34
HETATM   34  C21 UNL     1      19.732  11.574  24.472  1.00  0.00     0.207 C 
BRANCH  34  35
HETATM   35  O2  UNL     1      19.742  10.283  24.999  1.00  0.00    -0.356 OA
BRANCH  35  36
HETATM   36  C22 UNL     1      18.653  10.103  25.854  1.00  0.00     0.291 C 
HETATM   37  O3  UNL     1      18.814   8.856  26.472  1.00  0.00    -0.348 OA
HETATM   38  C23 UNL     1      18.025   8.686  27.585  1.00  0.00     0.179 C 
HETATM   39  C25 UNL     1      16.948   9.707  27.778  1.00  0.00     0.180 C 
HETATM   40  C26 UNL     1      17.471  11.104  27.778  1.00  0.00     0.183 C 
HETATM   41  C27 UNL     1      18.668  11.216  26.866  1.00  0.00     0.204 C 
BRANCH  38  42
HETATM   42  C24 UNL     1      17.325   7.324  27.480  1.00  0.00     0.198 C 
BRANCH  42  43
HETATM   43  O4  UNL     1      18.099   6.419  26.758  1.00  0.00    -0.398 OA
ATOM     44  H4  UNL     1      18.175   5.592  27.219  1.00  0.00     0.209 HD
ENDBRANCH  42  43
ENDBRANCH  38  42
BRANCH  39  45
HETATM   45  O5  UNL     1      15.929   9.511  26.849  1.00  0.00    -0.390 OA
ATOM     46  H5  UNL     1      16.007  10.137  26.139  1.00  0.00     0.210 HD
ENDBRANCH  39  45
BRANCH  40  47
HETATM   47  O6  UNL     1      16.508  11.996  27.259  1.00  0.00    -0.390 OA
ATOM     48  H6  UNL     1      16.920  12.801  26.966  1.00  0.00     0.210 HD
ENDBRANCH  40  47
BRANCH  41  49
HETATM   49  O7  UNL     1      19.868  11.082  27.587  1.00  0.00    -0.388 OA
ATOM     50  H7  UNL     1      19.623  10.856  28.476  1.00  0.00     0.210 HD
ENDBRANCH  41  49
ENDBRANCH  35  36
ENDBRANCH  34  35
ENDBRANCH  32  34
ENDBRANCH  27  28
ENDBRANCH  26  27
ENDBRANCH   1  26
BRANCH   1  51
HETATM   51  C28 UNL     1      23.798   7.918  19.871  1.00  0.00    -0.034 A 
HETATM   52  C29 UNL     1      25.143   8.082  19.724  1.00  0.00     0.009 A 
HETATM   53  C30 UNL     1      25.800   7.373  18.718  1.00  0.00     0.001 A 
HETATM   54  C31 UNL     1      25.128   6.517  17.875  1.00  0.00     0.000 A 
HETATM   55  C32 UNL     1      23.768   6.347  18.021  1.00  0.00     0.001 A 
HETATM   56  C33 UNL     1      23.142   7.052  19.013  1.00  0.00     0.009 A 
ENDBRANCH   1  51
TORSDOF 14
ENDMDL
MODEL 2
REMARK VINA RESULT: -10.532365875      1.023      1.809
REMARK  14 active torsions:
REMARK  status: ('A' for Active; 'I' for Inactive)
REMARK    1  A    between atoms: N1_1  and  N2_4 
REMARK    2  A    between atoms: N5_22  and  C14_24 
REMARK    3  A    between atoms: C14_24  and  C15_25 
REMARK    4  A    between atoms: C14_24  and  C28_50 
REMARK    5  A    between atoms: C15_25  and  O1_26 
REMARK    6  A    between atoms: O1_26  and  C16_27 
REMARK    7  A    between atoms: C20_31  and  C21_32 
REMARK    8  A    between atoms: C21_32  and  O2_33 
REMARK    9  A    between atoms: O2_33  and  C22_34 
REMARK   10  A    between atoms: C23_36  and  C24_37 
REMARK   11  A    between atoms: C24_37  and  O4_38 
REMARK   12  A    between atoms: C25_40  and  O5_41 
REMARK   13  A    between atoms: C26_43  and  O6_44 
REMARK   14  A    between atoms: C27_46  and  O7_47 
ROOT
HETATM    1  C14 UNL     1      23.012   8.789  20.844  1.00  0.00     0.140 C 
ENDROOT
BRANCH   1   2
HETATM    2  N5  UNL     1      21.607   8.438  20.543  1.00  0.00    -0.362 N 
HETATM    3  C13 UNL     1      20.709   8.307  21.438  1.00  0.00     0.147 A 
HETATM    4  N4  UNL     1      20.851   8.455  22.759  1.00  0.00    -0.283 N 
HETATM    5  C34 UNL     1      19.387   7.990  21.239  1.00  0.00     0.124 A 
HETATM    6  N3  UNL     1      19.702   8.247  23.371  1.00  0.00    -0.296 N 
ATOM      7  H4  UNL     1      21.724   8.695  23.226  1.00  0.00     0.188 HD
HETATM    8  C12 UNL     1      18.751   7.953  22.472  1.00  0.00     0.091 A 
ATOM      9  H3  UNL     1      19.557   8.301  24.380  1.00  0.00     0.187 HD
HETATM   10  C11 UNL     1      17.335   7.649  22.612  1.00  0.00     0.003 A 
HETATM   11  C2  UNL     1      16.615   7.391  21.457  1.00  0.00    -0.025 A 
HETATM   12  C10 UNL     1      16.697   7.609  23.829  1.00  0.00     0.026 A 
HETATM   13  C1  UNL     1      17.201   7.411  20.105  1.00  0.00     0.188 A 
HETATM   14  C3  UNL     1      15.267   7.096  21.554  1.00  0.00     0.022 A 
HETATM   15  N2  UNL     1      18.597   7.714  20.091  1.00  0.00    -0.289 N 
HETATM   16  C4  UNL     1      14.644   7.061  22.798  1.00  0.00    -0.025 A 
HETATM   17  C5  UNL     1      13.297   6.773  22.931  1.00  0.00     0.012 A 
HETATM   18  C9  UNL     1      15.349   7.317  23.968  1.00  0.00    -0.025 A 
HETATM   19  C6  UNL     1      12.671   6.740  24.173  1.00  0.00     0.001 A 
HETATM   20  C7  UNL     1      13.396   7.000  25.323  1.00  0.00     0.001 A 
HETATM   21  C8  UNL     1      14.731   7.285  25.201  1.00  0.00     0.012 A 
ATOM     22  H5  UNL     1      21.343   8.291  19.569  1.00  0.00     0.162 HD
BRANCH  15  23
HETATM   23  N1  UNL     1      19.187   7.743  18.966  1.00  0.00    -0.342 N 
ATOM     24  H12 UNL     1      18.605   7.633  18.136  1.00  0.00     0.177 HD
ATOM     25  H11 UNL     1      20.199   7.873  18.962  1.00  0.00     0.177 HD
ENDBRANCH  15  23
ENDBRANCH   1   2
BRANCH   1  26
HETATM   26  C15 UNL     1      23.212  10.269  20.772  1.00  0.00     0.201 C 
BRANCH  26  27
HETATM   27  O1  UNL     1      22.263  11.049  21.337  1.00  0.00    -0.359 OA
BRANCH  27  28
HETATM   28  C16 UNL     1      22.636  11.833  22.419  1.00  0.00     0.264 C 
HETATM   29  C17 UNL     1      23.701  11.224  23.254  1.00  0.00     0.087 C 
HETATM   30  C18 UNL     1      23.785  11.910  24.564  1.00  0.00    -0.023 C 
HETATM   31  C19 UNL     1      22.626  12.130  25.190  1.00  0.00     0.003 C 
HETATM   32  C20 UNL     1      21.443  11.613  24.389  1.00  0.00     0.171 C 
HETATM   33  O8  UNL     1      21.498  12.135  23.106  1.00  0.00    -0.350 OA
BRANCH  32  34
HETATM   34  C21 UNL     1      20.168  12.006  25.089  1.00  0.00     0.207 C 
BRANCH  34  35
HETATM   35  O2  UNL     1      19.326  10.893  25.086  1.00  0.00    -0.356 OA
BRANCH  35  36
HETATM   36  C22 UNL     1      19.163  10.409  26.386  1.00  0.00     0.291 C 
HETATM   37  O3  UNL     1      19.696  11.370  27.255  1.00  0.00    -0.348 OA
HETATM   38  C23 UNL     1      19.303  11.209  28.563  1.00  0.00     0.179 C 
HETATM   39  C25 UNL     1      18.633   9.909  28.882  1.00  0.00     0.180 C 
HETATM   40  C26 UNL     1      17.462   9.631  28.000  1.00  0.00     0.183 C 
HETATM   41  C27 UNL     1      17.691  10.216  26.627  1.00  0.00     0.204 C 
BRANCH  38  42
HETATM   42  C24 UNL     1      20.548  11.291  29.456  1.00  0.00     0.198 C 
BRANCH  42  43
HETATM   43  O4  UNL     1      21.711  11.126  28.709  1.00  0.00    -0.398 OA
ATOM     44  H4  UNL     1      22.029  11.961  28.385  1.00  0.00     0.209 HD
ENDBRANCH  42  43
ENDBRANCH  38  42
BRANCH  39  45
HETATM   45  O5  UNL     1      19.566   8.875  28.885  1.00  0.00    -0.390 OA
ATOM     46  H5  UNL     1      20.288   9.083  28.303  1.00  0.00     0.210 HD
ENDBRANCH  39  45
BRANCH  40  47
HETATM   47  O6  UNL     1      17.305   8.242  27.804  1.00  0.00    -0.390 OA
ATOM     48  H6  UNL     1      17.014   8.059  26.919  1.00  0.00     0.210 HD
ENDBRANCH  40  47
BRANCH  41  49
HETATM   49  O7  UNL     1      17.099  11.486  26.513  1.00  0.00    -0.388 OA
ATOM     50  H7  UNL     1      16.976  11.643  25.585  1.00  0.00     0.210 HD
ENDBRANCH  41  49
ENDBRANCH  35  36
ENDBRANCH  34  35
ENDBRANCH  32  34
ENDBRANCH  27  28
ENDBRANCH  26  27
ENDBRANCH   1  26
BRANCH   1  51
HETATM   51  C28 UNL     1      23.837   8.028  19.830  1.00  0.00    -0.034 A 
HETATM   52  C29 UNL     1      25.191   8.132  19.718  1.00  0.00     0.009 A 
HETATM   53  C30 UNL     1      25.845   7.376  18.746  1.00  0.00     0.001 A 
HETATM   54  C31 UNL     1      25.160   6.530  17.902  1.00  0.00     0.000 A 
HETATM   55  C32 UNL     1      23.791   6.420  18.012  1.00  0.00     0.001 A 
HETATM   56  C33 UNL     1      23.168   7.171  18.971  1.00  0.00     0.009 A 
ENDBRANCH   1  51
TORSDOF 14
ENDMDL
MODEL 3
REMARK VINA RESULT: -10.371406042      3.939      6.298
REMARK  14 active torsions:
REMARK  status: ('A' for Active; 'I' for Inactive)
REMARK    1  A    between atoms: N1_1  and  N2_4 
REMARK    2  A    between atoms: N5_22  and  C14_24 
REMARK    3  A    between atoms: C14_24  and  C15_25 
REMARK    4  A    between atoms: C14_24  and  C28_50 
REMARK    5  A    between atoms: C15_25  and  O1_26 
REMARK    6  A    between atoms: O1_26  and  C16_27 
REMARK    7  A    between atoms: C20_31  and  C21_32 
REMARK    8  A    between atoms: C21_32  and  O2_33 
REMARK    9  A    between atoms: O2_33  and  C22_34 
REMARK   10  A    between atoms: C23_36  and  C24_37 
REMARK   11  A    between atoms: C24_37  and  O4_38 
REMARK   12  A    between atoms: C25_40  and  O5_41 
REMARK   13  A    between atoms: C26_43  and  O6_44 
REMARK   14  A    between atoms: C27_46  and  O7_47 
ROOT
HETATM    1  C14 UNL     1      22.744   9.584  21.268  1.00  0.00     0.140 C 
ENDROOT
BRANCH   1   2
HETATM    2  N5  UNL     1      21.438   9.003  20.886  1.00  0.00    -0.362 N 
HETATM    3  C13 UNL     1      20.485   8.815  21.711  1.00  0.00     0.147 A 
HETATM    4  N4  UNL     1      20.476   9.092  23.018  1.00  0.00    -0.283 N 
HETATM    5  C34 UNL     1      19.246   8.289  21.433  1.00  0.00     0.124 A 
HETATM    6  N3  UNL     1      19.314   8.767  23.550  1.00  0.00    -0.296 N 
ATOM      7  H4  UNL     1      21.257   9.497  23.532  1.00  0.00     0.188 HD
HETATM    8  C12 UNL     1      18.505   8.261  22.606  1.00  0.00     0.091 A 
ATOM      9  H3  UNL     1      19.066   8.882  24.532  1.00  0.00     0.187 HD
HETATM   10  C11 UNL     1      17.139   7.762  22.656  1.00  0.00     0.003 A 
HETATM   11  C2  UNL     1      16.578   7.304  21.474  1.00  0.00    -0.025 A 
HETATM   12  C10 UNL     1      16.399   7.729  23.813  1.00  0.00     0.026 A 
HETATM   13  C1  UNL     1      17.283   7.299  20.181  1.00  0.00     0.188 A 
HETATM   14  C3  UNL     1      15.281   6.821  21.486  1.00  0.00     0.022 A 
HETATM   15  N2  UNL     1      18.618   7.805  20.255  1.00  0.00    -0.289 N 
HETATM   16  C4  UNL     1      14.552   6.797  22.671  1.00  0.00    -0.025 A 
HETATM   17  C5  UNL     1      13.253   6.325  22.718  1.00  0.00     0.012 A 
HETATM   18  C9  UNL     1      15.098   7.252  23.866  1.00  0.00    -0.025 A 
HETATM   19  C6  UNL     1      12.520   6.302  23.901  1.00  0.00     0.001 A 
HETATM   20  C7  UNL     1      13.087   6.762  25.077  1.00  0.00     0.001 A 
HETATM   21  C8  UNL     1      14.373   7.231  25.040  1.00  0.00     0.012 A 
ATOM     22  H5  UNL     1      21.293   8.739  19.911  1.00  0.00     0.162 HD
BRANCH  15  23
HETATM   23  N1  UNL     1      19.304   7.828  19.186  1.00  0.00    -0.342 N 
ATOM     24  H12 UNL     1      18.803   7.669  18.311  1.00  0.00     0.177 HD
ATOM     25  H11 UNL     1      20.306   8.002  19.266  1.00  0.00     0.177 HD
ENDBRANCH  15  23
ENDBRANCH   1   2
BRANCH   1  26
HETATM   26  C15 UNL     1      22.791  11.040  20.934  1.00  0.00     0.201 C 
BRANCH  26  27
HETATM   27  O1  UNL     1      23.721  11.790  21.567  1.00  0.00    -0.359 OA
BRANCH  27  28
HETATM   28  C16 UNL     1      23.488  12.116  22.895  1.00  0.00     0.264 C 
HETATM   29  C17 UNL     1      23.241  13.563  23.115  1.00  0.00     0.087 C 
HETATM   30  C18 UNL     1      23.371  13.896  24.553  1.00  0.00    -0.023 C 
HETATM   31  C19 UNL     1      24.443  13.399  25.177  1.00  0.00     0.003 C 
HETATM   32  C20 UNL     1      25.312  12.575  24.243  1.00  0.00     0.171 C 
HETATM   33  O8  UNL     1      24.528  11.615  23.619  1.00  0.00    -0.350 OA
BRANCH  32  34
HETATM   34  C21 UNL     1      26.425  11.944  25.038  1.00  0.00     0.207 C 
BRANCH  34  35
HETATM   35  O2  UNL     1      27.620  12.543  24.637  1.00  0.00    -0.356 OA
BRANCH  35  36
HETATM   36  C22 UNL     1      28.320  13.012  25.750  1.00  0.00     0.291 C 
HETATM   37  O3  UNL     1      29.515  12.284  25.823  1.00  0.00    -0.348 OA
HETATM   38  C23 UNL     1      30.460  12.856  26.641  1.00  0.00     0.179 C 
HETATM   39  C25 UNL     1      29.972  13.966  27.518  1.00  0.00     0.180 C 
HETATM   40  C26 UNL     1      29.291  15.050  26.752  1.00  0.00     0.183 C 
HETATM   41  C27 UNL     1      28.590  14.478  25.545  1.00  0.00     0.204 C 
BRANCH  38  42
HETATM   42  C24 UNL     1      31.014  11.771  27.575  1.00  0.00     0.198 C 
BRANCH  42  43
HETATM   43  O4  UNL     1      30.132  10.698  27.672  1.00  0.00    -0.398 OA
ATOM     44  H4  UNL     1      29.785  10.622  28.553  1.00  0.00     0.209 HD
ENDBRANCH  42  43
ENDBRANCH  38  42
BRANCH  39  45
HETATM   45  O5  UNL     1      29.184  13.454  28.547  1.00  0.00    -0.390 OA
ATOM     46  H5  UNL     1      28.267  13.646  28.384  1.00  0.00     0.210 HD
ENDBRANCH  39  45
BRANCH  40  47
HETATM   47  O6  UNL     1      28.282  15.654  27.532  1.00  0.00    -0.390 OA
ATOM     48  H6  UNL     1      28.453  16.582  27.641  1.00  0.00     0.210 HD
ENDBRANCH  40  47
BRANCH  41  49
HETATM   49  O7  UNL     1      29.395  14.577  24.396  1.00  0.00    -0.388 OA
ATOM     50  H7  UNL     1      29.110  15.357  23.936  1.00  0.00     0.210 HD
ENDBRANCH  41  49
ENDBRANCH  35  36
ENDBRANCH  34  35
ENDBRANCH  32  34
ENDBRANCH  27  28
ENDBRANCH  26  27
ENDBRANCH   1  26
BRANCH   1  51
HETATM   51  C28 UNL     1      23.774   8.768  20.520  1.00  0.00    -0.034 A 
HETATM   52  C29 UNL     1      24.670   9.296  19.639  1.00  0.00     0.009 A 
HETATM   53  C30 UNL     1      25.578   8.443  19.011  1.00  0.00     0.001 A 
HETATM   54  C31 UNL     1      25.591   7.088  19.258  1.00  0.00     0.000 A 
HETATM   55  C32 UNL     1      24.687   6.550  20.148  1.00  0.00     0.001 A 
HETATM   56  C33 UNL     1      23.805   7.402  20.753  1.00  0.00     0.009 A 
ENDBRANCH   1  51
TORSDOF 14
ENDMDL
MODEL 4
REMARK VINA RESULT: -10.346421934      3.598      7.733
REMARK  14 active torsions:
REMARK  status: ('A' for Active; 'I' for Inactive)
REMARK    1  A    between atoms: N1_1  and  N2_4 
REMARK    2  A    between atoms: N5_22  and  C14_24 
REMARK    3  A    between atoms: C14_24  and  C15_25 
REMARK    4  A    between atoms: C14_24  and  C28_50 
REMARK    5  A    between atoms: C15_25  and  O1_26 
REMARK    6  A    between atoms: O1_26  and  C16_27 
REMARK    7  A    between atoms: C20_31  and  C21_32 
REMARK    8  A    between atoms: C21_32  and  O2_33 
REMARK    9  A    between atoms: O2_33  and  C22_34 
REMARK   10  A    between atoms: C23_36  and  C24_37 
REMARK   11  A    between atoms: C24_37  and  O4_38 
REMARK   12  A    between atoms: C25_40  and  O5_41 
REMARK   13  A    between atoms: C26_43  and  O6_44 
REMARK   14  A    between atoms: C27_46  and  O7_47 
ROOT
HETATM    1  C14 UNL     1      19.524   9.587  23.098  1.00  0.00     0.140 C 
ENDROOT
BRANCH   1   2
HETATM    2  N5  UNL     1      18.370   8.662  23.060  1.00  0.00    -0.362 N 
HETATM    3  C13 UNL     1      18.036   7.999  22.024  1.00  0.00     0.147 A 
HETATM    4  N4  UNL     1      18.632   8.007  20.828  1.00  0.00    -0.283 N 
HETATM    5  C34 UNL     1      16.987   7.119  21.911  1.00  0.00     0.124 A 
HETATM    6  N3  UNL     1      18.011   7.191  19.999  1.00  0.00    -0.296 N 
ATOM      7  H4  UNL     1      19.451   8.565  20.590  1.00  0.00     0.188 HD
HETATM    8  C12 UNL     1      16.976   6.608  20.621  1.00  0.00     0.091 A 
ATOM      9  H3  UNL     1      18.278   7.027  19.028  1.00  0.00     0.187 HD
HETATM   10  C11 UNL     1      15.985   5.639  20.174  1.00  0.00     0.003 A 
HETATM   11  C2  UNL     1      15.030   5.227  21.088  1.00  0.00    -0.025 A 
HETATM   12  C10 UNL     1      15.967   5.129  18.898  1.00  0.00     0.026 A 
HETATM   13  C1  UNL     1      14.965   5.709  22.478  1.00  0.00     0.188 A 
HETATM   14  C3  UNL     1      14.073   4.308  20.694  1.00  0.00     0.022 A 
HETATM   15  N2  UNL     1      15.980   6.660  22.802  1.00  0.00    -0.289 N 
HETATM   16  C4  UNL     1      14.073   3.806  19.397  1.00  0.00    -0.025 A 
HETATM   17  C5  UNL     1      13.134   2.884  18.971  1.00  0.00     0.012 A 
HETATM   18  C9  UNL     1      15.024   4.208  18.466  1.00  0.00    -0.025 A 
HETATM   19  C6  UNL     1      13.134   2.378  17.675  1.00  0.00     0.001 A 
HETATM   20  C7  UNL     1      14.092   2.794  16.768  1.00  0.00     0.001 A 
HETATM   21  C8  UNL     1      15.026   3.708  17.180  1.00  0.00     0.012 A 
ATOM     22  H5  UNL     1      17.813   8.550  23.907  1.00  0.00     0.162 HD
BRANCH  15  23
HETATM   23  N1  UNL     1      15.993   7.137  23.980  1.00  0.00    -0.342 N 
ATOM     24  H12 UNL     1      16.507   8.007  24.121  1.00  0.00     0.177 HD
ATOM     25  H11 UNL     1      15.494   6.625  24.707  1.00  0.00     0.177 HD
ENDBRANCH  15  23
ENDBRANCH   1   2
BRANCH   1  26
HETATM   26  C15 UNL     1      20.809   8.826  23.168  1.00  0.00     0.201 C 
BRANCH  26  27
HETATM   27  O1  UNL     1      21.355   8.427  21.997  1.00  0.00    -0.359 OA
BRANCH  27  28
HETATM   28  C16 UNL     1      22.671   8.788  21.746  1.00  0.00     0.264 C 
HETATM   29  C17 UNL     1      22.803   9.971  20.860  1.00  0.00     0.087 C 
HETATM   30  C18 UNL     1      24.186  10.074  20.339  1.00  0.00    -0.023 C 
HETATM   31  C19 UNL     1      24.722   8.945  19.866  1.00  0.00     0.003 C 
HETATM   32  C20 UNL     1      23.763   7.772  19.977  1.00  0.00     0.171 C 
HETATM   33  O8  UNL     1      23.309   7.676  21.284  1.00  0.00    -0.350 OA
BRANCH  32  34
HETATM   34  C21 UNL     1      24.473   6.516  19.546  1.00  0.00     0.207 C 
BRANCH  34  35
HETATM   35  O2  UNL     1      24.136   6.277  18.214  1.00  0.00    -0.356 OA
BRANCH  35  36
HETATM   36  C22 UNL     1      22.770   6.486  18.017  1.00  0.00     0.291 C 
HETATM   37  O3  UNL     1      22.612   7.003  16.725  1.00  0.00    -0.348 OA
HETATM   38  C23 UNL     1      21.322   6.934  16.257  1.00  0.00     0.179 C 
HETATM   39  C25 UNL     1      20.279   6.601  17.278  1.00  0.00     0.180 C 
HETATM   40  C26 UNL     1      20.580   5.343  18.021  1.00  0.00     0.183 C 
HETATM   41  C27 UNL     1      22.072   5.161  18.161  1.00  0.00     0.204 C 
BRANCH  38  42
HETATM   42  C24 UNL     1      20.943   8.303  15.674  1.00  0.00     0.198 C 
BRANCH  42  43
HETATM   43  O4  UNL     1      19.585   8.557  15.839  1.00  0.00    -0.398 OA
ATOM     44  H4  UNL     1      19.350   9.405  15.480  1.00  0.00     0.209 HD
ENDBRANCH  42  43
ENDBRANCH  38  42
BRANCH  39  45
HETATM   45  O5  UNL     1      20.067   7.690  18.121  1.00  0.00    -0.390 OA
ATOM     46  H5  UNL     1      19.311   8.187  17.830  1.00  0.00     0.210 HD
ENDBRANCH  39  45
BRANCH  40  47
HETATM   47  O6  UNL     1      20.076   5.410  19.337  1.00  0.00    -0.390 OA
ATOM     48  H6  UNL     1      20.723   5.781  19.926  1.00  0.00     0.210 HD
ENDBRANCH  40  47
BRANCH  41  49
HETATM   49  O7  UNL     1      22.579   4.333  17.144  1.00  0.00    -0.388 OA
ATOM     50  H7  UNL     1      21.896   4.266  16.487  1.00  0.00     0.210 HD
ENDBRANCH  41  49
ENDBRANCH  35  36
ENDBRANCH  34  35
ENDBRANCH  32  34
ENDBRANCH  27  28
ENDBRANCH  26  27
ENDBRANCH   1  26
BRANCH   1  51
HETATM   51  C28 UNL     1      19.288  10.466  24.306  1.00  0.00    -0.034 A 
HETATM   52  C29 UNL     1      18.406  10.170  25.302  1.00  0.00     0.009 A 
HETATM   53  C30 UNL     1      18.275  11.057  26.370  1.00  0.00     0.001 A 
HETATM   54  C31 UNL     1      19.012  12.218  26.444  1.00  0.00     0.000 A 
HETATM   55  C32 UNL     1      19.906  12.521  25.440  1.00  0.00     0.001 A 
HETATM   56  C33 UNL     1      20.019  11.639  24.400  1.00  0.00     0.009 A 
ENDBRANCH   1  51
TORSDOF 14
ENDMDL
MODEL 5
REMARK VINA RESULT: -10.191533259      1.565      2.350
REMARK  14 active torsions:
REMARK  status: ('A' for Active; 'I' for Inactive)
REMARK    1  A    between atoms: N1_1  and  N2_4 
REMARK    2  A    between atoms: N5_22  and  C14_24 
REMARK    3  A    between atoms: C14_24  and  C15_25 
REMARK    4  A    between atoms: C14_24  and  C28_50 
REMARK    5  A    between atoms: C15_25  and  O1_26 
REMARK    6  A    between atoms: O1_26  and  C16_27 
REMARK    7  A    between atoms: C20_31  and  C21_32 
REMARK    8  A    between atoms: C21_32  and  O2_33 
REMARK    9  A    between atoms: O2_33  and  C22_34 
REMARK   10  A    between atoms: C23_36  and  C24_37 
REMARK   11  A    between atoms: C24_37  and  O4_38 
REMARK   12  A    between atoms: C25_40  and  O5_41 
REMARK   13  A    between atoms: C26_43  and  O6_44 
REMARK   14  A    between atoms: C27_46  and  O7_47 
ROOT
HETATM    1  C14 UNL     1      22.718   9.565  21.261  1.00  0.00     0.140 C 
ENDROOT
BRANCH   1   2
HETATM    2  N5  UNL     1      21.414   8.987  20.869  1.00  0.00    -0.362 N 
HETATM    3  C13 UNL     1      20.456   8.796  21.688  1.00  0.00     0.147 A 
HETATM    4  N4  UNL     1      20.441   9.066  22.997  1.00  0.00    -0.283 N 
HETATM    5  C34 UNL     1      19.218   8.273  21.401  1.00  0.00     0.124 A 
HETATM    6  N3  UNL     1      19.275   8.739  23.521  1.00  0.00    -0.296 N 
ATOM      7  H4  UNL     1      21.220   9.468  23.517  1.00  0.00     0.188 HD
HETATM    8  C12 UNL     1      18.471   8.240  22.570  1.00  0.00     0.091 A 
ATOM      9  H3  UNL     1      19.022   8.850  24.502  1.00  0.00     0.187 HD
HETATM   10  C11 UNL     1      17.104   7.741  22.609  1.00  0.00     0.003 A 
HETATM   11  C2  UNL     1      16.549   7.291  21.423  1.00  0.00    -0.025 A 
HETATM   12  C10 UNL     1      16.358   7.704  23.763  1.00  0.00     0.026 A 
HETATM   13  C1  UNL     1      17.262   7.291  20.134  1.00  0.00     0.188 A 
HETATM   14  C3  UNL     1      15.252   6.809  21.425  1.00  0.00     0.022 A 
HETATM   15  N2  UNL     1      18.596   7.795  20.217  1.00  0.00    -0.289 N 
HETATM   16  C4  UNL     1      14.516   6.779  22.606  1.00  0.00    -0.025 A 
HETATM   17  C5  UNL     1      13.216   6.308  22.644  1.00  0.00     0.012 A 
HETATM   18  C9  UNL     1      15.056   7.227  23.806  1.00  0.00    -0.025 A 
HETATM   19  C6  UNL     1      12.477   6.280  23.822  1.00  0.00     0.001 A 
HETATM   20  C7  UNL     1      13.038   6.733  25.004  1.00  0.00     0.001 A 
HETATM   21  C8  UNL     1      14.325   7.201  24.976  1.00  0.00     0.012 A 
ATOM     22  H5  UNL     1      21.274   8.728  19.893  1.00  0.00     0.162 HD
BRANCH  15  23
HETATM   23  N1  UNL     1      19.288   7.823  19.152  1.00  0.00    -0.342 N 
ATOM     24  H12 UNL     1      20.256   8.134  19.237  1.00  0.00     0.177 HD
ATOM     25  H11 UNL     1      18.838   7.537  18.283  1.00  0.00     0.177 HD
ENDBRANCH  15  23
ENDBRANCH   1   2
BRANCH   1  26
HETATM   26  C15 UNL     1      22.773  11.020  20.926  1.00  0.00     0.201 C 
BRANCH  26  27
HETATM   27  O1  UNL     1      22.467  11.893  21.913  1.00  0.00    -0.359 OA
BRANCH  27  28
HETATM   28  C16 UNL     1      23.516  12.555  22.534  1.00  0.00     0.264 C 
HETATM   29  C17 UNL     1      24.853  12.034  22.153  1.00  0.00     0.087 C 
HETATM   30  C18 UNL     1      25.883  12.510  23.105  1.00  0.00    -0.023 C 
HETATM   31  C19 UNL     1      25.579  12.406  24.402  1.00  0.00     0.003 C 
HETATM   32  C20 UNL     1      24.199  11.807  24.614  1.00  0.00     0.171 C 
HETATM   33  O8  UNL     1      23.271  12.524  23.874  1.00  0.00    -0.350 OA
BRANCH  32  34
HETATM   34  C21 UNL     1      23.873  11.836  26.084  1.00  0.00     0.207 C 
BRANCH  34  35
HETATM   35  O2  UNL     1      22.839  12.755  26.268  1.00  0.00    -0.356 OA
BRANCH  35  36
HETATM   36  C22 UNL     1      21.604  12.103  26.240  1.00  0.00     0.291 C 
HETATM   37  O3  UNL     1      21.203  11.920  27.570  1.00  0.00    -0.348 OA
HETATM   38  C23 UNL     1      19.870  11.614  27.707  1.00  0.00     0.179 C 
HETATM   39  C25 UNL     1      19.156  11.250  26.443  1.00  0.00     0.180 C 
HETATM   40  C26 UNL     1      19.296  12.289  25.381  1.00  0.00     0.183 C 
HETATM   41  C27 UNL     1      20.633  12.978  25.496  1.00  0.00     0.204 C 
BRANCH  38  42
HETATM   42  C24 UNL     1      19.743  10.407  28.646  1.00  0.00     0.198 C 
BRANCH  42  43
HETATM   43  O4  UNL     1      18.422   9.976  28.730  1.00  0.00    -0.398 OA
ATOM     44  H4  UNL     1      17.959  10.136  27.916  1.00  0.00     0.209 HD
ENDBRANCH  42  43
ENDBRANCH  38  42
BRANCH  39  45
HETATM   45  O5  UNL     1      19.549   9.984  26.016  1.00  0.00    -0.390 OA
ATOM     46  H5  UNL     1      18.952   9.325  26.351  1.00  0.00     0.210 HD
ENDBRANCH  39  45
BRANCH  40  47
HETATM   47  O6  UNL     1      19.277  11.697  24.100  1.00  0.00    -0.390 OA
ATOM     48  H6  UNL     1      19.891  12.132  23.521  1.00  0.00     0.210 HD
ENDBRANCH  40  47
BRANCH  41  49
HETATM   49  O7  UNL     1      20.527  14.170  26.234  1.00  0.00    -0.388 OA
ATOM     50  H7  UNL     1      19.604  14.396  26.248  1.00  0.00     0.210 HD
ENDBRANCH  41  49
ENDBRANCH  35  36
ENDBRANCH  34  35
ENDBRANCH  32  34
ENDBRANCH  27  28
ENDBRANCH  26  27
ENDBRANCH   1  26
BRANCH   1  51
HETATM   51  C28 UNL     1      23.753   8.745  20.523  1.00  0.00    -0.034 A 
HETATM   52  C29 UNL     1      24.676   9.274  19.671  1.00  0.00     0.009 A 
HETATM   53  C30 UNL     1      25.584   8.417  19.049  1.00  0.00     0.001 A 
HETATM   54  C31 UNL     1      25.571   7.058  19.272  1.00  0.00     0.000 A 
HETATM   55  C32 UNL     1      24.640   6.520  20.134  1.00  0.00     0.001 A 
HETATM   56  C33 UNL     1      23.757   7.376  20.733  1.00  0.00     0.009 A 
ENDBRANCH   1  51
TORSDOF 14
ENDMDL
