MODEL 1
REMARK VINA RESULT: -8.486352829      0.000      0.000
REMARK  14 active torsions:
REMARK  status: ('A' for Active; 'I' for Inactive)
REMARK    1  A    between atoms: C2_2  and  C3_3 
REMARK    2  A    between atoms: C6_6  and  O1_7 
REMARK    3  A    between atoms: C11_13  and  O2_14 
REMARK    4  A    between atoms: C11_13  and  C12_16 
REMARK    5  A    between atoms: C12_16  and  C13_17 
REMARK    6  A    between atoms: N1_23  and  C19_25 
REMARK    7  A    between atoms: C19_25  and  C20_26 
REMARK    8  A    between atoms: C26_32  and  O4_33 
REMARK    9  A    between atoms: O4_33  and  C27_34 
REMARK   10  A    between atoms: C28_35  and  O5_36 
REMARK   11  A    between atoms: C29_38  and  O6_39 
REMARK   12  A    between atoms: C30_41  and  O7_42 
REMARK   13  A    between atoms: O7_42  and  S1_43 
REMARK   14  A    between atoms: C31_47  and  O11_48 
ROOT
HETATM    1  C3  UNL     1      14.665   4.370  19.334  1.00  0.00    -0.022 C 
HETATM    2  C4  UNL     1      13.863   3.073  19.404  1.00  0.00     0.019 C 
HETATM    3  C5  UNL     1      14.224   5.285  20.445  1.00  0.00     0.048 C 
HETATM    4  C6  UNL     1      15.257   5.161  21.540  1.00  0.00     0.167 C 
HETATM    5  C7  UNL     1      16.504   5.873  21.120  1.00  0.00     0.243 C 
HETATM    6  C8  UNL     1      16.173   7.306  20.697  1.00  0.00     0.055 C 
HETATM    7  C9  UNL     1      15.441   8.071  21.716  1.00  0.00     0.009 C 
HETATM    8  C10 UNL     1      16.333   8.103  22.931  1.00  0.00     0.080 C 
HETATM    9  C11 UNL     1      17.205   6.962  23.202  1.00  0.00     0.293 C 
HETATM   10  N1  UNL     1      17.491   5.993  22.203  1.00  0.00     0.086 N 
HETATM   11  O3  UNL     1      18.492   6.669  21.493  1.00  0.00    -0.056 OA
HETATM   12  C26 UNL     1      16.989   5.228  19.864  1.00  0.00     0.171 C 
HETATM   13  C32 UNL     1      16.098   3.992  19.498  1.00  0.00     0.048 C 
ENDROOT
BRANCH   4  14
HETATM   14  O1  UNL     1      14.662   5.546  22.699  1.00  0.00    -0.392 OA
ATOM     15  H1  UNL     1      15.046   5.029  23.397  1.00  0.00     0.210 HD
ENDBRANCH   4  14
BRANCH  10  16
HETATM   16  C19 UNL     1      18.025   4.755  22.529  1.00  0.00     0.290 C 
BRANCH  16  17
HETATM   17  C20 UNL     1      17.342   3.605  23.092  1.00  0.00    -0.004 A 
HETATM   18  C21 UNL     1      17.049   2.447  22.386  1.00  0.00     0.013 A 
HETATM   19  C22 UNL     1      16.433   1.346  22.898  1.00  0.00     0.001 A 
HETATM   20  C23 UNL     1      16.054   1.329  24.208  1.00  0.00     0.000 A 
HETATM   21  C24 UNL     1      16.309   2.443  24.984  1.00  0.00     0.001 A 
HETATM   22  C25 UNL     1      16.929   3.515  24.411  1.00  0.00     0.013 A 
ENDBRANCH  16  17
ENDBRANCH  10  16
BRANCH  12  23
HETATM   23  O4  UNL     1      18.240   4.807  19.708  1.00  0.00    -0.372 OA
BRANCH  23  24
HETATM   24  C27 UNL     1      18.996   5.165  18.652  1.00  0.00     0.184 C 
HETATM   25  C28 UNL     1      19.764   4.075  17.971  1.00  0.00     0.181 C 
HETATM   26  C29 UNL     1      20.296   4.912  16.788  1.00  0.00     0.182 C 
HETATM   27  C30 UNL     1      20.913   6.063  17.609  1.00  0.00     0.207 C 
HETATM   28  C31 UNL     1      19.991   6.260  18.777  1.00  0.00     0.182 C 
BRANCH  25  29
HETATM   29  O5  UNL     1      20.914   3.678  18.633  1.00  0.00    -0.390 OA
ATOM     30  H5  UNL     1      21.453   3.060  18.153  1.00  0.00     0.210 HD
ENDBRANCH  25  29
BRANCH  26  31
HETATM   31  O6  UNL     1      19.237   5.412  16.072  1.00  0.00    -0.390 OA
ATOM     32  H6  UNL     1      19.512   6.195  15.608  1.00  0.00     0.210 HD
ENDBRANCH  26  31
BRANCH  27  33
HETATM   33  O7  UNL     1      22.190   5.715  17.965  1.00  0.00    -0.246 OA
BRANCH  33  34
HETATM   34  S1  UNL     1      23.261   6.837  17.329  1.00  0.00     0.252 S 
HETATM   35  O8  UNL     1      24.411   6.184  16.618  1.00  0.00    -0.572 OA
HETATM   36  O9  UNL     1      22.512   7.735  16.361  1.00  0.00    -0.572 OA
HETATM   37  O10 UNL     1      23.888   7.839  18.521  1.00  0.00    -0.572 OA
ENDBRANCH  33  34
ENDBRANCH  27  33
BRANCH  28  38
HETATM   38  O11 UNL     1      19.314   7.500  18.639  1.00  0.00    -0.390 OA
ATOM     39  H11 UNL     1      18.577   7.510  19.239  1.00  0.00     0.210 HD
ENDBRANCH  28  38
ENDBRANCH  23  24
ENDBRANCH  12  23
BRANCH   9  40
HETATM   40  O2  UNL     1      16.764   6.409  24.436  1.00  0.00    -0.357 OA
ATOM     41  H2  UNL     1      17.526   6.385  25.003  1.00  0.00     0.213 HD
ENDBRANCH   9  40
BRANCH   9  42
HETATM   42  C12 UNL     1      18.548   7.584  23.644  1.00  0.00     0.117 C 
BRANCH  42  43
HETATM   43  C13 UNL     1      18.403   8.881  24.322  1.00  0.00    -0.053 A 
HETATM   44  C14 UNL     1      17.993   8.949  25.664  1.00  0.00     0.007 A 
HETATM   45  C15 UNL     1      17.887  10.155  26.319  1.00  0.00     0.001 A 
HETATM   46  C16 UNL     1      18.179  11.350  25.693  1.00  0.00     0.000 A 
HETATM   47  C17 UNL     1      18.577  11.307  24.394  1.00  0.00     0.001 A 
HETATM   48  C18 UNL     1      18.683  10.100  23.740  1.00  0.00     0.007 A 
ENDBRANCH  42  43
ENDBRANCH   9  42
BRANCH   1  49
HETATM   49  C2  UNL     1      14.369   4.953  17.979  1.00  0.00    -0.028 C 
HETATM   50  C1  UNL     1      13.176   4.843  17.455  1.00  0.00     0.007 C 
ENDBRANCH   1  49
TORSDOF 14
ENDMDL
MODEL 2
REMARK VINA RESULT: -8.372450076      3.520      6.250
REMARK  14 active torsions:
REMARK  status: ('A' for Active; 'I' for Inactive)
REMARK    1  A    between atoms: C2_2  and  C3_3 
REMARK    2  A    between atoms: C6_6  and  O1_7 
REMARK    3  A    between atoms: C11_13  and  O2_14 
REMARK    4  A    between atoms: C11_13  and  C12_16 
REMARK    5  A    between atoms: C12_16  and  C13_17 
REMARK    6  A    between atoms: N1_23  and  C19_25 
REMARK    7  A    between atoms: C19_25  and  C20_26 
REMARK    8  A    between atoms: C26_32  and  O4_33 
REMARK    9  A    between atoms: O4_33  and  C27_34 
REMARK   10  A    between atoms: C28_35  and  O5_36 
REMARK   11  A    between atoms: C29_38  and  O6_39 
REMARK   12  A    between atoms: C30_41  and  O7_42 
REMARK   13  A    between atoms: O7_42  and  S1_43 
REMARK   14  A    between atoms: C31_47  and  O11_48 
ROOT
HETATM    1  C3  UNL     1      14.042   4.859  22.610  1.00  0.00    -0.022 C 
HETATM    2  C4  UNL     1      13.831   3.561  23.385  1.00  0.00     0.019 C 
HETATM    3  C5  UNL     1      15.065   5.700  23.325  1.00  0.00     0.048 C 
HETATM    4  C6  UNL     1      16.371   5.505  22.591  1.00  0.00     0.167 C 
HETATM    5  C7  UNL     1      16.317   6.242  21.289  1.00  0.00     0.243 C 
HETATM    6  C8  UNL     1      15.916   7.699  21.528  1.00  0.00     0.055 C 
HETATM    7  C9  UNL     1      16.770   8.397  22.499  1.00  0.00     0.009 C 
HETATM    8  C10 UNL     1      18.167   8.350  21.934  1.00  0.00     0.080 C 
HETATM    9  C11 UNL     1      18.572   7.192  21.137  1.00  0.00     0.293 C 
HETATM   10  N1  UNL     1      17.615   6.290  20.601  1.00  0.00     0.086 N 
HETATM   11  O3  UNL     1      17.217   7.010  19.466  1.00  0.00    -0.056 OA
HETATM   12  C26 UNL     1      15.181   5.678  20.501  1.00  0.00     0.171 C 
HETATM   13  C32 UNL     1      14.531   4.470  21.256  1.00  0.00     0.048 C 
ENDROOT
BRANCH   4  14
HETATM   14  O1  UNL     1      17.370   5.815  23.458  1.00  0.00    -0.392 OA
ATOM     15  H1  UNL     1      18.164   5.412  23.127  1.00  0.00     0.210 HD
ENDBRANCH   4  14
BRANCH  10  16
HETATM   16  C19 UNL     1      17.984   5.033  20.145  1.00  0.00     0.290 C 
BRANCH  16  17
HETATM   17  C20 UNL     1      18.856   4.705  19.033  1.00  0.00    -0.004 A 
HETATM   18  C21 UNL     1      18.839   5.356  17.807  1.00  0.00     0.013 A 
HETATM   19  C22 UNL     1      19.664   5.084  16.758  1.00  0.00     0.001 A 
HETATM   20  C23 UNL     1      20.601   4.100  16.870  1.00  0.00     0.000 A 
HETATM   21  C24 UNL     1      20.686   3.401  18.059  1.00  0.00     0.001 A 
HETATM   22  C25 UNL     1      19.830   3.722  19.072  1.00  0.00     0.013 A 
ENDBRANCH  16  17
ENDBRANCH  10  16
BRANCH  12  23
HETATM   23  O4  UNL     1      15.313   5.268  19.243  1.00  0.00    -0.372 OA
BRANCH  23  24
HETATM   24  C27 UNL     1      14.641   4.206  18.757  1.00  0.00     0.184 C 
HETATM   25  C28 UNL     1      15.343   2.884  18.802  1.00  0.00     0.181 C 
HETATM   26  C29 UNL     1      14.161   2.012  18.324  1.00  0.00     0.182 C 
HETATM   27  C30 UNL     1      13.824   2.803  17.044  1.00  0.00     0.207 C 
HETATM   28  C31 UNL     1      14.067   4.244  17.388  1.00  0.00     0.182 C 
BRANCH  25  29
HETATM   29  O5  UNL     1      16.299   2.704  17.817  1.00  0.00    -0.390 OA
ATOM     30  H5  UNL     1      16.454   1.798  17.576  1.00  0.00     0.210 HD
ENDBRANCH  25  29
BRANCH  26  31
HETATM   31  O6  UNL     1      13.114   2.145  19.202  1.00  0.00    -0.390 OA
ATOM     32  H6  UNL     1      12.446   1.503  18.995  1.00  0.00     0.210 HD
ENDBRANCH  26  31
BRANCH  27  33
HETATM   33  O7  UNL     1      14.607   2.340  16.020  1.00  0.00    -0.246 OA
BRANCH  33  34
HETATM   34  S1  UNL     1      13.816   1.077  15.252  1.00  0.00     0.252 S 
HETATM   35  O8  UNL     1      12.387   0.950  15.695  1.00  0.00    -0.572 OA
HETATM   36  O9  UNL     1      13.860   1.312  13.753  1.00  0.00    -0.572 OA
HETATM   37  O10 UNL     1      14.579  -0.392  15.528  1.00  0.00    -0.572 OA
ENDBRANCH  33  34
ENDBRANCH  27  33
BRANCH  28  38
HETATM   38  O11 UNL     1      12.826   4.932  17.440  1.00  0.00    -0.390 OA
ATOM     39  H11 UNL     1      12.672   5.209  18.336  1.00  0.00     0.210 HD
ENDBRANCH  28  38
ENDBRANCH  23  24
ENDBRANCH  12  23
BRANCH   9  40
HETATM   40  O2  UNL     1      19.622   6.561  21.861  1.00  0.00    -0.357 OA
ATOM     41  H2  UNL     1      20.239   6.246  21.211  1.00  0.00     0.213 HD
ENDBRANCH   9  40
BRANCH   9  42
HETATM   42  C12 UNL     1      19.370   7.783  19.954  1.00  0.00     0.117 C 
BRANCH  42  43
HETATM   43  C13 UNL     1      20.826   7.767  20.158  1.00  0.00    -0.053 A 
HETATM   44  C14 UNL     1      21.666   7.049  19.291  1.00  0.00     0.007 A 
HETATM   45  C15 UNL     1      23.033   7.055  19.450  1.00  0.00     0.001 A 
HETATM   46  C16 UNL     1      23.643   7.765  20.464  1.00  0.00     0.000 A 
HETATM   47  C17 UNL     1      22.849   8.468  21.315  1.00  0.00     0.001 A 
HETATM   48  C18 UNL     1      21.481   8.461  21.155  1.00  0.00     0.007 A 
ENDBRANCH  42  43
ENDBRANCH   9  42
BRANCH   1  49
HETATM   49  C2  UNL     1      12.695   5.529  22.573  1.00  0.00    -0.028 C 
HETATM   50  C1  UNL     1      12.443   6.555  23.343  1.00  0.00     0.007 C 
ENDBRANCH   1  49
TORSDOF 14
ENDMDL
MODEL 3
REMARK VINA RESULT: -8.342574860      2.050      4.451
REMARK  14 active torsions:
REMARK  status: ('A' for Active; 'I' for Inactive)
REMARK    1  A    between atoms: C2_2  and  C3_3 
REMARK    2  A    between atoms: C6_6  and  O1_7 
REMARK    3  A    between atoms: C11_13  and  O2_14 
REMARK    4  A    between atoms: C11_13  and  C12_16 
REMARK    5  A    between atoms: C12_16  and  C13_17 
REMARK    6  A    between atoms: N1_23  and  C19_25 
REMARK    7  A    between atoms: C19_25  and  C20_26 
REMARK    8  A    between atoms: C26_32  and  O4_33 
REMARK    9  A    between atoms: O4_33  and  C27_34 
REMARK   10  A    between atoms: C28_35  and  O5_36 
REMARK   11  A    between atoms: C29_38  and  O6_39 
REMARK   12  A    between atoms: C30_41  and  O7_42 
REMARK   13  A    between atoms: O7_42  and  S1_43 
REMARK   14  A    between atoms: C31_47  and  O11_48 
ROOT
HETATM    1  C3  UNL     1      19.175   1.371  18.981  1.00  0.00    -0.022 C 
HETATM    2  C4  UNL     1      19.894   0.243  19.716  1.00  0.00     0.019 C 
HETATM    3  C5  UNL     1      17.694   1.252  19.221  1.00  0.00     0.048 C 
HETATM    4  C6  UNL     1      17.350   2.256  20.295  1.00  0.00     0.167 C 
HETATM    5  C7  UNL     1      17.391   3.633  19.711  1.00  0.00     0.243 C 
HETATM    6  C8  UNL     1      16.517   3.697  18.456  1.00  0.00     0.055 C 
HETATM    7  C9  UNL     1      15.133   3.254  18.675  1.00  0.00     0.009 C 
HETATM    8  C10 UNL     1      14.564   4.171  19.728  1.00  0.00     0.080 C 
HETATM    9  C11 UNL     1      15.451   4.702  20.762  1.00  0.00     0.293 C 
HETATM   10  N1  UNL     1      16.864   4.660  20.620  1.00  0.00     0.086 N 
HETATM   11  O3  UNL     1      17.054   5.779  19.796  1.00  0.00    -0.056 OA
HETATM   12  C26 UNL     1      18.775   3.863  19.199  1.00  0.00     0.171 C 
HETATM   13  C32 UNL     1      19.700   2.647  19.545  1.00  0.00     0.048 C 
ENDROOT
BRANCH   4  14
HETATM   14  O1  UNL     1      16.192   1.844  20.876  1.00  0.00    -0.392 OA
ATOM     15  H1  UNL     1      16.282   1.983  21.811  1.00  0.00     0.210 HD
ENDBRANCH   4  14
BRANCH  10  16
HETATM   16  C19 UNL     1      17.705   4.842  21.708  1.00  0.00     0.290 C 
BRANCH  16  17
HETATM   17  C20 UNL     1      18.017   6.077  22.403  1.00  0.00    -0.004 A 
HETATM   18  C21 UNL     1      17.889   6.257  23.773  1.00  0.00     0.013 A 
HETATM   19  C22 UNL     1      18.200   7.396  24.451  1.00  0.00     0.001 A 
HETATM   20  C23 UNL     1      18.680   8.478  23.775  1.00  0.00     0.000 A 
HETATM   21  C24 UNL     1      18.838   8.383  22.405  1.00  0.00     0.001 A 
HETATM   22  C25 UNL     1      18.508   7.214  21.785  1.00  0.00     0.013 A 
ENDBRANCH  16  17
ENDBRANCH  10  16
BRANCH  12  23
HETATM   23  O4  UNL     1      19.489   4.939  19.514  1.00  0.00    -0.372 OA
BRANCH  23  24
HETATM   24  C27 UNL     1      20.014   5.756  18.581  1.00  0.00     0.184 C 
HETATM   25  C28 UNL     1      19.847   5.344  17.151  1.00  0.00     0.181 C 
HETATM   26  C29 UNL     1      20.427   6.622  16.505  1.00  0.00     0.182 C 
HETATM   27  C30 UNL     1      21.763   6.656  17.276  1.00  0.00     0.207 C 
HETATM   28  C31 UNL     1      21.440   6.163  18.657  1.00  0.00     0.182 C 
BRANCH  25  29
HETATM   29  O5  UNL     1      20.710   4.346  16.733  1.00  0.00    -0.390 OA
ATOM     30  H5  UNL     1      20.973   4.407  15.821  1.00  0.00     0.210 HD
ENDBRANCH  25  29
BRANCH  26  31
HETATM   31  O6  UNL     1      19.679   7.707  16.890  1.00  0.00    -0.390 OA
ATOM     32  H6  UNL     1      20.075   8.499  16.548  1.00  0.00     0.210 HD
ENDBRANCH  26  31
BRANCH  27  33
HETATM   33  O7  UNL     1      22.675   5.879  16.612  1.00  0.00    -0.246 OA
BRANCH  33  34
HETATM   34  S1  UNL     1      24.216   6.263  17.147  1.00  0.00     0.252 S 
HETATM   35  O8  UNL     1      25.278   5.836  16.176  1.00  0.00    -0.572 OA
HETATM   36  O9  UNL     1      24.300   7.764  17.360  1.00  0.00    -0.572 OA
HETATM   37  O10 UNL     1      24.552   5.552  18.630  1.00  0.00    -0.572 OA
ENDBRANCH  33  34
ENDBRANCH  27  33
BRANCH  28  38
HETATM   38  O11 UNL     1      21.552   7.238  19.578  1.00  0.00    -0.390 OA
ATOM     39  H11 UNL     1      21.780   6.883  20.430  1.00  0.00     0.210 HD
ENDBRANCH  28  38
ENDBRANCH  23  24
ENDBRANCH  12  23
BRANCH   9  40
HETATM   40  O2  UNL     1      14.977   4.178  21.997  1.00  0.00    -0.357 OA
ATOM     41  H2  UNL     1      14.036   4.305  21.994  1.00  0.00     0.213 HD
ENDBRANCH   9  40
BRANCH   9  42
HETATM   42  C12 UNL     1      15.041   6.183  20.916  1.00  0.00     0.117 C 
BRANCH  42  43
HETATM   43  C13 UNL     1      14.313   6.467  22.162  1.00  0.00    -0.053 A 
HETATM   44  C14 UNL     1      13.010   5.982  22.360  1.00  0.00     0.007 A 
HETATM   45  C15 UNL     1      12.331   6.211  23.536  1.00  0.00     0.001 A 
HETATM   46  C16 UNL     1      12.897   6.925  24.573  1.00  0.00     0.000 A 
HETATM   47  C17 UNL     1      14.158   7.404  24.403  1.00  0.00     0.001 A 
HETATM   48  C18 UNL     1      14.835   7.173  23.226  1.00  0.00     0.007 A 
ENDBRANCH  42  43
ENDBRANCH   9  42
BRANCH   1  49
HETATM   49  C2  UNL     1      19.522   1.190  17.528  1.00  0.00    -0.028 C 
HETATM   50  C1  UNL     1      20.722   0.809  17.174  1.00  0.00     0.007 C 
ENDBRANCH   1  49
TORSDOF 14
ENDMDL
MODEL 4
REMARK VINA RESULT: -8.107515222      2.468      6.298
REMARK  14 active torsions:
REMARK  status: ('A' for Active; 'I' for Inactive)
REMARK    1  A    between atoms: C2_2  and  C3_3 
REMARK    2  A    between atoms: C6_6  and  O1_7 
REMARK    3  A    between atoms: C11_13  and  O2_14 
REMARK    4  A    between atoms: C11_13  and  C12_16 
REMARK    5  A    between atoms: C12_16  and  C13_17 
REMARK    6  A    between atoms: N1_23  and  C19_25 
REMARK    7  A    between atoms: C19_25  and  C20_26 
REMARK    8  A    between atoms: C26_32  and  O4_33 
REMARK    9  A    between atoms: O4_33  and  C27_34 
REMARK   10  A    between atoms: C28_35  and  O5_36 
REMARK   11  A    between atoms: C29_38  and  O6_39 
REMARK   12  A    between atoms: C30_41  and  O7_42 
REMARK   13  A    between atoms: O7_42  and  S1_43 
REMARK   14  A    between atoms: C31_47  and  O11_48 
ROOT
HETATM    1  C3  UNL     1      16.726   7.129  21.219  1.00  0.00    -0.022 C 
HETATM    2  C4  UNL     1      15.490   8.025  21.269  1.00  0.00     0.019 C 
HETATM    3  C5  UNL     1      16.426   5.834  21.925  1.00  0.00     0.048 C 
HETATM    4  C6  UNL     1      16.125   4.817  20.850  1.00  0.00     0.167 C 
HETATM    5  C7  UNL     1      17.400   4.433  20.167  1.00  0.00     0.243 C 
HETATM    6  C8  UNL     1      18.438   3.996  21.203  1.00  0.00     0.055 C 
HETATM    7  C9  UNL     1      17.970   2.928  22.097  1.00  0.00     0.009 C 
HETATM    8  C10 UNL     1      17.632   1.760  21.206  1.00  0.00     0.080 C 
HETATM    9  C11 UNL     1      17.117   2.017  19.862  1.00  0.00     0.293 C 
HETATM   10  N1  UNL     1      17.242   3.294  19.252  1.00  0.00     0.086 N 
HETATM   11  O3  UNL     1      18.566   3.213  18.797  1.00  0.00    -0.056 OA
HETATM   12  C26 UNL     1      17.982   5.672  19.572  1.00  0.00     0.171 C 
HETATM   13  C32 UNL     1      17.018   6.889  19.777  1.00  0.00     0.048 C 
ENDROOT
BRANCH   4  14
HETATM   14  O1  UNL     1      15.386   3.832  21.423  1.00  0.00    -0.392 OA
ATOM     15  H1  UNL     1      14.530   3.846  21.012  1.00  0.00     0.210 HD
ENDBRANCH   4  14
BRANCH  10  16
HETATM   16  C19 UNL     1      16.480   3.644  18.147  1.00  0.00     0.290 C 
BRANCH  16  17
HETATM   17  C20 UNL     1      15.200   3.100  17.734  1.00  0.00    -0.004 A 
HETATM   18  C21 UNL     1      13.971   3.575  18.171  1.00  0.00     0.013 A 
HETATM   19  C22 UNL     1      12.758   3.099  17.779  1.00  0.00     0.001 A 
HETATM   20  C23 UNL     1      12.688   2.074  16.883  1.00  0.00     0.000 A 
HETATM   21  C24 UNL     1      13.867   1.542  16.396  1.00  0.00     0.001 A 
HETATM   22  C25 UNL     1      15.051   2.063  16.829  1.00  0.00     0.013 A 
ENDBRANCH  16  17
ENDBRANCH  10  16
BRANCH  12  23
HETATM   23  O4  UNL     1      18.366   5.748  18.301  1.00  0.00    -0.372 OA
BRANCH  23  24
HETATM   24  C27 UNL     1      19.548   6.279  17.934  1.00  0.00     0.184 C 
HETATM   25  C28 UNL     1      20.320   5.547  16.881  1.00  0.00     0.181 C 
HETATM   26  C29 UNL     1      21.444   6.589  16.694  1.00  0.00     0.182 C 
HETATM   27  C30 UNL     1      21.854   6.719  18.175  1.00  0.00     0.207 C 
HETATM   28  C31 UNL     1      20.577   6.597  18.956  1.00  0.00     0.182 C 
BRANCH  25  29
HETATM   29  O5  UNL     1      20.989   4.422  17.332  1.00  0.00    -0.390 OA
ATOM     30  H5  UNL     1      21.929   4.438  17.191  1.00  0.00     0.210 HD
ENDBRANCH  25  29
BRANCH  26  31
HETATM   31  O6  UNL     1      20.897   7.782  16.291  1.00  0.00    -0.390 OA
ATOM     32  H6  UNL     1      21.236   8.010  15.434  1.00  0.00     0.210 HD
ENDBRANCH  26  31
BRANCH  27  33
HETATM   33  O7  UNL     1      22.774   5.746  18.465  1.00  0.00    -0.246 OA
BRANCH  33  34
HETATM   34  S1  UNL     1      24.125   6.458  19.157  1.00  0.00     0.252 S 
HETATM   35  O8  UNL     1      24.683   5.639  20.285  1.00  0.00    -0.572 OA
HETATM   36  O9  UNL     1      25.188   6.633  18.086  1.00  0.00    -0.572 OA
HETATM   37  O10 UNL     1      23.785   7.992  19.746  1.00  0.00    -0.572 OA
ENDBRANCH  33  34
ENDBRANCH  27  33
BRANCH  28  38
HETATM   38  O11 UNL     1      20.260   7.853  19.538  1.00  0.00    -0.390 OA
ATOM     39  H11 UNL     1      19.925   7.702  20.415  1.00  0.00     0.210 HD
ENDBRANCH  28  38
ENDBRANCH  23  24
ENDBRANCH  12  23
BRANCH   9  40
HETATM   40  O2  UNL     1      15.797   1.489  19.836  1.00  0.00    -0.357 OA
ATOM     41  H2  UNL     1      15.443   1.703  18.981  1.00  0.00     0.213 HD
ENDBRANCH   9  40
BRANCH   9  42
HETATM   42  C12 UNL     1      17.840   0.996  18.957  1.00  0.00     0.117 C 
BRANCH  42  43
HETATM   43  C13 UNL     1      18.407  -0.146  19.691  1.00  0.00    -0.053 A 
HETATM   44  C14 UNL     1      17.606  -1.246  20.040  1.00  0.00     0.007 A 
HETATM   45  C15 UNL     1      18.132  -2.336  20.696  1.00  0.00     0.001 A 
HETATM   46  C16 UNL     1      19.467  -2.401  21.040  1.00  0.00     0.000 A 
HETATM   47  C17 UNL     1      20.261  -1.347  20.712  1.00  0.00     0.001 A 
HETATM   48  C18 UNL     1      19.733  -0.258  20.056  1.00  0.00     0.007 A 
ENDBRANCH  42  43
ENDBRANCH   9  42
BRANCH   1  49
HETATM   49  C2  UNL     1      17.812   7.905  21.912  1.00  0.00    -0.028 C 
HETATM   50  C1  UNL     1      18.481   7.373  22.902  1.00  0.00     0.007 C 
ENDBRANCH   1  49
TORSDOF 14
ENDMDL
MODEL 5
REMARK VINA RESULT: -8.089154130      2.244      6.323
REMARK  14 active torsions:
REMARK  status: ('A' for Active; 'I' for Inactive)
REMARK    1  A    between atoms: C2_2  and  C3_3 
REMARK    2  A    between atoms: C6_6  and  O1_7 
REMARK    3  A    between atoms: C11_13  and  O2_14 
REMARK    4  A    between atoms: C11_13  and  C12_16 
REMARK    5  A    between atoms: C12_16  and  C13_17 
REMARK    6  A    between atoms: N1_23  and  C19_25 
REMARK    7  A    between atoms: C19_25  and  C20_26 
REMARK    8  A    between atoms: C26_32  and  O4_33 
REMARK    9  A    between atoms: O4_33  and  C27_34 
REMARK   10  A    between atoms: C28_35  and  O5_36 
REMARK   11  A    between atoms: C29_38  and  O6_39 
REMARK   12  A    between atoms: C30_41  and  O7_42 
REMARK   13  A    between atoms: O7_42  and  S1_43 
REMARK   14  A    between atoms: C31_47  and  O11_48 
ROOT
HETATM    1  C3  UNL     1      16.900   7.131  20.936  1.00  0.00    -0.022 C 
HETATM    2  C4  UNL     1      15.804   8.062  20.422  1.00  0.00     0.019 C 
HETATM    3  C5  UNL     1      16.289   6.112  21.860  1.00  0.00     0.048 C 
HETATM    4  C6  UNL     1      16.128   4.843  21.055  1.00  0.00     0.167 C 
HETATM    5  C7  UNL     1      17.471   4.216  20.855  1.00  0.00     0.243 C 
HETATM    6  C8  UNL     1      18.177   4.046  22.202  1.00  0.00     0.055 C 
HETATM    7  C9  UNL     1      17.388   3.306  23.196  1.00  0.00     0.009 C 
HETATM    8  C10 UNL     1      17.129   1.949  22.594  1.00  0.00     0.080 C 
HETATM    9  C11 UNL     1      16.978   1.831  21.145  1.00  0.00     0.293 C 
HETATM   10  N1  UNL     1      17.396   2.870  20.269  1.00  0.00     0.086 N 
HETATM   11  O3  UNL     1      18.770   2.595  20.212  1.00  0.00    -0.056 OA
HETATM   12  C26 UNL     1      18.322   5.199  20.122  1.00  0.00     0.171 C 
HETATM   13  C32 UNL     1      17.491   6.470  19.737  1.00  0.00     0.048 C 
ENDROOT
BRANCH   4  14
HETATM   14  O1  UNL     1      15.162   4.103  21.660  1.00  0.00    -0.392 OA
ATOM     15  H1  UNL     1      15.047   3.315  21.143  1.00  0.00     0.210 HD
ENDBRANCH   4  14
BRANCH  10  16
HETATM   16  C19 UNL     1      16.962   2.922  18.953  1.00  0.00     0.290 C 
BRANCH  16  17
HETATM   17  C20 UNL     1      15.628   3.211  18.461  1.00  0.00    -0.004 A 
HETATM   18  C21 UNL     1      15.222   4.449  17.982  1.00  0.00     0.013 A 
HETATM   19  C22 UNL     1      13.986   4.738  17.492  1.00  0.00     0.001 A 
HETATM   20  C23 UNL     1      13.031   3.766  17.443  1.00  0.00     0.000 A 
HETATM   21  C24 UNL     1      13.353   2.501  17.900  1.00  0.00     0.001 A 
HETATM   22  C25 UNL     1      14.610   2.277  18.380  1.00  0.00     0.013 A 
ENDBRANCH  16  17
ENDBRANCH  10  16
BRANCH  12  23
HETATM   23  O4  UNL     1      18.999   4.885  19.022  1.00  0.00    -0.372 OA
BRANCH  23  24
HETATM   24  C27 UNL     1      19.690   5.799  18.313  1.00  0.00     0.184 C 
HETATM   25  C28 UNL     1      19.859   5.532  16.850  1.00  0.00     0.181 C 
HETATM   26  C29 UNL     1      20.523   6.875  16.476  1.00  0.00     0.182 C 
HETATM   27  C30 UNL     1      21.652   6.848  17.527  1.00  0.00     0.207 C 
HETATM   28  C31 UNL     1      21.047   6.215  18.746  1.00  0.00     0.182 C 
BRANCH  25  29
HETATM   29  O5  UNL     1      20.828   4.593  16.542  1.00  0.00    -0.390 OA
ATOM     30  H5  UNL     1      20.955   3.923  17.205  1.00  0.00     0.210 HD
ENDBRANCH  25  29
BRANCH  26  31
HETATM   31  O6  UNL     1      19.671   7.906  16.784  1.00  0.00    -0.390 OA
ATOM     32  H6  UNL     1      19.846   8.206  17.668  1.00  0.00     0.210 HD
ENDBRANCH  26  31
BRANCH  27  33
HETATM   33  O7  UNL     1      22.716   6.155  17.013  1.00  0.00    -0.246 OA
BRANCH  33  34
HETATM   34  S1  UNL     1      24.090   6.522  17.900  1.00  0.00     0.252 S 
HETATM   35  O8  UNL     1      24.484   5.407  18.825  1.00  0.00    -0.572 OA
HETATM   36  O9  UNL     1      25.230   6.808  16.940  1.00  0.00    -0.572 OA
HETATM   37  O10 UNL     1      23.881   7.910  18.820  1.00  0.00    -0.572 OA
ENDBRANCH  33  34
ENDBRANCH  27  33
BRANCH  28  38
HETATM   38  O11 UNL     1      20.914   7.192  19.768  1.00  0.00    -0.390 OA
ATOM     39  H11 UNL     1      21.758   7.305  20.190  1.00  0.00     0.210 HD
ENDBRANCH  28  38
ENDBRANCH  23  24
ENDBRANCH  12  23
BRANCH   9  40
HETATM   40  O2  UNL     1      15.647   1.384  20.919  1.00  0.00    -0.357 OA
ATOM     41  H2  UNL     1      15.572   1.236  19.984  1.00  0.00     0.213 HD
ENDBRANCH   9  40
BRANCH   9  42
HETATM   42  C12 UNL     1      17.764   0.558  20.765  1.00  0.00     0.117 C 
BRANCH  42  43
HETATM   43  C13 UNL     1      16.913  -0.537  20.275  1.00  0.00    -0.053 A 
HETATM   44  C14 UNL     1      16.717  -0.736  18.898  1.00  0.00     0.007 A 
HETATM   45  C15 UNL     1      15.951  -1.778  18.427  1.00  0.00     0.001 A 
HETATM   46  C16 UNL     1      15.343  -2.675  19.280  1.00  0.00     0.000 A 
HETATM   47  C17 UNL     1      15.519  -2.502  20.617  1.00  0.00     0.001 A 
HETATM   48  C18 UNL     1      16.285  -1.459  21.087  1.00  0.00     0.007 A 
ENDBRANCH  42  43
ENDBRANCH   9  42
BRANCH   1  49
HETATM   49  C2  UNL     1      17.879   8.019  21.653  1.00  0.00    -0.028 C 
HETATM   50  C1  UNL     1      18.223   7.767  22.889  1.00  0.00     0.007 C 
ENDBRANCH   1  49
TORSDOF 14
ENDMDL
