MODEL 1
REMARK VINA RESULT: -11.041426747      0.000      0.000
REMARK  12 active torsions:
REMARK  status: ('A' for Active; 'I' for Inactive)
REMARK       I    between atoms: C2_2  and  N1_4 
REMARK    1  A    between atoms: N1_4  and  C3_6 
REMARK    2  A    between atoms: C4_8  and  C5_9 
REMARK    3  A    between atoms: C5_9  and  O3_10 
REMARK    4  A    between atoms: O3_10  and  C6_11 
REMARK    5  A    between atoms: C7_13  and  C8_14 
REMARK    6  A    between atoms: N2_15  and  O5_17 
REMARK    7  A    between atoms: O5_17  and  C9_18 
REMARK    8  A    between atoms: C10_22  and  N6_23 
REMARK       I    between atoms: C11_25  and  N8_27 
REMARK    9  A    between atoms: N8_27  and  N9_29 
REMARK   10  A    between atoms: C12_35  and  O7_36 
REMARK   11  A    between atoms: C13_38  and  O8_39 
REMARK   12  A    between atoms: C16_44  and  O10_45 
ROOT
HETATM    1  C6  UNL     1      14.496  34.497  69.468  1.00  0.00     0.296 C 
HETATM    2  O4  UNL     1      14.461  33.675  68.376  1.00  0.00    -0.330 OA
HETATM    3  C7  UNL     1      15.661  33.312  67.836  1.00  0.00     0.263 C 
HETATM    4  N10 UNL     1      16.800  33.996  68.346  1.00  0.00    -0.365 N 
ATOM      5  H10 UNL     1      17.465  34.479  67.741  1.00  0.00     0.158 HD
HETATM    6  C12 UNL     1      16.943  33.955  69.765  1.00  0.00     0.249 C 
HETATM    7  C13 UNL     1      15.630  34.223  70.423  1.00  0.00     0.221 C 
ENDROOT
BRANCH   3   8
HETATM    8  C8  UNL     1      15.767  31.826  67.932  1.00  0.00     0.140 C 
HETATM    9  N2  UNL     1      16.682  31.267  68.657  1.00  0.00    -0.273 N 
ATOM     10  H2  UNL     1      17.328  31.875  69.160  1.00  0.00     0.193 HD
BRANCH   9  11
HETATM   11  O5  UNL     1      16.837  29.933  68.792  1.00  0.00    -0.229 OA
BRANCH  11  12
HETATM   12  C9  UNL     1      16.309  29.220  69.887  1.00  0.00     0.406 C 
HETATM   13  N3  UNL     1      15.552  30.095  70.763  1.00  0.00    -0.068 NA
HETATM   14  N4  UNL     1      16.359  30.874  71.577  1.00  0.00    -0.031 NA
HETATM   15  N5  UNL     1      17.712  30.711  71.337  1.00  0.00    -0.077 NA
HETATM   16  C10 UNL     1      18.083  29.317  71.376  1.00  0.00     0.344 C 
HETATM   17  O6  UNL     1      17.287  28.514  70.582  1.00  0.00    -0.304 OA
BRANCH  16  18
HETATM   18  N6  UNL     1      19.484  29.170  71.052  1.00  0.00    -0.322 N 
HETATM   19  C11 UNL     1      20.432  29.618  71.803  1.00  0.00     0.205 C 
HETATM   20  N7  UNL     1      21.775  29.417  71.385  1.00  0.00    -0.062 NA
HETATM   21  N8  UNL     1      20.209  30.300  73.027  1.00  0.00    -0.280 N 
ATOM     22  H8  UNL     1      20.204  29.753  73.888  1.00  0.00     0.189 HD
ATOM     23  H6  UNL     1      19.735  28.689  70.187  1.00  0.00     0.166 HD
BRANCH  21  24
HETATM   24  N9  UNL     1      19.997  31.669  73.123  1.00  0.00    -0.343 N 
ATOM     25  H92 UNL     1      19.360  31.989  73.853  1.00  0.00     0.176 HD
ATOM     26  H91 UNL     1      20.437  32.358  72.513  1.00  0.00     0.176 HD
ENDBRANCH  21  24
ENDBRANCH  16  18
ENDBRANCH  11  12
ENDBRANCH   9  11
ENDBRANCH   3   8
BRANCH   1  27
HETATM   27  O3  UNL     1      14.455  35.846  69.155  1.00  0.00    -0.352 OA
BRANCH  27  28
HETATM   28  C5  UNL     1      13.789  36.081  67.949  1.00  0.00     0.236 C 
BRANCH  28  29
HETATM   29  C4  UNL     1      12.337  36.318  68.179  1.00  0.00     0.083 A 
HETATM   30  O2  UNL     1      11.707  35.680  69.071  1.00  0.00    -0.293 OA
HETATM   31  C3  UNL     1      10.394  35.820  69.358  1.00  0.00     0.188 A 
HETATM   32  C16 UNL     1       9.727  36.729  68.607  1.00  0.00     0.168 A 
HETATM   33  C15 UNL     1      10.370  37.464  67.606  1.00  0.00     0.211 A 
HETATM   34  C14 UNL     1      11.702  37.267  67.373  1.00  0.00     0.092 A 
HETATM   35  O9  UNL     1       9.708  38.302  66.929  1.00  0.00    -0.285 OA
BRANCH  31  36
HETATM   36  N1  UNL     1       9.882  35.006  70.402  1.00  0.00    -0.305 N 
HETATM   37  C2  UNL     1       9.228  35.358  71.553  1.00  0.00     0.219 C 
HETATM   38  C1  UNL     1       8.808  34.202  72.471  1.00  0.00     0.117 C 
HETATM   39  O1  UNL     1       8.922  36.458  71.970  1.00  0.00    -0.274 OA
ATOM     40  H1  UNL     1      10.024  34.003  70.275  1.00  0.00     0.171 HD
ENDBRANCH  31  36
BRANCH  32  41
HETATM   41  O10 UNL     1       8.391  36.953  68.812  1.00  0.00    -0.354 OA
ATOM     42  H10 UNL     1       7.787  36.224  68.886  1.00  0.00     0.218 HD
ENDBRANCH  32  41
ENDBRANCH  28  29
ENDBRANCH  27  28
ENDBRANCH   1  27
BRANCH   6  43
HETATM   43  O7  UNL     1      17.857  34.973  70.125  1.00  0.00    -0.374 OA
ATOM     44  H7  UNL     1      17.916  34.977  71.073  1.00  0.00     0.212 HD
ENDBRANCH   6  43
BRANCH   7  45
HETATM   45  O8  UNL     1      15.724  35.365  71.254  1.00  0.00    -0.386 OA
ATOM     46  H8  UNL     1      16.410  35.905  70.878  1.00  0.00     0.210 HD
ENDBRANCH   7  45
TORSDOF 12
ENDMDL
MODEL 2
REMARK VINA RESULT: -10.076550684      2.290      4.626
REMARK  12 active torsions:
REMARK  status: ('A' for Active; 'I' for Inactive)
REMARK       I    between atoms: C2_2  and  N1_4 
REMARK    1  A    between atoms: N1_4  and  C3_6 
REMARK    2  A    between atoms: C4_8  and  C5_9 
REMARK    3  A    between atoms: C5_9  and  O3_10 
REMARK    4  A    between atoms: O3_10  and  C6_11 
REMARK    5  A    between atoms: C7_13  and  C8_14 
REMARK    6  A    between atoms: N2_15  and  O5_17 
REMARK    7  A    between atoms: O5_17  and  C9_18 
REMARK    8  A    between atoms: C10_22  and  N6_23 
REMARK       I    between atoms: C11_25  and  N8_27 
REMARK    9  A    between atoms: N8_27  and  N9_29 
REMARK   10  A    between atoms: C12_35  and  O7_36 
REMARK   11  A    between atoms: C13_38  and  O8_39 
REMARK   12  A    between atoms: C16_44  and  O10_45 
ROOT
HETATM    1  C6  UNL     1      16.662  31.743  69.885  1.00  0.00     0.296 C 
HETATM    2  O4  UNL     1      17.118  31.208  71.058  1.00  0.00    -0.330 OA
HETATM    3  C7  UNL     1      16.913  29.873  71.251  1.00  0.00     0.263 C 
HETATM    4  N10 UNL     1      16.068  29.234  70.300  1.00  0.00    -0.365 N 
ATOM      5  H10 UNL     1      15.250  28.688  70.574  1.00  0.00     0.158 HD
HETATM    6  C12 UNL     1      16.449  29.414  68.937  1.00  0.00     0.249 C 
HETATM    7  C13 UNL     1      16.808  30.841  68.686  1.00  0.00     0.221 C 
ENDROOT
BRANCH   3   8
HETATM    8  C8  UNL     1      18.253  29.227  71.384  1.00  0.00     0.140 C 
HETATM    9  N2  UNL     1      18.982  29.414  72.438  1.00  0.00    -0.273 N 
ATOM     10  H2  UNL     1      18.611  30.016  73.172  1.00  0.00     0.193 HD
BRANCH   9  11
HETATM   11  O5  UNL     1      20.199  28.864  72.628  1.00  0.00    -0.229 OA
BRANCH  11  12
HETATM   12  C9  UNL     1      21.276  29.096  71.747  1.00  0.00     0.406 C 
HETATM   13  N3  UNL     1      22.507  28.531  72.267  1.00  0.00    -0.068 NA
HETATM   14  N4  UNL     1      23.075  29.303  73.268  1.00  0.00    -0.031 NA
HETATM   15  N5  UNL     1      22.318  30.409  73.613  1.00  0.00    -0.077 NA
HETATM   16  C10 UNL     1      21.979  31.191  72.448  1.00  0.00     0.344 C 
HETATM   17  O6  UNL     1      21.420  30.444  71.429  1.00  0.00    -0.304 OA
BRANCH  16  18
HETATM   18  N6  UNL     1      21.130  32.297  72.828  1.00  0.00    -0.322 N 
HETATM   19  C11 UNL     1      21.525  33.257  73.594  1.00  0.00     0.205 C 
HETATM   20  N7  UNL     1      20.604  34.295  73.902  1.00  0.00    -0.062 NA
HETATM   21  N8  UNL     1      22.829  33.336  74.148  1.00  0.00    -0.280 N 
ATOM     22  H8  UNL     1      23.535  33.867  73.638  1.00  0.00     0.189 HD
ATOM     23  H6  UNL     1      20.174  32.321  72.473  1.00  0.00     0.166 HD
BRANCH  21  24
HETATM   24  N9  UNL     1      23.201  32.734  75.342  1.00  0.00    -0.343 N 
ATOM     25  H92 UNL     1      22.486  32.199  75.834  1.00  0.00     0.176 HD
ATOM     26  H91 UNL     1      24.137  32.797  75.744  1.00  0.00     0.176 HD
ENDBRANCH  21  24
ENDBRANCH  16  18
ENDBRANCH  11  12
ENDBRANCH   9  11
ENDBRANCH   3   8
BRANCH   1  27
HETATM   27  O3  UNL     1      15.366  32.229  69.957  1.00  0.00    -0.352 OA
BRANCH  27  28
HETATM   28  C5  UNL     1      15.311  33.474  70.588  1.00  0.00     0.236 C 
BRANCH  28  29
HETATM   29  C4  UNL     1      14.703  34.498  69.694  1.00  0.00     0.083 A 
HETATM   30  O2  UNL     1      13.448  34.636  69.620  1.00  0.00    -0.293 OA
HETATM   31  C3  UNL     1      12.800  35.531  68.843  1.00  0.00     0.188 A 
HETATM   32  C16 UNL     1      13.592  36.333  68.092  1.00  0.00     0.168 A 
HETATM   33  C15 UNL     1      14.986  36.227  68.131  1.00  0.00     0.211 A 
HETATM   34  C14 UNL     1      15.570  35.296  68.943  1.00  0.00     0.092 A 
HETATM   35  O9  UNL     1      15.687  36.996  67.412  1.00  0.00    -0.285 OA
BRANCH  31  36
HETATM   36  N1  UNL     1      11.382  35.521  68.911  1.00  0.00    -0.305 N 
HETATM   37  C2  UNL     1      10.550  35.001  69.868  1.00  0.00     0.219 C 
HETATM   38  C1  UNL     1       9.046  35.172  69.618  1.00  0.00     0.117 C 
HETATM   39  O1  UNL     1      10.818  34.417  70.899  1.00  0.00    -0.274 OA
ATOM     40  H1  UNL     1      10.909  35.970  68.125  1.00  0.00     0.171 HD
ENDBRANCH  31  36
BRANCH  32  41
HETATM   41  O10 UNL     1      13.041  37.277  67.267  1.00  0.00    -0.354 OA
ATOM     42  H10 UNL     1      13.564  37.686  66.588  1.00  0.00     0.218 HD
ENDBRANCH  32  41
ENDBRANCH  28  29
ENDBRANCH  27  28
ENDBRANCH   1  27
BRANCH   6  43
HETATM   43  O7  UNL     1      15.332  29.071  68.139  1.00  0.00    -0.374 OA
ATOM     44  H7  UNL     1      15.410  29.551  67.323  1.00  0.00     0.212 HD
ENDBRANCH   6  43
BRANCH   7  45
HETATM   45  O8  UNL     1      15.972  31.386  67.683  1.00  0.00    -0.386 OA
ATOM     46  H8  UNL     1      15.110  31.013  67.831  1.00  0.00     0.210 HD
ENDBRANCH   7  45
TORSDOF 12
ENDMDL
MODEL 3
REMARK VINA RESULT: -9.929489805      2.052      3.938
REMARK  12 active torsions:
REMARK  status: ('A' for Active; 'I' for Inactive)
REMARK       I    between atoms: C2_2  and  N1_4 
REMARK    1  A    between atoms: N1_4  and  C3_6 
REMARK    2  A    between atoms: C4_8  and  C5_9 
REMARK    3  A    between atoms: C5_9  and  O3_10 
REMARK    4  A    between atoms: O3_10  and  C6_11 
REMARK    5  A    between atoms: C7_13  and  C8_14 
REMARK    6  A    between atoms: N2_15  and  O5_17 
REMARK    7  A    between atoms: O5_17  and  C9_18 
REMARK    8  A    between atoms: C10_22  and  N6_23 
REMARK       I    between atoms: C11_25  and  N8_27 
REMARK    9  A    between atoms: N8_27  and  N9_29 
REMARK   10  A    between atoms: C12_35  and  O7_36 
REMARK   11  A    between atoms: C13_38  and  O8_39 
REMARK   12  A    between atoms: C16_44  and  O10_45 
ROOT
HETATM    1  C6  UNL     1      16.486  32.300  69.832  1.00  0.00     0.296 C 
HETATM    2  O4  UNL     1      16.789  31.592  70.963  1.00  0.00    -0.330 OA
HETATM    3  C7  UNL     1      16.470  30.265  70.966  1.00  0.00     0.263 C 
HETATM    4  N10 UNL     1      15.675  29.818  69.874  1.00  0.00    -0.365 N 
ATOM      5  H10 UNL     1      14.798  29.314  70.005  1.00  0.00     0.158 HD
HETATM    6  C12 UNL     1      16.196  30.127  68.582  1.00  0.00     0.249 C 
HETATM    7  C13 UNL     1      16.680  31.539  68.545  1.00  0.00     0.221 C 
ENDROOT
BRANCH   3   8
HETATM    8  C8  UNL     1      17.741  29.498  71.131  1.00  0.00     0.140 C 
HETATM    9  N2  UNL     1      18.579  29.790  72.073  1.00  0.00    -0.273 N 
ATOM     10  H2  UNL     1      18.344  30.560  72.698  1.00  0.00     0.193 HD
BRANCH   9  11
HETATM   11  O5  UNL     1      19.744  29.141  72.282  1.00  0.00    -0.229 OA
BRANCH  11  12
HETATM   12  C9  UNL     1      20.881  29.357  71.477  1.00  0.00     0.406 C 
HETATM   13  N3  UNL     1      22.033  28.645  71.998  1.00  0.00    -0.068 NA
HETATM   14  N4  UNL     1      22.608  29.274  73.090  1.00  0.00    -0.031 NA
HETATM   15  N5  UNL     1      21.926  30.405  73.502  1.00  0.00    -0.077 NA
HETATM   16  C10 UNL     1      21.714  31.314  72.401  1.00  0.00     0.344 C 
HETATM   17  O6  UNL     1      21.151  30.711  71.292  1.00  0.00    -0.304 OA
BRANCH  16  18
HETATM   18  N6  UNL     1      20.938  32.451  72.843  1.00  0.00    -0.322 N 
HETATM   19  C11 UNL     1      21.395  33.342  73.656  1.00  0.00     0.205 C 
HETATM   20  N7  UNL     1      20.544  34.418  74.023  1.00  0.00    -0.062 NA
HETATM   21  N8  UNL     1      22.703  33.308  74.206  1.00  0.00    -0.280 N 
ATOM     22  H8  UNL     1      23.441  33.818  73.721  1.00  0.00     0.189 HD
ATOM     23  H6  UNL     1      19.985  32.554  72.495  1.00  0.00     0.166 HD
BRANCH  21  24
HETATM   24  N9  UNL     1      23.038  32.621  75.365  1.00  0.00    -0.343 N 
ATOM     25  H92 UNL     1      22.336  31.988  75.748  1.00  0.00     0.176 HD
ATOM     26  H91 UNL     1      23.934  32.714  75.844  1.00  0.00     0.176 HD
ENDBRANCH  21  24
ENDBRANCH  16  18
ENDBRANCH  11  12
ENDBRANCH   9  11
ENDBRANCH   3   8
BRANCH   1  27
HETATM   27  O3  UNL     1      15.229  32.881  69.855  1.00  0.00    -0.352 OA
BRANCH  27  28
HETATM   28  C5  UNL     1      15.296  34.275  69.788  1.00  0.00     0.236 C 
BRANCH  28  29
HETATM   29  C4  UNL     1      13.990  34.852  69.365  1.00  0.00     0.083 A 
HETATM   30  O2  UNL     1      12.933  34.620  70.020  1.00  0.00    -0.293 OA
HETATM   31  C3  UNL     1      11.704  35.094  69.721  1.00  0.00     0.188 A 
HETATM   32  C16 UNL     1      11.634  35.880  68.621  1.00  0.00     0.168 A 
HETATM   33  C15 UNL     1      12.768  36.170  67.856  1.00  0.00     0.211 A 
HETATM   34  C14 UNL     1      13.979  35.654  68.221  1.00  0.00     0.092 A 
HETATM   35  O9  UNL     1      12.656  36.909  66.835  1.00  0.00    -0.285 OA
BRANCH  31  36
HETATM   36  N1  UNL     1      10.649  34.714  70.591  1.00  0.00    -0.305 N 
HETATM   37  C2  UNL     1       9.576  35.437  71.044  1.00  0.00     0.219 C 
HETATM   38  C1  UNL     1       8.615  34.700  71.986  1.00  0.00     0.117 C 
HETATM   39  O1  UNL     1       9.260  36.588  70.815  1.00  0.00    -0.274 OA
ATOM     40  H1  UNL     1      10.696  33.753  70.932  1.00  0.00     0.171 HD
ENDBRANCH  31  36
BRANCH  32  41
HETATM   41  O10 UNL     1      10.436  36.414  68.224  1.00  0.00    -0.354 OA
ATOM     42  H10 UNL     1      10.216  36.470  67.302  1.00  0.00     0.218 HD
ENDBRANCH  32  41
ENDBRANCH  28  29
ENDBRANCH  27  28
ENDBRANCH   1  27
BRANCH   6  43
HETATM   43  O7  UNL     1      15.138  29.977  67.655  1.00  0.00    -0.374 OA
ATOM     44  H7  UNL     1      15.525  29.731  66.823  1.00  0.00     0.212 HD
ENDBRANCH   6  43
BRANCH   7  45
HETATM   45  O8  UNL     1      15.985  32.268  67.553  1.00  0.00    -0.386 OA
ATOM     46  H8  UNL     1      16.651  32.701  67.032  1.00  0.00     0.210 HD
ENDBRANCH   7  45
TORSDOF 12
ENDMDL
MODEL 4
REMARK VINA RESULT: -9.662385028      1.020      1.353
REMARK  12 active torsions:
REMARK  status: ('A' for Active; 'I' for Inactive)
REMARK       I    between atoms: C2_2  and  N1_4 
REMARK    1  A    between atoms: N1_4  and  C3_6 
REMARK    2  A    between atoms: C4_8  and  C5_9 
REMARK    3  A    between atoms: C5_9  and  O3_10 
REMARK    4  A    between atoms: O3_10  and  C6_11 
REMARK    5  A    between atoms: C7_13  and  C8_14 
REMARK    6  A    between atoms: N2_15  and  O5_17 
REMARK    7  A    between atoms: O5_17  and  C9_18 
REMARK    8  A    between atoms: C10_22  and  N6_23 
REMARK       I    between atoms: C11_25  and  N8_27 
REMARK    9  A    between atoms: N8_27  and  N9_29 
REMARK   10  A    between atoms: C12_35  and  O7_36 
REMARK   11  A    between atoms: C13_38  and  O8_39 
REMARK   12  A    between atoms: C16_44  and  O10_45 
ROOT
HETATM    1  C6  UNL     1      14.592  34.442  69.544  1.00  0.00     0.296 C 
HETATM    2  O4  UNL     1      14.653  33.491  68.563  1.00  0.00    -0.330 OA
HETATM    3  C7  UNL     1      15.892  33.166  68.093  1.00  0.00     0.263 C 
HETATM    4  N10 UNL     1      16.958  34.001  68.531  1.00  0.00    -0.365 N 
ATOM      5  H10 UNL     1      17.597  34.460  67.881  1.00  0.00     0.158 HD
HETATM    6  C12 UNL     1      17.066  34.149  69.946  1.00  0.00     0.249 C 
HETATM    7  C13 UNL     1      15.719  34.385  70.544  1.00  0.00     0.221 C 
ENDROOT
BRANCH   3   8
HETATM    8  C8  UNL     1      16.116  31.717  68.377  1.00  0.00     0.140 C 
HETATM    9  N2  UNL     1      16.130  31.269  69.591  1.00  0.00    -0.273 N 
ATOM     10  H2  UNL     1      15.984  31.938  70.347  1.00  0.00     0.193 HD
BRANCH   9  11
HETATM   11  O5  UNL     1      16.325  29.976  69.923  1.00  0.00    -0.229 OA
BRANCH  11  12
HETATM   12  C9  UNL     1      17.393  29.218  69.400  1.00  0.00     0.406 C 
HETATM   13  N3  UNL     1      17.252  27.814  69.740  1.00  0.00    -0.068 NA
HETATM   14  N4  UNL     1      17.612  27.537  71.049  1.00  0.00    -0.031 NA
HETATM   15  N5  UNL     1      17.959  28.660  71.779  1.00  0.00    -0.077 NA
HETATM   16  C10 UNL     1      18.963  29.437  71.092  1.00  0.00     0.344 C 
HETATM   17  O6  UNL     1      18.636  29.719  69.780  1.00  0.00    -0.304 OA
BRANCH  16  18
HETATM   18  N6  UNL     1      19.254  30.638  71.841  1.00  0.00    -0.322 N 
HETATM   19  C11 UNL     1      20.407  30.878  72.367  1.00  0.00     0.205 C 
HETATM   20  N7  UNL     1      20.581  32.093  73.083  1.00  0.00    -0.062 NA
HETATM   21  N8  UNL     1      21.514  29.996  72.270  1.00  0.00    -0.280 N 
ATOM     22  H8  UNL     1      22.177  30.140  71.508  1.00  0.00     0.189 HD
ATOM     23  H6  UNL     1      18.513  31.329  71.959  1.00  0.00     0.166 HD
BRANCH  21  24
HETATM   24  N9  UNL     1      21.750  28.950  73.152  1.00  0.00    -0.343 N 
ATOM     25  H92 UNL     1      21.266  28.071  72.967  1.00  0.00     0.176 HD
ATOM     26  H91 UNL     1      22.371  29.013  73.959  1.00  0.00     0.176 HD
ENDBRANCH  21  24
ENDBRANCH  16  18
ENDBRANCH  11  12
ENDBRANCH   9  11
ENDBRANCH   3   8
BRANCH   1  27
HETATM   27  O3  UNL     1      14.449  35.733  69.063  1.00  0.00    -0.352 OA
BRANCH  27  28
HETATM   28  C5  UNL     1      13.701  35.771  67.883  1.00  0.00     0.236 C 
BRANCH  28  29
HETATM   29  C4  UNL     1      12.276  36.098  68.166  1.00  0.00     0.083 A 
HETATM   30  O2  UNL     1      11.639  35.498  69.079  1.00  0.00    -0.293 OA
HETATM   31  C3  UNL     1      10.349  35.720  69.413  1.00  0.00     0.188 A 
HETATM   32  C16 UNL     1       9.715  36.672  68.689  1.00  0.00     0.168 A 
HETATM   33  C15 UNL     1      10.366  37.368  67.666  1.00  0.00     0.211 A 
HETATM   34  C14 UNL     1      11.674  37.088  67.385  1.00  0.00     0.092 A 
HETATM   35  O9  UNL     1       9.735  38.249  67.015  1.00  0.00    -0.285 OA
BRANCH  31  36
HETATM   36  N1  UNL     1       9.825  34.936  70.474  1.00  0.00    -0.305 N 
HETATM   37  C2  UNL     1       9.199  35.323  71.630  1.00  0.00     0.219 C 
HETATM   38  C1  UNL     1       8.754  34.193  72.567  1.00  0.00     0.117 C 
HETATM   39  O1  UNL     1       8.937  36.437  72.038  1.00  0.00    -0.274 OA
ATOM     40  H1  UNL     1       9.930  33.927  70.357  1.00  0.00     0.171 HD
ENDBRANCH  31  36
BRANCH  32  41
HETATM   41  O10 UNL     1       8.404  36.978  68.942  1.00  0.00    -0.354 OA
ATOM     42  H10 UNL     1       7.854  37.343  68.259  1.00  0.00     0.218 HD
ENDBRANCH  32  41
ENDBRANCH  28  29
ENDBRANCH  27  28
ENDBRANCH   1  27
BRANCH   6  43
HETATM   43  O7  UNL     1      17.884  35.277  70.190  1.00  0.00    -0.374 OA
ATOM     44  H7  UNL     1      18.247  35.178  71.062  1.00  0.00     0.212 HD
ENDBRANCH   6  43
BRANCH   7  45
HETATM   45  O8  UNL     1      15.698  35.624  71.226  1.00  0.00    -0.386 OA
ATOM     46  H8  UNL     1      16.607  35.865  71.358  1.00  0.00     0.210 HD
ENDBRANCH   7  45
TORSDOF 12
ENDMDL
MODEL 5
REMARK VINA RESULT: -9.414428866      2.405      4.960
REMARK  12 active torsions:
REMARK  status: ('A' for Active; 'I' for Inactive)
REMARK       I    between atoms: C2_2  and  N1_4 
REMARK    1  A    between atoms: N1_4  and  C3_6 
REMARK    2  A    between atoms: C4_8  and  C5_9 
REMARK    3  A    between atoms: C5_9  and  O3_10 
REMARK    4  A    between atoms: O3_10  and  C6_11 
REMARK    5  A    between atoms: C7_13  and  C8_14 
REMARK    6  A    between atoms: N2_15  and  O5_17 
REMARK    7  A    between atoms: O5_17  and  C9_18 
REMARK    8  A    between atoms: C10_22  and  N6_23 
REMARK       I    between atoms: C11_25  and  N8_27 
REMARK    9  A    between atoms: N8_27  and  N9_29 
REMARK   10  A    between atoms: C12_35  and  O7_36 
REMARK   11  A    between atoms: C13_38  and  O8_39 
REMARK   12  A    between atoms: C16_44  and  O10_45 
ROOT
HETATM    1  C6  UNL     1      16.288  30.398  69.390  1.00  0.00     0.296 C 
HETATM    2  O4  UNL     1      17.506  31.002  69.541  1.00  0.00    -0.330 OA
HETATM    3  C7  UNL     1      17.727  31.663  70.714  1.00  0.00     0.263 C 
HETATM    4  N10 UNL     1      16.592  31.821  71.558  1.00  0.00    -0.365 N 
ATOM      5  H10 UNL     1      16.294  32.731  71.911  1.00  0.00     0.158 HD
HETATM    6  C12 UNL     1      15.903  30.612  71.874  1.00  0.00     0.249 C 
HETATM    7  C13 UNL     1      15.735  29.778  70.648  1.00  0.00     0.221 C 
ENDROOT
BRANCH   3   8
HETATM    8  C8  UNL     1      18.885  31.005  71.390  1.00  0.00     0.140 C 
HETATM    9  N2  UNL     1      18.943  29.717  71.511  1.00  0.00    -0.273 N 
ATOM     10  H2  UNL     1      18.173  29.168  71.129  1.00  0.00     0.193 HD
BRANCH   9  11
HETATM   11  O5  UNL     1      19.956  29.055  72.107  1.00  0.00    -0.229 OA
BRANCH  11  12
HETATM   12  C9  UNL     1      21.285  29.138  71.646  1.00  0.00     0.406 C 
HETATM   13  N3  UNL     1      22.175  28.338  72.467  1.00  0.00    -0.068 NA
HETATM   14  N4  UNL     1      22.487  28.945  73.672  1.00  0.00    -0.031 NA
HETATM   15  N5  UNL     1      21.834  30.148  73.875  1.00  0.00    -0.077 NA
HETATM   16  C10 UNL     1      22.022  31.036  72.753  1.00  0.00     0.344 C 
HETATM   17  O6  UNL     1      21.728  30.454  71.536  1.00  0.00    -0.304 OA
BRANCH  16  18
HETATM   18  N6  UNL     1      21.271  32.255  72.959  1.00  0.00    -0.322 N 
HETATM   19  C11 UNL     1      21.672  33.207  73.732  1.00  0.00     0.205 C 
HETATM   20  N7  UNL     1      20.852  34.360  73.859  1.00  0.00    -0.062 NA
HETATM   21  N8  UNL     1      22.887  33.167  74.463  1.00  0.00    -0.280 N 
ATOM     22  H8  UNL     1      23.717  33.582  74.038  1.00  0.00     0.189 HD
ATOM     23  H6  UNL     1      20.383  32.367  72.469  1.00  0.00     0.166 HD
BRANCH  21  24
HETATM   24  N9  UNL     1      23.015  32.599  75.723  1.00  0.00    -0.343 N 
ATOM     25  H92 UNL     1      23.693  33.023  76.356  1.00  0.00     0.176 HD
ATOM     26  H91 UNL     1      22.475  31.795  76.043  1.00  0.00     0.176 HD
ENDBRANCH  21  24
ENDBRANCH  16  18
ENDBRANCH  11  12
ENDBRANCH   9  11
ENDBRANCH   3   8
BRANCH   1  27
HETATM   27  O3  UNL     1      15.331  31.207  68.799  1.00  0.00    -0.352 OA
BRANCH  27  28
HETATM   28  C5  UNL     1      15.877  32.016  67.800  1.00  0.00     0.236 C 
BRANCH  28  29
HETATM   29  C4  UNL     1      15.629  33.457  68.086  1.00  0.00     0.083 A 
HETATM   30  O2  UNL     1      14.452  33.916  68.143  1.00  0.00    -0.293 OA
HETATM   31  C3  UNL     1      14.122  35.202  68.395  1.00  0.00     0.188 A 
HETATM   32  C16 UNL     1      15.164  36.042  68.600  1.00  0.00     0.168 A 
HETATM   33  C15 UNL     1      16.488  35.592  68.550  1.00  0.00     0.211 A 
HETATM   34  C14 UNL     1      16.743  34.275  68.288  1.00  0.00     0.092 A 
HETATM   35  O9  UNL     1      17.430  36.412  68.747  1.00  0.00    -0.285 OA
BRANCH  31  36
HETATM   36  N1  UNL     1      12.736  35.509  68.415  1.00  0.00    -0.305 N 
HETATM   37  C2  UNL     1      11.760  35.117  69.293  1.00  0.00     0.219 C 
HETATM   38  C1  UNL     1      10.347  35.644  69.011  1.00  0.00     0.117 C 
HETATM   39  O1  UNL     1      11.836  34.406  70.276  1.00  0.00    -0.274 OA
ATOM     40  H1  UNL     1      12.418  36.115  67.658  1.00  0.00     0.171 HD
ENDBRANCH  31  36
BRANCH  32  41
HETATM   41  O10 UNL     1      14.945  37.368  68.864  1.00  0.00    -0.354 OA
ATOM     42  H10 UNL     1      15.675  37.954  69.025  1.00  0.00     0.218 HD
ENDBRANCH  32  41
ENDBRANCH  28  29
ENDBRANCH  27  28
ENDBRANCH   1  27
BRANCH   6  43
HETATM   43  O7  UNL     1      14.627  30.972  72.367  1.00  0.00    -0.374 OA
ATOM     44  H7  UNL     1      14.393  30.338  73.034  1.00  0.00     0.212 HD
ENDBRANCH   6  43
BRANCH   7  45
HETATM   45  O8  UNL     1      14.362  29.548  70.398  1.00  0.00    -0.386 OA
ATOM     46  H8  UNL     1      14.285  28.623  70.196  1.00  0.00     0.210 HD
ENDBRANCH   7  45
TORSDOF 12
ENDMDL
