MODEL 1
REMARK VINA RESULT: -6.424152343      0.000      0.000
REMARK  9 active torsions:
REMARK  status: ('A' for Active; 'I' for Inactive)
REMARK    1  A    between atoms: O1_2  and  C2_3 
REMARK       I    between atoms: C2_3  and  N1_5 
REMARK    2  A    between atoms: N1_5  and  C3_7 
REMARK    3  A    between atoms: C3_7  and  C5_9 
REMARK    4  A    between atoms: C5_9  and  N2_10 
REMARK    5  A    between atoms: N2_10  and  C8_14 
REMARK    6  A    between atoms: C6_11  and  C7_12 
REMARK    7  A    between atoms: N3_17  and  C11_18 
REMARK    8  A    between atoms: C11_18  and  C12_19 
REMARK    9  A    between atoms: C14_24  and  N5_25 
ROOT
HETATM    1  C8  UNL     1     -19.718  54.283  19.044  1.00  0.00     0.090 C 
HETATM    2  C9  UNL     1     -19.252  53.867  17.676  1.00  0.00     0.040 C 
HETATM    3  C10 UNL     1     -19.999  54.681  16.681  1.00  0.00     0.097 C 
HETATM    4  N3  UNL     1     -19.832  56.131  16.905  1.00  0.00    -0.291 NA
HETATM    5  C16 UNL     1     -18.888  56.385  17.916  1.00  0.00     0.097 C 
HETATM    6  C17 UNL     1     -19.171  55.672  19.255  1.00  0.00     0.040 C 
ENDROOT
BRANCH   4   7
HETATM    7  C11 UNL     1     -19.455  56.616  15.614  1.00  0.00     0.078 C 
BRANCH   7   8
HETATM    8  C12 UNL     1     -20.400  57.277  14.736  1.00  0.00     0.058 A 
HETATM    9  C13 UNL     1     -20.342  58.679  14.718  1.00  0.00     0.134 A 
HETATM   10 CL2  UNL     1     -18.961  59.351  15.607  1.00  0.00    -0.063 Cl
HETATM   11  N4  UNL     1     -21.194  59.436  14.109  1.00  0.00    -0.180 N 
HETATM   12  C14 UNL     1     -22.249  58.899  13.424  1.00  0.00     0.678 A 
ATOM     13  H4  UNL     1     -21.078  60.449  14.140  1.00  0.00     0.185 HD
HETATM   14  N6  UNL     1     -22.329  57.564  13.421  1.00  0.00    -0.176 N 
HETATM   15  C15 UNL     1     -21.441  56.733  14.055  1.00  0.00     0.129 A 
ATOM     16  H6  UNL     1     -23.103  57.135  12.914  1.00  0.00     0.186 HD
HETATM   17  N7  UNL     1     -21.588  55.454  14.038  1.00  0.00    -0.384 N 
ATOM     18  H72 UNL     1     -20.928  54.836  14.509  1.00  0.00     0.157 HD
ATOM     19  H71 UNL     1     -22.370  55.045  13.526  1.00  0.00     0.157 HD
BRANCH  12  20
HETATM   20  N5  UNL     1     -23.081  59.598  12.858  1.00  0.00    -0.234 N 
ATOM     21  H52 UNL     1     -23.316  60.533  13.192  1.00  0.00     0.174 HD
ATOM     22  H51 UNL     1     -23.570  59.285  12.019  1.00  0.00     0.174 HD
ENDBRANCH  12  20
ENDBRANCH   7   8
ENDBRANCH   4   7
BRANCH   1  23
HETATM   23  N2  UNL     1     -19.595  53.353  20.101  1.00  0.00    -0.366 N 
HETATM   24  C6  UNL     1     -20.240  53.465  21.288  1.00  0.00     0.078 C 
BRANCH  23  25
HETATM   25  C5  UNL     1     -19.155  52.113  19.611  1.00  0.00     0.088 C 
BRANCH  25  26
HETATM   26  C3  UNL     1     -18.397  51.248  20.537  1.00  0.00     0.121 C 
HETATM   27  C4  UNL     1     -19.108  49.946  20.960  1.00  0.00     0.038 C 
BRANCH  26  28
HETATM   28  N1  UNL     1     -17.202  50.800  19.818  1.00  0.00    -0.328 N 
HETATM   29  C2  UNL     1     -15.943  50.719  20.486  1.00  0.00     0.360 C 
HETATM   30  O2  UNL     1     -15.816  51.008  21.707  1.00  0.00    -0.239 OA
ATOM     31  H1  UNL     1     -17.270  50.543  18.833  1.00  0.00     0.165 HD
BRANCH  29  32
HETATM   32  O1  UNL     1     -14.843  50.316  19.770  1.00  0.00    -0.309 OA
HETATM   33  C1  UNL     1     -13.502  50.682  20.052  1.00  0.00     0.215 C 
ENDBRANCH  29  32
ENDBRANCH  26  28
ENDBRANCH  25  26
ENDBRANCH  23  25
BRANCH  24  34
HETATM   34  C7  UNL     1     -20.832  54.743  21.783  1.00  0.00     0.159 C 
HETATM   35 CL1  UNL     1     -22.551  54.724  21.223  1.00  0.00    -0.125 Cl
ENDBRANCH  24  34
ENDBRANCH   1  23
TORSDOF 9
ENDMDL
MODEL 2
REMARK VINA RESULT: -6.371727768      3.404      4.207
REMARK  9 active torsions:
REMARK  status: ('A' for Active; 'I' for Inactive)
REMARK    1  A    between atoms: O1_2  and  C2_3 
REMARK       I    between atoms: C2_3  and  N1_5 
REMARK    2  A    between atoms: N1_5  and  C3_7 
REMARK    3  A    between atoms: C3_7  and  C5_9 
REMARK    4  A    between atoms: C5_9  and  N2_10 
REMARK    5  A    between atoms: N2_10  and  C8_14 
REMARK    6  A    between atoms: C6_11  and  C7_12 
REMARK    7  A    between atoms: N3_17  and  C11_18 
REMARK    8  A    between atoms: C11_18  and  C12_19 
REMARK    9  A    between atoms: C14_24  and  N5_25 
ROOT
HETATM    1  C8  UNL     1     -19.184  55.304  20.433  1.00  0.00     0.090 C 
HETATM    2  C9  UNL     1     -18.390  54.555  19.398  1.00  0.00     0.040 C 
HETATM    3  C10 UNL     1     -19.257  54.387  18.202  1.00  0.00     0.097 C 
HETATM    4  N3  UNL     1     -19.757  55.678  17.688  1.00  0.00    -0.291 NA
HETATM    5  C16 UNL     1     -19.171  56.760  18.368  1.00  0.00     0.097 C 
HETATM    6  C17 UNL     1     -19.318  56.709  19.904  1.00  0.00     0.040 C 
ENDROOT
BRANCH   4   7
HETATM    7  C11 UNL     1     -19.437  55.617  16.296  1.00  0.00     0.078 C 
BRANCH   7   8
HETATM    8  C12 UNL     1     -19.924  56.604  15.352  1.00  0.00     0.058 A 
HETATM    9  C13 UNL     1     -21.042  56.225  14.593  1.00  0.00     0.134 A 
HETATM   10 CL2  UNL     1     -21.776  54.695  15.111  1.00  0.00    -0.063 Cl
HETATM   11  N4  UNL     1     -21.523  56.914  13.610  1.00  0.00    -0.180 N 
HETATM   12  C14 UNL     1     -20.946  58.095  13.230  1.00  0.00     0.678 A 
ATOM     13  H4  UNL     1     -22.344  56.571  13.111  1.00  0.00     0.185 HD
HETATM   14  N6  UNL     1     -19.879  58.482  13.937  1.00  0.00    -0.176 N 
HETATM   15  C15 UNL     1     -19.346  57.777  14.985  1.00  0.00     0.129 A 
ATOM     16  H6  UNL     1     -19.431  59.361  13.678  1.00  0.00     0.186 HD
HETATM   17  N7  UNL     1     -18.299  58.190  15.609  1.00  0.00    -0.384 N 
ATOM     18  H72 UNL     1     -17.902  57.665  16.389  1.00  0.00     0.157 HD
ATOM     19  H71 UNL     1     -17.865  59.071  15.335  1.00  0.00     0.157 HD
BRANCH  12  20
HETATM   20  N5  UNL     1     -21.372  58.753  12.288  1.00  0.00    -0.234 N 
ATOM     21  H52 UNL     1     -22.252  58.523  11.825  1.00  0.00     0.174 HD
ATOM     22  H51 UNL     1     -20.875  59.567  11.929  1.00  0.00     0.174 HD
ENDBRANCH  12  20
ENDBRANCH   7   8
ENDBRANCH   4   7
BRANCH   1  23
HETATM   23  N2  UNL     1     -18.834  55.135  21.792  1.00  0.00    -0.366 N 
HETATM   24  C6  UNL     1     -19.691  54.695  22.746  1.00  0.00     0.078 C 
BRANCH  23  25
HETATM   25  C5  UNL     1     -17.443  54.997  21.924  1.00  0.00     0.088 C 
BRANCH  25  26
HETATM   26  C3  UNL     1     -16.677  56.200  22.309  1.00  0.00     0.121 C 
HETATM   27  C4  UNL     1     -15.666  56.001  23.457  1.00  0.00     0.038 C 
BRANCH  26  28
HETATM   28  N1  UNL     1     -15.855  56.568  21.154  1.00  0.00    -0.328 N 
HETATM   29  C2  UNL     1     -15.951  57.875  20.585  1.00  0.00     0.360 C 
HETATM   30  O2  UNL     1     -16.719  58.754  21.061  1.00  0.00    -0.239 OA
ATOM     31  H1  UNL     1     -15.211  55.887  20.752  1.00  0.00     0.165 HD
BRANCH  29  32
HETATM   32  O1  UNL     1     -15.181  58.172  19.488  1.00  0.00    -0.309 OA
HETATM   33  C1  UNL     1     -13.884  58.745  19.529  1.00  0.00     0.215 C 
ENDBRANCH  29  32
ENDBRANCH  26  28
ENDBRANCH  25  26
ENDBRANCH  23  25
BRANCH  24  34
HETATM   34  C7  UNL     1     -21.175  54.710  22.586  1.00  0.00     0.159 C 
HETATM   35 CL1  UNL     1     -21.672  56.425  22.872  1.00  0.00    -0.125 Cl
ENDBRANCH  24  34
ENDBRANCH   1  23
TORSDOF 9
ENDMDL
MODEL 3
REMARK VINA RESULT: -6.309455221      1.522      1.707
REMARK  9 active torsions:
REMARK  status: ('A' for Active; 'I' for Inactive)
REMARK    1  A    between atoms: O1_2  and  C2_3 
REMARK       I    between atoms: C2_3  and  N1_5 
REMARK    2  A    between atoms: N1_5  and  C3_7 
REMARK    3  A    between atoms: C3_7  and  C5_9 
REMARK    4  A    between atoms: C5_9  and  N2_10 
REMARK    5  A    between atoms: N2_10  and  C8_14 
REMARK    6  A    between atoms: C6_11  and  C7_12 
REMARK    7  A    between atoms: N3_17  and  C11_18 
REMARK    8  A    between atoms: C11_18  and  C12_19 
REMARK    9  A    between atoms: C14_24  and  N5_25 
ROOT
HETATM    1  C8  UNL     1     -19.679  54.258  19.127  1.00  0.00     0.090 C 
HETATM    2  C9  UNL     1     -18.924  53.967  17.859  1.00  0.00     0.040 C 
HETATM    3  C10 UNL     1     -19.702  54.547  16.732  1.00  0.00     0.097 C 
HETATM    4  N3  UNL     1     -19.951  55.992  16.908  1.00  0.00    -0.291 NA
HETATM    5  C16 UNL     1     -19.265  56.494  18.028  1.00  0.00     0.097 C 
HETATM    6  C17 UNL     1     -19.549  55.744  19.346  1.00  0.00     0.040 C 
ENDROOT
BRANCH   4   7
HETATM    7  C11 UNL     1     -19.526  56.548  15.662  1.00  0.00     0.078 C 
BRANCH   7   8
HETATM    8  C12 UNL     1     -20.450  57.207  14.760  1.00  0.00     0.058 A 
HETATM    9  C13 UNL     1     -20.353  58.605  14.698  1.00  0.00     0.134 A 
HETATM   10 CL2  UNL     1     -18.956  59.267  15.570  1.00  0.00    -0.063 Cl
HETATM   11  N4  UNL     1     -21.182  59.366  14.063  1.00  0.00    -0.180 N 
HETATM   12  C14 UNL     1     -22.250  58.837  13.391  1.00  0.00     0.678 A 
ATOM     13  H4  UNL     1     -21.038  60.376  14.062  1.00  0.00     0.185 HD
HETATM   14  N6  UNL     1     -22.367  57.505  13.430  1.00  0.00    -0.176 N 
HETATM   15  C15 UNL     1     -21.504  56.670  14.092  1.00  0.00     0.129 A 
ATOM     16  H6  UNL     1     -23.151  57.082  12.934  1.00  0.00     0.186 HD
HETATM   17  N7  UNL     1     -21.687  55.397  14.115  1.00  0.00    -0.384 N 
ATOM     18  H72 UNL     1     -21.045  54.775  14.608  1.00  0.00     0.157 HD
ATOM     19  H71 UNL     1     -22.478  54.993  13.613  1.00  0.00     0.157 HD
BRANCH  12  20
HETATM   20  N5  UNL     1     -23.060  59.540  12.800  1.00  0.00    -0.234 N 
ATOM     21  H52 UNL     1     -23.336  60.457  13.153  1.00  0.00     0.174 HD
ATOM     22  H51 UNL     1     -23.489  59.251  11.921  1.00  0.00     0.174 HD
ENDBRANCH  12  20
ENDBRANCH   7   8
ENDBRANCH   4   7
BRANCH   1  23
HETATM   23  N2  UNL     1     -19.477  53.402  20.233  1.00  0.00    -0.366 N 
HETATM   24  C6  UNL     1     -20.349  52.434  20.612  1.00  0.00     0.078 C 
BRANCH  23  25
HETATM   25  C5  UNL     1     -18.113  53.341  20.560  1.00  0.00     0.088 C 
BRANCH  25  26
HETATM   26  C3  UNL     1     -17.558  52.016  20.905  1.00  0.00     0.121 C 
HETATM   27  C4  UNL     1     -16.955  51.223  19.727  1.00  0.00     0.038 C 
BRANCH  26  28
HETATM   28  N1  UNL     1     -16.429  52.251  21.807  1.00  0.00    -0.328 N 
HETATM   29  C2  UNL     1     -16.312  51.517  23.027  1.00  0.00     0.360 C 
HETATM   30  O2  UNL     1     -17.153  50.638  23.359  1.00  0.00    -0.239 OA
ATOM     31  H1  UNL     1     -15.721  52.944  21.564  1.00  0.00     0.165 HD
BRANCH  29  32
HETATM   32  O1  UNL     1     -15.251  51.784  23.856  1.00  0.00    -0.309 OA
HETATM   33  C1  UNL     1     -14.354  52.874  23.714  1.00  0.00     0.215 C 
ENDBRANCH  29  32
ENDBRANCH  26  28
ENDBRANCH  25  26
ENDBRANCH  23  25
BRANCH  24  34
HETATM   34  C7  UNL     1     -21.776  52.400  20.178  1.00  0.00     0.159 C 
HETATM   35 CL1  UNL     1     -22.614  53.649  21.182  1.00  0.00    -0.125 Cl
ENDBRANCH  24  34
ENDBRANCH   1  23
TORSDOF 9
ENDMDL
MODEL 4
REMARK VINA RESULT: -6.239804294      2.885      3.536
REMARK  9 active torsions:
REMARK  status: ('A' for Active; 'I' for Inactive)
REMARK    1  A    between atoms: O1_2  and  C2_3 
REMARK       I    between atoms: C2_3  and  N1_5 
REMARK    2  A    between atoms: N1_5  and  C3_7 
REMARK    3  A    between atoms: C3_7  and  C5_9 
REMARK    4  A    between atoms: C5_9  and  N2_10 
REMARK    5  A    between atoms: N2_10  and  C8_14 
REMARK    6  A    between atoms: C6_11  and  C7_12 
REMARK    7  A    between atoms: N3_17  and  C11_18 
REMARK    8  A    between atoms: C11_18  and  C12_19 
REMARK    9  A    between atoms: C14_24  and  N5_25 
ROOT
HETATM    1  C8  UNL     1     -19.491  54.955  19.703  1.00  0.00     0.090 C 
HETATM    2  C9  UNL     1     -18.558  54.605  18.576  1.00  0.00     0.040 C 
HETATM    3  C10 UNL     1     -19.317  54.743  17.305  1.00  0.00     0.097 C 
HETATM    4  N3  UNL     1     -19.898  56.091  17.144  1.00  0.00    -0.291 NA
HETATM    5  C16 UNL     1     -19.467  56.958  18.163  1.00  0.00     0.097 C 
HETATM    6  C17 UNL     1     -19.718  56.442  19.595  1.00  0.00     0.040 C 
ENDROOT
BRANCH   4   7
HETATM    7  C11 UNL     1     -19.475  56.470  15.832  1.00  0.00     0.078 C 
BRANCH   7   8
HETATM    8  C12 UNL     1     -20.378  57.089  14.882  1.00  0.00     0.058 A 
HETATM    9  C13 UNL     1     -20.245  58.477  14.725  1.00  0.00     0.134 A 
HETATM   10 CL2  UNL     1     -18.834  59.161  15.557  1.00  0.00    -0.063 Cl
HETATM   11  N4  UNL     1     -21.052  59.213  14.034  1.00  0.00    -0.180 N 
HETATM   12  C14 UNL     1     -22.130  58.666  13.394  1.00  0.00     0.678 A 
ATOM     13  H4  UNL     1     -20.881  60.217  13.965  1.00  0.00     0.185 HD
HETATM   14  N6  UNL     1     -22.282  57.344  13.525  1.00  0.00    -0.176 N 
HETATM   15  C15 UNL     1     -21.443  56.535  14.247  1.00  0.00     0.129 A 
ATOM     16  H6  UNL     1     -23.075  56.908  13.055  1.00  0.00     0.186 HD
HETATM   17  N7  UNL     1     -21.659  55.271  14.357  1.00  0.00    -0.384 N 
ATOM     18  H72 UNL     1     -21.036  54.669  14.895  1.00  0.00     0.157 HD
ATOM     19  H71 UNL     1     -22.459  54.854  13.880  1.00  0.00     0.157 HD
BRANCH  12  20
HETATM   20  N5  UNL     1     -22.920  59.348  12.752  1.00  0.00    -0.234 N 
ATOM     21  H52 UNL     1     -22.618  60.165  12.221  1.00  0.00     0.174 HD
ATOM     22  H51 UNL     1     -23.914  59.126  12.707  1.00  0.00     0.174 HD
ENDBRANCH  12  20
ENDBRANCH   7   8
ENDBRANCH   4   7
BRANCH   1  23
HETATM   23  N2  UNL     1     -19.225  54.413  20.980  1.00  0.00    -0.366 N 
HETATM   24  C6  UNL     1     -20.076  53.594  21.648  1.00  0.00     0.078 C 
BRANCH  23  25
HETATM   25  C5  UNL     1     -17.844  54.412  21.232  1.00  0.00     0.088 C 
BRANCH  25  26
HETATM   26  C3  UNL     1     -17.266  55.626  21.845  1.00  0.00     0.121 C 
HETATM   27  C4  UNL     1     -16.448  55.393  23.132  1.00  0.00     0.038 C 
BRANCH  26  28
HETATM   28  N1  UNL     1     -16.301  56.167  20.886  1.00  0.00    -0.328 N 
HETATM   29  C2  UNL     1     -16.368  57.536  20.485  1.00  0.00     0.360 C 
HETATM   30  O2  UNL     1     -17.236  58.324  20.949  1.00  0.00    -0.239 OA
ATOM     31  H1  UNL     1     -15.575  55.562  20.501  1.00  0.00     0.165 HD
BRANCH  29  32
HETATM   32  O1  UNL     1     -15.459  57.998  19.567  1.00  0.00    -0.309 OA
HETATM   33  C1  UNL     1     -14.246  58.665  19.878  1.00  0.00     0.215 C 
ENDBRANCH  29  32
ENDBRANCH  26  28
ENDBRANCH  25  26
ENDBRANCH  23  25
BRANCH  24  34
HETATM   34  C7  UNL     1     -21.527  53.477  21.322  1.00  0.00     0.159 C 
HETATM   35 CL1  UNL     1     -21.653  52.074  20.188  1.00  0.00    -0.125 Cl
ENDBRANCH  24  34
ENDBRANCH   1  23
TORSDOF 9
ENDMDL
MODEL 5
REMARK VINA RESULT: -6.198836760      1.165      1.637
REMARK  9 active torsions:
REMARK  status: ('A' for Active; 'I' for Inactive)
REMARK    1  A    between atoms: O1_2  and  C2_3 
REMARK       I    between atoms: C2_3  and  N1_5 
REMARK    2  A    between atoms: N1_5  and  C3_7 
REMARK    3  A    between atoms: C3_7  and  C5_9 
REMARK    4  A    between atoms: C5_9  and  N2_10 
REMARK    5  A    between atoms: N2_10  and  C8_14 
REMARK    6  A    between atoms: C6_11  and  C7_12 
REMARK    7  A    between atoms: N3_17  and  C11_18 
REMARK    8  A    between atoms: C11_18  and  C12_19 
REMARK    9  A    between atoms: C14_24  and  N5_25 
ROOT
HETATM    1  C8  UNL     1     -19.490  54.124  19.203  1.00  0.00     0.090 C 
HETATM    2  C9  UNL     1     -19.201  53.627  17.813  1.00  0.00     0.040 C 
HETATM    3  C10 UNL     1     -20.029  54.426  16.871  1.00  0.00     0.097 C 
HETATM    4  N3  UNL     1     -19.785  55.876  17.002  1.00  0.00    -0.291 NA
HETATM    5  C16 UNL     1     -18.722  56.136  17.884  1.00  0.00     0.097 C 
HETATM    6  C17 UNL     1     -18.873  55.497  19.280  1.00  0.00     0.040 C 
ENDROOT
BRANCH   4   7
HETATM    7  C11 UNL     1     -19.544  56.286  15.654  1.00  0.00     0.078 C 
BRANCH   7   8
HETATM    8  C12 UNL     1     -20.351  57.299  15.002  1.00  0.00     0.058 A 
HETATM    9  C13 UNL     1     -21.362  56.824  14.154  1.00  0.00     0.134 A 
HETATM   10 CL2  UNL     1     -21.597  55.066  14.231  1.00  0.00    -0.063 Cl
HETATM   11  N4  UNL     1     -22.082  57.574  13.386  1.00  0.00    -0.180 N 
HETATM   12  C14 UNL     1     -21.890  58.929  13.345  1.00  0.00     0.678 A 
ATOM     13  H4  UNL     1     -22.803  57.151  12.801  1.00  0.00     0.185 HD
HETATM   14  N6  UNL     1     -20.933  59.411  14.145  1.00  0.00    -0.176 N 
HETATM   15  C15 UNL     1     -20.155  58.642  14.973  1.00  0.00     0.129 A 
ATOM     16  H6  UNL     1     -20.771  60.417  14.139  1.00  0.00     0.186 HD
HETATM   17  N7  UNL     1     -19.230  59.165  15.700  1.00  0.00    -0.384 N 
ATOM     18  H72 UNL     1     -18.651  58.593  16.315  1.00  0.00     0.157 HD
ATOM     19  H71 UNL     1     -19.083  60.174  15.679  1.00  0.00     0.157 HD
BRANCH  12  20
HETATM   20  N5  UNL     1     -22.545  59.656  12.609  1.00  0.00    -0.234 N 
ATOM     21  H52 UNL     1     -22.624  59.479  11.607  1.00  0.00     0.174 HD
ATOM     22  H51 UNL     1     -23.054  60.467  12.962  1.00  0.00     0.174 HD
ENDBRANCH  12  20
ENDBRANCH   7   8
ENDBRANCH   4   7
BRANCH   1  23
HETATM   23  N2  UNL     1     -19.279  53.237  20.283  1.00  0.00    -0.366 N 
HETATM   24  C6  UNL     1     -19.661  53.493  21.559  1.00  0.00     0.078 C 
BRANCH  23  25
HETATM   25  C5  UNL     1     -19.098  51.928  19.812  1.00  0.00     0.088 C 
BRANCH  25  26
HETATM   26  C3  UNL     1     -18.327  51.001  20.664  1.00  0.00     0.121 C 
HETATM   27  C4  UNL     1     -19.033  49.673  21.008  1.00  0.00     0.038 C 
BRANCH  26  28
HETATM   28  N1  UNL     1     -17.145  50.602  19.896  1.00  0.00    -0.328 N 
HETATM   29  C2  UNL     1     -15.845  50.662  20.485  1.00  0.00     0.360 C 
HETATM   30  O2  UNL     1     -15.670  51.037  21.676  1.00  0.00    -0.239 OA
ATOM     31  H1  UNL     1     -17.251  50.278  18.935  1.00  0.00     0.165 HD
BRANCH  29  32
HETATM   32  O1  UNL     1     -14.761  50.302  19.723  1.00  0.00    -0.309 OA
HETATM   33  C1  UNL     1     -13.412  50.628  20.013  1.00  0.00     0.215 C 
ENDBRANCH  29  32
ENDBRANCH  26  28
ENDBRANCH  25  26
ENDBRANCH  23  25
BRANCH  24  34
HETATM   34  C7  UNL     1     -19.984  54.861  22.060  1.00  0.00     0.159 C 
HETATM   35 CL1  UNL     1     -21.775  55.030  21.879  1.00  0.00    -0.125 Cl
ENDBRANCH  24  34
ENDBRANCH   1  23
TORSDOF 9
ENDMDL
