MODEL 1
REMARK VINA RESULT: -7.218331795      0.000      0.000
REMARK  10 active torsions:
REMARK  status: ('A' for Active; 'I' for Inactive)
REMARK    1  A    between atoms: C4_4  and  C5_5 
REMARK    2  A    between atoms: C6_8  and  N2_9 
REMARK    3  A    between atoms: C7_14  and  N4_15 
REMARK    4  A    between atoms: C9_20  and  O1_21 
REMARK    5  A    between atoms: O1_21  and  C10_22 
REMARK    6  A    between atoms: C10_22  and  C11_23 
REMARK    7  A    between atoms: N6_29  and  C14_30 
REMARK    8  A    between atoms: C14_30  and  C15_31 
REMARK    9  A    between atoms: C15_31  and  C16_32 
REMARK   10  A    between atoms: C16_32  and  N7_33 
ROOT
HETATM    1  C1  UNL     1     -20.135  54.109  15.223  1.00  0.00     0.050 C 
HETATM    2  C2  UNL     1     -19.612  54.316  16.593  1.00  0.00    -0.032 A 
HETATM    3  C3  UNL     1     -19.576  53.276  17.502  1.00  0.00     0.026 A 
HETATM    4  C4  UNL     1     -19.204  53.458  18.836  1.00  0.00     0.029 A 
HETATM    5  C9  UNL     1     -18.885  54.714  19.225  1.00  0.00     0.110 A 
HETATM    6  C12 UNL     1     -18.917  55.765  18.311  1.00  0.00     0.095 A 
HETATM    7  N5  UNL     1     -18.678  57.072  18.455  1.00  0.00    -0.348 N 
ATOM      8  H5  UNL     1     -18.395  57.523  19.326  1.00  0.00     0.167 HD
HETATM    9  C13 UNL     1     -18.861  57.690  17.310  1.00  0.00     0.184 A 
HETATM   10  N6  UNL     1     -19.236  56.763  16.359  1.00  0.00    -0.341 N 
HETATM   11  C18 UNL     1     -19.271  55.600  16.989  1.00  0.00     0.071 A 
ENDROOT
BRANCH   4  12
HETATM   12  C5  UNL     1     -18.955  52.232  19.607  1.00  0.00     0.087 A 
HETATM   13  N1  UNL     1     -17.798  51.576  19.670  1.00  0.00    -0.189 N 
HETATM   14  C6  UNL     1     -17.608  50.389  20.321  1.00  0.00     0.678 A 
ATOM     15  H1  UNL     1     -16.994  51.989  19.197  1.00  0.00     0.184 HD
HETATM   16  N3  UNL     1     -18.621  49.802  20.955  1.00  0.00    -0.176 N 
HETATM   17  C7  UNL     1     -19.804  50.397  20.934  1.00  0.00     0.139 A 
ATOM     18  H3  UNL     1     -18.489  48.916  21.444  1.00  0.00     0.186 HD
HETATM   19  C8  UNL     1     -20.023  51.602  20.277  1.00  0.00     0.106 A 
HETATM   20 CL1  UNL     1     -21.648  52.213  20.229  1.00  0.00    -0.078 Cl
BRANCH  14  21
HETATM   21  N2  UNL     1     -16.448  49.832  20.324  1.00  0.00    -0.234 N 
ATOM     22  H22 UNL     1     -15.694  50.244  20.874  1.00  0.00     0.174 HD
ATOM     23  H21 UNL     1     -16.285  48.984  19.782  1.00  0.00     0.174 HD
ENDBRANCH  14  21
BRANCH  17  24
HETATM   24  N4  UNL     1     -20.805  49.824  21.556  1.00  0.00    -0.384 N 
ATOM     25  H42 UNL     1     -20.604  49.133  22.279  1.00  0.00     0.157 HD
ATOM     26  H41 UNL     1     -21.756  50.088  21.297  1.00  0.00     0.157 HD
ENDBRANCH  17  24
ENDBRANCH   4  12
BRANCH   5  27
HETATM   27  O1  UNL     1     -18.535  55.084  20.497  1.00  0.00    -0.345 OA
BRANCH  27  28
HETATM   28  C10 UNL     1     -17.237  55.272  20.960  1.00  0.00     0.207 C 
BRANCH  28  29
HETATM   29  C11 UNL     1     -16.531  54.223  21.709  1.00  0.00     0.248 C 
HETATM   30  F1  UNL     1     -15.595  53.619  20.855  1.00  0.00    -0.253 F 
ENDBRANCH  28  29
ENDBRANCH  27  28
ENDBRANCH   5  27
BRANCH  10  31
HETATM   31  C14 UNL     1     -19.314  57.140  14.994  1.00  0.00     0.131 C 
BRANCH  31  32
HETATM   32  C15 UNL     1     -20.410  58.194  14.804  1.00  0.00     0.040 C 
BRANCH  32  33
HETATM   33  C16 UNL     1     -21.477  57.775  13.882  1.00  0.00     0.123 C 
BRANCH  33  34
HETATM   34  N7  UNL     1     -22.427  58.780  13.579  1.00  0.00    -0.367 N 
HETATM   35  C17 UNL     1     -22.403  59.555  12.552  1.00  0.00     0.196 C 
HETATM   36  N8  UNL     1     -23.428  60.510  12.393  1.00  0.00    -0.067 NA
HETATM   37  N9  UNL     1     -21.355  59.428  11.614  1.00  0.00    -0.067 NA
ATOM     38  H7  UNL     1     -23.200  58.901  14.233  1.00  0.00     0.161 HD
ENDBRANCH  33  34
ENDBRANCH  32  33
ENDBRANCH  31  32
ENDBRANCH  10  31
TORSDOF 10
ENDMDL
MODEL 2
REMARK VINA RESULT: -7.129253787      1.397      1.491
REMARK  10 active torsions:
REMARK  status: ('A' for Active; 'I' for Inactive)
REMARK    1  A    between atoms: C4_4  and  C5_5 
REMARK    2  A    between atoms: C6_8  and  N2_9 
REMARK    3  A    between atoms: C7_14  and  N4_15 
REMARK    4  A    between atoms: C9_20  and  O1_21 
REMARK    5  A    between atoms: O1_21  and  C10_22 
REMARK    6  A    between atoms: C10_22  and  C11_23 
REMARK    7  A    between atoms: N6_29  and  C14_30 
REMARK    8  A    between atoms: C14_30  and  C15_31 
REMARK    9  A    between atoms: C15_31  and  C16_32 
REMARK   10  A    between atoms: C16_32  and  N7_33 
ROOT
HETATM    1  C1  UNL     1     -20.103  54.139  15.205  1.00  0.00     0.050 C 
HETATM    2  C2  UNL     1     -19.619  54.336  16.591  1.00  0.00    -0.032 A 
HETATM    3  C3  UNL     1     -19.620  53.293  17.497  1.00  0.00     0.026 A 
HETATM    4  C4  UNL     1     -19.286  53.467  18.842  1.00  0.00     0.029 A 
HETATM    5  C9  UNL     1     -18.967  54.719  19.244  1.00  0.00     0.110 A 
HETATM    6  C12 UNL     1     -18.962  55.773  18.334  1.00  0.00     0.095 A 
HETATM    7  N5  UNL     1     -18.715  57.077  18.489  1.00  0.00    -0.348 N 
ATOM      8  H5  UNL     1     -18.454  57.522  19.370  1.00  0.00     0.167 HD
HETATM    9  C13 UNL     1     -18.858  57.701  17.342  1.00  0.00     0.184 A 
HETATM   10  N6  UNL     1     -19.213  56.781  16.377  1.00  0.00    -0.341 N 
HETATM   11  C18 UNL     1     -19.278  55.616  17.001  1.00  0.00     0.071 A 
ENDROOT
BRANCH   4  12
HETATM   12  C5  UNL     1     -19.071  52.236  19.615  1.00  0.00     0.087 A 
HETATM   13  N1  UNL     1     -17.931  51.553  19.688  1.00  0.00    -0.189 N 
HETATM   14  C6  UNL     1     -17.773  50.363  20.341  1.00  0.00     0.678 A 
ATOM     15  H1  UNL     1     -17.114  51.947  19.221  1.00  0.00     0.184 HD
HETATM   16  N3  UNL     1     -18.805  49.800  20.968  1.00  0.00    -0.176 N 
HETATM   17  C7  UNL     1     -19.973  50.422  20.937  1.00  0.00     0.139 A 
ATOM     18  H3  UNL     1     -18.698  48.912  21.458  1.00  0.00     0.186 HD
HETATM   19  C8  UNL     1     -20.159  51.632  20.278  1.00  0.00     0.106 A 
HETATM   20 CL1  UNL     1     -21.769  52.281  20.217  1.00  0.00    -0.078 Cl
BRANCH  14  21
HETATM   21  N2  UNL     1     -16.627  49.779  20.354  1.00  0.00    -0.234 N 
ATOM     22  H22 UNL     1     -15.831  50.242  20.792  1.00  0.00     0.174 HD
ATOM     23  H21 UNL     1     -16.516  48.858  19.929  1.00  0.00     0.174 HD
ENDBRANCH  14  21
BRANCH  17  24
HETATM   24  N4  UNL     1     -20.992  49.874  21.552  1.00  0.00    -0.384 N 
ATOM     25  H42 UNL     1     -21.379  49.005  21.185  1.00  0.00     0.157 HD
ATOM     26  H41 UNL     1     -21.367  50.334  22.382  1.00  0.00     0.157 HD
ENDBRANCH  17  24
ENDBRANCH   4  12
BRANCH   5  27
HETATM   27  O1  UNL     1     -18.652  55.081  20.528  1.00  0.00    -0.345 OA
BRANCH  27  28
HETATM   28  C10 UNL     1     -19.560  55.260  21.567  1.00  0.00     0.207 C 
BRANCH  28  29
HETATM   29  C11 UNL     1     -20.325  56.507  21.709  1.00  0.00     0.248 C 
HETATM   30  F1  UNL     1     -21.280  56.563  20.681  1.00  0.00    -0.253 F 
ENDBRANCH  28  29
ENDBRANCH  27  28
ENDBRANCH   5  27
BRANCH  10  31
HETATM   31  C14 UNL     1     -19.246  57.162  15.011  1.00  0.00     0.131 C 
BRANCH  31  32
HETATM   32  C15 UNL     1     -20.331  58.223  14.792  1.00  0.00     0.040 C 
BRANCH  32  33
HETATM   33  C16 UNL     1     -21.417  57.780  13.904  1.00  0.00     0.123 C 
BRANCH  33  34
HETATM   34  N7  UNL     1     -22.375  58.777  13.597  1.00  0.00    -0.367 N 
HETATM   35  C17 UNL     1     -22.363  59.539  12.560  1.00  0.00     0.196 C 
HETATM   36  N8  UNL     1     -23.395  60.487  12.398  1.00  0.00    -0.067 NA
HETATM   37  N9  UNL     1     -21.323  59.405  11.614  1.00  0.00    -0.067 NA
ATOM     38  H7  UNL     1     -23.143  58.903  14.257  1.00  0.00     0.161 HD
ENDBRANCH  33  34
ENDBRANCH  32  33
ENDBRANCH  31  32
ENDBRANCH  10  31
TORSDOF 10
ENDMDL
MODEL 3
REMARK VINA RESULT: -6.739974042      1.961      2.569
REMARK  10 active torsions:
REMARK  status: ('A' for Active; 'I' for Inactive)
REMARK    1  A    between atoms: C4_4  and  C5_5 
REMARK    2  A    between atoms: C6_8  and  N2_9 
REMARK    3  A    between atoms: C7_14  and  N4_15 
REMARK    4  A    between atoms: C9_20  and  O1_21 
REMARK    5  A    between atoms: O1_21  and  C10_22 
REMARK    6  A    between atoms: C10_22  and  C11_23 
REMARK    7  A    between atoms: N6_29  and  C14_30 
REMARK    8  A    between atoms: C14_30  and  C15_31 
REMARK    9  A    between atoms: C15_31  and  C16_32 
REMARK   10  A    between atoms: C16_32  and  N7_33 
ROOT
HETATM    1  C1  UNL     1     -20.462  54.309  15.307  1.00  0.00     0.050 C 
HETATM    2  C2  UNL     1     -20.156  54.400  16.753  1.00  0.00    -0.032 A 
HETATM    3  C3  UNL     1     -20.446  53.353  17.606  1.00  0.00     0.026 A 
HETATM    4  C4  UNL     1     -20.284  53.445  18.991  1.00  0.00     0.029 A 
HETATM    5  C9  UNL     1     -19.836  54.622  19.485  1.00  0.00     0.110 A 
HETATM    6  C12 UNL     1     -19.539  55.680  18.629  1.00  0.00     0.095 A 
HETATM    7  N5  UNL     1     -19.118  56.924  18.871  1.00  0.00    -0.348 N 
ATOM      8  H5  UNL     1     -18.919  57.305  19.797  1.00  0.00     0.167 HD
HETATM    9  C13 UNL     1     -18.998  57.586  17.742  1.00  0.00     0.184 A 
HETATM   10  N6  UNL     1     -19.350  56.753  16.699  1.00  0.00    -0.341 N 
HETATM   11  C18 UNL     1     -19.683  55.601  17.260  1.00  0.00     0.071 A 
ENDROOT
BRANCH   4  12
HETATM   12  C5  UNL     1     -20.375  52.181  19.734  1.00  0.00     0.087 A 
HETATM   13  N1  UNL     1     -21.499  51.598  20.143  1.00  0.00    -0.189 N 
HETATM   14  C6  UNL     1     -21.561  50.468  20.909  1.00  0.00     0.678 A 
ATOM     15  H1  UNL     1     -22.382  52.027  19.863  1.00  0.00     0.184 HD
HETATM   16  N3  UNL     1     -20.441  49.865  21.305  1.00  0.00    -0.176 N 
HETATM   17  C7  UNL     1     -19.282  50.390  20.937  1.00  0.00     0.139 A 
ATOM     18  H3  UNL     1     -20.476  49.021  21.877  1.00  0.00     0.186 HD
HETATM   19  C8  UNL     1     -19.194  51.539  20.160  1.00  0.00     0.106 A 
HETATM   20 CL1  UNL     1     -17.613  52.185  19.848  1.00  0.00    -0.078 Cl
BRANCH  14  21
HETATM   21  N2  UNL     1     -22.700  49.981  21.253  1.00  0.00    -0.234 N 
ATOM     22  H22 UNL     1     -23.120  49.239  20.692  1.00  0.00     0.174 HD
ATOM     23  H21 UNL     1     -23.180  50.333  22.081  1.00  0.00     0.174 HD
ENDBRANCH  14  21
BRANCH  17  24
HETATM   24  N4  UNL     1     -18.177  49.801  21.323  1.00  0.00    -0.384 N 
ATOM     25  H42 UNL     1     -17.308  50.017  20.836  1.00  0.00     0.157 HD
ATOM     26  H41 UNL     1     -18.221  49.143  22.103  1.00  0.00     0.157 HD
ENDBRANCH  17  24
ENDBRANCH   4  12
BRANCH   5  27
HETATM   27  O1  UNL     1     -19.655  54.904  20.814  1.00  0.00    -0.345 OA
BRANCH  27  28
HETATM   28  C10 UNL     1     -20.664  55.192  21.727  1.00  0.00     0.207 C 
BRANCH  28  29
HETATM   29  C11 UNL     1     -21.294  56.519  21.779  1.00  0.00     0.248 C 
HETATM   30  F1  UNL     1     -22.038  56.705  20.603  1.00  0.00    -0.253 F 
ENDBRANCH  28  29
ENDBRANCH  27  28
ENDBRANCH   5  27
BRANCH  10  31
HETATM   31  C14 UNL     1     -19.130  57.162  15.359  1.00  0.00     0.131 C 
BRANCH  31  32
HETATM   32  C15 UNL     1     -20.144  58.243  14.970  1.00  0.00     0.040 C 
BRANCH  32  33
HETATM   33  C16 UNL     1     -21.121  57.798  13.963  1.00  0.00     0.123 C 
BRANCH  33  34
HETATM   34  N7  UNL     1     -22.149  58.731  13.683  1.00  0.00    -0.367 N 
HETATM   35  C17 UNL     1     -22.214  59.491  12.646  1.00  0.00     0.196 C 
HETATM   36  N8  UNL     1     -23.308  60.370  12.513  1.00  0.00    -0.067 NA
HETATM   37  N9  UNL     1     -21.193  59.424  11.674  1.00  0.00    -0.067 NA
ATOM     38  H7  UNL     1     -22.906  58.807  14.363  1.00  0.00     0.161 HD
ENDBRANCH  33  34
ENDBRANCH  32  33
ENDBRANCH  31  32
ENDBRANCH  10  31
TORSDOF 10
ENDMDL
MODEL 4
REMARK VINA RESULT: -6.697514179      1.278      1.977
REMARK  10 active torsions:
REMARK  status: ('A' for Active; 'I' for Inactive)
REMARK    1  A    between atoms: C4_4  and  C5_5 
REMARK    2  A    between atoms: C6_8  and  N2_9 
REMARK    3  A    between atoms: C7_14  and  N4_15 
REMARK    4  A    between atoms: C9_20  and  O1_21 
REMARK    5  A    between atoms: O1_21  and  C10_22 
REMARK    6  A    between atoms: C10_22  and  C11_23 
REMARK    7  A    between atoms: N6_29  and  C14_30 
REMARK    8  A    between atoms: C14_30  and  C15_31 
REMARK    9  A    between atoms: C15_31  and  C16_32 
REMARK   10  A    between atoms: C16_32  and  N7_33 
ROOT
HETATM    1  C1  UNL     1     -20.037  54.275  15.321  1.00  0.00     0.050 C 
HETATM    2  C2  UNL     1     -19.908  54.394  16.791  1.00  0.00    -0.032 A 
HETATM    3  C3  UNL     1     -20.197  53.325  17.617  1.00  0.00     0.026 A 
HETATM    4  C4  UNL     1     -20.204  53.433  19.010  1.00  0.00     0.029 A 
HETATM    5  C9  UNL     1     -19.923  54.647  19.539  1.00  0.00     0.110 A 
HETATM    6  C12 UNL     1     -19.628  55.726  18.710  1.00  0.00     0.095 A 
HETATM    7  N5  UNL     1     -19.352  57.004  18.985  1.00  0.00    -0.348 N 
ATOM      8  H5  UNL     1     -19.295  57.402  19.923  1.00  0.00     0.167 HD
HETATM    9  C13 UNL     1     -19.165  57.673  17.870  1.00  0.00     0.184 A 
HETATM   10  N6  UNL     1     -19.319  56.811  16.803  1.00  0.00    -0.341 N 
HETATM   11  C18 UNL     1     -19.607  55.634  17.335  1.00  0.00     0.071 A 
ENDROOT
BRANCH   4  12
HETATM   12  C5  UNL     1     -20.263  52.166  19.752  1.00  0.00     0.087 A 
HETATM   13  N1  UNL     1     -21.367  51.598  20.232  1.00  0.00    -0.189 N 
HETATM   14  C6  UNL     1     -21.394  50.465  20.996  1.00  0.00     0.678 A 
ATOM     15  H1  UNL     1     -22.260  52.041  20.014  1.00  0.00     0.184 HD
HETATM   16  N3  UNL     1     -20.259  49.844  21.314  1.00  0.00    -0.176 N 
HETATM   17  C7  UNL     1     -19.120  50.354  20.873  1.00  0.00     0.139 A 
ATOM     18  H3  UNL     1     -20.268  48.998  21.884  1.00  0.00     0.186 HD
HETATM   19  C8  UNL     1     -19.066  51.505  20.097  1.00  0.00     0.106 A 
HETATM   20 CL1  UNL     1     -17.500  52.130  19.683  1.00  0.00    -0.078 Cl
BRANCH  14  21
HETATM   21  N2  UNL     1     -22.515  49.992  21.413  1.00  0.00    -0.234 N 
ATOM     22  H22 UNL     1     -22.532  49.100  21.908  1.00  0.00     0.174 HD
ATOM     23  H21 UNL     1     -23.381  50.506  21.251  1.00  0.00     0.174 HD
ENDBRANCH  14  21
BRANCH  17  24
HETATM   24  N4  UNL     1     -18.000  49.747  21.182  1.00  0.00    -0.384 N 
ATOM     25  H42 UNL     1     -18.044  48.834  21.636  1.00  0.00     0.157 HD
ATOM     26  H41 UNL     1     -17.117  50.207  20.959  1.00  0.00     0.157 HD
ENDBRANCH  17  24
ENDBRANCH   4  12
BRANCH   5  27
HETATM   27  O1  UNL     1     -19.921  54.945  20.876  1.00  0.00    -0.345 OA
BRANCH  27  28
HETATM   28  C10 UNL     1     -18.876  54.699  21.761  1.00  0.00     0.207 C 
BRANCH  28  29
HETATM   29  C11 UNL     1     -17.700  55.579  21.820  1.00  0.00     0.248 C 
HETATM   30  F1  UNL     1     -16.876  55.296  20.720  1.00  0.00    -0.253 F 
ENDBRANCH  28  29
ENDBRANCH  27  28
ENDBRANCH   5  27
BRANCH  10  31
HETATM   31  C14 UNL     1     -18.984  57.237  15.492  1.00  0.00     0.131 C 
BRANCH  31  32
HETATM   32  C15 UNL     1     -19.950  58.338  15.039  1.00  0.00     0.040 C 
BRANCH  32  33
HETATM   33  C16 UNL     1     -20.954  57.877  14.068  1.00  0.00     0.123 C 
BRANCH  33  34
HETATM   34  N7  UNL     1     -21.980  58.813  13.788  1.00  0.00    -0.367 N 
HETATM   35  C17 UNL     1     -22.126  59.463  12.686  1.00  0.00     0.196 C 
HETATM   36  N8  UNL     1     -23.205  60.363  12.563  1.00  0.00    -0.067 NA
HETATM   37  N9  UNL     1     -21.208  59.256  11.634  1.00  0.00    -0.067 NA
ATOM     38  H7  UNL     1     -22.664  58.988  14.524  1.00  0.00     0.161 HD
ENDBRANCH  33  34
ENDBRANCH  32  33
ENDBRANCH  31  32
ENDBRANCH  10  31
TORSDOF 10
ENDMDL
MODEL 5
REMARK VINA RESULT: -6.689147508      1.606      1.677
REMARK  10 active torsions:
REMARK  status: ('A' for Active; 'I' for Inactive)
REMARK    1  A    between atoms: C4_4  and  C5_5 
REMARK    2  A    between atoms: C6_8  and  N2_9 
REMARK    3  A    between atoms: C7_14  and  N4_15 
REMARK    4  A    between atoms: C9_20  and  O1_21 
REMARK    5  A    between atoms: O1_21  and  C10_22 
REMARK    6  A    between atoms: C10_22  and  C11_23 
REMARK    7  A    between atoms: N6_29  and  C14_30 
REMARK    8  A    between atoms: C14_30  and  C15_31 
REMARK    9  A    between atoms: C15_31  and  C16_32 
REMARK   10  A    between atoms: C16_32  and  N7_33 
ROOT
HETATM    1  C1  UNL     1     -20.139  53.399  16.059  1.00  0.00     0.050 C 
HETATM    2  C2  UNL     1     -19.471  54.053  17.207  1.00  0.00    -0.032 A 
HETATM    3  C3  UNL     1     -19.125  53.329  18.332  1.00  0.00     0.026 A 
HETATM    4  C4  UNL     1     -18.605  53.930  19.481  1.00  0.00     0.029 A 
HETATM    5  C9  UNL     1     -18.458  55.275  19.465  1.00  0.00     0.110 A 
HETATM    6  C12 UNL     1     -18.802  56.009  18.332  1.00  0.00     0.095 A 
HETATM    7  N5  UNL     1     -18.777  57.322  18.085  1.00  0.00    -0.348 N 
ATOM      8  H5  UNL     1     -18.456  58.034  18.741  1.00  0.00     0.167 HD
HETATM    9  C13 UNL     1     -19.225  57.560  16.873  1.00  0.00     0.184 A 
HETATM   10  N6  UNL     1     -19.564  56.360  16.281  1.00  0.00    -0.341 N 
HETATM   11  C18 UNL     1     -19.306  55.430  17.187  1.00  0.00     0.071 A 
ENDROOT
BRANCH   4  12
HETATM   12  C5  UNL     1     -18.039  53.017  20.484  1.00  0.00     0.087 A 
HETATM   13  N1  UNL     1     -16.803  52.521  20.473  1.00  0.00    -0.189 N 
HETATM   14  C6  UNL     1     -16.322  51.605  21.365  1.00  0.00     0.678 A 
ATOM     15  H1  UNL     1     -16.169  52.850  19.745  1.00  0.00     0.184 HD
HETATM   16  N3  UNL     1     -17.105  51.139  22.337  1.00  0.00    -0.176 N 
HETATM   17  C7  UNL     1     -18.349  51.586  22.409  1.00  0.00     0.139 A 
ATOM     18  H3  UNL     1     -16.755  50.455  23.008  1.00  0.00     0.186 HD
HETATM   19  C8  UNL     1     -18.862  52.516  21.512  1.00  0.00     0.106 A 
HETATM   20 CL1  UNL     1     -20.543  52.930  21.650  1.00  0.00    -0.078 Cl
BRANCH  14  21
HETATM   21  N2  UNL     1     -15.109  51.186  21.271  1.00  0.00    -0.234 N 
ATOM     22  H22 UNL     1     -14.835  50.614  20.472  1.00  0.00     0.174 HD
ATOM     23  H21 UNL     1     -14.427  51.424  21.991  1.00  0.00     0.174 HD
ENDBRANCH  14  21
BRANCH  17  24
HETATM   24  N4  UNL     1     -19.124  51.132  23.363  1.00  0.00    -0.384 N 
ATOM     25  H42 UNL     1     -19.192  51.659  24.234  1.00  0.00     0.157 HD
ATOM     26  H41 UNL     1     -19.636  50.264  23.204  1.00  0.00     0.157 HD
ENDBRANCH  17  24
ENDBRANCH   4  12
BRANCH   5  27
HETATM   27  O1  UNL     1     -18.001  56.033  20.510  1.00  0.00    -0.345 OA
BRANCH  27  28
HETATM   28  C10 UNL     1     -16.668  56.340  20.770  1.00  0.00     0.207 C 
BRANCH  28  29
HETATM   29  C11 UNL     1     -16.194  57.731  20.798  1.00  0.00     0.248 C 
HETATM   30  F1  UNL     1     -15.545  58.005  19.585  1.00  0.00    -0.253 F 
ENDBRANCH  28  29
ENDBRANCH  27  28
ENDBRANCH   5  27
BRANCH  10  31
HETATM   31  C14 UNL     1     -19.899  56.318  14.904  1.00  0.00     0.131 C 
BRANCH  31  32
HETATM   32  C15 UNL     1     -20.623  57.609  14.503  1.00  0.00     0.040 C 
BRANCH  32  33
HETATM   33  C16 UNL     1     -21.697  57.401  13.519  1.00  0.00     0.123 C 
BRANCH  33  34
HETATM   34  N7  UNL     1     -22.564  58.508  13.346  1.00  0.00    -0.367 N 
HETATM   35  C17 UNL     1     -22.415  59.453  12.485  1.00  0.00     0.196 C 
HETATM   36  N8  UNL     1     -23.371  60.489  12.437  1.00  0.00    -0.067 NA
HETATM   37  N9  UNL     1     -21.305  59.426  11.613  1.00  0.00    -0.067 NA
ATOM     38  H7  UNL     1     -23.378  58.561  13.957  1.00  0.00     0.161 HD
ENDBRANCH  33  34
ENDBRANCH  32  33
ENDBRANCH  31  32
ENDBRANCH  10  31
TORSDOF 10
ENDMDL
