MODEL 1
REMARK VINA RESULT: -7.559262140      0.000      0.000
REMARK  13 active torsions:
REMARK  status: ('A' for Active; 'I' for Inactive)
REMARK    1  A    between atoms: C2_2  and  C3_3 
REMARK    2  A    between atoms: C3_3  and  C4_4 
REMARK    3  A    between atoms: C4_4  and  N1_5 
REMARK    4  A    between atoms: N1_5  and  C5_7 
REMARK    5  A    between atoms: C5_7  and  N2_9 
REMARK    6  A    between atoms: N2_9  and  C6_11 
REMARK    7  A    between atoms: C6_11  and  C7_12 
REMARK    8  A    between atoms: C7_12  and  C8_13 
REMARK    9  A    between atoms: C8_13  and  N3_14 
REMARK   10  A    between atoms: N3_14  and  C9_16 
REMARK   11  A    between atoms: C10_19  and  N5_20 
REMARK   12  A    between atoms: N7_27  and  C13_28 
REMARK   13  A    between atoms: C14_29  and  O1_30 
ROOT
HETATM    1  C9  UNL     1     -21.426  53.704  15.634  1.00  0.00     0.681 A 
HETATM    2  N4  UNL     1     -20.545  53.656  16.642  1.00  0.00    -0.176 N 
ATOM      3  H4  UNL     1     -20.478  52.803  17.196  1.00  0.00     0.186 HD
HETATM    4  C10 UNL     1     -19.743  54.695  16.950  1.00  0.00     0.130 A 
HETATM    5  C11 UNL     1     -19.812  55.867  16.212  1.00  0.00     0.071 A 
HETATM    6  C12 UNL     1     -19.159  57.083  16.259  1.00  0.00     0.126 A 
HETATM    7  N6  UNL     1     -19.696  57.804  15.257  1.00  0.00    -0.306 N 
ATOM      8  H6  UNL     1     -19.424  58.759  15.024  1.00  0.00     0.186 HD
HETATM    9  N7  UNL     1     -20.620  57.110  14.616  1.00  0.00    -0.262 N 
HETATM   10  C17 UNL     1     -20.728  55.874  15.189  1.00  0.00     0.153 A 
HETATM   11  N8  UNL     1     -21.521  54.844  14.885  1.00  0.00    -0.174 N 
ATOM     12  H8  UNL     1     -22.184  54.906  14.112  1.00  0.00     0.186 HD
ENDROOT
BRANCH   1  13
HETATM   13  N3  UNL     1     -22.210  52.751  15.291  1.00  0.00    -0.226 N 
ATOM     14  H3  UNL     1     -22.230  52.521  14.297  1.00  0.00     0.177 HD
BRANCH  13  15
HETATM   15  C8  UNL     1     -23.063  51.972  16.136  1.00  0.00     0.139 C 
BRANCH  15  16
HETATM   16  C7  UNL     1     -23.788  50.928  15.327  1.00  0.00     0.040 C 
BRANCH  16  17
HETATM   17  C6  UNL     1     -22.776  50.112  14.511  1.00  0.00     0.123 C 
BRANCH  17  18
HETATM   18  N2  UNL     1     -22.937  48.718  14.756  1.00  0.00    -0.367 N 
ATOM     19  H2  UNL     1     -22.399  48.347  15.539  1.00  0.00     0.161 HD
BRANCH  18  20
HETATM   20  C5  UNL     1     -23.730  47.782  14.075  1.00  0.00     0.167 C 
HETATM   21  S1  UNL     1     -23.664  46.197  14.619  1.00  0.00    -0.041 SA
BRANCH  20  22
HETATM   22  N1  UNL     1     -24.585  47.993  12.984  1.00  0.00    -0.367 N 
ATOM     23  H1  UNL     1     -24.177  47.844  12.062  1.00  0.00     0.161 HD
BRANCH  22  24
HETATM   24  C4  UNL     1     -25.960  48.391  13.003  1.00  0.00     0.122 C 
BRANCH  24  25
HETATM   25  C3  UNL     1     -26.805  47.368  12.261  1.00  0.00     0.019 C 
BRANCH  25  26
HETATM   26  C2  UNL     1     -25.947  46.481  11.386  1.00  0.00    -0.003 C 
HETATM   27  C1  UNL     1     -26.608  46.328  10.036  1.00  0.00     0.005 C 
ENDBRANCH  25  26
ENDBRANCH  24  25
ENDBRANCH  22  24
ENDBRANCH  20  22
ENDBRANCH  18  20
ENDBRANCH  17  18
ENDBRANCH  16  17
ENDBRANCH  15  16
ENDBRANCH  13  15
ENDBRANCH   1  13
BRANCH   4  28
HETATM   28  N5  UNL     1     -18.898  54.645  17.921  1.00  0.00    -0.384 N 
ATOM     29  H52 UNL     1     -18.888  53.806  18.501  1.00  0.00     0.157 HD
ATOM     30  H51 UNL     1     -18.251  55.408  18.119  1.00  0.00     0.157 HD
ENDBRANCH   4  28
BRANCH   9  31
HETATM   31  C13 UNL     1     -21.411  57.534  13.497  1.00  0.00     0.211 C 
HETATM   32  C14 UNL     1     -20.523  58.043  12.383  1.00  0.00     0.154 C 
HETATM   33  C15 UNL     1     -21.630  59.044  12.078  1.00  0.00     0.115 C 
HETATM   34  C16 UNL     1     -22.043  58.888  13.551  1.00  0.00     0.270 C 
HETATM   35  F1  UNL     1     -23.432  58.888  13.596  1.00  0.00    -0.204 F 
HETATM   36  F2  UNL     1     -21.419  59.798  14.344  1.00  0.00    -0.204 F 
BRANCH  32  37
HETATM   37  O1  UNL     1     -19.401  58.738  12.835  1.00  0.00    -0.393 OA
ATOM     38  H1  UNL     1     -18.700  58.788  12.196  1.00  0.00     0.210 HD
ENDBRANCH  32  37
ENDBRANCH   9  31
TORSDOF 13
ENDMDL
MODEL 2
REMARK VINA RESULT: -7.486217288      3.082      5.003
REMARK  13 active torsions:
REMARK  status: ('A' for Active; 'I' for Inactive)
REMARK    1  A    between atoms: C2_2  and  C3_3 
REMARK    2  A    between atoms: C3_3  and  C4_4 
REMARK    3  A    between atoms: C4_4  and  N1_5 
REMARK    4  A    between atoms: N1_5  and  C5_7 
REMARK    5  A    between atoms: C5_7  and  N2_9 
REMARK    6  A    between atoms: N2_9  and  C6_11 
REMARK    7  A    between atoms: C6_11  and  C7_12 
REMARK    8  A    between atoms: C7_12  and  C8_13 
REMARK    9  A    between atoms: C8_13  and  N3_14 
REMARK   10  A    between atoms: N3_14  and  C9_16 
REMARK   11  A    between atoms: C10_19  and  N5_20 
REMARK   12  A    between atoms: N7_27  and  C13_28 
REMARK   13  A    between atoms: C14_29  and  O1_30 
ROOT
HETATM    1  C9  UNL     1     -21.446  53.681  15.601  1.00  0.00     0.681 A 
HETATM    2  N4  UNL     1     -20.558  53.623  16.603  1.00  0.00    -0.176 N 
ATOM      3  H4  UNL     1     -20.491  52.765  17.151  1.00  0.00     0.186 HD
HETATM    4  C10 UNL     1     -19.751  54.656  16.914  1.00  0.00     0.130 A 
HETATM    5  C11 UNL     1     -19.822  55.834  16.186  1.00  0.00     0.071 A 
HETATM    6  C12 UNL     1     -19.165  57.048  16.237  1.00  0.00     0.126 A 
HETATM    7  N6  UNL     1     -19.706  57.778  15.244  1.00  0.00    -0.306 N 
ATOM      8  H6  UNL     1     -19.433  58.734  15.017  1.00  0.00     0.186 HD
HETATM    9  N7  UNL     1     -20.636  57.092  14.604  1.00  0.00    -0.262 N 
HETATM   10  C17 UNL     1     -20.744  55.852  15.168  1.00  0.00     0.153 A 
HETATM   11  N8  UNL     1     -21.543  54.826  14.862  1.00  0.00    -0.174 N 
ATOM     12  H8  UNL     1     -22.210  54.896  14.094  1.00  0.00     0.186 HD
ENDROOT
BRANCH   1  13
HETATM   13  N3  UNL     1     -22.235  52.733  15.257  1.00  0.00    -0.226 N 
ATOM     14  H3  UNL     1     -22.294  52.538  14.257  1.00  0.00     0.177 HD
BRANCH  13  15
HETATM   15  C8  UNL     1     -23.045  51.914  16.107  1.00  0.00     0.139 C 
BRANCH  15  16
HETATM   16  C7  UNL     1     -23.778  50.879  15.293  1.00  0.00     0.040 C 
BRANCH  16  17
HETATM   17  C6  UNL     1     -25.263  50.871  15.685  1.00  0.00     0.123 C 
BRANCH  17  18
HETATM   18  N2  UNL     1     -25.565  51.969  16.540  1.00  0.00    -0.367 N 
ATOM     19  H2  UNL     1     -24.758  52.432  16.959  1.00  0.00     0.161 HD
BRANCH  18  20
HETATM   20  C5  UNL     1     -26.813  52.506  16.888  1.00  0.00     0.167 C 
HETATM   21  S1  UNL     1     -27.878  51.488  17.687  1.00  0.00    -0.041 SA
BRANCH  20  22
HETATM   22  N1  UNL     1     -27.301  53.801  16.657  1.00  0.00    -0.367 N 
ATOM     23  H1  UNL     1     -27.334  54.097  15.682  1.00  0.00     0.161 HD
BRANCH  22  24
HETATM   24  C4  UNL     1     -27.758  54.758  17.619  1.00  0.00     0.122 C 
BRANCH  24  25
HETATM   25  C3  UNL     1     -26.629  55.713  17.975  1.00  0.00     0.019 C 
BRANCH  25  26
HETATM   26  C2  UNL     1     -27.168  57.020  18.513  1.00  0.00    -0.003 C 
HETATM   27  C1  UNL     1     -26.193  57.580  19.522  1.00  0.00     0.005 C 
ENDBRANCH  25  26
ENDBRANCH  24  25
ENDBRANCH  22  24
ENDBRANCH  20  22
ENDBRANCH  18  20
ENDBRANCH  17  18
ENDBRANCH  16  17
ENDBRANCH  15  16
ENDBRANCH  13  15
ENDBRANCH   1  13
BRANCH   4  28
HETATM   28  N5  UNL     1     -18.901  54.597  17.879  1.00  0.00    -0.384 N 
ATOM     29  H52 UNL     1     -17.938  54.351  17.651  1.00  0.00     0.157 HD
ATOM     30  H51 UNL     1     -19.162  54.786  18.847  1.00  0.00     0.157 HD
ENDBRANCH   4  28
BRANCH   9  31
HETATM   31  C13 UNL     1     -21.433  57.526  13.493  1.00  0.00     0.211 C 
HETATM   32  C14 UNL     1     -20.550  58.031  12.373  1.00  0.00     0.154 C 
HETATM   33  C15 UNL     1     -21.651  59.042  12.081  1.00  0.00     0.115 C 
HETATM   34  C16 UNL     1     -22.052  58.886  13.557  1.00  0.00     0.270 C 
HETATM   35  F1  UNL     1     -23.441  58.898  13.613  1.00  0.00    -0.204 F 
HETATM   36  F2  UNL     1     -21.414  59.787  14.347  1.00  0.00    -0.204 F 
BRANCH  32  37
HETATM   37  O1  UNL     1     -19.418  58.714  12.817  1.00  0.00    -0.393 OA
ATOM     38  H1  UNL     1     -19.004  58.316  13.573  1.00  0.00     0.210 HD
ENDBRANCH  32  37
ENDBRANCH   9  31
TORSDOF 13
ENDMDL
MODEL 3
REMARK VINA RESULT: -7.352294781      0.894      1.268
REMARK  13 active torsions:
REMARK  status: ('A' for Active; 'I' for Inactive)
REMARK    1  A    between atoms: C2_2  and  C3_3 
REMARK    2  A    between atoms: C3_3  and  C4_4 
REMARK    3  A    between atoms: C4_4  and  N1_5 
REMARK    4  A    between atoms: N1_5  and  C5_7 
REMARK    5  A    between atoms: C5_7  and  N2_9 
REMARK    6  A    between atoms: N2_9  and  C6_11 
REMARK    7  A    between atoms: C6_11  and  C7_12 
REMARK    8  A    between atoms: C7_12  and  C8_13 
REMARK    9  A    between atoms: C8_13  and  N3_14 
REMARK   10  A    between atoms: N3_14  and  C9_16 
REMARK   11  A    between atoms: C10_19  and  N5_20 
REMARK   12  A    between atoms: N7_27  and  C13_28 
REMARK   13  A    between atoms: C14_29  and  O1_30 
ROOT
HETATM    1  C9  UNL     1     -21.431  53.585  15.474  1.00  0.00     0.681 A 
HETATM    2  N4  UNL     1     -20.569  53.507  16.497  1.00  0.00    -0.176 N 
ATOM      3  H4  UNL     1     -20.504  52.633  17.019  1.00  0.00     0.186 HD
HETATM    4  C10 UNL     1     -19.785  54.541  16.861  1.00  0.00     0.130 A 
HETATM    5  C11 UNL     1     -19.853  55.739  16.167  1.00  0.00     0.071 A 
HETATM    6  C12 UNL     1     -19.214  56.959  16.273  1.00  0.00     0.126 A 
HETATM    7  N6  UNL     1     -19.739  57.713  15.289  1.00  0.00    -0.306 N 
ATOM      8  H6  UNL     1     -19.474  58.679  15.099  1.00  0.00     0.186 HD
HETATM    9  N7  UNL     1     -20.643  57.035  14.604  1.00  0.00    -0.262 N 
HETATM   10  C17 UNL     1     -20.749  55.777  15.126  1.00  0.00     0.153 A 
HETATM   11  N8  UNL     1     -21.525  54.751  14.768  1.00  0.00    -0.174 N 
ATOM     12  H8  UNL     1     -22.173  54.836  13.985  1.00  0.00     0.186 HD
ENDROOT
BRANCH   1  13
HETATM   13  N3  UNL     1     -22.198  52.638  15.080  1.00  0.00    -0.226 N 
ATOM     14  H3  UNL     1     -22.262  52.502  14.070  1.00  0.00     0.177 HD
BRANCH  13  15
HETATM   15  C8  UNL     1     -22.978  51.748  15.886  1.00  0.00     0.139 C 
BRANCH  15  16
HETATM   16  C7  UNL     1     -23.760  50.801  15.013  1.00  0.00     0.040 C 
BRANCH  16  17
HETATM   17  C6  UNL     1     -24.686  49.941  15.885  1.00  0.00     0.123 C 
BRANCH  17  18
HETATM   18  N2  UNL     1     -23.957  48.888  16.509  1.00  0.00    -0.367 N 
ATOM     19  H2  UNL     1     -23.614  49.091  17.448  1.00  0.00     0.161 HD
BRANCH  18  20
HETATM   20  C5  UNL     1     -23.643  47.613  16.018  1.00  0.00     0.167 C 
HETATM   21  S1  UNL     1     -23.759  46.336  17.098  1.00  0.00    -0.041 SA
BRANCH  20  22
HETATM   22  N1  UNL     1     -23.239  47.252  14.724  1.00  0.00    -0.367 N 
ATOM     23  H1  UNL     1     -22.245  47.356  14.522  1.00  0.00     0.161 HD
BRANCH  22  24
HETATM   24  C4  UNL     1     -24.048  46.757  13.651  1.00  0.00     0.122 C 
BRANCH  24  25
HETATM   25  C3  UNL     1     -24.433  47.898  12.724  1.00  0.00     0.019 C 
BRANCH  25  26
HETATM   26  C2  UNL     1     -25.929  48.127  12.729  1.00  0.00    -0.003 C 
HETATM   27  C1  UNL     1     -26.575  47.203  11.724  1.00  0.00     0.005 C 
ENDBRANCH  25  26
ENDBRANCH  24  25
ENDBRANCH  22  24
ENDBRANCH  20  22
ENDBRANCH  18  20
ENDBRANCH  17  18
ENDBRANCH  16  17
ENDBRANCH  15  16
ENDBRANCH  13  15
ENDBRANCH   1  13
BRANCH   4  28
HETATM   28  N5  UNL     1     -18.959  54.462  17.845  1.00  0.00    -0.384 N 
ATOM     29  H52 UNL     1     -18.539  53.554  18.044  1.00  0.00     0.157 HD
ATOM     30  H51 UNL     1     -18.718  55.270  18.419  1.00  0.00     0.157 HD
ENDBRANCH   4  28
BRANCH   9  31
HETATM   31  C13 UNL     1     -21.417  57.494  13.486  1.00  0.00     0.211 C 
HETATM   32  C14 UNL     1     -20.511  58.022  12.396  1.00  0.00     0.154 C 
HETATM   33  C15 UNL     1     -21.605  59.040  12.103  1.00  0.00     0.115 C 
HETATM   34  C16 UNL     1     -22.037  58.852  13.567  1.00  0.00     0.270 C 
HETATM   35  F1  UNL     1     -23.427  58.863  13.595  1.00  0.00    -0.204 F 
HETATM   36  F2  UNL     1     -21.415  59.736  14.390  1.00  0.00    -0.204 F 
BRANCH  32  37
HETATM   37  O1  UNL     1     -19.388  58.696  12.878  1.00  0.00    -0.393 OA
ATOM     38  H1  UNL     1     -19.465  59.641  12.841  1.00  0.00     0.210 HD
ENDBRANCH  32  37
ENDBRANCH   9  31
TORSDOF 13
ENDMDL
MODEL 4
REMARK VINA RESULT: -7.313483106      2.976      4.608
REMARK  13 active torsions:
REMARK  status: ('A' for Active; 'I' for Inactive)
REMARK    1  A    between atoms: C2_2  and  C3_3 
REMARK    2  A    between atoms: C3_3  and  C4_4 
REMARK    3  A    between atoms: C4_4  and  N1_5 
REMARK    4  A    between atoms: N1_5  and  C5_7 
REMARK    5  A    between atoms: C5_7  and  N2_9 
REMARK    6  A    between atoms: N2_9  and  C6_11 
REMARK    7  A    between atoms: C6_11  and  C7_12 
REMARK    8  A    between atoms: C7_12  and  C8_13 
REMARK    9  A    between atoms: C8_13  and  N3_14 
REMARK   10  A    between atoms: N3_14  and  C9_16 
REMARK   11  A    between atoms: C10_19  and  N5_20 
REMARK   12  A    between atoms: N7_27  and  C13_28 
REMARK   13  A    between atoms: C14_29  and  O1_30 
ROOT
HETATM    1  C9  UNL     1     -21.457  53.689  15.621  1.00  0.00     0.681 A 
HETATM    2  N4  UNL     1     -20.570  53.635  16.623  1.00  0.00    -0.176 N 
ATOM      3  H4  UNL     1     -20.507  52.783  17.179  1.00  0.00     0.186 HD
HETATM    4  C10 UNL     1     -19.758  54.668  16.924  1.00  0.00     0.130 A 
HETATM    5  C11 UNL     1     -19.822  55.839  16.184  1.00  0.00     0.071 A 
HETATM    6  C12 UNL     1     -19.159  57.049  16.224  1.00  0.00     0.126 A 
HETATM    7  N6  UNL     1     -19.696  57.773  15.225  1.00  0.00    -0.306 N 
ATOM      8  H6  UNL     1     -19.418  58.726  14.988  1.00  0.00     0.186 HD
HETATM    9  N7  UNL     1     -20.630  57.086  14.591  1.00  0.00    -0.262 N 
HETATM   10  C17 UNL     1     -20.745  55.852  15.167  1.00  0.00     0.153 A 
HETATM   11  N8  UNL     1     -21.549  54.828  14.871  1.00  0.00    -0.174 N 
ATOM     12  H8  UNL     1     -22.216  54.893  14.102  1.00  0.00     0.186 HD
ENDROOT
BRANCH   1  13
HETATM   13  N3  UNL     1     -22.252  52.742  15.285  1.00  0.00    -0.226 N 
ATOM     14  H3  UNL     1     -22.286  52.515  14.291  1.00  0.00     0.177 HD
BRANCH  13  15
HETATM   15  C8  UNL     1     -23.099  51.965  16.139  1.00  0.00     0.139 C 
BRANCH  15  16
HETATM   16  C7  UNL     1     -23.802  50.895  15.344  1.00  0.00     0.040 C 
BRANCH  16  17
HETATM   17  C6  UNL     1     -25.100  50.490  16.058  1.00  0.00     0.123 C 
BRANCH  17  18
HETATM   18  N2  UNL     1     -26.151  51.399  15.746  1.00  0.00    -0.367 N 
ATOM     19  H2  UNL     1     -26.351  51.511  14.752  1.00  0.00     0.161 HD
BRANCH  18  20
HETATM   20  C5  UNL     1     -26.951  52.162  16.610  1.00  0.00     0.167 C 
HETATM   21  S1  UNL     1     -28.254  52.962  15.923  1.00  0.00    -0.041 SA
BRANCH  20  22
HETATM   22  N1  UNL     1     -26.809  52.349  17.992  1.00  0.00    -0.367 N 
ATOM     23  H1  UNL     1     -27.553  51.962  18.573  1.00  0.00     0.161 HD
BRANCH  22  24
HETATM   24  C4  UNL     1     -25.751  53.014  18.690  1.00  0.00     0.122 C 
BRANCH  24  25
HETATM   25  C3  UNL     1     -25.468  54.359  18.040  1.00  0.00     0.019 C 
BRANCH  25  26
HETATM   26  C2  UNL     1     -26.073  55.492  18.840  1.00  0.00    -0.003 C 
HETATM   27  C1  UNL     1     -27.082  56.220  17.984  1.00  0.00     0.005 C 
ENDBRANCH  25  26
ENDBRANCH  24  25
ENDBRANCH  22  24
ENDBRANCH  20  22
ENDBRANCH  18  20
ENDBRANCH  17  18
ENDBRANCH  16  17
ENDBRANCH  15  16
ENDBRANCH  13  15
ENDBRANCH   1  13
BRANCH   4  28
HETATM   28  N5  UNL     1     -18.907  54.613  17.890  1.00  0.00    -0.384 N 
ATOM     29  H52 UNL     1     -18.863  53.753  18.436  1.00  0.00     0.157 HD
ATOM     30  H51 UNL     1     -18.289  55.392  18.115  1.00  0.00     0.157 HD
ENDBRANCH   4  28
BRANCH   9  31
HETATM   31  C13 UNL     1     -21.425  57.514  13.476  1.00  0.00     0.211 C 
HETATM   32  C14 UNL     1     -20.541  58.036  12.365  1.00  0.00     0.154 C 
HETATM   33  C15 UNL     1     -21.654  59.033  12.069  1.00  0.00     0.115 C 
HETATM   34  C16 UNL     1     -22.063  58.865  13.541  1.00  0.00     0.270 C 
HETATM   35  F1  UNL     1     -23.453  58.857  13.588  1.00  0.00    -0.204 F 
HETATM   36  F2  UNL     1     -21.443  59.771  14.340  1.00  0.00    -0.204 F 
BRANCH  32  37
HETATM   37  O1  UNL     1     -19.422  58.733  12.820  1.00  0.00    -0.393 OA
ATOM     38  H1  UNL     1     -18.626  58.532  12.341  1.00  0.00     0.210 HD
ENDBRANCH  32  37
ENDBRANCH   9  31
TORSDOF 13
ENDMDL
MODEL 5
REMARK VINA RESULT: -7.222289443      3.968      5.978
REMARK  13 active torsions:
REMARK  status: ('A' for Active; 'I' for Inactive)
REMARK    1  A    between atoms: C2_2  and  C3_3 
REMARK    2  A    between atoms: C3_3  and  C4_4 
REMARK    3  A    between atoms: C4_4  and  N1_5 
REMARK    4  A    between atoms: N1_5  and  C5_7 
REMARK    5  A    between atoms: C5_7  and  N2_9 
REMARK    6  A    between atoms: N2_9  and  C6_11 
REMARK    7  A    between atoms: C6_11  and  C7_12 
REMARK    8  A    between atoms: C7_12  and  C8_13 
REMARK    9  A    between atoms: C8_13  and  N3_14 
REMARK   10  A    between atoms: N3_14  and  C9_16 
REMARK   11  A    between atoms: C10_19  and  N5_20 
REMARK   12  A    between atoms: N7_27  and  C13_28 
REMARK   13  A    between atoms: C14_29  and  O1_30 
ROOT
HETATM    1  C9  UNL     1     -21.448  53.905  15.939  1.00  0.00     0.681 A 
HETATM    2  N4  UNL     1     -20.519  53.902  16.904  1.00  0.00    -0.176 N 
ATOM      3  H4  UNL     1     -20.462  53.099  17.530  1.00  0.00     0.186 HD
HETATM    4  C10 UNL     1     -19.655  54.922  17.079  1.00  0.00     0.130 A 
HETATM    5  C11 UNL     1     -19.709  56.026  16.242  1.00  0.00     0.071 A 
HETATM    6  C12 UNL     1     -19.000  57.207  16.146  1.00  0.00     0.126 A 
HETATM    7  N6  UNL     1     -19.554  57.863  15.110  1.00  0.00    -0.306 N 
ATOM      8  H6  UNL     1     -19.252  58.779  14.779  1.00  0.00     0.186 HD
HETATM    9  N7  UNL     1     -20.542  57.163  14.580  1.00  0.00    -0.262 N 
HETATM   10  C17 UNL     1     -20.676  55.989  15.266  1.00  0.00     0.153 A 
HETATM   11  N8  UNL     1     -21.530  54.977  15.096  1.00  0.00    -0.174 N 
ATOM     12  H8  UNL     1     -22.229  55.004  14.354  1.00  0.00     0.186 HD
ENDROOT
BRANCH   1  13
HETATM   13  N3  UNL     1     -22.292  52.966  15.723  1.00  0.00    -0.226 N 
ATOM     14  H3  UNL     1     -22.366  52.643  14.758  1.00  0.00     0.177 HD
BRANCH  13  15
HETATM   15  C8  UNL     1     -23.144  52.317  16.672  1.00  0.00     0.139 C 
BRANCH  15  16
HETATM   16  C7  UNL     1     -23.646  53.310  17.689  1.00  0.00     0.040 C 
BRANCH  16  17
HETATM   17  C6  UNL     1     -23.514  52.717  19.099  1.00  0.00     0.123 C 
BRANCH  17  18
HETATM   18  N2  UNL     1     -22.310  51.965  19.219  1.00  0.00    -0.367 N 
ATOM     19  H2  UNL     1     -22.327  51.041  18.787  1.00  0.00     0.161 HD
BRANCH  18  20
HETATM   20  C5  UNL     1     -21.105  52.312  19.847  1.00  0.00     0.167 C 
HETATM   21  S1  UNL     1     -21.123  53.682  20.813  1.00  0.00    -0.041 SA
BRANCH  20  22
HETATM   22  N1  UNL     1     -19.866  51.659  19.778  1.00  0.00    -0.367 N 
ATOM     23  H1  UNL     1     -19.712  51.082  18.952  1.00  0.00     0.161 HD
BRANCH  22  24
HETATM   24  C4  UNL     1     -18.791  51.700  20.723  1.00  0.00     0.122 C 
BRANCH  24  25
HETATM   25  C3  UNL     1     -17.481  51.977  20.003  1.00  0.00     0.019 C 
BRANCH  25  26
HETATM   26  C2  UNL     1     -16.662  50.713  19.853  1.00  0.00    -0.003 C 
HETATM   27  C1  UNL     1     -15.223  51.010  20.207  1.00  0.00     0.005 C 
ENDBRANCH  25  26
ENDBRANCH  24  25
ENDBRANCH  22  24
ENDBRANCH  20  22
ENDBRANCH  18  20
ENDBRANCH  17  18
ENDBRANCH  16  17
ENDBRANCH  15  16
ENDBRANCH  13  15
ENDBRANCH   1  13
BRANCH   4  28
HETATM   28  N5  UNL     1     -18.764  54.915  18.008  1.00  0.00    -0.384 N 
ATOM     29  H52 UNL     1     -18.172  55.740  18.107  1.00  0.00     0.157 HD
ATOM     30  H51 UNL     1     -18.639  54.121  18.636  1.00  0.00     0.157 HD
ENDBRANCH   4  28
BRANCH   9  31
HETATM   31  C13 UNL     1     -21.370  57.525  13.466  1.00  0.00     0.211 C 
HETATM   32  C14 UNL     1     -20.526  58.064  12.332  1.00  0.00     0.154 C 
HETATM   33  C15 UNL     1     -21.690  58.998  12.028  1.00  0.00     0.115 C 
HETATM   34  C16 UNL     1     -22.073  58.844  13.509  1.00  0.00     0.270 C 
HETATM   35  F1  UNL     1     -23.460  58.769  13.574  1.00  0.00    -0.204 F 
HETATM   36  F2  UNL     1     -21.489  59.799  14.278  1.00  0.00    -0.204 F 
BRANCH  32  37
HETATM   37  O1  UNL     1     -19.437  58.825  12.756  1.00  0.00    -0.393 OA
ATOM     38  H1  UNL     1     -18.802  58.334  13.263  1.00  0.00     0.210 HD
ENDBRANCH  32  37
ENDBRANCH   9  31
TORSDOF 13
ENDMDL
