MODEL 1
REMARK VINA RESULT: -5.576094730      0.000      0.000
REMARK  3 active torsions:
REMARK  status: ('A' for Active; 'I' for Inactive)
REMARK    1  A    between atoms: C2_2  and  N1_4 
REMARK       I    between atoms: N1_4  and  C4_6 
REMARK       I    between atoms: C4_6  and  N3_10 
REMARK    2  A    between atoms: N3_10  and  N4_12 
REMARK    3  A    between atoms: C5_14  and  C6_15 
ROOT
HETATM    1  N1  UNL     1      43.310   9.683  -1.163  1.00  0.00    -0.221 N 
ATOM      2  H1  UNL     1      42.429   9.434  -0.713  1.00  0.00     0.178 HD
HETATM    3  C4  UNL     1      43.971  10.872  -0.799  1.00  0.00     0.686 C 
HETATM    4  N2  UNL     1      44.283  11.739  -1.693  1.00  0.00    -0.234 N 
ATOM      5  H21 UNL     1      44.762  12.600  -1.429  1.00  0.00     0.174 HD
ATOM      6  H22 UNL     1      44.037  11.531  -2.661  1.00  0.00     0.174 HD
HETATM    7  N3  UNL     1      44.318  11.164   0.558  1.00  0.00    -0.133 N 
ATOM      8  H3  UNL     1      44.694  10.439   1.169  1.00  0.00     0.205 HD
ENDROOT
BRANCH   7   9
HETATM    9  N4  UNL     1      44.130  12.455   1.022  1.00  0.00    -0.297 N 
HETATM   10  C5  UNL     1      45.091  13.140   1.525  1.00  0.00     0.123 C 
ATOM     11  H4  UNL     1      43.201  12.874   0.962  1.00  0.00     0.186 HD
BRANCH  10  12
HETATM   12  C6  UNL     1      44.860  14.524   2.014  1.00  0.00     0.036 A 
HETATM   13  C7  UNL     1      45.436  14.951   3.180  1.00  0.00     0.089 A 
HETATM   14 CL1  UNL     1      46.488  14.053   4.278  1.00  0.00    -0.075 Cl
HETATM   15  S1  UNL     1      44.895  16.558   3.319  1.00  0.00    -0.063 SA
HETATM   16  C8  UNL     1      43.955  16.650   1.902  1.00  0.00     0.101 A 
HETATM   17 CL2  UNL     1      43.021  18.028   1.284  1.00  0.00    -0.074 Cl
HETATM   18  C9  UNL     1      44.090  15.406   1.349  1.00  0.00     0.088 A 
HETATM   19  N5  UNL     1      43.407  15.120   0.101  1.00  0.00    -0.099 NA
ENDBRANCH  10  12
ENDBRANCH   7   9
BRANCH   1  20
HETATM   20  C2  UNL     1      43.876   8.810  -2.175  1.00  0.00     0.091 C 
HETATM   21  C1  UNL     1      42.936   7.687  -2.512  1.00  0.00     0.032 C 
HETATM   22  C3  UNL     1      45.208   8.300  -1.657  1.00  0.00     0.032 C 
ENDBRANCH   1  20
TORSDOF 3
ENDMDL
MODEL 2
REMARK VINA RESULT: -5.531942547      3.944      6.897
REMARK  3 active torsions:
REMARK  status: ('A' for Active; 'I' for Inactive)
REMARK    1  A    between atoms: C2_2  and  N1_4 
REMARK       I    between atoms: N1_4  and  C4_6 
REMARK       I    between atoms: C4_6  and  N3_10 
REMARK    2  A    between atoms: N3_10  and  N4_12 
REMARK    3  A    between atoms: C5_14  and  C6_15 
ROOT
HETATM    1  N1  UNL     1      46.239  16.093   3.312  1.00  0.00    -0.221 N 
ATOM      2  H1  UNL     1      47.110  15.745   2.910  1.00  0.00     0.178 HD
HETATM    3  C4  UNL     1      45.016  15.841   2.660  1.00  0.00     0.686 C 
HETATM    4  N2  UNL     1      44.236  16.813   2.351  1.00  0.00    -0.234 N 
ATOM      5  H21 UNL     1      43.350  16.630   1.879  1.00  0.00     0.174 HD
ATOM      6  H22 UNL     1      44.535  17.757   2.595  1.00  0.00     0.174 HD
HETATM    7  N3  UNL     1      44.596  14.518   2.319  1.00  0.00    -0.133 N 
ATOM      8  H3  UNL     1      44.729  13.743   2.969  1.00  0.00     0.205 HD
ENDROOT
BRANCH   7   9
HETATM    9  N4  UNL     1      44.004  14.313   1.084  1.00  0.00    -0.297 N 
HETATM   10  C5  UNL     1      44.459  13.449   0.251  1.00  0.00     0.123 C 
ATOM     11  H4  UNL     1      43.184  14.865   0.829  1.00  0.00     0.186 HD
BRANCH  10  12
HETATM   12  C6  UNL     1      43.802  13.250  -1.067  1.00  0.00     0.036 A 
HETATM   13  C7  UNL     1      43.636  11.990  -1.575  1.00  0.00     0.089 A 
HETATM   14 CL1  UNL     1      44.111  10.447  -0.860  1.00  0.00    -0.075 Cl
HETATM   15  S1  UNL     1      42.858  12.266  -3.062  1.00  0.00    -0.063 SA
HETATM   16  C8  UNL     1      42.763  13.966  -3.007  1.00  0.00     0.101 A 
HETATM   17 CL2  UNL     1      42.070  15.073  -4.210  1.00  0.00    -0.074 Cl
HETATM   18  C9  UNL     1      43.349  14.278  -1.811  1.00  0.00     0.088 A 
HETATM   19  N5  UNL     1      43.445  15.673  -1.425  1.00  0.00    -0.099 NA
ENDBRANCH  10  12
ENDBRANCH   7   9
BRANCH   1  20
HETATM   20  C2  UNL     1      46.268  16.846   4.552  1.00  0.00     0.091 C 
HETATM   21  C1  UNL     1      47.673  17.226   4.927  1.00  0.00     0.032 C 
HETATM   22  C3  UNL     1      45.603  16.002   5.624  1.00  0.00     0.032 C 
ENDBRANCH   1  20
TORSDOF 3
ENDMDL
MODEL 3
REMARK VINA RESULT: -5.338391528      3.553      4.083
REMARK  3 active torsions:
REMARK  status: ('A' for Active; 'I' for Inactive)
REMARK    1  A    between atoms: C2_2  and  N1_4 
REMARK       I    between atoms: N1_4  and  C4_6 
REMARK       I    between atoms: C4_6  and  N3_10 
REMARK    2  A    between atoms: N3_10  and  N4_12 
REMARK    3  A    between atoms: C5_14  and  C6_15 
ROOT
HETATM    1  N1  UNL     1      46.771   8.635   1.793  1.00  0.00    -0.221 N 
ATOM      2  H1  UNL     1      45.812   8.287   1.801  1.00  0.00     0.178 HD
HETATM    3  C4  UNL     1      47.022   9.993   1.515  1.00  0.00     0.686 C 
HETATM    4  N2  UNL     1      47.826  10.323   0.570  1.00  0.00    -0.234 N 
ATOM      5  H21 UNL     1      48.007  11.306   0.369  1.00  0.00     0.174 HD
ATOM      6  H22 UNL     1      48.267   9.571   0.040  1.00  0.00     0.174 HD
HETATM    7  N3  UNL     1      46.403  11.047   2.258  1.00  0.00    -0.133 N 
ATOM      8  H3  UNL     1      46.305  10.984   3.272  1.00  0.00     0.205 HD
ENDROOT
BRANCH   7   9
HETATM    9  N4  UNL     1      45.941  12.155   1.568  1.00  0.00    -0.297 N 
HETATM   10  C5  UNL     1      44.691  12.335   1.339  1.00  0.00     0.123 C 
ATOM     11  H4  UNL     1      46.611  12.847   1.233  1.00  0.00     0.186 HD
BRANCH  10  12
HETATM   12  C6  UNL     1      44.223  13.534   0.596  1.00  0.00     0.036 A 
HETATM   13  C7  UNL     1      43.898  13.444  -0.731  1.00  0.00     0.089 A 
HETATM   14 CL1  UNL     1      43.949  12.024  -1.779  1.00  0.00    -0.075 Cl
HETATM   15  S1  UNL     1      43.431  15.030  -1.129  1.00  0.00    -0.063 SA
HETATM   16  C8  UNL     1      43.657  15.768   0.389  1.00  0.00     0.101 A 
HETATM   17 CL2  UNL     1      43.388  17.463   0.844  1.00  0.00    -0.074 Cl
HETATM   18  C9  UNL     1      44.099  14.742   1.179  1.00  0.00     0.088 A 
HETATM   19  N5  UNL     1      44.400  15.014   2.572  1.00  0.00    -0.099 NA
ENDBRANCH  10  12
ENDBRANCH   7   9
BRANCH   1  20
HETATM   20  C2  UNL     1      47.870   7.727   2.067  1.00  0.00     0.091 C 
HETATM   21  C1  UNL     1      47.813   6.518   1.176  1.00  0.00     0.032 C 
HETATM   22  C3  UNL     1      47.808   7.354   3.537  1.00  0.00     0.032 C 
ENDBRANCH   1  20
TORSDOF 3
ENDMDL
MODEL 4
REMARK VINA RESULT: -5.242186823      2.775      3.464
REMARK  3 active torsions:
REMARK  status: ('A' for Active; 'I' for Inactive)
REMARK    1  A    between atoms: C2_2  and  N1_4 
REMARK       I    between atoms: N1_4  and  C4_6 
REMARK       I    between atoms: C4_6  and  N3_10 
REMARK    2  A    between atoms: N3_10  and  N4_12 
REMARK    3  A    between atoms: C5_14  and  C6_15 
ROOT
HETATM    1  N1  UNL     1      46.492   9.452   0.054  1.00  0.00    -0.221 N 
ATOM      2  H1  UNL     1      45.478   9.405  -0.043  1.00  0.00     0.178 HD
HETATM    3  C4  UNL     1      47.082  10.528   0.746  1.00  0.00     0.686 C 
HETATM    4  N2  UNL     1      47.984  11.245   0.179  1.00  0.00    -0.234 N 
ATOM      5  H21 UNL     1      48.411  12.024   0.680  1.00  0.00     0.174 HD
ATOM      6  H22 UNL     1      48.250  11.005  -0.776  1.00  0.00     0.174 HD
HETATM    7  N3  UNL     1      46.710  10.865   2.085  1.00  0.00    -0.133 N 
ATOM      8  H3  UNL     1      46.555  10.137   2.783  1.00  0.00     0.205 HD
ENDROOT
BRANCH   7   9
HETATM    9  N4  UNL     1      46.566  12.203   2.411  1.00  0.00    -0.297 N 
HETATM   10  C5  UNL     1      45.444  12.813   2.283  1.00  0.00     0.123 C 
ATOM     11  H4  UNL     1      47.374  12.718   2.762  1.00  0.00     0.186 HD
BRANCH  10  12
HETATM   12  C6  UNL     1      45.318  14.249   2.642  1.00  0.00     0.036 A 
HETATM   13  C7  UNL     1      44.572  15.094   1.865  1.00  0.00     0.089 A 
HETATM   14 CL1  UNL     1      43.666  14.721   0.396  1.00  0.00    -0.075 Cl
HETATM   15  S1  UNL     1      44.725  16.592   2.656  1.00  0.00    -0.063 SA
HETATM   16  C8  UNL     1      45.727  16.115   3.948  1.00  0.00     0.101 A 
HETATM   17 CL2  UNL     1      46.372  17.109   5.270  1.00  0.00    -0.074 Cl
HETATM   18  C9  UNL     1      45.919  14.779   3.724  1.00  0.00     0.088 A 
HETATM   19  N5  UNL     1      46.745  14.029   4.652  1.00  0.00    -0.099 NA
ENDBRANCH  10  12
ENDBRANCH   7   9
BRANCH   1  20
HETATM   20  C2  UNL     1      47.321   8.409  -0.523  1.00  0.00     0.091 C 
HETATM   21  C1  UNL     1      46.689   7.833  -1.759  1.00  0.00     0.032 C 
HETATM   22  C3  UNL     1      47.549   7.353   0.544  1.00  0.00     0.032 C 
ENDBRANCH   1  20
TORSDOF 3
ENDMDL
MODEL 5
REMARK VINA RESULT: -5.234200286      3.804      6.874
REMARK  3 active torsions:
REMARK  status: ('A' for Active; 'I' for Inactive)
REMARK    1  A    between atoms: C2_2  and  N1_4 
REMARK       I    between atoms: N1_4  and  C4_6 
REMARK       I    between atoms: C4_6  and  N3_10 
REMARK    2  A    between atoms: N3_10  and  N4_12 
REMARK    3  A    between atoms: C5_14  and  C6_15 
ROOT
HETATM    1  N1  UNL     1      45.922  15.783   3.160  1.00  0.00    -0.221 N 
ATOM      2  H1  UNL     1      46.787  15.861   2.625  1.00  0.00     0.178 HD
HETATM    3  C4  UNL     1      44.832  15.064   2.632  1.00  0.00     0.686 C 
HETATM    4  N2  UNL     1      43.681  15.623   2.523  1.00  0.00    -0.234 N 
ATOM      5  H21 UNL     1      42.892  15.102   2.140  1.00  0.00     0.174 HD
ATOM      6  H22 UNL     1      43.593  16.591   2.831  1.00  0.00     0.174 HD
HETATM    7  N3  UNL     1      44.955  13.707   2.200  1.00  0.00    -0.133 N 
ATOM      8  H3  UNL     1      45.496  13.033   2.742  1.00  0.00     0.205 HD
ENDROOT
BRANCH   7   9
HETATM    9  N4  UNL     1      44.323  13.330   1.027  1.00  0.00    -0.297 N 
HETATM   10  C5  UNL     1      44.706  12.308   0.351  1.00  0.00     0.123 C 
ATOM     11  H4  UNL     1      43.531  13.879   0.691  1.00  0.00     0.186 HD
BRANCH  10  12
HETATM   12  C6  UNL     1      44.008  11.927  -0.904  1.00  0.00     0.036 A 
HETATM   13  C7  UNL     1      43.766  10.610  -1.190  1.00  0.00     0.089 A 
HETATM   14 CL1  UNL     1      44.183   9.186  -0.232  1.00  0.00    -0.075 Cl
HETATM   15  S1  UNL     1      42.966  10.674  -2.689  1.00  0.00    -0.063 SA
HETATM   16  C8  UNL     1      42.956  12.361  -2.919  1.00  0.00     0.101 A 
HETATM   17 CL2  UNL     1      42.289  13.286  -4.280  1.00  0.00    -0.074 Cl
HETATM   18  C9  UNL     1      43.587  12.837  -1.803  1.00  0.00     0.088 A 
HETATM   19  N5  UNL     1      43.760  14.271  -1.659  1.00  0.00    -0.099 NA
ENDBRANCH  10  12
ENDBRANCH   7   9
BRANCH   1  20
HETATM   20  C2  UNL     1      45.822  16.414   4.464  1.00  0.00     0.091 C 
HETATM   21  C1  UNL     1      47.074  17.175   4.798  1.00  0.00     0.032 C 
HETATM   22  C3  UNL     1      45.527  15.329   5.484  1.00  0.00     0.032 C 
ENDBRANCH   1  20
TORSDOF 3
ENDMDL
