MODEL 1
REMARK VINA RESULT: -6.526404410      0.000      0.000
REMARK  5 active torsions:
REMARK  status: ('A' for Active; 'I' for Inactive)
REMARK    1  A    between atoms: O1_1  and  C1_3 
REMARK    2  A    between atoms: C1_3  and  C2_4 
REMARK    3  A    between atoms: C2_4  and  C3_5 
REMARK    4  A    between atoms: C3_5  and  N1_6 
REMARK    5  A    between atoms: N1_6  and  C4_8 
ROOT
HETATM    1  C4  UNL     1      44.340  15.380   1.871  1.00  0.00     0.680 A 
HETATM    2  N2  UNL     1      44.022  15.662   0.595  1.00  0.00    -0.181 N 
ATOM      3  H2  UNL     1      43.884  16.633   0.316  1.00  0.00     0.185 HD
HETATM    4  C5  UNL     1      43.880  14.679  -0.328  1.00  0.00     0.132 A 
HETATM    5  S1  UNL     1      43.495  15.051  -1.861  1.00  0.00    -0.059 SA
HETATM    6  C6  UNL     1      44.059  13.361   0.027  1.00  0.00     0.072 A 
HETATM    7  C7  UNL     1      44.001  12.145  -0.612  1.00  0.00     0.089 A 
HETATM    8 CL1  UNL     1      43.621  11.949  -2.301  1.00  0.00    -0.080 Cl
HETATM    9  C8  UNL     1      44.282  11.132   0.277  1.00  0.00     0.128 A 
HETATM   10 CL2  UNL     1      44.340   9.398  -0.026  1.00  0.00    -0.063 Cl
HETATM   11  N3  UNL     1      44.513  11.730   1.458  1.00  0.00    -0.330 N 
ATOM     12  H3  UNL     1      44.751  11.243   2.321  1.00  0.00     0.168 HD
HETATM   13  C9  UNL     1      44.386  13.074   1.336  1.00  0.00     0.137 A 
HETATM   14  N4  UNL     1      44.515  14.096   2.210  1.00  0.00    -0.176 N 
ATOM     15  H4  UNL     1      44.757  13.878   3.176  1.00  0.00     0.186 HD
ENDROOT
BRANCH   1  16
HETATM   16  N1  UNL     1      44.465  16.318   2.704  1.00  0.00    -0.226 N 
ATOM     17  H1  UNL     1      43.952  17.177   2.507  1.00  0.00     0.177 HD
BRANCH  16  18
HETATM   18  C3  UNL     1      45.254  16.301   3.896  1.00  0.00     0.140 C 
BRANCH  18  19
HETATM   19  C2  UNL     1      46.715  16.615   3.640  1.00  0.00     0.046 C 
BRANCH  19  20
HETATM   20  C1  UNL     1      47.327  17.017   4.972  1.00  0.00     0.165 C 
BRANCH  20  21
HETATM   21  O1  UNL     1      46.293  17.085   5.899  1.00  0.00    -0.401 OA
ATOM     22  H1  UNL     1      46.400  16.355   6.497  1.00  0.00     0.209 HD
ENDBRANCH  20  21
ENDBRANCH  19  20
ENDBRANCH  18  19
ENDBRANCH  16  18
ENDBRANCH   1  16
TORSDOF 5
ENDMDL
MODEL 2
REMARK VINA RESULT: -6.156936031      0.989      1.077
REMARK  5 active torsions:
REMARK  status: ('A' for Active; 'I' for Inactive)
REMARK    1  A    between atoms: O1_1  and  C1_3 
REMARK    2  A    between atoms: C1_3  and  C2_4 
REMARK    3  A    between atoms: C2_4  and  C3_5 
REMARK    4  A    between atoms: C3_5  and  N1_6 
REMARK    5  A    between atoms: N1_6  and  C4_8 
ROOT
HETATM    1  C4  UNL     1      44.014  14.852   1.514  1.00  0.00     0.680 A 
HETATM    2  N2  UNL     1      43.741  15.189   0.241  1.00  0.00    -0.181 N 
ATOM      3  H2  UNL     1      43.561  16.166   0.010  1.00  0.00     0.185 HD
HETATM    4  C5  UNL     1      43.700  14.255  -0.740  1.00  0.00     0.132 A 
HETATM    5  S1  UNL     1      43.368  14.692  -2.269  1.00  0.00    -0.059 SA
HETATM    6  C6  UNL     1      43.939  12.931  -0.450  1.00  0.00     0.072 A 
HETATM    7  C7  UNL     1      43.982  11.752  -1.156  1.00  0.00     0.089 A 
HETATM    8 CL1  UNL     1      43.695  11.633  -2.871  1.00  0.00    -0.080 Cl
HETATM    9  C8  UNL     1      44.280  10.706  -0.311  1.00  0.00     0.128 A 
HETATM   10 CL2  UNL     1      44.453   8.999  -0.705  1.00  0.00    -0.063 Cl
HETATM   11  N3  UNL     1      44.419  11.247   0.910  1.00  0.00    -0.330 N 
ATOM     12  H3  UNL     1      44.643  10.725   1.757  1.00  0.00     0.168 HD
HETATM   13  C9  UNL     1      44.219  12.587   0.856  1.00  0.00     0.137 A 
HETATM   14  N4  UNL     1      44.247  13.562   1.790  1.00  0.00    -0.176 N 
ATOM     15  H4  UNL     1      44.455  13.303   2.755  1.00  0.00     0.186 HD
ENDROOT
BRANCH   1  16
HETATM   16  N1  UNL     1      44.044  15.746   2.403  1.00  0.00    -0.226 N 
ATOM     17  H1  UNL     1      43.227  15.818   3.010  1.00  0.00     0.177 HD
BRANCH  16  18
HETATM   18  C3  UNL     1      45.107  16.670   2.647  1.00  0.00     0.140 C 
BRANCH  18  19
HETATM   19  C2  UNL     1      46.083  16.179   3.699  1.00  0.00     0.046 C 
BRANCH  19  20
HETATM   20  C1  UNL     1      45.261  15.717   4.892  1.00  0.00     0.165 C 
BRANCH  20  21
HETATM   21  O1  UNL     1      44.229  16.632   5.062  1.00  0.00    -0.401 OA
ATOM     22  H1  UNL     1      43.520  16.180   5.503  1.00  0.00     0.209 HD
ENDBRANCH  20  21
ENDBRANCH  19  20
ENDBRANCH  18  19
ENDBRANCH  16  18
ENDBRANCH   1  16
TORSDOF 5
ENDMDL
MODEL 3
REMARK VINA RESULT: -6.148724610      1.623      2.635
REMARK  5 active torsions:
REMARK  status: ('A' for Active; 'I' for Inactive)
REMARK    1  A    between atoms: O1_1  and  C1_3 
REMARK    2  A    between atoms: C1_3  and  C2_4 
REMARK    3  A    between atoms: C2_4  and  C3_5 
REMARK    4  A    between atoms: C3_5  and  N1_6 
REMARK    5  A    between atoms: N1_6  and  C4_8 
ROOT
HETATM    1  C4  UNL     1      44.316  15.450   1.948  1.00  0.00     0.680 A 
HETATM    2  N2  UNL     1      44.656  14.167   2.167  1.00  0.00    -0.181 N 
ATOM      3  H2  UNL     1      45.013  13.893   3.082  1.00  0.00     0.185 HD
HETATM    4  C5  UNL     1      44.536  13.232   1.193  1.00  0.00     0.132 A 
HETATM    5  S1  UNL     1      44.955  11.690   1.487  1.00  0.00    -0.059 SA
HETATM    6  C6  UNL     1      44.059  13.580  -0.050  1.00  0.00     0.072 A 
HETATM    7  C7  UNL     1      43.810  12.930  -1.236  1.00  0.00     0.089 A 
HETATM    8 CL1  UNL     1      44.086  11.228  -1.489  1.00  0.00    -0.080 Cl
HETATM    9  C8  UNL     1      43.321  13.818  -2.167  1.00  0.00     0.128 A 
HETATM   10 CL2  UNL     1      42.845  13.501  -3.833  1.00  0.00    -0.063 Cl
HETATM   11  N3  UNL     1      43.271  15.010  -1.550  1.00  0.00    -0.330 N 
ATOM     12  H3  UNL     1      42.949  15.876  -1.981  1.00  0.00     0.168 HD
HETATM   13  C9  UNL     1      43.710  14.896  -0.273  1.00  0.00     0.137 A 
HETATM   14  N4  UNL     1      43.851  15.782   0.737  1.00  0.00    -0.176 N 
ATOM     15  H4  UNL     1      43.591  16.754   0.567  1.00  0.00     0.186 HD
ENDROOT
BRANCH   1  16
HETATM   16  N1  UNL     1      44.440  16.295   2.876  1.00  0.00    -0.226 N 
ATOM     17  H1  UNL     1      43.848  17.124   2.823  1.00  0.00     0.177 HD
BRANCH  16  18
HETATM   18  C3  UNL     1      45.325  16.208   3.995  1.00  0.00     0.140 C 
BRANCH  18  19
HETATM   19  C2  UNL     1      46.727  16.688   3.673  1.00  0.00     0.046 C 
BRANCH  19  20
HETATM   20  C1  UNL     1      47.385  17.065   4.991  1.00  0.00     0.165 C 
BRANCH  20  21
HETATM   21  O1  UNL     1      46.386  17.094   5.958  1.00  0.00    -0.401 OA
ATOM     22  H1  UNL     1      46.293  16.210   6.295  1.00  0.00     0.209 HD
ENDBRANCH  20  21
ENDBRANCH  19  20
ENDBRANCH  18  19
ENDBRANCH  16  18
ENDBRANCH   1  16
TORSDOF 5
ENDMDL
MODEL 4
REMARK VINA RESULT: -6.008796113      1.834      2.098
REMARK  5 active torsions:
REMARK  status: ('A' for Active; 'I' for Inactive)
REMARK    1  A    between atoms: O1_1  and  C1_3 
REMARK    2  A    between atoms: C1_3  and  C2_4 
REMARK    3  A    between atoms: C2_4  and  C3_5 
REMARK    4  A    between atoms: C3_5  and  N1_6 
REMARK    5  A    between atoms: N1_6  and  C4_8 
ROOT
HETATM    1  C4  UNL     1      46.121  13.821   3.325  1.00  0.00     0.680 A 
HETATM    2  N2  UNL     1      45.280  14.392   2.443  1.00  0.00    -0.181 N 
ATOM      3  H2  UNL     1      44.981  15.356   2.588  1.00  0.00     0.185 HD
HETATM    4  C5  UNL     1      44.823  13.709   1.365  1.00  0.00     0.132 A 
HETATM    5  S1  UNL     1      43.809  14.424   0.317  1.00  0.00    -0.059 SA
HETATM    6  C6  UNL     1      45.212  12.406   1.151  1.00  0.00     0.072 A 
HETATM    7  C7  UNL     1      44.964  11.438   0.206  1.00  0.00     0.089 A 
HETATM    8 CL1  UNL     1      43.924  11.668  -1.172  1.00  0.00    -0.080 Cl
HETATM    9  C8  UNL     1      45.653  10.287   0.518  1.00  0.00     0.128 A 
HETATM   10 CL2  UNL     1      45.681   8.760  -0.359  1.00  0.00    -0.063 Cl
HETATM   11  N3  UNL     1      46.321  10.553   1.652  1.00  0.00    -0.330 N 
ATOM     12  H3  UNL     1      46.928   9.894   2.139  1.00  0.00     0.168 HD
HETATM   13  C9  UNL     1      46.075  11.823   2.056  1.00  0.00     0.137 A 
HETATM   14  N4  UNL     1      46.497  12.554   3.110  1.00  0.00    -0.176 N 
ATOM     15  H4  UNL     1      47.135  12.119   3.777  1.00  0.00     0.186 HD
ENDROOT
BRANCH   1  16
HETATM   16  N1  UNL     1      46.528  14.486   4.317  1.00  0.00    -0.226 N 
ATOM     17  H1  UNL     1      47.517  14.402   4.550  1.00  0.00     0.177 HD
BRANCH  16  18
HETATM   18  C3  UNL     1      45.743  15.343   5.148  1.00  0.00     0.140 C 
BRANCH  18  19
HETATM   19  C2  UNL     1      46.345  16.727   5.300  1.00  0.00     0.046 C 
BRANCH  19  20
HETATM   20  C1  UNL     1      47.690  16.710   4.592  1.00  0.00     0.165 C 
BRANCH  20  21
HETATM   21  O1  UNL     1      48.540  17.554   5.299  1.00  0.00    -0.401 OA
ATOM     22  H1  UNL     1      48.442  17.345   6.220  1.00  0.00     0.209 HD
ENDBRANCH  20  21
ENDBRANCH  19  20
ENDBRANCH  18  19
ENDBRANCH  16  18
ENDBRANCH   1  16
TORSDOF 5
ENDMDL
MODEL 5
REMARK VINA RESULT: -5.948400077      2.440      3.150
REMARK  5 active torsions:
REMARK  status: ('A' for Active; 'I' for Inactive)
REMARK    1  A    between atoms: O1_1  and  C1_3 
REMARK    2  A    between atoms: C1_3  and  C2_4 
REMARK    3  A    between atoms: C2_4  and  C3_5 
REMARK    4  A    between atoms: C3_5  and  N1_6 
REMARK    5  A    between atoms: N1_6  and  C4_8 
ROOT
HETATM    1  C4  UNL     1      46.004  13.023   2.710  1.00  0.00     0.680 A 
HETATM    2  N2  UNL     1      46.576  11.814   2.568  1.00  0.00    -0.181 N 
ATOM      3  H2  UNL     1      47.264  11.502   3.254  1.00  0.00     0.185 HD
HETATM    4  C5  UNL     1      46.257  11.003   1.530  1.00  0.00     0.132 A 
HETATM    5  S1  UNL     1      46.965   9.549   1.385  1.00  0.00    -0.059 SA
HETATM    6  C6  UNL     1      45.333  11.405   0.592  1.00  0.00     0.072 A 
HETATM    7  C7  UNL     1      44.780  10.873  -0.549  1.00  0.00     0.089 A 
HETATM    8 CL1  UNL     1      45.187   9.303  -1.186  1.00  0.00    -0.080 Cl
HETATM    9  C8  UNL     1      43.878  11.758  -1.094  1.00  0.00     0.128 A 
HETATM   10 CL2  UNL     1      42.901  11.567  -2.547  1.00  0.00    -0.063 Cl
HETATM   11  N3  UNL     1      43.879  12.831  -0.285  1.00  0.00    -0.330 N 
ATOM     12  H3  UNL     1      43.309  13.665  -0.422  1.00  0.00     0.168 HD
HETATM   13  C9  UNL     1      44.747  12.645   0.740  1.00  0.00     0.137 A 
HETATM   14  N4  UNL     1      45.105  13.408   1.795  1.00  0.00    -0.176 N 
ATOM     15  H4  UNL     1      44.668  14.324   1.900  1.00  0.00     0.186 HD
ENDROOT
BRANCH   1  16
HETATM   16  N1  UNL     1      46.323  13.753   3.688  1.00  0.00    -0.226 N 
ATOM     17  H1  UNL     1      46.791  13.293   4.469  1.00  0.00     0.177 HD
BRANCH  16  18
HETATM   18  C3  UNL     1      46.096  15.158   3.813  1.00  0.00     0.140 C 
BRANCH  18  19
HETATM   19  C2  UNL     1      47.355  15.930   4.158  1.00  0.00     0.046 C 
BRANCH  19  20
HETATM   20  C1  UNL     1      46.944  17.077   5.066  1.00  0.00     0.165 C 
BRANCH  20  21
HETATM   21  O1  UNL     1      48.091  17.806   5.357  1.00  0.00    -0.401 OA
ATOM     22  H1  UNL     1      48.164  17.853   6.303  1.00  0.00     0.209 HD
ENDBRANCH  20  21
ENDBRANCH  19  20
ENDBRANCH  18  19
ENDBRANCH  16  18
ENDBRANCH   1  16
TORSDOF 5
ENDMDL
