MODEL 1
REMARK VINA RESULT: -5.694440096      0.000      0.000
REMARK  3 active torsions:
REMARK  status: ('A' for Active; 'I' for Inactive)
REMARK    1  A    between atoms: C3_3  and  N1_4 
REMARK    2  A    between atoms: C6_7  and  N2_8 
REMARK       I    between atoms: N2_8  and  C7_10 
REMARK       I    between atoms: C7_10  and  N4_14 
REMARK       I    between atoms: N4_14  and  C8_16 
REMARK    3  A    between atoms: C13_22  and  C14_23 
ROOT
HETATM    1  C1  UNL     1      43.310  26.433  47.024  1.00  0.00     0.013 C 
HETATM    2  C2  UNL     1      43.355  26.759  48.193  1.00  0.00    -0.089 C 
HETATM    3  C3  UNL     1      43.418  27.178  49.606  1.00  0.00     0.330 C 
ENDROOT
BRANCH   3   4
HETATM    4  N1  UNL     1      43.617  26.051  50.453  1.00  0.00    -0.053 N 
HETATM    5  C4  UNL     1      44.865  25.354  50.156  1.00  0.00     0.241 C 
HETATM    6  C5  UNL     1      45.178  24.417  51.307  1.00  0.00     0.064 C 
HETATM    7  C6  UNL     1      43.854  24.041  52.017  1.00  0.00     0.075 C 
HETATM    8  C10 UNL     1      42.860  23.729  50.859  1.00  0.00     0.064 C 
HETATM    9  C12 UNL     1      43.306  25.243  52.624  1.00  0.00    -0.029 C 
HETATM   10  C11 UNL     1      42.567  25.088  50.245  1.00  0.00     0.241 C 
HETATM   11  C13 UNL     1      42.543  25.427  53.658  1.00  0.00    -0.020 C 
HETATM   12  C16 UNL     1      43.680  26.509  51.838  1.00  0.00     0.275 C 
BRANCH   7  13
HETATM   13  N2  UNL     1      44.055  22.876  52.793  1.00  0.00    -0.213 N 
HETATM   14  C7  UNL     1      45.053  22.657  53.768  1.00  0.00     0.675 C 
HETATM   15  N3  UNL     1      45.459  23.622  54.494  1.00  0.00    -0.235 N 
HETATM   16  N4  UNL     1      45.630  21.383  53.969  1.00  0.00    -0.161 N 
ATOM     17  H32 UNL     1      45.043  24.541  54.349  1.00  0.00     0.174 HD
ATOM     18  H31 UNL     1      46.179  23.464  55.199  1.00  0.00     0.174 HD
HETATM   19  C8  UNL     1      45.356  20.194  53.296  1.00  0.00     0.231 C 
ATOM     20  H4  UNL     1      46.337  21.326  54.701  1.00  0.00     0.187 HD
HETATM   21  C9  UNL     1      46.096  18.948  53.684  1.00  0.00     0.118 C 
HETATM   22  O1  UNL     1      44.533  20.043  52.370  1.00  0.00    -0.273 OA
ATOM     23  H2  UNL     1      43.407  22.106  52.629  1.00  0.00     0.178 HD
ENDBRANCH   7  13
BRANCH  11  24
HETATM   24  C14 UNL     1      41.970  24.415  54.579  1.00  0.00     0.023 C 
HETATM   25  C15 UNL     1      40.591  24.851  55.095  1.00  0.00     0.009 C 
ENDBRANCH  11  24
ENDBRANCH   3   4
TORSDOF 3
ENDMDL
MODEL 2
REMARK VINA RESULT: -5.556470710      7.832     10.555
REMARK  3 active torsions:
REMARK  status: ('A' for Active; 'I' for Inactive)
REMARK    1  A    between atoms: C3_3  and  N1_4 
REMARK    2  A    between atoms: C6_7  and  N2_8 
REMARK       I    between atoms: N2_8  and  C7_10 
REMARK       I    between atoms: C7_10  and  N4_14 
REMARK       I    between atoms: N4_14  and  C8_16 
REMARK    3  A    between atoms: C13_22  and  C14_23 
ROOT
HETATM    1  C1  UNL     1      52.658  24.176  41.940  1.00  0.00     0.013 C 
HETATM    2  C2  UNL     1      52.309  25.193  42.505  1.00  0.00    -0.089 C 
HETATM    3  C3  UNL     1      51.907  26.429  43.203  1.00  0.00     0.330 C 
ENDROOT
BRANCH   3   4
HETATM    4  N1  UNL     1      50.499  26.452  43.410  1.00  0.00    -0.053 N 
HETATM    5  C4  UNL     1      49.761  26.092  42.203  1.00  0.00     0.241 C 
HETATM    6  C5  UNL     1      48.327  25.787  42.589  1.00  0.00     0.064 C 
HETATM    7  C6  UNL     1      47.990  26.550  43.895  1.00  0.00     0.075 C 
HETATM    8  C10 UNL     1      48.569  27.980  43.676  1.00  0.00     0.064 C 
HETATM    9  C12 UNL     1      48.812  26.007  44.964  1.00  0.00    -0.029 C 
HETATM   10  C11 UNL     1      50.074  27.785  43.750  1.00  0.00     0.241 C 
HETATM   11  C13 UNL     1      48.632  25.929  46.247  1.00  0.00    -0.020 C 
HETATM   12  C16 UNL     1      50.160  25.483  44.447  1.00  0.00     0.275 C 
BRANCH   7  13
HETATM   13  N2  UNL     1      46.585  26.627  44.040  1.00  0.00    -0.213 N 
HETATM   14  C7  UNL     1      45.663  25.557  44.040  1.00  0.00     0.675 C 
HETATM   15  N3  UNL     1      45.994  24.429  44.531  1.00  0.00    -0.235 N 
HETATM   16  N4  UNL     1      44.364  25.695  43.501  1.00  0.00    -0.161 N 
ATOM     17  H32 UNL     1      46.931  24.329  44.919  1.00  0.00     0.174 HD
ATOM     18  H31 UNL     1      45.328  23.656  44.531  1.00  0.00     0.174 HD
HETATM   19  C8  UNL     1      43.788  26.817  42.908  1.00  0.00     0.231 C 
ATOM     20  H4  UNL     1      43.771  24.867  43.554  1.00  0.00     0.187 HD
HETATM   21  C9  UNL     1      42.378  26.734  42.405  1.00  0.00     0.118 C 
HETATM   22  O1  UNL     1      44.337  27.926  42.741  1.00  0.00    -0.273 OA
ATOM     23  H2  UNL     1      46.193  27.561  44.158  1.00  0.00     0.178 HD
ENDBRANCH   7  13
BRANCH  11  24
HETATM   24  C14 UNL     1      47.474  26.394  47.050  1.00  0.00     0.023 C 
HETATM   25  C15 UNL     1      47.873  27.544  47.987  1.00  0.00     0.009 C 
ENDBRANCH  11  24
ENDBRANCH   3   4
TORSDOF 3
ENDMDL
MODEL 3
REMARK VINA RESULT: -5.512117412      9.235     11.518
REMARK  3 active torsions:
REMARK  status: ('A' for Active; 'I' for Inactive)
REMARK    1  A    between atoms: C3_3  and  N1_4 
REMARK    2  A    between atoms: C6_7  and  N2_8 
REMARK       I    between atoms: N2_8  and  C7_10 
REMARK       I    between atoms: C7_10  and  N4_14 
REMARK       I    between atoms: N4_14  and  C8_16 
REMARK    3  A    between atoms: C13_22  and  C14_23 
ROOT
HETATM    1  C1  UNL     1      52.296  22.748  40.888  1.00  0.00     0.013 C 
HETATM    2  C2  UNL     1      52.265  23.732  41.600  1.00  0.00    -0.089 C 
HETATM    3  C3  UNL     1      52.250  24.920  42.476  1.00  0.00     0.330 C 
ENDROOT
BRANCH   3   4
HETATM    4  N1  UNL     1      50.913  25.325  42.746  1.00  0.00    -0.053 N 
HETATM    5  C4  UNL     1      49.980  24.202  42.707  1.00  0.00     0.241 C 
HETATM    6  C5  UNL     1      48.677  24.637  43.350  1.00  0.00     0.064 C 
HETATM    7  C6  UNL     1      48.548  26.175  43.223  1.00  0.00     0.075 C 
HETATM    8  C10 UNL     1      48.964  26.486  41.754  1.00  0.00     0.064 C 
HETATM    9  C12 UNL     1      49.603  26.787  44.014  1.00  0.00    -0.029 C 
HETATM   10  C11 UNL     1      50.464  26.247  41.735  1.00  0.00     0.241 C 
HETATM   11  C13 UNL     1      49.686  27.933  44.618  1.00  0.00    -0.020 C 
HETATM   12  C16 UNL     1      50.858  25.904  44.085  1.00  0.00     0.275 C 
BRANCH   7  13
HETATM   13  N2  UNL     1      47.198  26.548  43.420  1.00  0.00    -0.213 N 
HETATM   14  C7  UNL     1      46.136  25.725  43.856  1.00  0.00     0.675 C 
HETATM   15  N3  UNL     1      46.355  24.789  44.693  1.00  0.00    -0.235 N 
HETATM   16  N4  UNL     1      44.815  25.903  43.387  1.00  0.00    -0.161 N 
ATOM     17  H32 UNL     1      47.308  24.660  45.031  1.00  0.00     0.174 HD
ATOM     18  H31 UNL     1      45.589  24.194  45.008  1.00  0.00     0.174 HD
HETATM   19  C8  UNL     1      44.342  26.842  42.472  1.00  0.00     0.231 C 
ATOM     20  H4  UNL     1      44.119  25.262  43.766  1.00  0.00     0.187 HD
HETATM   21  C9  UNL     1      42.884  26.849  42.121  1.00  0.00     0.118 C 
HETATM   22  O1  UNL     1      45.022  27.712  41.890  1.00  0.00    -0.273 OA
ATOM     23  H2  UNL     1      46.964  27.521  43.225  1.00  0.00     0.178 HD
ENDBRANCH   7  13
BRANCH  11  24
HETATM   24  C14 UNL     1      48.678  29.020  44.686  1.00  0.00     0.023 C 
HETATM   25  C15 UNL     1      48.745  29.919  43.442  1.00  0.00     0.009 C 
ENDBRANCH  11  24
ENDBRANCH   3   4
TORSDOF 3
ENDMDL
MODEL 4
REMARK VINA RESULT: -5.497989752      8.855     11.553
REMARK  3 active torsions:
REMARK  status: ('A' for Active; 'I' for Inactive)
REMARK    1  A    between atoms: C3_3  and  N1_4 
REMARK    2  A    between atoms: C6_7  and  N2_8 
REMARK       I    between atoms: N2_8  and  C7_10 
REMARK       I    between atoms: C7_10  and  N4_14 
REMARK       I    between atoms: N4_14  and  C8_16 
REMARK    3  A    between atoms: C13_22  and  C14_23 
ROOT
HETATM    1  C1  UNL     1      53.040  21.886  40.390  1.00  0.00     0.013 C 
HETATM    2  C2  UNL     1      53.002  23.070  40.659  1.00  0.00    -0.089 C 
HETATM    3  C3  UNL     1      52.980  24.509  40.985  1.00  0.00     0.330 C 
ENDROOT
BRANCH   3   4
HETATM    4  N1  UNL     1      51.865  24.818  41.813  1.00  0.00    -0.053 N 
HETATM    5  C4  UNL     1      50.987  23.667  42.004  1.00  0.00     0.241 C 
HETATM    6  C5  UNL     1      50.052  23.961  43.161  1.00  0.00     0.064 C 
HETATM    7  C6  UNL     1      49.893  25.497  43.294  1.00  0.00     0.075 C 
HETATM    8  C10 UNL     1      49.689  26.000  41.834  1.00  0.00     0.064 C 
HETATM    9  C12 UNL     1      51.180  26.056  43.673  1.00  0.00    -0.029 C 
HETATM   10  C11 UNL     1      51.056  25.833  41.190  1.00  0.00     0.241 C 
HETATM   11  C13 UNL     1      51.505  27.124  44.336  1.00  0.00    -0.020 C 
HETATM   12  C16 UNL     1      52.353  25.229  43.125  1.00  0.00     0.275 C 
BRANCH   7  13
HETATM   13  N2  UNL     1      48.736  25.781  44.057  1.00  0.00    -0.213 N 
HETATM   14  C7  UNL     1      48.355  25.199  45.285  1.00  0.00     0.675 C 
HETATM   15  N3  UNL     1      49.243  24.853  46.132  1.00  0.00    -0.235 N 
HETATM   16  N4  UNL     1      46.999  24.978  45.615  1.00  0.00    -0.161 N 
ATOM     17  H32 UNL     1      50.221  25.012  45.894  1.00  0.00     0.174 HD
ATOM     18  H31 UNL     1      48.968  24.433  47.019  1.00  0.00     0.174 HD
HETATM   19  C8  UNL     1      45.867  25.261  44.853  1.00  0.00     0.231 C 
ATOM     20  H4  UNL     1      46.826  24.558  46.527  1.00  0.00     0.187 HD
HETATM   21  C9  UNL     1      44.512  24.941  45.411  1.00  0.00     0.118 C 
HETATM   22  O1  UNL     1      45.853  25.770  43.713  1.00  0.00    -0.273 OA
ATOM     23  H2  UNL     1      48.106  26.486  43.676  1.00  0.00     0.178 HD
ENDBRANCH   7  13
BRANCH  11  24
HETATM   24  C14 UNL     1      50.616  28.148  44.937  1.00  0.00     0.023 C 
HETATM   25  C15 UNL     1      50.169  29.180  43.890  1.00  0.00     0.009 C 
ENDBRANCH  11  24
ENDBRANCH   3   4
TORSDOF 3
ENDMDL
MODEL 5
REMARK VINA RESULT: -5.494949679      2.004      3.492
REMARK  3 active torsions:
REMARK  status: ('A' for Active; 'I' for Inactive)
REMARK    1  A    between atoms: C3_3  and  N1_4 
REMARK    2  A    between atoms: C6_7  and  N2_8 
REMARK       I    between atoms: N2_8  and  C7_10 
REMARK       I    between atoms: C7_10  and  N4_14 
REMARK       I    between atoms: N4_14  and  C8_16 
REMARK    3  A    between atoms: C13_22  and  C14_23 
ROOT
HETATM    1  C1  UNL     1      39.853  26.523  52.033  1.00  0.00     0.013 C 
HETATM    2  C2  UNL     1      41.058  26.625  51.920  1.00  0.00    -0.089 C 
HETATM    3  C3  UNL     1      42.519  26.769  51.769  1.00  0.00     0.330 C 
ENDROOT
BRANCH   3   4
HETATM    4  N1  UNL     1      43.155  25.497  51.810  1.00  0.00    -0.053 N 
HETATM    5  C4  UNL     1      42.654  24.599  50.773  1.00  0.00     0.241 C 
HETATM    6  C5  UNL     1      43.611  23.429  50.648  1.00  0.00     0.064 C 
HETATM    7  C6  UNL     1      44.350  23.244  51.996  1.00  0.00     0.075 C 
HETATM    8  C10 UNL     1      43.237  23.372  53.078  1.00  0.00     0.064 C 
HETATM    9  C12 UNL     1      45.184  24.413  52.222  1.00  0.00    -0.029 C 
HETATM   10  C11 UNL     1      42.875  24.848  53.064  1.00  0.00     0.241 C 
HETATM   11  C13 UNL     1      46.289  24.581  52.881  1.00  0.00    -0.020 C 
HETATM   12  C16 UNL     1      44.586  25.679  51.590  1.00  0.00     0.275 C 
BRANCH   7  13
HETATM   13  N2  UNL     1      44.910  21.945  52.046  1.00  0.00    -0.213 N 
HETATM   14  C7  UNL     1      44.418  20.775  51.428  1.00  0.00     0.675 C 
HETATM   15  N3  UNL     1      43.830  20.847  50.300  1.00  0.00    -0.235 N 
HETATM   16  N4  UNL     1      44.554  19.503  52.029  1.00  0.00    -0.161 N 
ATOM     17  H32 UNL     1      43.731  21.765  49.867  1.00  0.00     0.174 HD
ATOM     18  H31 UNL     1      43.474  20.003  49.853  1.00  0.00     0.174 HD
HETATM   19  C8  UNL     1      45.143  19.182  53.250  1.00  0.00     0.231 C 
ATOM     20  H4  UNL     1      44.171  18.720  51.501  1.00  0.00     0.187 HD
HETATM   21  C9  UNL     1      45.177  17.748  53.690  1.00  0.00     0.118 C 
HETATM   22  O1  UNL     1      45.667  19.985  54.050  1.00  0.00    -0.273 OA
ATOM     23  H2  UNL     1      45.766  21.843  52.591  1.00  0.00     0.178 HD
ENDBRANCH   7  13
BRANCH  11  24
HETATM   24  C14 UNL     1      47.076  23.579  53.643  1.00  0.00     0.023 C 
HETATM   25  C15 UNL     1      48.455  24.132  54.030  1.00  0.00     0.009 C 
ENDBRANCH  11  24
ENDBRANCH   3   4
TORSDOF 3
ENDMDL
