MODEL 1
REMARK VINA RESULT: -6.328477605      0.000      0.000
REMARK  1 active torsions:
REMARK  status: ('A' for Active; 'I' for Inactive)
REMARK    1  A    between atoms: C3_3  and  N1_4 
ROOT
HETATM    1  C1  UNL     1       8.401 -18.105   4.034  1.00  0.00     0.014 C 
HETATM    2  C2  UNL     1       9.216 -18.845   3.521  1.00  0.00    -0.098 C 
HETATM    3  C3  UNL     1      10.199 -19.721   2.922  1.00  0.00     0.216 C 
ENDROOT
BRANCH   3   4
HETATM    4  N1  UNL     1       9.944 -19.878   1.522  1.00  0.00    -0.360 N 
HETATM    5  C4  UNL     1      10.406 -18.867   0.658  1.00  0.00     0.061 C 
HETATM    6  C5  UNL     1      11.391 -17.893   1.192  1.00  0.00     0.046 C 
HETATM    7  C6  UNL     1      12.471 -17.580   0.141  1.00  0.00     0.032 C 
HETATM    8  C7  UNL     1      11.827 -17.254  -1.189  1.00  0.00     0.232 C 
HETATM    9  N2  UNL     1      12.352 -18.166  -2.167  1.00  0.00    -0.074 N 
HETATM   10  C8  UNL     1      12.507 -17.564  -3.472  1.00  0.00     0.259 C 
ATOM     11  H22 UNL     1      13.230 -18.577  -1.849  1.00  0.00     0.277 HD
ATOM     12  H21 UNL     1      11.783 -19.011  -2.221  1.00  0.00     0.277 HD
HETATM   13  C9  UNL     1      12.012 -18.533  -4.550  1.00  0.00     0.259 C 
HETATM   14  N3  UNL     1      12.881 -19.662  -4.689  1.00  0.00    -0.072 N 
HETATM   15  C10 UNL     1      12.544 -20.779  -3.849  1.00  0.00     0.258 C 
ATOM     16  H32 UNL     1      12.932 -19.954  -5.665  1.00  0.00     0.277 HD
ATOM     17  H31 UNL     1      13.852 -19.384  -4.540  1.00  0.00     0.277 HD
HETATM   18  C11 UNL     1      11.095 -21.176  -3.928  1.00  0.00     0.195 C 
HETATM   19  O1  UNL     1      10.962 -22.459  -3.358  1.00  0.00    -0.388 OA
HETATM   20  C12 UNL     1       9.918 -22.469  -2.428  1.00  0.00     0.195 C 
HETATM   21  C13 UNL     1      10.418 -22.348  -1.017  1.00  0.00     0.260 C 
HETATM   22  N4  UNL     1       9.542 -21.525  -0.183  1.00  0.00    -0.057 N 
HETATM   23  C14 UNL     1      10.195 -21.227   1.059  1.00  0.00     0.357 C 
ATOM     24  H42 UNL     1       9.232 -20.682  -0.667  1.00  0.00     0.279 HD
ATOM     25  H41 UNL     1       8.629 -21.958  -0.042  1.00  0.00     0.279 HD
ENDBRANCH   3   4
TORSDOF 1
ENDMDL
MODEL 2
REMARK VINA RESULT: -6.325807644      3.374      5.930
REMARK  1 active torsions:
REMARK  status: ('A' for Active; 'I' for Inactive)
REMARK    1  A    between atoms: C3_3  and  N1_4 
ROOT
HETATM    1  C1  UNL     1      11.391 -19.285   0.062  1.00  0.00     0.014 C 
HETATM    2  C2  UNL     1      11.186 -20.283  -0.599  1.00  0.00    -0.098 C 
HETATM    3  C3  UNL     1      10.943 -21.483  -1.371  1.00  0.00     0.216 C 
ENDROOT
BRANCH   3   4
HETATM    4  N1  UNL     1      11.417 -21.320  -2.712  1.00  0.00    -0.360 N 
HETATM    5  C4  UNL     1      10.780 -22.065  -3.723  1.00  0.00     0.061 C 
HETATM    6  C5  UNL     1       9.478 -22.702  -3.401  1.00  0.00     0.046 C 
HETATM    7  C6  UNL     1       8.503 -22.575  -4.585  1.00  0.00     0.032 C 
HETATM    8  C7  UNL     1       9.181 -22.999  -5.869  1.00  0.00     0.232 C 
HETATM    9  N2  UNL     1       9.102 -21.900  -6.792  1.00  0.00    -0.074 N 
HETATM   10  C8  UNL     1       8.940 -22.328  -8.164  1.00  0.00     0.259 C 
ATOM     11  H22 UNL     1       8.363 -21.250  -6.524  1.00  0.00     0.277 HD
ATOM     12  H21 UNL     1       9.909 -21.284  -6.695  1.00  0.00     0.277 HD
HETATM   13  C9  UNL     1       9.851 -21.499  -9.074  1.00  0.00     0.259 C 
HETATM   14  N3  UNL     1       9.406 -20.143  -9.179  1.00  0.00    -0.072 N 
HETATM   15  C10 UNL     1       9.962 -19.257  -8.193  1.00  0.00     0.258 C 
ATOM     16  H32 UNL     1       9.579 -19.783 -10.118  1.00  0.00     0.277 HD
ATOM     17  H31 UNL     1       8.386 -20.101  -9.161  1.00  0.00     0.277 HD
HETATM   18  C11 UNL     1      11.460 -19.346  -8.080  1.00  0.00     0.195 C 
HETATM   19  O1  UNL     1      11.911 -18.218  -7.364  1.00  0.00    -0.388 OA
HETATM   20  C12 UNL     1      12.773 -18.610  -6.336  1.00  0.00     0.195 C 
HETATM   21  C13 UNL     1      12.079 -18.660  -5.005  1.00  0.00     0.260 C 
HETATM   22  N4  UNL     1      12.536 -19.779  -4.179  1.00  0.00    -0.057 N 
HETATM   23  C14 UNL     1      11.664 -19.935  -3.051  1.00  0.00     0.357 C 
ATOM     24  H42 UNL     1      12.627 -20.641  -4.716  1.00  0.00     0.279 HD
ATOM     25  H41 UNL     1      13.511 -19.676  -3.899  1.00  0.00     0.279 HD
ENDBRANCH   3   4
TORSDOF 1
ENDMDL
MODEL 3
REMARK VINA RESULT: -6.034804540      1.674      5.703
REMARK  1 active torsions:
REMARK  status: ('A' for Active; 'I' for Inactive)
REMARK    1  A    between atoms: C3_3  and  N1_4 
ROOT
HETATM    1  C1  UNL     1      10.555 -19.228  -6.367  1.00  0.00     0.014 C 
HETATM    2  C2  UNL     1      11.444 -19.002  -5.570  1.00  0.00    -0.098 C 
HETATM    3  C3  UNL     1      12.514 -18.730  -4.636  1.00  0.00     0.216 C 
ENDROOT
BRANCH   3   4
HETATM    4  N1  UNL     1      12.365 -19.529  -3.456  1.00  0.00    -0.360 N 
HETATM    5  C4  UNL     1      12.471 -18.879  -2.212  1.00  0.00     0.061 C 
HETATM    6  C5  UNL     1      12.401 -17.396  -2.193  1.00  0.00     0.046 C 
HETATM    7  C6  UNL     1      11.571 -16.906  -0.994  1.00  0.00     0.032 C 
HETATM    8  C7  UNL     1      12.029 -17.592   0.275  1.00  0.00     0.232 C 
HETATM    9  N2  UNL     1      10.892 -18.256   0.851  1.00  0.00    -0.074 N 
HETATM   10  C8  UNL     1      10.907 -18.245   2.296  1.00  0.00     0.259 C 
ATOM     11  H22 UNL     1      10.021 -17.865   0.493  1.00  0.00     0.277 HD
ATOM     12  H21 UNL     1      10.807 -19.208   0.495  1.00  0.00     0.277 HD
HETATM   13  C9  UNL     1      10.506 -19.624   2.828  1.00  0.00     0.259 C 
HETATM   14  N3  UNL     1       9.121 -19.901   2.593  1.00  0.00    -0.072 N 
HETATM   15  C10 UNL     1       8.850 -20.553   1.341  1.00  0.00     0.258 C 
ATOM     16  H32 UNL     1       8.730 -20.439   3.366  1.00  0.00     0.277 HD
ATOM     17  H31 UNL     1       8.568 -19.048   2.677  1.00  0.00     0.277 HD
HETATM   18  C11 UNL     1       9.712 -21.762   1.092  1.00  0.00     0.195 C 
HETATM   19  O1  UNL     1       9.133 -22.502   0.040  1.00  0.00    -0.388 OA
HETATM   20  C12 UNL     1      10.098 -22.809  -0.923  1.00  0.00     0.195 C 
HETATM   21  C13 UNL     1      10.038 -21.878  -2.099  1.00  0.00     0.260 C 
HETATM   22  N4  UNL     1      11.366 -21.549  -2.620  1.00  0.00    -0.057 N 
HETATM   23  C14 UNL     1      11.266 -20.466  -3.554  1.00  0.00     0.357 C 
ATOM     24  H42 UNL     1      12.033 -21.353  -1.874  1.00  0.00     0.279 HD
ATOM     25  H41 UNL     1      11.831 -22.362  -3.024  1.00  0.00     0.279 HD
ENDBRANCH   3   4
TORSDOF 1
ENDMDL
MODEL 4
REMARK VINA RESULT: -6.019130933      2.214      4.411
REMARK  1 active torsions:
REMARK  status: ('A' for Active; 'I' for Inactive)
REMARK    1  A    between atoms: C3_3  and  N1_4 
ROOT
HETATM    1  C1  UNL     1      11.610 -19.971   4.762  1.00  0.00     0.014 C 
HETATM    2  C2  UNL     1      10.849 -19.973   3.815  1.00  0.00    -0.098 C 
HETATM    3  C3  UNL     1       9.928 -19.976   2.699  1.00  0.00     0.216 C 
ENDROOT
BRANCH   3   4
HETATM    4  N1  UNL     1      10.517 -20.621   1.565  1.00  0.00    -0.360 N 
HETATM    5  C4  UNL     1       9.868 -21.761   1.053  1.00  0.00     0.061 C 
HETATM    6  C5  UNL     1       8.475 -22.025   1.496  1.00  0.00     0.046 C 
HETATM    7  C6  UNL     1       7.615 -22.518   0.319  1.00  0.00     0.032 C 
HETATM    8  C7  UNL     1       8.328 -23.630  -0.420  1.00  0.00     0.232 C 
HETATM    9  N2  UNL     1       8.458 -23.232  -1.795  1.00  0.00    -0.074 N 
HETATM   10  C8  UNL     1       8.346 -24.341  -2.715  1.00  0.00     0.259 C 
ATOM     11  H22 UNL     1       7.790 -22.496  -2.027  1.00  0.00     0.277 HD
ATOM     12  H21 UNL     1       9.327 -22.720  -1.945  1.00  0.00     0.277 HD
HETATM   13  C9  UNL     1       9.420 -24.223  -3.800  1.00  0.00     0.259 C 
HETATM   14  N3  UNL     1       9.160 -23.131  -4.689  1.00  0.00    -0.072 N 
HETATM   15  C10 UNL     1       9.749 -21.883  -4.286  1.00  0.00     0.258 C 
ATOM     16  H32 UNL     1       9.446 -23.369  -5.639  1.00  0.00     0.277 HD
ATOM     17  H31 UNL     1       8.155 -23.021  -4.832  1.00  0.00     0.277 HD
HETATM   18  C11 UNL     1      11.211 -21.989  -3.945  1.00  0.00     0.195 C 
HETATM   19  O1  UNL     1      11.747 -20.686  -3.911  1.00  0.00    -0.388 OA
HETATM   20  C12 UNL     1      12.473 -20.492  -2.733  1.00  0.00     0.195 C 
HETATM   21  C13 UNL     1      11.681 -19.745  -1.699  1.00  0.00     0.260 C 
HETATM   22  N4  UNL     1      11.929 -20.238  -0.343  1.00  0.00    -0.057 N 
HETATM   23  C14 UNL     1      10.963 -19.680   0.559  1.00  0.00     0.357 C 
ATOM     24  H42 UNL     1      11.949 -21.257  -0.302  1.00  0.00     0.279 HD
ATOM     25  H41 UNL     1      12.886 -20.059  -0.039  1.00  0.00     0.279 HD
ENDBRANCH   3   4
TORSDOF 1
ENDMDL
MODEL 5
REMARK VINA RESULT: -5.868692222      2.176      6.582
REMARK  1 active torsions:
REMARK  status: ('A' for Active; 'I' for Inactive)
REMARK    1  A    between atoms: C3_3  and  N1_4 
ROOT
HETATM    1  C1  UNL     1      12.073 -15.930  -6.809  1.00  0.00     0.014 C 
HETATM    2  C2  UNL     1      12.597 -16.576  -5.924  1.00  0.00    -0.098 C 
HETATM    3  C3  UNL     1      13.233 -17.353  -4.883  1.00  0.00     0.216 C 
ENDROOT
BRANCH   3   4
HETATM    4  N1  UNL     1      12.309 -17.623  -3.823  1.00  0.00    -0.360 N 
HETATM    5  C4  UNL     1      11.643 -18.864  -3.840  1.00  0.00     0.061 C 
HETATM    6  C5  UNL     1      12.168 -19.922  -4.740  1.00  0.00     0.046 C 
HETATM    7  C6  UNL     1      12.123 -21.296  -4.048  1.00  0.00     0.032 C 
HETATM    8  C7  UNL     1      10.760 -21.526  -3.432  1.00  0.00     0.232 C 
HETATM    9  N2  UNL     1      10.948 -21.779  -2.030  1.00  0.00    -0.074 N 
HETATM   10  C8  UNL     1      10.005 -22.738  -1.500  1.00  0.00     0.259 C 
ATOM     11  H22 UNL     1      11.908 -22.067  -1.837  1.00  0.00     0.277 HD
ATOM     12  H21 UNL     1      10.924 -20.911  -1.496  1.00  0.00     0.277 HD
HETATM   13  C9  UNL     1       9.482 -22.253  -0.144  1.00  0.00     0.259 C 
HETATM   14  N3  UNL     1      10.494 -22.310   0.867  1.00  0.00    -0.072 N 
HETATM   15  C10 UNL     1      11.277 -21.110   0.992  1.00  0.00     0.258 C 
ATOM     16  H32 UNL     1      10.084 -22.563   1.766  1.00  0.00     0.277 HD
ATOM     17  H31 UNL     1      11.100 -23.117   0.718  1.00  0.00     0.277 HD
HETATM   18  C11 UNL     1      10.448 -19.859   1.101  1.00  0.00     0.195 C 
HETATM   19  O1  UNL     1      11.282 -18.821   1.564  1.00  0.00    -0.388 OA
HETATM   20  C12 UNL     1      11.143 -17.691   0.754  1.00  0.00     0.195 C 
HETATM   21  C13 UNL     1      12.253 -17.574  -0.250  1.00  0.00     0.260 C 
HETATM   22  N4  UNL     1      11.787 -17.070  -1.543  1.00  0.00    -0.057 N 
HETATM   23  C14 UNL     1      12.818 -17.231  -2.527  1.00  0.00     0.357 C 
ATOM     24  H42 UNL     1      10.910 -17.504  -1.831  1.00  0.00     0.279 HD
ATOM     25  H41 UNL     1      11.461 -16.105  -1.483  1.00  0.00     0.279 HD
ENDBRANCH   3   4
TORSDOF 1
ENDMDL
