MODEL 1
REMARK VINA RESULT: -8.590681642      0.000      0.000
REMARK  6 active torsions:
REMARK  status: ('A' for Active; 'I' for Inactive)
REMARK    1  A    between atoms: C2_2  and  C3_3 
REMARK    2  A    between atoms: C4_4  and  C5_5 
REMARK    3  A    between atoms: C9_9  and  O1_10 
REMARK    4  A    between atoms: C14_17  and  O2_18 
REMARK    5  A    between atoms: C15_20  and  O3_21 
REMARK    6  A    between atoms: C16_23  and  O4_24 
ROOT
HETATM    1  C5  UNL     1      22.603  16.195 158.462  1.00  0.00    -0.009 A 
HETATM    2  C6  UNL     1      21.335  15.964 157.911  1.00  0.00     0.022 A 
HETATM    3  C7  UNL     1      20.313  15.381 158.625  1.00  0.00    -0.040 A 
HETATM    4  C8  UNL     1      20.534  14.998 159.960  1.00  0.00     0.016 A 
HETATM    5  C9  UNL     1      21.780  15.216 160.517  1.00  0.00     0.102 A 
HETATM    6  C10 UNL     1      22.803  15.816 159.756  1.00  0.00     0.090 A 
HETATM    7  N1  UNL     1      24.021  15.974 160.468  1.00  0.00    -0.099 NA
HETATM    8  C11 UNL     1      19.276  14.407 160.399  1.00  0.00    -0.014 A 
HETATM    9  C12 UNL     1      19.011  13.786 161.671  1.00  0.00    -0.002 A 
HETATM   10  C13 UNL     1      19.376  14.281 162.890  1.00  0.00     0.053 A 
HETATM   11  C14 UNL     1      19.201  13.607 164.086  1.00  0.00     0.102 A 
HETATM   12  C15 UNL     1      18.625  12.358 164.071  1.00  0.00     0.134 A 
HETATM   13  C16 UNL     1      18.251  11.852 162.838  1.00  0.00     0.120 A 
HETATM   14  C17 UNL     1      18.427  12.523 161.647  1.00  0.00     0.059 A 
HETATM   15  S1  UNL     1      17.915  11.667 160.161  1.00  0.00    -0.049 SA
HETATM   16  C18 UNL     1      18.360  14.420 159.402  1.00  0.00    -0.009 A 
HETATM   17  C19 UNL     1      18.927  15.026 158.202  1.00  0.00     0.067 A 
ENDROOT
BRANCH   5  18
HETATM   18  O1  UNL     1      22.043  14.843 161.820  1.00  0.00    -0.358 OA
ATOM     19  H1  UNL     1      22.541  14.055 162.007  1.00  0.00     0.217 HD
ENDBRANCH   5  18
BRANCH  11  20
HETATM   20  O2  UNL     1      19.604  14.181 165.301  1.00  0.00    -0.358 OA
ATOM     21  H2  UNL     1      19.607  13.673 166.103  1.00  0.00     0.217 HD
ENDBRANCH  11  20
BRANCH  13  22
HETATM   22  O4  UNL     1      17.666  10.581 162.846  1.00  0.00    -0.357 OA
ATOM     23  H4  UNL     1      17.024  10.412 162.167  1.00  0.00     0.218 HD
ENDBRANCH  13  22
BRANCH   1  24
HETATM   24  C4  UNL     1      23.616  16.807 157.657  1.00  0.00     0.009 C 
HETATM   25  C3  UNL     1      24.292  16.358 156.648  1.00  0.00    -0.026 C 
BRANCH  25  26
HETATM   26  C2  UNL     1      25.316  17.251 155.988  1.00  0.00     0.022 C 
HETATM   27  C1  UNL     1      25.186  18.674 156.405  1.00  0.00     0.009 C 
ENDBRANCH  25  26
ENDBRANCH   1  24
BRANCH  12  28
HETATM   28  O3  UNL     1      18.434  11.651 165.262  1.00  0.00    -0.356 OA
ATOM     29  H3  UNL     1      18.598  10.717 165.299  1.00  0.00     0.218 HD
ENDBRANCH  12  28
TORSDOF 6
ENDMDL
MODEL 2
REMARK VINA RESULT: -8.460253856      1.359      1.603
REMARK  6 active torsions:
REMARK  status: ('A' for Active; 'I' for Inactive)
REMARK    1  A    between atoms: C2_2  and  C3_3 
REMARK    2  A    between atoms: C4_4  and  C5_5 
REMARK    3  A    between atoms: C9_9  and  O1_10 
REMARK    4  A    between atoms: C14_17  and  O2_18 
REMARK    5  A    between atoms: C15_20  and  O3_21 
REMARK    6  A    between atoms: C16_23  and  O4_24 
ROOT
HETATM    1  C5  UNL     1      22.067  16.065 158.192  1.00  0.00    -0.009 A 
HETATM    2  C6  UNL     1      20.735  15.634 158.128  1.00  0.00     0.022 A 
HETATM    3  C7  UNL     1      20.081  15.092 159.211  1.00  0.00    -0.040 A 
HETATM    4  C8  UNL     1      20.761  14.961 160.435  1.00  0.00     0.016 A 
HETATM    5  C9  UNL     1      22.076  15.379 160.513  1.00  0.00     0.102 A 
HETATM    6  C10 UNL     1      22.715  15.929 159.383  1.00  0.00     0.090 A 
HETATM    7  N1  UNL     1      24.060  16.311 159.623  1.00  0.00    -0.099 NA
HETATM    8  C11 UNL     1      19.799  14.345 161.340  1.00  0.00    -0.014 A 
HETATM    9  C12 UNL     1      20.037  13.928 162.698  1.00  0.00    -0.002 A 
HETATM   10  C13 UNL     1      20.694  14.652 163.650  1.00  0.00     0.053 A 
HETATM   11  C14 UNL     1      21.000  14.177 164.914  1.00  0.00     0.102 A 
HETATM   12  C15 UNL     1      20.626  12.898 165.255  1.00  0.00     0.134 A 
HETATM   13  C16 UNL     1      19.957  12.159 164.295  1.00  0.00     0.120 A 
HETATM   14  C17 UNL     1      19.654  12.632 163.035  1.00  0.00     0.059 A 
HETATM   15  S1  UNL     1      18.824  11.496 161.930  1.00  0.00    -0.049 SA
HETATM   16  C18 UNL     1      18.623  14.109 160.713  1.00  0.00    -0.009 A 
HETATM   17  C19 UNL     1      18.695  14.551 159.323  1.00  0.00     0.067 A 
ENDROOT
BRANCH   5  18
HETATM   18  O1  UNL     1      22.785  15.256 161.691  1.00  0.00    -0.358 OA
ATOM     19  H1  UNL     1      23.061  14.402 162.002  1.00  0.00     0.217 HD
ENDBRANCH   5  18
BRANCH  11  20
HETATM   20  O2  UNL     1      21.681  14.981 165.839  1.00  0.00    -0.358 OA
ATOM     21  H2  UNL     1      22.354  15.589 165.555  1.00  0.00     0.217 HD
ENDBRANCH  11  20
BRANCH  13  22
HETATM   22  O4  UNL     1      19.585  10.862 164.663  1.00  0.00    -0.357 OA
ATOM     23  H4  UNL     1      18.660  10.657 164.596  1.00  0.00     0.218 HD
ENDBRANCH  13  22
BRANCH   1  24
HETATM   24  C4  UNL     1      22.680  16.618 157.023  1.00  0.00     0.009 C 
HETATM   25  C3  UNL     1      23.212  16.050 155.987  1.00  0.00    -0.026 C 
BRANCH  25  26
HETATM   26  C2  UNL     1      23.793  16.910 154.889  1.00  0.00     0.022 C 
HETATM   27  C1  UNL     1      24.801  17.881 155.399  1.00  0.00     0.009 C 
ENDBRANCH  25  26
ENDBRANCH   1  24
BRANCH  12  28
HETATM   28  O3  UNL     1      20.919  12.388 166.524  1.00  0.00    -0.356 OA
ATOM     29  H3  UNL     1      20.501  11.593 166.832  1.00  0.00     0.218 HD
ENDBRANCH  12  28
TORSDOF 6
ENDMDL
MODEL 3
REMARK VINA RESULT: -8.247671170      2.432      3.043
REMARK  6 active torsions:
REMARK  status: ('A' for Active; 'I' for Inactive)
REMARK    1  A    between atoms: C2_2  and  C3_3 
REMARK    2  A    between atoms: C4_4  and  C5_5 
REMARK    3  A    between atoms: C9_9  and  O1_10 
REMARK    4  A    between atoms: C14_17  and  O2_18 
REMARK    5  A    between atoms: C15_20  and  O3_21 
REMARK    6  A    between atoms: C16_23  and  O4_24 
ROOT
HETATM    1  C5  UNL     1      19.986  15.761 157.308  1.00  0.00    -0.009 A 
HETATM    2  C6  UNL     1      18.824  15.076 157.688  1.00  0.00     0.022 A 
HETATM    3  C7  UNL     1      18.680  14.495 158.927  1.00  0.00    -0.040 A 
HETATM    4  C8  UNL     1      19.730  14.584 159.859  1.00  0.00     0.016 A 
HETATM    5  C9  UNL     1      20.884  15.254 159.498  1.00  0.00     0.102 A 
HETATM    6  C10 UNL     1      20.997  15.838 158.220  1.00  0.00     0.090 A 
HETATM    7  N1  UNL     1      22.238  16.489 158.001  1.00  0.00    -0.099 NA
HETATM    8  C11 UNL     1      19.261  13.858 161.031  1.00  0.00    -0.014 A 
HETATM    9  C12 UNL     1      20.004  13.590 162.236  1.00  0.00    -0.002 A 
HETATM   10  C13 UNL     1      20.769  14.492 162.917  1.00  0.00     0.053 A 
HETATM   11  C14 UNL     1      21.556  14.175 164.010  1.00  0.00     0.102 A 
HETATM   12  C15 UNL     1      21.585  12.875 164.457  1.00  0.00     0.134 A 
HETATM   13  C16 UNL     1      20.810  11.955 163.772  1.00  0.00     0.120 A 
HETATM   14  C17 UNL     1      20.027  12.272 162.682  1.00  0.00     0.059 A 
HETATM   15  S1  UNL     1      19.138  10.921 161.915  1.00  0.00    -0.049 SA
HETATM   16  C18 UNL     1      18.021  13.355 160.827  1.00  0.00    -0.009 A 
HETATM   17  C19 UNL     1      17.548  13.704 159.491  1.00  0.00     0.067 A 
ENDROOT
BRANCH   5  18
HETATM   18  O1  UNL     1      21.944  15.353 160.376  1.00  0.00    -0.358 OA
ATOM     19  H1  UNL     1      22.838  15.247 160.071  1.00  0.00     0.217 HD
ENDBRANCH   5  18
BRANCH  11  20
HETATM   20  O2  UNL     1      22.319  15.159 164.657  1.00  0.00    -0.358 OA
ATOM     21  H2  UNL     1      22.640  15.024 165.541  1.00  0.00     0.217 HD
ENDBRANCH  11  20
BRANCH  13  22
HETATM   22  O4  UNL     1      20.853  10.640 164.245  1.00  0.00    -0.357 OA
ATOM     23  H4  UNL     1      20.449   9.983 163.691  1.00  0.00     0.218 HD
ENDBRANCH  13  22
BRANCH   1  24
HETATM   24  C4  UNL     1      20.062  16.341 156.001  1.00  0.00     0.009 C 
HETATM   25  C3  UNL     1      19.273  17.162 155.384  1.00  0.00    -0.026 C 
BRANCH  25  26
HETATM   26  C2  UNL     1      19.619  17.607 153.982  1.00  0.00     0.022 C 
HETATM   27  C1  UNL     1      20.787  16.873 153.423  1.00  0.00     0.009 C 
ENDBRANCH  25  26
ENDBRANCH   1  24
BRANCH  12  28
HETATM   28  O3  UNL     1      22.370  12.522 165.559  1.00  0.00    -0.356 OA
ATOM     29  H3  UNL     1      22.108  12.771 166.437  1.00  0.00     0.218 HD
ENDBRANCH  12  28
TORSDOF 6
ENDMDL
MODEL 4
REMARK VINA RESULT: -8.165684480      2.737      3.728
REMARK  6 active torsions:
REMARK  status: ('A' for Active; 'I' for Inactive)
REMARK    1  A    between atoms: C2_2  and  C3_3 
REMARK    2  A    between atoms: C4_4  and  C5_5 
REMARK    3  A    between atoms: C9_9  and  O1_10 
REMARK    4  A    between atoms: C14_17  and  O2_18 
REMARK    5  A    between atoms: C15_20  and  O3_21 
REMARK    6  A    between atoms: C16_23  and  O4_24 
ROOT
HETATM    1  C5  UNL     1      20.382  15.909 157.711  1.00  0.00    -0.009 A 
HETATM    2  C6  UNL     1      21.501  15.902 158.554  1.00  0.00     0.022 A 
HETATM    3  C7  UNL     1      21.491  15.299 159.792  1.00  0.00    -0.040 A 
HETATM    4  C8  UNL     1      20.320  14.661 160.240  1.00  0.00     0.016 A 
HETATM    5  C9  UNL     1      19.207  14.663 159.421  1.00  0.00     0.102 A 
HETATM    6  C10 UNL     1      19.253  15.290 158.160  1.00  0.00     0.090 A 
HETATM    7  N1  UNL     1      18.034  15.204 157.439  1.00  0.00    -0.099 NA
HETATM    8  C11 UNL     1      20.646  14.159 161.569  1.00  0.00    -0.014 A 
HETATM    9  C12 UNL     1      19.753  13.498 162.485  1.00  0.00    -0.002 A 
HETATM   10  C13 UNL     1      18.874  12.505 162.163  1.00  0.00     0.053 A 
HETATM   11  C14 UNL     1      17.954  11.966 163.045  1.00  0.00     0.102 A 
HETATM   12  C15 UNL     1      17.904  12.444 164.333  1.00  0.00     0.134 A 
HETATM   13  C16 UNL     1      18.794  13.450 164.667  1.00  0.00     0.120 A 
HETATM   14  C17 UNL     1      19.710  13.988 163.787  1.00  0.00     0.059 A 
HETATM   15  S1  UNL     1      20.737  15.313 164.411  1.00  0.00    -0.049 SA
HETATM   16  C18 UNL     1      21.918  14.476 161.909  1.00  0.00    -0.009 A 
HETATM   17  C19 UNL     1      22.559  15.221 160.831  1.00  0.00     0.067 A 
ENDROOT
BRANCH   5  18
HETATM   18  O1  UNL     1      18.033  14.060 159.829  1.00  0.00    -0.358 OA
ATOM     19  H1  UNL     1      17.430  13.696 159.192  1.00  0.00     0.217 HD
ENDBRANCH   5  18
BRANCH  11  20
HETATM   20  O2  UNL     1      17.080  10.946 162.638  1.00  0.00    -0.358 OA
ATOM     21  H2  UNL     1      16.697  10.351 163.272  1.00  0.00     0.217 HD
ENDBRANCH  11  20
BRANCH  13  22
HETATM   22  O4  UNL     1      18.728  13.920 165.983  1.00  0.00    -0.357 OA
ATOM     23  H4  UNL     1      18.440  13.295 166.637  1.00  0.00     0.218 HD
ENDBRANCH  13  22
BRANCH   1  24
HETATM   24  C4  UNL     1      20.468  16.557 156.438  1.00  0.00     0.009 C 
HETATM   25  C3  UNL     1      20.694  16.084 155.253  1.00  0.00    -0.026 C 
BRANCH  25  26
HETATM   26  C2  UNL     1      20.728  17.028 154.074  1.00  0.00     0.022 C 
HETATM   27  C1  UNL     1      19.390  17.602 153.764  1.00  0.00     0.009 C 
ENDBRANCH  25  26
ENDBRANCH   1  24
BRANCH  12  28
HETATM   28  O3  UNL     1      16.986  11.920 165.249  1.00  0.00    -0.356 OA
ATOM     29  H3  UNL     1      16.056  12.069 165.136  1.00  0.00     0.218 HD
ENDBRANCH  12  28
TORSDOF 6
ENDMDL
MODEL 5
REMARK VINA RESULT: -7.924306139      2.147      3.250
REMARK  6 active torsions:
REMARK  status: ('A' for Active; 'I' for Inactive)
REMARK    1  A    between atoms: C2_2  and  C3_3 
REMARK    2  A    between atoms: C4_4  and  C5_5 
REMARK    3  A    between atoms: C9_9  and  O1_10 
REMARK    4  A    between atoms: C14_17  and  O2_18 
REMARK    5  A    between atoms: C15_20  and  O3_21 
REMARK    6  A    between atoms: C16_23  and  O4_24 
ROOT
HETATM    1  C5  UNL     1      22.737  16.284 158.828  1.00  0.00    -0.009 A 
HETATM    2  C6  UNL     1      23.496  15.990 159.968  1.00  0.00     0.022 A 
HETATM    3  C7  UNL     1      22.985  15.287 161.035  1.00  0.00    -0.040 A 
HETATM    4  C8  UNL     1      21.652  14.839 160.994  1.00  0.00     0.016 A 
HETATM    5  C9  UNL     1      20.890  15.125 159.877  1.00  0.00     0.102 A 
HETATM    6  C10 UNL     1      21.446  15.847 158.802  1.00  0.00     0.090 A 
HETATM    7  N1  UNL     1      20.539  16.058 157.731  1.00  0.00    -0.099 NA
HETATM    8  C11 UNL     1      21.439  14.164 162.267  1.00  0.00    -0.014 A 
HETATM    9  C12 UNL     1      20.204  13.598 162.748  1.00  0.00    -0.002 A 
HETATM   10  C13 UNL     1      19.349  12.821 162.022  1.00  0.00     0.053 A 
HETATM   11  C14 UNL     1      18.119  12.383 162.480  1.00  0.00     0.102 A 
HETATM   12  C15 UNL     1      17.711  12.740 163.745  1.00  0.00     0.134 A 
HETATM   13  C16 UNL     1      18.575  13.526 164.487  1.00  0.00     0.120 A 
HETATM   14  C17 UNL     1      19.800  13.964 164.029  1.00  0.00     0.059 A 
HETATM   15  S1  UNL     1      20.741  15.011 165.134  1.00  0.00    -0.049 SA
HETATM   16  C18 UNL     1      22.555  14.205 163.032  1.00  0.00    -0.009 A 
HETATM   17  C19 UNL     1      23.621  14.915 162.333  1.00  0.00     0.067 A 
ENDROOT
BRANCH   5  18
HETATM   18  O1  UNL     1      19.573  14.716 159.801  1.00  0.00    -0.358 OA
ATOM     19  H1  UNL     1      19.220  14.102 160.434  1.00  0.00     0.217 HD
ENDBRANCH   5  18
BRANCH  11  20
HETATM   20  O2  UNL     1      17.292  11.587 161.673  1.00  0.00    -0.358 OA
ATOM     21  H2  UNL     1      16.368  11.785 161.577  1.00  0.00     0.217 HD
ENDBRANCH  11  20
BRANCH  13  22
HETATM   22  O4  UNL     1      18.141  13.877 165.770  1.00  0.00    -0.357 OA
ATOM     23  H4  UNL     1      18.237  14.791 166.008  1.00  0.00     0.218 HD
ENDBRANCH  13  22
BRANCH   1  24
HETATM   24  C4  UNL     1      23.338  17.020 157.757  1.00  0.00     0.009 C 
HETATM   25  C3  UNL     1      24.580  17.228 157.455  1.00  0.00    -0.026 C 
BRANCH  25  26
HETATM   26  C2  UNL     1      24.916  18.063 156.241  1.00  0.00     0.022 C 
HETATM   27  C1  UNL     1      24.401  17.466 154.979  1.00  0.00     0.009 C 
ENDBRANCH  25  26
ENDBRANCH   1  24
BRANCH  12  28
HETATM   28  O3  UNL     1      16.474  12.313 164.238  1.00  0.00    -0.356 OA
ATOM     29  H3  UNL     1      16.212  11.404 164.159  1.00  0.00     0.218 HD
ENDBRANCH  12  28
TORSDOF 6
ENDMDL
