MODEL 1
REMARK VINA RESULT: -6.308821934      0.000      0.000
REMARK  2 active torsions:
REMARK  status: ('A' for Active; 'I' for Inactive)
REMARK    1  A    between atoms: C2_2  and  C3_4 
REMARK    2  A    between atoms: C2_2  and  N2_11 
REMARK       I    between atoms: C3_4  and  N1_6 
ROOT
HETATM    1  C1  UNL     1      13.232 -14.960  22.212  1.00  0.00     0.098 C 
HETATM    2  C2  UNL     1      13.895 -13.951  21.239  1.00  0.00     0.362 C 
HETATM    3  F1  UNL     1      13.231 -14.186  20.034  1.00  0.00    -0.198 F 
ENDROOT
BRANCH   2   4
HETATM    4  C3  UNL     1      15.294 -14.345  21.197  1.00  0.00     0.290 C 
HETATM    5  O1  UNL     1      15.778 -14.914  22.191  1.00  0.00    -0.267 OA
HETATM    6  N1  UNL     1      16.136 -14.100  20.044  1.00  0.00    -0.348 N 
HETATM    7  C4  UNL     1      17.530 -14.490  20.002  1.00  0.00     0.126 C 
HETATM    8  C7  UNL     1      15.861 -13.488  18.789  1.00  0.00     0.126 C 
HETATM    9  C5  UNL     1      18.227 -13.605  19.047  1.00  0.00     0.021 C 
HETATM   10  C6  UNL     1      17.173 -12.801  18.381  1.00  0.00     0.021 C 
ENDBRANCH   2   4
BRANCH   2  11
HETATM   11  N2  UNL     1      13.523 -12.665  21.660  1.00  0.00     0.058 N 
HETATM   12  C8  UNL     1      14.514 -11.647  21.806  1.00  0.00     0.266 C 
HETATM   13  C9  UNL     1      13.630 -10.434  22.193  1.00  0.00     0.038 C 
HETATM   14  C10 UNL     1      12.315 -10.814  21.613  1.00  0.00     0.047 C 
HETATM   15  C11 UNL     1      12.693 -11.951  20.648  1.00  0.00     0.272 C 
HETATM   16  C12 UNL     1      11.651 -11.699  22.646  1.00  0.00     0.184 C 
HETATM   17 BR1  UNL     1      11.418 -10.684  24.264  1.00  0.00    -0.071 Br
HETATM   18  N3  UNL     1      12.672 -12.727  22.789  1.00  0.00    -0.026 NA
ENDBRANCH   2  11
TORSDOF 2
ENDMDL
MODEL 2
REMARK VINA RESULT: -6.248334929      1.033      1.199
REMARK  2 active torsions:
REMARK  status: ('A' for Active; 'I' for Inactive)
REMARK    1  A    between atoms: C2_2  and  C3_4 
REMARK    2  A    between atoms: C2_2  and  N2_11 
REMARK       I    between atoms: C3_4  and  N1_6 
ROOT
HETATM    1  C1  UNL     1      14.010 -15.033  21.866  1.00  0.00     0.098 C 
HETATM    2  C2  UNL     1      14.841 -13.881  21.245  1.00  0.00     0.362 C 
HETATM    3  F1  UNL     1      14.741 -14.117  19.873  1.00  0.00    -0.198 F 
ENDROOT
BRANCH   2   4
HETATM    4  C3  UNL     1      16.189 -14.084  21.753  1.00  0.00     0.290 C 
HETATM    5  O1  UNL     1      16.344 -14.213  22.980  1.00  0.00    -0.267 OA
HETATM    6  N1  UNL     1      17.346 -14.140  20.884  1.00  0.00    -0.348 N 
HETATM    7  C4  UNL     1      18.689 -14.340  21.389  1.00  0.00     0.126 C 
HETATM    8  C7  UNL     1      17.470 -14.033  19.471  1.00  0.00     0.126 C 
HETATM    9  C5  UNL     1      19.638 -13.752  20.421  1.00  0.00     0.021 C 
HETATM   10  C6  UNL     1      18.834 -13.364  19.237  1.00  0.00     0.021 C 
ENDBRANCH   2   4
BRANCH   2  11
HETATM   11  N2  UNL     1      14.150 -12.686  21.501  1.00  0.00     0.058 N 
HETATM   12  C8  UNL     1      14.852 -11.443  21.512  1.00  0.00     0.266 C 
HETATM   13  C9  UNL     1      13.684 -10.452  21.746  1.00  0.00     0.038 C 
HETATM   14  C10 UNL     1      12.521 -11.218  21.225  1.00  0.00     0.047 C 
HETATM   15  C11 UNL     1      13.197 -12.335  20.410  1.00  0.00     0.272 C 
HETATM   16  C12 UNL     1      12.070 -12.106  22.365  1.00  0.00     0.184 C 
HETATM   17 BR1  UNL     1      11.547 -10.989  23.842  1.00  0.00    -0.071 Br
HETATM   18  N3  UNL     1      13.310 -12.820  22.633  1.00  0.00    -0.026 NA
ENDBRANCH   2  11
TORSDOF 2
ENDMDL
MODEL 3
REMARK VINA RESULT: -6.204993314      2.798      5.567
REMARK  2 active torsions:
REMARK  status: ('A' for Active; 'I' for Inactive)
REMARK    1  A    between atoms: C2_2  and  C3_4 
REMARK    2  A    between atoms: C2_2  and  N2_11 
REMARK       I    between atoms: C3_4  and  N1_6 
ROOT
HETATM    1  C1  UNL     1      13.117 -13.705  20.381  1.00  0.00     0.098 C 
HETATM    2  C2  UNL     1      14.223 -13.071  21.263  1.00  0.00     0.362 C 
HETATM    3  F1  UNL     1      14.368 -13.990  22.304  1.00  0.00    -0.198 F 
ENDROOT
BRANCH   2   4
HETATM    4  C3  UNL     1      13.660 -11.805  21.706  1.00  0.00     0.290 C 
HETATM    5  O1  UNL     1      14.263 -10.757  21.415  1.00  0.00    -0.267 OA
HETATM    6  N1  UNL     1      12.431 -11.726  22.468  1.00  0.00    -0.348 N 
HETATM    7  C4  UNL     1      11.871 -10.465  22.912  1.00  0.00     0.126 C 
HETATM    8  C7  UNL     1      11.542 -12.735  22.931  1.00  0.00     0.126 C 
HETATM    9  C5  UNL     1      11.048 -10.723  24.111  1.00  0.00     0.021 C 
HETATM   10  C6  UNL     1      10.980 -12.198  24.257  1.00  0.00     0.021 C 
ENDBRANCH   2   4
BRANCH   2  11
HETATM   11  N2  UNL     1      15.415 -13.108  20.524  1.00  0.00     0.058 N 
HETATM   12  C8  UNL     1      16.621 -12.593  21.088  1.00  0.00     0.266 C 
HETATM   13  C9  UNL     1      17.633 -12.926  19.962  1.00  0.00     0.038 C 
HETATM   14  C10 UNL     1      16.969 -14.066  19.278  1.00  0.00     0.047 C 
HETATM   15  C11 UNL     1      15.907 -14.498  20.305  1.00  0.00     0.272 C 
HETATM   16  C12 UNL     1      15.996 -13.446  18.297  1.00  0.00     0.184 C 
HETATM   17 BR1  UNL     1      16.989 -12.379  17.041  1.00  0.00    -0.071 Br
HETATM   18  N3  UNL     1      15.209 -12.627  19.208  1.00  0.00    -0.026 NA
ENDBRANCH   2  11
TORSDOF 2
ENDMDL
MODEL 4
REMARK VINA RESULT: -6.162834849      2.594      5.400
REMARK  2 active torsions:
REMARK  status: ('A' for Active; 'I' for Inactive)
REMARK    1  A    between atoms: C2_2  and  C3_4 
REMARK    2  A    between atoms: C2_2  and  N2_11 
REMARK       I    between atoms: C3_4  and  N1_6 
ROOT
HETATM    1  C1  UNL     1      13.946 -12.699  19.450  1.00  0.00     0.098 C 
HETATM    2  C2  UNL     1      13.538 -13.143  20.878  1.00  0.00     0.362 C 
HETATM    3  F1  UNL     1      12.325 -13.804  20.673  1.00  0.00    -0.198 F 
ENDROOT
BRANCH   2   4
HETATM    4  C3  UNL     1      13.383 -11.902  21.619  1.00  0.00     0.290 C 
HETATM    5  O1  UNL     1      14.215 -10.996  21.434  1.00  0.00    -0.267 OA
HETATM    6  N1  UNL     1      12.302 -11.687  22.558  1.00  0.00    -0.348 N 
HETATM    7  C4  UNL     1      12.149 -10.451  23.299  1.00  0.00     0.126 C 
HETATM    8  C7  UNL     1      11.223 -12.522  22.960  1.00  0.00     0.126 C 
HETATM    9  C5  UNL     1      11.407 -10.748  24.541  1.00  0.00     0.021 C 
HETATM   10  C6  UNL     1      10.959 -12.157  24.430  1.00  0.00     0.021 C 
ENDBRANCH   2   4
BRANCH   2  11
HETATM   11  N2  UNL     1      14.462 -14.116  21.290  1.00  0.00     0.058 N 
HETATM   12  C8  UNL     1      14.014 -15.427  21.634  1.00  0.00     0.266 C 
HETATM   13  C9  UNL     1      15.364 -16.128  21.929  1.00  0.00     0.038 C 
HETATM   14  C10 UNL     1      16.316 -15.309  21.132  1.00  0.00     0.047 C 
HETATM   15  C11 UNL     1      15.379 -14.532  20.190  1.00  0.00     0.272 C 
HETATM   16  C12 UNL     1      16.674 -14.127  22.008  1.00  0.00     0.184 C 
HETATM   17 BR1  UNL     1      17.512 -14.785  23.611  1.00  0.00    -0.071 Br
HETATM   18  N3  UNL     1      15.344 -13.594  22.266  1.00  0.00    -0.026 NA
ENDBRANCH   2  11
TORSDOF 2
ENDMDL
MODEL 5
REMARK VINA RESULT: -6.092240548      2.775      5.569
REMARK  2 active torsions:
REMARK  status: ('A' for Active; 'I' for Inactive)
REMARK    1  A    between atoms: C2_2  and  C3_4 
REMARK    2  A    between atoms: C2_2  and  N2_11 
REMARK       I    between atoms: C3_4  and  N1_6 
ROOT
HETATM    1  C1  UNL     1      14.091 -12.735  19.159  1.00  0.00     0.098 C 
HETATM    2  C2  UNL     1      14.226 -13.060  20.669  1.00  0.00     0.362 C 
HETATM    3  F1  UNL     1      13.336 -14.120  20.850  1.00  0.00    -0.198 F 
ENDROOT
BRANCH   2   4
HETATM    4  C3  UNL     1      13.798 -11.846  21.346  1.00  0.00     0.290 C 
HETATM    5  O1  UNL     1      14.504 -10.828  21.235  1.00  0.00    -0.267 OA
HETATM    6  N1  UNL     1      12.588 -11.784  22.139  1.00  0.00    -0.348 N 
HETATM    7  C4  UNL     1      12.162 -10.576  22.816  1.00  0.00     0.126 C 
HETATM    8  C7  UNL     1      11.602 -12.767  22.433  1.00  0.00     0.126 C 
HETATM    9  C5  UNL     1      11.323 -10.964  23.967  1.00  0.00     0.021 C 
HETATM   10  C6  UNL     1      11.105 -12.426  23.847  1.00  0.00     0.021 C 
ENDBRANCH   2   4
BRANCH   2  11
HETATM   11  N2  UNL     1      15.515 -13.577  20.868  1.00  0.00     0.058 N 
HETATM   12  C8  UNL     1      16.051 -13.673  22.189  1.00  0.00     0.266 C 
HETATM   13  C9  UNL     1      17.411 -14.357  21.901  1.00  0.00     0.038 C 
HETATM   14  C10 UNL     1      17.140 -15.054  20.617  1.00  0.00     0.047 C 
HETATM   15  C11 UNL     1      15.603 -15.030  20.542  1.00  0.00     0.272 C 
HETATM   16  C12 UNL     1      17.367 -14.022  19.533  1.00  0.00     0.184 C 
HETATM   17 BR1  UNL     1      19.198 -13.435  19.619  1.00  0.00    -0.071 Br
HETATM   18  N3  UNL     1      16.440 -12.989  19.973  1.00  0.00    -0.026 NA
ENDBRANCH   2  11
TORSDOF 2
ENDMDL
