MODEL 1
REMARK VINA RESULT: -5.450102809      0.000      0.000
REMARK  2 active torsions:
REMARK  status: ('A' for Active; 'I' for Inactive)
REMARK    1  A    between atoms: C4_5  and  C5_6 
REMARK    2  A    between atoms: C5_6  and  O1_7 
ROOT
HETATM    1  C1  UNL     1      16.493 -13.094  21.776  1.00  0.00     0.014 C 
HETATM    2  C2  UNL     1      15.303 -13.930  22.127  1.00  0.00     0.040 C 
HETATM    3  C3  UNL     1      15.618 -15.347  21.723  1.00  0.00     0.097 C 
HETATM    4 BR1  UNL     1      17.149 -15.430  20.525  1.00  0.00    -0.088 Br
HETATM    5  C4  UNL     1      14.363 -15.784  21.048  1.00  0.00     0.229 C 
HETATM    6  N1  UNL     1      13.727 -14.626  20.488  1.00  0.00    -0.053 N 
HETATM    7  C6  UNL     1      14.034 -14.397  19.102  1.00  0.00     0.274 C 
HETATM    8  C7  UNL     1      12.298 -14.916  20.519  1.00  0.00     0.274 C 
HETATM    9  C8  UNL     1      14.049 -13.526  21.350  1.00  0.00     0.165 C 
HETATM   10  C9  UNL     1      12.967 -13.395  22.363  1.00  0.00     0.097 C 
HETATM   11  N2  UNL     1      12.257 -12.388  22.599  1.00  0.00    -0.395 N 
HETATM   12  C10 UNL     1      11.222 -12.393  23.630  1.00  0.00     0.148 C 
HETATM   13  C11 UNL     1      12.379 -11.148  21.902  1.00  0.00     0.121 C 
HETATM   14  C12 UNL     1      13.034 -11.356  20.579  1.00  0.00     0.022 C 
HETATM   15  C13 UNL     1      14.288 -12.220  20.733  1.00  0.00     0.047 C 
ENDROOT
BRANCH   5  16
HETATM   16  C5  UNL     1      14.704 -16.853  20.062  1.00  0.00     0.198 C 
BRANCH  16  17
HETATM   17  O1  UNL     1      14.070 -18.026  20.470  1.00  0.00    -0.399 OA
ATOM     18  H1  UNL     1      14.635 -18.455  21.102  1.00  0.00     0.209 HD
ENDBRANCH  16  17
ENDBRANCH   5  16
TORSDOF 2
ENDMDL
MODEL 2
REMARK VINA RESULT: -5.438899443      2.710      4.379
REMARK  2 active torsions:
REMARK  status: ('A' for Active; 'I' for Inactive)
REMARK    1  A    between atoms: C4_5  and  C5_6 
REMARK    2  A    between atoms: C5_6  and  O1_7 
ROOT
HETATM    1  C1  UNL     1      11.825 -13.180  22.136  1.00  0.00     0.014 C 
HETATM    2  C2  UNL     1      13.214 -13.717  22.281  1.00  0.00     0.040 C 
HETATM    3  C3  UNL     1      14.162 -12.558  22.114  1.00  0.00     0.097 C 
HETATM    4 BR1  UNL     1      13.278 -11.014  21.328  1.00  0.00    -0.088 Br
HETATM    5  C4  UNL     1      15.209 -13.116  21.212  1.00  0.00     0.229 C 
HETATM    6  N1  UNL     1      14.607 -14.133  20.399  1.00  0.00    -0.053 N 
HETATM    7  C6  UNL     1      14.169 -13.673  19.109  1.00  0.00     0.274 C 
HETATM    8  C7  UNL     1      15.672 -15.089  20.121  1.00  0.00     0.274 C 
HETATM    9  C8  UNL     1      13.572 -14.730  21.192  1.00  0.00     0.165 C 
HETATM   10  C9  UNL     1      14.146 -15.905  21.900  1.00  0.00     0.097 C 
HETATM   11  N2  UNL     1      13.752 -17.095  21.854  1.00  0.00    -0.395 N 
HETATM   12  C10 UNL     1      14.411 -18.161  22.606  1.00  0.00     0.148 C 
HETATM   13  C11 UNL     1      12.636 -17.533  21.079  1.00  0.00     0.121 C 
HETATM   14  C12 UNL     1      12.355 -16.568  19.978  1.00  0.00     0.022 C 
HETATM   15  C13 UNL     1      12.338 -15.135  20.514  1.00  0.00     0.047 C 
ENDROOT
BRANCH   5  16
HETATM   16  C5  UNL     1      15.827 -11.988  20.452  1.00  0.00     0.198 C 
BRANCH  16  17
HETATM   17  O1  UNL     1      17.155 -11.876  20.864  1.00  0.00    -0.399 OA
ATOM     18  H1  UNL     1      17.648 -11.485  20.151  1.00  0.00     0.209 HD
ENDBRANCH  16  17
ENDBRANCH   5  16
TORSDOF 2
ENDMDL
MODEL 3
REMARK VINA RESULT: -5.399467097      2.517      4.343
REMARK  2 active torsions:
REMARK  status: ('A' for Active; 'I' for Inactive)
REMARK    1  A    between atoms: C4_5  and  C5_6 
REMARK    2  A    between atoms: C5_6  and  O1_7 
ROOT
HETATM    1  C1  UNL     1      14.335 -11.533  21.847  1.00  0.00     0.014 C 
HETATM    2  C2  UNL     1      14.301 -12.313  20.571  1.00  0.00     0.040 C 
HETATM    3  C3  UNL     1      12.966 -13.007  20.506  1.00  0.00     0.097 C 
HETATM    4 BR1  UNL     1      12.074 -13.012  22.235  1.00  0.00    -0.088 Br
HETATM    5  C4  UNL     1      13.330 -14.384  20.067  1.00  0.00     0.229 C 
HETATM    6  N1  UNL     1      14.662 -14.663  20.522  1.00  0.00    -0.053 N 
HETATM    7  C6  UNL     1      14.721 -15.373  21.772  1.00  0.00     0.274 C 
HETATM    8  C7  UNL     1      15.224 -15.579  19.537  1.00  0.00     0.274 C 
HETATM    9  C8  UNL     1      15.364 -13.412  20.524  1.00  0.00     0.165 C 
HETATM   10  C9  UNL     1      16.049 -13.261  19.211  1.00  0.00     0.097 C 
HETATM   11  N2  UNL     1      17.273 -13.082  19.004  1.00  0.00    -0.395 N 
HETATM   12  C10 UNL     1      17.819 -12.947  17.654  1.00  0.00     0.148 C 
HETATM   13  C11 UNL     1      18.251 -12.991  20.040  1.00  0.00     0.121 C 
HETATM   14  C12 UNL     1      17.751 -13.638  21.286  1.00  0.00     0.022 C 
HETATM   15  C13 UNL     1      16.328 -13.170  21.598  1.00  0.00     0.047 C 
ENDROOT
BRANCH   5  16
HETATM   16  C5  UNL     1      12.285 -15.330  20.562  1.00  0.00     0.198 C 
BRANCH  16  17
HETATM   17  O1  UNL     1      11.593 -15.816  19.453  1.00  0.00    -0.399 OA
ATOM     18  H1  UNL     1      10.906 -15.193  19.245  1.00  0.00     0.209 HD
ENDBRANCH  16  17
ENDBRANCH   5  16
TORSDOF 2
ENDMDL
MODEL 4
REMARK VINA RESULT: -5.368315436      2.887      4.278
REMARK  2 active torsions:
REMARK  status: ('A' for Active; 'I' for Inactive)
REMARK    1  A    between atoms: C4_5  and  C5_6 
REMARK    2  A    between atoms: C5_6  and  O1_7 
ROOT
HETATM    1  C1  UNL     1      17.923 -13.139  18.217  1.00  0.00     0.014 C 
HETATM    2  C2  UNL     1      17.386 -12.977  19.605  1.00  0.00     0.040 C 
HETATM    3  C3  UNL     1      18.567 -12.937  20.538  1.00  0.00     0.097 C 
HETATM    4 BR1  UNL     1      20.190 -13.574  19.674  1.00  0.00    -0.088 Br
HETATM    5  C4  UNL     1      18.141 -13.836  21.648  1.00  0.00     0.229 C 
HETATM    6  N1  UNL     1      17.229 -14.807  21.115  1.00  0.00    -0.053 N 
HETATM    7  C6  UNL     1      17.845 -16.053  20.746  1.00  0.00     0.274 C 
HETATM    8  C7  UNL     1      16.328 -15.137  22.213  1.00  0.00     0.274 C 
HETATM    9  C8  UNL     1      16.525 -14.162  20.045  1.00  0.00     0.165 C 
HETATM   10  C9  UNL     1      15.275 -13.573  20.599  1.00  0.00     0.097 C 
HETATM   11  N2  UNL     1      14.097 -13.794  20.230  1.00  0.00    -0.395 N 
HETATM   12  C10 UNL     1      12.951 -13.143  20.863  1.00  0.00     0.148 C 
HETATM   13  C11 UNL     1      13.748 -14.686  19.171  1.00  0.00     0.121 C 
HETATM   14  C12 UNL     1      14.843 -15.671  18.939  1.00  0.00     0.022 C 
HETATM   15  C13 UNL     1      16.195 -14.960  18.863  1.00  0.00     0.047 C 
ENDROOT
BRANCH   5  16
HETATM   16  C5  UNL     1      19.363 -14.407  22.290  1.00  0.00     0.198 C 
BRANCH  16  17
HETATM   17  O1  UNL     1      19.293 -14.136  23.656  1.00  0.00    -0.399 OA
ATOM     18  H1  UNL     1      19.060 -13.220  23.757  1.00  0.00     0.209 HD
ENDBRANCH  16  17
ENDBRANCH   5  16
TORSDOF 2
ENDMDL
MODEL 5
REMARK VINA RESULT: -5.286706014      3.573      5.724
REMARK  2 active torsions:
REMARK  status: ('A' for Active; 'I' for Inactive)
REMARK    1  A    between atoms: C4_5  and  C5_6 
REMARK    2  A    between atoms: C5_6  and  O1_7 
ROOT
HETATM    1  C1  UNL     1      15.994 -16.586  21.568  1.00  0.00     0.014 C 
HETATM    2  C2  UNL     1      16.358 -15.299  22.238  1.00  0.00     0.040 C 
HETATM    3  C3  UNL     1      15.321 -14.280  21.844  1.00  0.00     0.097 C 
HETATM    4 BR1  UNL     1      14.270 -14.877  20.319  1.00  0.00    -0.088 Br
HETATM    5  C4  UNL     1      16.143 -13.082  21.516  1.00  0.00     0.229 C 
HETATM    6  N1  UNL     1      17.431 -13.529  21.066  1.00  0.00    -0.053 N 
HETATM    7  C6  UNL     1      17.553 -13.631  19.637  1.00  0.00     0.274 C 
HETATM    8  C7  UNL     1      18.363 -12.479  21.455  1.00  0.00     0.274 C 
HETATM    9  C8  UNL     1      17.706 -14.750  21.767  1.00  0.00     0.165 C 
HETATM   10  C9  UNL     1      18.465 -14.417  23.002  1.00  0.00     0.097 C 
HETATM   11  N2  UNL     1      19.590 -14.850  23.350  1.00  0.00    -0.395 N 
HETATM   12  C10 UNL     1      20.227 -14.439  24.599  1.00  0.00     0.148 C 
HETATM   13  C11 UNL     1      20.358 -15.775  22.580  1.00  0.00     0.121 C 
HETATM   14  C12 UNL     1      19.935 -15.742  21.151  1.00  0.00     0.022 C 
HETATM   15  C13 UNL     1      18.410 -15.810  21.043  1.00  0.00     0.047 C 
ENDROOT
BRANCH   5  16
HETATM   16  C5  UNL     1      15.389 -12.247  20.532  1.00  0.00     0.198 C 
BRANCH  16  17
HETATM   17  O1  UNL     1      15.157 -11.004  21.121  1.00  0.00    -0.399 OA
ATOM     18  H1  UNL     1      14.217 -10.898  21.212  1.00  0.00     0.209 HD
ENDBRANCH  16  17
ENDBRANCH   5  16
TORSDOF 2
ENDMDL
