MODEL 1
REMARK VINA RESULT: -4.098256769      0.000      0.000
REMARK  4 active torsions:
REMARK  status: ('A' for Active; 'I' for Inactive)
REMARK    1  A    between atoms: N1_2  and  C4_5 
REMARK    2  A    between atoms: C4_5  and  C5_6 
REMARK    3  A    between atoms: C6_7  and  C7_8 
REMARK    4  A    between atoms: C7_8  and  O1_9 
ROOT
HETATM    1  C4  UNL     1      46.024  21.703  52.003  1.00  0.00     0.329 C 
ENDROOT
BRANCH   1   2
HETATM    2  N1  UNL     1      44.803  22.118  51.373  1.00  0.00    -0.069 N 
HETATM    3  C1  UNL     1      44.966  23.151  50.393  1.00  0.00     0.272 C 
HETATM    4  C2  UNL     1      43.953  22.679  52.437  1.00  0.00     0.272 C 
HETATM    5  C3  UNL     1      44.087  21.003  50.787  1.00  0.00     0.272 C 
ENDBRANCH   1   2
BRANCH   1   6
HETATM    6  C5  UNL     1      45.883  20.489  52.800  1.00  0.00    -0.076 C 
HETATM    7  C6  UNL     1      45.784  19.497  53.467  1.00  0.00    -0.079 C 
BRANCH   7   8
HETATM    8  C7  UNL     1      45.677  18.301  54.297  1.00  0.00     0.257 C 
BRANCH   8   9
HETATM    9  O1  UNL     1      45.544  17.166  53.499  1.00  0.00    -0.389 OA
ATOM     10  H1  UNL     1      46.395  16.780  53.328  1.00  0.00     0.210 HD
ENDBRANCH   8   9
ENDBRANCH   7   8
ENDBRANCH   1   6
TORSDOF 4
ENDMDL
MODEL 2
REMARK VINA RESULT: -4.087199733      0.081      1.364
REMARK  4 active torsions:
REMARK  status: ('A' for Active; 'I' for Inactive)
REMARK    1  A    between atoms: N1_2  and  C4_5 
REMARK    2  A    between atoms: C4_5  and  C5_6 
REMARK    3  A    between atoms: C6_7  and  C7_8 
REMARK    4  A    between atoms: C7_8  and  O1_9 
ROOT
HETATM    1  C4  UNL     1      46.054  21.666  51.904  1.00  0.00     0.329 C 
ENDROOT
BRANCH   1   2
HETATM    2  N1  UNL     1      44.796  22.193  51.459  1.00  0.00    -0.069 N 
HETATM    3  C1  UNL     1      43.955  22.682  52.511  1.00  0.00     0.272 C 
HETATM    4  C2  UNL     1      44.073  21.074  50.830  1.00  0.00     0.272 C 
HETATM    5  C3  UNL     1      44.963  23.223  50.454  1.00  0.00     0.272 C 
ENDBRANCH   1   2
BRANCH   1   6
HETATM    6  C5  UNL     1      45.925  20.466  52.724  1.00  0.00    -0.076 C 
HETATM    7  C6  UNL     1      45.814  19.492  53.415  1.00  0.00    -0.079 C 
BRANCH   7   8
HETATM    8  C7  UNL     1      45.665  18.319  54.272  1.00  0.00     0.257 C 
BRANCH   8   9
HETATM    9  O1  UNL     1      45.546  17.165  53.499  1.00  0.00    -0.389 OA
ATOM     10  H1  UNL     1      46.382  16.717  53.443  1.00  0.00     0.210 HD
ENDBRANCH   8   9
ENDBRANCH   7   8
ENDBRANCH   1   6
TORSDOF 4
ENDMDL
MODEL 3
REMARK VINA RESULT: -4.064737903      1.017      1.562
REMARK  4 active torsions:
REMARK  status: ('A' for Active; 'I' for Inactive)
REMARK    1  A    between atoms: N1_2  and  C4_5 
REMARK    2  A    between atoms: C4_5  and  C5_6 
REMARK    3  A    between atoms: C6_7  and  C7_8 
REMARK    4  A    between atoms: C7_8  and  O1_9 
ROOT
HETATM    1  C4  UNL     1      44.492  20.640  50.792  1.00  0.00     0.329 C 
ENDROOT
BRANCH   1   2
HETATM    2  N1  UNL     1      44.780  22.010  51.107  1.00  0.00    -0.069 N 
HETATM    3  C1  UNL     1      46.007  22.206  51.821  1.00  0.00     0.272 C 
HETATM    4  C2  UNL     1      43.700  22.471  51.996  1.00  0.00     0.272 C 
HETATM    5  C3  UNL     1      44.765  22.854  49.929  1.00  0.00     0.272 C 
ENDBRANCH   1   2
BRANCH   1   6
HETATM    6  C5  UNL     1      44.848  19.711  51.859  1.00  0.00    -0.076 C 
HETATM    7  C6  UNL     1      45.149  18.963  52.748  1.00  0.00    -0.079 C 
BRANCH   7   8
HETATM    8  C7  UNL     1      45.515  18.072  53.845  1.00  0.00     0.257 C 
BRANCH   8   9
HETATM    9  O1  UNL     1      46.723  18.474  54.414  1.00  0.00    -0.389 OA
ATOM     10  H1  UNL     1      47.102  17.766  54.920  1.00  0.00     0.210 HD
ENDBRANCH   8   9
ENDBRANCH   7   8
ENDBRANCH   1   6
TORSDOF 4
ENDMDL
MODEL 4
REMARK VINA RESULT: -4.060657805      1.004      1.835
REMARK  4 active torsions:
REMARK  status: ('A' for Active; 'I' for Inactive)
REMARK    1  A    between atoms: N1_2  and  C4_5 
REMARK    2  A    between atoms: C4_5  and  C5_6 
REMARK    3  A    between atoms: C6_7  and  C7_8 
REMARK    4  A    between atoms: C7_8  and  O1_9 
ROOT
HETATM    1  C4  UNL     1      44.480  20.697  50.847  1.00  0.00     0.329 C 
ENDROOT
BRANCH   1   2
HETATM    2  N1  UNL     1      44.710  22.067  51.204  1.00  0.00    -0.069 N 
HETATM    3  C1  UNL     1      43.670  22.654  51.994  1.00  0.00     0.272 C 
HETATM    4  C2  UNL     1      44.759  22.826  49.943  1.00  0.00     0.272 C 
HETATM    5  C3  UNL     1      45.985  22.248  51.871  1.00  0.00     0.272 C 
ENDBRANCH   1   2
BRANCH   1   6
HETATM    6  C5  UNL     1      44.848  19.752  51.896  1.00  0.00    -0.076 C 
HETATM    7  C6  UNL     1      45.163  18.991  52.769  1.00  0.00    -0.079 C 
BRANCH   7   8
HETATM    8  C7  UNL     1      45.550  18.084  53.846  1.00  0.00     0.257 C 
BRANCH   8   9
HETATM    9  O1  UNL     1      46.773  18.472  54.390  1.00  0.00    -0.389 OA
ATOM     10  H1  UNL     1      46.726  18.476  55.339  1.00  0.00     0.210 HD
ENDBRANCH   8   9
ENDBRANCH   7   8
ENDBRANCH   1   6
TORSDOF 4
ENDMDL
MODEL 5
REMARK VINA RESULT: -4.057795950      1.002      1.563
REMARK  4 active torsions:
REMARK  status: ('A' for Active; 'I' for Inactive)
REMARK    1  A    between atoms: N1_2  and  C4_5 
REMARK    2  A    between atoms: C4_5  and  C5_6 
REMARK    3  A    between atoms: C6_7  and  C7_8 
REMARK    4  A    between atoms: C7_8  and  O1_9 
ROOT
HETATM    1  C4  UNL     1      44.538  20.657  50.768  1.00  0.00     0.329 C 
ENDROOT
BRANCH   1   2
HETATM    2  N1  UNL     1      44.721  22.039  51.106  1.00  0.00    -0.069 N 
HETATM    3  C1  UNL     1      44.793  22.919  49.977  1.00  0.00     0.272 C 
HETATM    4  C2  UNL     1      46.020  22.134  51.794  1.00  0.00     0.272 C 
HETATM    5  C3  UNL     1      43.706  22.514  52.025  1.00  0.00     0.272 C 
ENDBRANCH   1   2
BRANCH   1   6
HETATM    6  C5  UNL     1      44.885  19.743  51.851  1.00  0.00    -0.076 C 
HETATM    7  C6  UNL     1      45.179  19.008  52.753  1.00  0.00    -0.079 C 
BRANCH   7   8
HETATM    8  C7  UNL     1      45.536  18.134  53.866  1.00  0.00     0.257 C 
BRANCH   8   9
HETATM    9  O1  UNL     1      46.776  18.496  54.390  1.00  0.00    -0.389 OA
ATOM     10  H1  UNL     1      46.717  19.337  54.828  1.00  0.00     0.210 HD
ENDBRANCH   8   9
ENDBRANCH   7   8
ENDBRANCH   1   6
TORSDOF 4
ENDMDL
