MODEL 1
REMARK VINA RESULT: -5.752183729      0.000      0.000
REMARK  2 active torsions:
REMARK  status: ('A' for Active; 'I' for Inactive)
REMARK    1  A    between atoms: O1_1  and  C1_3 
REMARK    2  A    between atoms: C4_6  and  N1_7 
ROOT
HETATM    1  C1  UNL     1       9.003   0.268  24.895  1.00  0.00     0.144 C 
HETATM    2  C2  UNL     1       9.612   0.985  23.764  1.00  0.00     0.037 C 
HETATM    3  C3  UNL     1       9.562   2.456  23.775  1.00  0.00     0.068 C 
HETATM    4  C4  UNL     1       9.264   3.109  25.089  1.00  0.00     0.419 C 
HETATM    5  N2  UNL     1       8.083   2.421  25.642  1.00  0.00    -0.041 N 
ATOM      6  H21 UNL     1       7.287   2.416  25.004  1.00  0.00     0.279 HD
ATOM      7  H22 UNL     1       7.637   2.935  26.402  1.00  0.00     0.279 HD
HETATM    8  C9  UNL     1       8.503   1.114  26.022  1.00  0.00     0.266 C 
ENDROOT
BRANCH   4   9
HETATM    9  N1  UNL     1       8.846   4.460  24.850  1.00  0.00     0.119 N 
HETATM   10  C5  UNL     1       9.735   5.235  24.035  1.00  0.00     0.275 C 
HETATM   11  C6  UNL     1       8.907   5.627  22.800  1.00  0.00     0.032 C 
HETATM   12  C7  UNL     1       7.556   5.880  23.485  1.00  0.00     0.032 C 
HETATM   13  C8  UNL     1       7.511   4.640  24.393  1.00  0.00     0.275 C 
ENDBRANCH   4   9
BRANCH   1  14
HETATM   14  O1  UNL     1       7.919  -0.550  24.488  1.00  0.00    -0.394 OA
ATOM     15  H1  UNL     1       7.229  -0.579  25.140  1.00  0.00     0.210 HD
ENDBRANCH   1  14
TORSDOF 2
ENDMDL
MODEL 2
REMARK VINA RESULT: -5.724191688      0.892      1.311
REMARK  2 active torsions:
REMARK  status: ('A' for Active; 'I' for Inactive)
REMARK    1  A    between atoms: O1_1  and  C1_3 
REMARK    2  A    between atoms: C4_6  and  N1_7 
ROOT
HETATM    1  C1  UNL     1       9.024   0.306  24.740  1.00  0.00     0.144 C 
HETATM    2  C2  UNL     1       9.411   1.180  23.622  1.00  0.00     0.037 C 
HETATM    3  C3  UNL     1       9.291   2.634  23.813  1.00  0.00     0.068 C 
HETATM    4  C4  UNL     1       9.172   3.120  25.225  1.00  0.00     0.419 C 
HETATM    5  N2  UNL     1       8.128   2.298  25.864  1.00  0.00    -0.041 N 
ATOM      6  H21 UNL     1       7.243   2.309  25.359  1.00  0.00     0.279 HD
ATOM      7  H22 UNL     1       7.783   2.696  26.738  1.00  0.00     0.279 HD
HETATM    8  C9  UNL     1       8.667   0.989  26.021  1.00  0.00     0.266 C 
ENDROOT
BRANCH   4   9
HETATM    9  N1  UNL     1       8.656   4.457  25.211  1.00  0.00     0.119 N 
HETATM   10  C5  UNL     1       8.052   4.863  23.976  1.00  0.00     0.275 C 
HETATM   11  C6  UNL     1       6.589   5.178  24.328  1.00  0.00     0.032 C 
HETATM   12  C7  UNL     1       6.806   5.830  25.702  1.00  0.00     0.032 C 
HETATM   13  C8  UNL     1       7.805   4.820  26.292  1.00  0.00     0.275 C 
ENDBRANCH   4   9
BRANCH   1  14
HETATM   14  O1  UNL     1       7.931  -0.534  24.409  1.00  0.00    -0.394 OA
ATOM     15  H1  UNL     1       8.077  -1.008  23.598  1.00  0.00     0.210 HD
ENDBRANCH   1  14
TORSDOF 2
ENDMDL
MODEL 3
REMARK VINA RESULT: -5.517292313      0.830      1.425
REMARK  2 active torsions:
REMARK  status: ('A' for Active; 'I' for Inactive)
REMARK    1  A    between atoms: O1_1  and  C1_3 
REMARK    2  A    between atoms: C4_6  and  N1_7 
ROOT
HETATM    1  C1  UNL     1       8.993   0.128  24.767  1.00  0.00     0.144 C 
HETATM    2  C2  UNL     1       9.404   0.612  23.440  1.00  0.00     0.037 C 
HETATM    3  C3  UNL     1       9.369   2.063  23.196  1.00  0.00     0.068 C 
HETATM    4  C4  UNL     1       9.307   2.947  24.404  1.00  0.00     0.419 C 
HETATM    5  N2  UNL     1       8.234   2.411  25.261  1.00  0.00    -0.041 N 
ATOM      6  H21 UNL     1       7.340   2.326  24.778  1.00  0.00     0.279 HD
ATOM      7  H22 UNL     1       7.930   3.067  25.981  1.00  0.00     0.279 HD
HETATM    8  C9  UNL     1       8.703   1.175  25.792  1.00  0.00     0.266 C 
ENDROOT
BRANCH   4   9
HETATM    9  N1  UNL     1       8.866   4.250  24.001  1.00  0.00     0.119 N 
HETATM   10  C5  UNL     1       7.716   4.744  24.699  1.00  0.00     0.275 C 
HETATM   11  C6  UNL     1       8.194   6.023  25.406  1.00  0.00     0.032 C 
HETATM   12  C7  UNL     1       9.124   6.569  24.313  1.00  0.00     0.032 C 
HETATM   13  C8  UNL     1       9.857   5.268  23.949  1.00  0.00     0.275 C 
ENDBRANCH   4   9
BRANCH   1  14
HETATM   14  O1  UNL     1       7.849  -0.706  24.701  1.00  0.00    -0.394 OA
ATOM     15  H1  UNL     1       7.118  -0.277  24.274  1.00  0.00     0.210 HD
ENDBRANCH   1  14
TORSDOF 2
ENDMDL
MODEL 4
REMARK VINA RESULT: -5.429752119      2.296      4.643
REMARK  2 active torsions:
REMARK  status: ('A' for Active; 'I' for Inactive)
REMARK    1  A    between atoms: O1_1  and  C1_3 
REMARK    2  A    between atoms: C4_6  and  N1_7 
ROOT
HETATM    1  C1  UNL     1       7.891   5.928  23.247  1.00  0.00     0.144 C 
HETATM    2  C2  UNL     1       7.237   5.175  24.328  1.00  0.00     0.037 C 
HETATM    3  C3  UNL     1       7.881   3.936  24.791  1.00  0.00     0.068 C 
HETATM    4  C4  UNL     1       9.320   3.747  24.421  1.00  0.00     0.419 C 
HETATM    5  N2  UNL     1       9.422   4.025  22.977  1.00  0.00    -0.041 N 
ATOM      6  H21 UNL     1       8.784   3.462  22.415  1.00  0.00     0.279 HD
ATOM      7  H22 UNL     1      10.291   3.687  22.564  1.00  0.00     0.279 HD
HETATM    8  C9  UNL     1       9.229   5.426  22.808  1.00  0.00     0.266 C 
ENDROOT
BRANCH   4   9
HETATM    9  N1  UNL     1       9.658   2.362  24.573  1.00  0.00     0.119 N 
HETATM   10  C5  UNL     1       9.203   1.755  25.788  1.00  0.00     0.275 C 
HETATM   11  C6  UNL     1       8.254   0.629  25.345  1.00  0.00     0.032 C 
HETATM   12  C7  UNL     1       9.018   0.145  24.104  1.00  0.00     0.032 C 
HETATM   13  C8  UNL     1       9.348   1.509  23.477  1.00  0.00     0.275 C 
ENDBRANCH   4   9
BRANCH   1  14
HETATM   14  O1  UNL     1       7.084   6.004  22.085  1.00  0.00    -0.394 OA
ATOM     15  H1  UNL     1       7.391   6.669  21.479  1.00  0.00     0.210 HD
ENDBRANCH   1  14
TORSDOF 2
ENDMDL
MODEL 5
REMARK VINA RESULT: -5.354633590      2.854      4.179
REMARK  2 active torsions:
REMARK  status: ('A' for Active; 'I' for Inactive)
REMARK    1  A    between atoms: O1_1  and  C1_3 
REMARK    2  A    between atoms: C4_6  and  N1_7 
ROOT
HETATM    1  C1  UNL     1       7.134   5.128  27.967  1.00  0.00     0.144 C 
HETATM    2  C2  UNL     1       8.002   3.948  28.099  1.00  0.00     0.037 C 
HETATM    3  C3  UNL     1       8.470   3.297  26.865  1.00  0.00     0.068 C 
HETATM    4  C4  UNL     1       8.364   4.094  25.602  1.00  0.00     0.419 C 
HETATM    5  N2  UNL     1       6.994   4.639  25.564  1.00  0.00    -0.041 N 
ATOM      6  H21 UNL     1       6.275   3.922  25.648  1.00  0.00     0.279 HD
ATOM      7  H22 UNL     1       6.725   4.984  24.642  1.00  0.00     0.279 HD
HETATM    8  C9  UNL     1       6.914   5.635  26.579  1.00  0.00     0.266 C 
ENDROOT
BRANCH   4   9
HETATM    9  N1  UNL     1       8.456   3.202  24.483  1.00  0.00     0.119 N 
HETATM   10  C5  UNL     1       9.197   3.706  23.365  1.00  0.00     0.275 C 
HETATM   11  C6  UNL     1      10.374   2.731  23.192  1.00  0.00     0.032 C 
HETATM   12  C7  UNL     1       9.649   1.417  23.516  1.00  0.00     0.032 C 
HETATM   13  C8  UNL     1       8.874   1.872  24.764  1.00  0.00     0.275 C 
ENDBRANCH   4   9
BRANCH   1  14
HETATM   14  O1  UNL     1       5.851   4.912  28.529  1.00  0.00    -0.394 OA
ATOM     15  H1  UNL     1       5.195   5.490  28.157  1.00  0.00     0.210 HD
ENDBRANCH   1  14
TORSDOF 2
ENDMDL
