MODEL 1
REMARK VINA RESULT: -8.821710318      0.000      0.000
REMARK  13 active torsions:
REMARK  status: ('A' for Active; 'I' for Inactive)
REMARK    1  A    between atoms: C2_2  and  C3_3 
REMARK    2  A    between atoms: C3_3  and  C4_4 
REMARK    3  A    between atoms: C4_4  and  C5_5 
REMARK    4  A    between atoms: C7_10  and  C8_11 
REMARK    5  A    between atoms: N2_20  and  C17_21 
REMARK    6  A    between atoms: C17_21  and  C18_22 
REMARK    7  A    between atoms: C17_21  and  C20_24 
REMARK    8  A    between atoms: C20_24  and  C21_25 
REMARK       I    between atoms: C21_25  and  N3_27 
REMARK    9  A    between atoms: C23_34  and  O3_35 
REMARK   10  A    between atoms: C24_37  and  C25_38 
REMARK   11  A    between atoms: C29_45  and  C30_46 
REMARK   12  A    between atoms: C30_46  and  C31_47 
REMARK   13  A    between atoms: C34_52  and  O5_53 
ROOT
HETATM    1  C5  UNL     1       6.055  27.454   5.785  1.00  0.00     0.159 C 
HETATM    2  N1  UNL     1       7.514  27.779   5.935  1.00  0.00    -0.347 N 
ATOM      3  H1  UNL     1       7.771  28.359   6.734  1.00  0.00     0.163 HD
HETATM    4  C6  UNL     1       8.549  27.377   5.108  1.00  0.00     0.243 C 
HETATM    5  O1  UNL     1       9.165  28.270   4.462  1.00  0.00    -0.271 OA
HETATM    6  C7  UNL     1       9.090  25.978   4.837  1.00  0.00     0.209 C 
HETATM    7  N6  UNL     1       9.151  25.743   3.433  1.00  0.00    -0.354 N 
ATOM      8  H6  UNL     1       9.561  26.564   2.988  1.00  0.00     0.162 HD
HETATM    9  C23 UNL     1       8.861  24.814   2.449  1.00  0.00     0.160 C 
HETATM   10  C24 UNL     1       7.851  23.941   1.952  1.00  0.00     0.066 C 
HETATM   11  N7  UNL     1       6.494  23.918   1.778  1.00  0.00    -0.325 N 
ATOM     12  H7  UNL     1       6.328  23.070   1.235  1.00  0.00     0.169 HD
HETATM   13  C28 UNL     1       5.219  24.460   1.961  1.00  0.00     0.244 C 
HETATM   14  O4  UNL     1       4.437  24.729   0.980  1.00  0.00    -0.271 OA
HETATM   15  C29 UNL     1       4.547  24.815   3.294  1.00  0.00     0.176 C 
HETATM   16  N8  UNL     1       5.547  25.525   4.022  1.00  0.00    -0.359 N 
ATOM     17  H8  UNL     1       6.284  24.865   4.268  1.00  0.00     0.162 HD
HETATM   18  C34 UNL     1       5.891  26.728   4.510  1.00  0.00     0.135 C 
ENDROOT
BRANCH   6  19
HETATM   19  C8  UNL     1      10.252  25.773   5.733  1.00  0.00     0.259 C 
HETATM   20  C9  UNL     1       9.960  25.722   7.201  1.00  0.00     0.026 C 
HETATM   21  C10 UNL     1       9.610  24.528   7.923  1.00  0.00     0.007 C 
HETATM   22  C14 UNL     1      11.100  26.406   7.976  1.00  0.00    -0.007 C 
HETATM   23  C11 UNL     1       8.908  25.018   9.229  1.00  0.00     0.000 C 
HETATM   24  C12 UNL     1      10.090  25.466  10.100  1.00  0.00     0.000 C 
HETATM   25  C13 UNL     1      10.929  26.484   9.420  1.00  0.00     0.005 C 
HETATM   26  C15 UNL     1      12.385  25.792   7.487  1.00  0.00     0.035 C 
HETATM   27  C16 UNL     1      12.505  25.939   5.979  1.00  0.00     0.274 C 
HETATM   28  N2  UNL     1      11.461  25.163   5.304  1.00  0.00     0.101 N 
BRANCH  28  29
HETATM   29  C17 UNL     1      11.783  23.841   5.432  1.00  0.00     0.232 C 
BRANCH  29  30
HETATM   30  C18 UNL     1      11.597  22.843   4.356  1.00  0.00     0.032 C 
HETATM   31  C19 UNL     1      12.348  23.272   3.122  1.00  0.00     0.007 C 
ENDBRANCH  29  30
BRANCH  29  32
HETATM   32  C20 UNL     1      13.150  23.609   6.018  1.00  0.00     0.139 C 
BRANCH  32  33
HETATM   33  C21 UNL     1      13.343  22.349   6.763  1.00  0.00     0.225 C 
HETATM   34  O2  UNL     1      12.446  21.899   7.527  1.00  0.00    -0.273 OA
HETATM   35  N3  UNL     1      14.488  21.533   6.717  1.00  0.00    -0.304 N 
HETATM   36  C22 UNL     1      15.311  21.285   5.821  1.00  0.00     0.203 C 
ATOM     37  H3  UNL     1      14.680  21.049   7.593  1.00  0.00     0.171 HD
HETATM   38  N4  UNL     1      15.324  21.794   4.501  1.00  0.00    -0.066 NA
HETATM   39  N5  UNL     1      16.378  20.373   6.146  1.00  0.00    -0.066 NA
ENDBRANCH  32  33
ENDBRANCH  29  32
ENDBRANCH  28  29
ENDBRANCH   6  19
BRANCH   9  40
HETATM   40  O3  UNL     1       9.980  24.743   1.714  1.00  0.00    -0.345 OA
ATOM     41  H3  UNL     1       9.906  23.918   1.247  1.00  0.00     0.219 HD
ENDBRANCH   9  40
BRANCH   1  42
HETATM   42  C4  UNL     1       5.522  26.843   7.017  1.00  0.00     0.033 C 
BRANCH  42  43
HETATM   43  C3  UNL     1       4.079  27.155   7.317  1.00  0.00     0.002 C 
BRANCH  43  44
HETATM   44  C2  UNL     1       3.223  25.967   6.926  1.00  0.00    -0.004 C 
HETATM   45  C1  UNL     1       2.309  26.311   5.778  1.00  0.00     0.005 C 
ENDBRANCH  43  44
ENDBRANCH  42  43
ENDBRANCH   1  42
BRANCH  10  46
HETATM   46  C25 UNL     1       8.309  22.537   2.428  1.00  0.00     0.032 C 
HETATM   47  C26 UNL     1       8.802  21.682   1.300  1.00  0.00     0.016 C 
HETATM   48  C27 UNL     1       7.319  21.794   3.216  1.00  0.00     0.016 C 
ENDBRANCH  10  46
BRANCH  18  49
HETATM   49  O5  UNL     1       6.223  27.634   3.610  1.00  0.00    -0.348 OA
ATOM     50  H5  UNL     1       6.501  27.107   2.871  1.00  0.00     0.219 HD
ENDBRANCH  18  49
BRANCH  15  51
HETATM   51  C30 UNL     1       4.268  23.535   4.089  1.00  0.00     0.038 C 
BRANCH  51  52
HETATM   52  C31 UNL     1       3.322  22.622   3.352  1.00  0.00    -0.020 C 
HETATM   53  C32 UNL     1       3.513  21.232   3.947  1.00  0.00     0.009 C 
HETATM   54  C33 UNL     1       1.874  23.001   3.569  1.00  0.00     0.009 C 
ENDBRANCH  51  52
ENDBRANCH  15  51
TORSDOF 13
ENDMDL
MODEL 2
REMARK VINA RESULT: -8.277482979      3.176      9.115
REMARK  13 active torsions:
REMARK  status: ('A' for Active; 'I' for Inactive)
REMARK    1  A    between atoms: C2_2  and  C3_3 
REMARK    2  A    between atoms: C3_3  and  C4_4 
REMARK    3  A    between atoms: C4_4  and  C5_5 
REMARK    4  A    between atoms: C7_10  and  C8_11 
REMARK    5  A    between atoms: N2_20  and  C17_21 
REMARK    6  A    between atoms: C17_21  and  C18_22 
REMARK    7  A    between atoms: C17_21  and  C20_24 
REMARK    8  A    between atoms: C20_24  and  C21_25 
REMARK       I    between atoms: C21_25  and  N3_27 
REMARK    9  A    between atoms: C23_34  and  O3_35 
REMARK   10  A    between atoms: C24_37  and  C25_38 
REMARK   11  A    between atoms: C29_45  and  C30_46 
REMARK   12  A    between atoms: C30_46  and  C31_47 
REMARK   13  A    between atoms: C34_52  and  O5_53 
ROOT
HETATM    1  C5  UNL     1       9.297  25.453   3.470  1.00  0.00     0.159 C 
HETATM    2  N1  UNL     1       8.234  25.657   2.429  1.00  0.00    -0.347 N 
ATOM      3  H1  UNL     1       8.314  25.096   1.581  1.00  0.00     0.163 HD
HETATM    4  C6  UNL     1       7.156  26.523   2.494  1.00  0.00     0.243 C 
HETATM    5  O1  UNL     1       7.119  27.479   1.669  1.00  0.00    -0.271 OA
HETATM    6  C7  UNL     1       5.957  26.515   3.435  1.00  0.00     0.209 C 
HETATM    7  N6  UNL     1       5.800  27.796   4.036  1.00  0.00    -0.354 N 
ATOM      8  H6  UNL     1       5.897  28.506   3.309  1.00  0.00     0.162 HD
HETATM    9  C23 UNL     1       5.565  28.437   5.241  1.00  0.00     0.160 C 
HETATM   10  C24 UNL     1       5.961  28.500   6.607  1.00  0.00     0.066 C 
HETATM   11  N7  UNL     1       7.099  28.416   7.362  1.00  0.00    -0.325 N 
ATOM     12  H7  UNL     1       6.796  28.681   8.299  1.00  0.00     0.169 HD
HETATM   13  C28 UNL     1       8.464  28.154   7.507  1.00  0.00     0.244 C 
HETATM   14  O4  UNL     1       9.284  29.014   7.992  1.00  0.00    -0.271 OA
HETATM   15  C29 UNL     1       9.203  26.861   7.138  1.00  0.00     0.176 C 
HETATM   16  N8  UNL     1       8.725  26.534   5.835  1.00  0.00    -0.359 N 
ATOM     17  H8  UNL     1       7.745  26.262   5.919  1.00  0.00     0.162 HD
HETATM   18  C34 UNL     1       9.067  26.445   4.539  1.00  0.00     0.135 C 
ENDROOT
BRANCH   6  19
HETATM   19  C8  UNL     1       4.852  25.819   2.734  1.00  0.00     0.259 C 
HETATM   20  C9  UNL     1       4.461  24.477   3.272  1.00  0.00     0.026 C 
HETATM   21  C10 UNL     1       3.493  24.266   4.315  1.00  0.00     0.007 C 
HETATM   22  C14 UNL     1       4.086  23.546   2.107  1.00  0.00    -0.007 C 
HETATM   23  C11 UNL     1       3.796  22.844   4.885  1.00  0.00     0.000 C 
HETATM   24  C12 UNL     1       3.185  21.918   3.825  1.00  0.00     0.000 C 
HETATM   25  C13 UNL     1       3.737  22.180   2.472  1.00  0.00     0.005 C 
HETATM   26  C15 UNL     1       3.086  24.289   1.262  1.00  0.00     0.035 C 
HETATM   27  C16 UNL     1       3.657  25.624   0.811  1.00  0.00     0.274 C 
HETATM   28  N2  UNL     1       3.875  26.504   1.962  1.00  0.00     0.101 N 
BRANCH  28  29
HETATM   29  C17 UNL     1       2.647  26.916   2.402  1.00  0.00     0.232 C 
BRANCH  29  30
HETATM   30  C18 UNL     1       2.310  27.108   3.830  1.00  0.00     0.032 C 
HETATM   31  C19 UNL     1       0.837  26.875   4.045  1.00  0.00     0.007 C 
ENDBRANCH  29  30
BRANCH  29  32
HETATM   32  C20 UNL     1       2.111  28.109   1.657  1.00  0.00     0.139 C 
BRANCH  32  33
HETATM   33  C21 UNL     1       3.034  29.250   1.491  1.00  0.00     0.225 C 
HETATM   34  O2  UNL     1       3.634  29.753   2.480  1.00  0.00    -0.273 OA
HETATM   35  N3  UNL     1       3.344  29.887   0.276  1.00  0.00    -0.304 N 
HETATM   36  C22 UNL     1       3.428  29.478  -0.893  1.00  0.00     0.203 C 
ATOM     37  H3  UNL     1       3.539  30.883   0.375  1.00  0.00     0.171 HD
HETATM   38  N4  UNL     1       3.219  28.159  -1.359  1.00  0.00    -0.066 NA
HETATM   39  N5  UNL     1       3.784  30.443  -1.902  1.00  0.00    -0.066 NA
ENDBRANCH  32  33
ENDBRANCH  29  32
ENDBRANCH  28  29
ENDBRANCH   6  19
BRANCH   9  40
HETATM   40  O3  UNL     1       4.590  29.317   4.968  1.00  0.00    -0.345 OA
ATOM     41  H3  UNL     1       4.590  29.909   5.711  1.00  0.00     0.219 HD
ENDBRANCH   9  40
BRANCH   1  42
HETATM   42  C4  UNL     1       9.405  24.030   3.841  1.00  0.00     0.033 C 
BRANCH  42  43
HETATM   43  C3  UNL     1       8.700  23.070   2.917  1.00  0.00     0.002 C 
BRANCH  43  44
HETATM   44  C2  UNL     1       7.553  22.415   3.662  1.00  0.00    -0.004 C 
HETATM   45  C1  UNL     1       7.146  21.124   3.002  1.00  0.00     0.005 C 
ENDBRANCH  43  44
ENDBRANCH  42  43
ENDBRANCH   1  42
BRANCH  10  46
HETATM   46  C25 UNL     1       4.819  27.767   7.358  1.00  0.00     0.032 C 
HETATM   47  C26 UNL     1       4.611  26.368   6.862  1.00  0.00     0.016 C 
HETATM   48  C27 UNL     1       3.535  28.478   7.385  1.00  0.00     0.016 C 
ENDBRANCH  10  46
BRANCH  18  49
HETATM   49  O5  UNL     1       9.283  27.594   3.927  1.00  0.00    -0.348 OA
ATOM     50  H5  UNL     1       8.460  28.054   4.044  1.00  0.00     0.219 HD
ENDBRANCH  18  49
BRANCH  15  51
HETATM   51  C30 UNL     1       8.746  25.725   8.058  1.00  0.00     0.038 C 
BRANCH  51  52
HETATM   52  C31 UNL     1       9.918  25.016   8.686  1.00  0.00    -0.020 C 
HETATM   53  C32 UNL     1      10.492  24.097   7.614  1.00  0.00     0.009 C 
HETATM   54  C33 UNL     1      11.020  25.973   9.084  1.00  0.00     0.009 C 
ENDBRANCH  51  52
ENDBRANCH  15  51
TORSDOF 13
ENDMDL
MODEL 3
REMARK VINA RESULT: -8.175444875      0.901      1.570
REMARK  13 active torsions:
REMARK  status: ('A' for Active; 'I' for Inactive)
REMARK    1  A    between atoms: C2_2  and  C3_3 
REMARK    2  A    between atoms: C3_3  and  C4_4 
REMARK    3  A    between atoms: C4_4  and  C5_5 
REMARK    4  A    between atoms: C7_10  and  C8_11 
REMARK    5  A    between atoms: N2_20  and  C17_21 
REMARK    6  A    between atoms: C17_21  and  C18_22 
REMARK    7  A    between atoms: C17_21  and  C20_24 
REMARK    8  A    between atoms: C20_24  and  C21_25 
REMARK       I    between atoms: C21_25  and  N3_27 
REMARK    9  A    between atoms: C23_34  and  O3_35 
REMARK   10  A    between atoms: C24_37  and  C25_38 
REMARK   11  A    between atoms: C29_45  and  C30_46 
REMARK   12  A    between atoms: C30_46  and  C31_47 
REMARK   13  A    between atoms: C34_52  and  O5_53 
ROOT
HETATM    1  C5  UNL     1       6.377  27.585   5.637  1.00  0.00     0.159 C 
HETATM    2  N1  UNL     1       7.848  27.880   5.717  1.00  0.00    -0.347 N 
ATOM      3  H1  UNL     1       8.151  28.479   6.484  1.00  0.00     0.163 HD
HETATM    4  C6  UNL     1       8.838  27.427   4.862  1.00  0.00     0.243 C 
HETATM    5  O1  UNL     1       9.447  28.283   4.161  1.00  0.00    -0.271 OA
HETATM    6  C7  UNL     1       9.335  26.007   4.615  1.00  0.00     0.209 C 
HETATM    7  N6  UNL     1       9.332  25.725   3.219  1.00  0.00    -0.354 N 
ATOM      8  H6  UNL     1       9.742  26.521   2.730  1.00  0.00     0.162 HD
HETATM    9  C23 UNL     1       8.980  24.772   2.279  1.00  0.00     0.160 C 
HETATM   10  C24 UNL     1       7.932  23.908   1.854  1.00  0.00     0.066 C 
HETATM   11  N7  UNL     1       6.568  23.911   1.736  1.00  0.00    -0.325 N 
ATOM     12  H7  UNL     1       6.361  23.050   1.229  1.00  0.00     0.169 HD
HETATM   13  C28 UNL     1       5.315  24.489   1.953  1.00  0.00     0.244 C 
HETATM   14  O4  UNL     1       4.498  24.745   0.997  1.00  0.00    -0.271 OA
HETATM   15  C29 UNL     1       4.707  24.903   3.300  1.00  0.00     0.176 C 
HETATM   16  N8  UNL     1       5.752  25.613   3.962  1.00  0.00    -0.359 N 
ATOM     17  H8  UNL     1       6.484  24.943   4.200  1.00  0.00     0.162 HD
HETATM   18  C34 UNL     1       6.144  26.822   4.395  1.00  0.00     0.135 C 
ENDROOT
BRANCH   6  19
HETATM   19  C8  UNL     1      10.529  25.803   5.470  1.00  0.00     0.259 C 
HETATM   20  C9  UNL     1      10.280  25.668   6.941  1.00  0.00     0.026 C 
HETATM   21  C10 UNL     1       9.997  24.426   7.609  1.00  0.00     0.007 C 
HETATM   22  C14 UNL     1      11.414  26.356   7.719  1.00  0.00    -0.007 C 
HETATM   23  C11 UNL     1       9.313  24.823   8.956  1.00  0.00     0.000 C 
HETATM   24  C12 UNL     1      10.500  25.272   9.818  1.00  0.00     0.000 C 
HETATM   25  C13 UNL     1      11.281  26.356   9.169  1.00  0.00     0.005 C 
HETATM   26  C15 UNL     1      12.708  25.819   7.167  1.00  0.00     0.035 C 
HETATM   27  C16 UNL     1      12.780  26.046   5.665  1.00  0.00     0.274 C 
HETATM   28  N2  UNL     1      11.748  25.264   4.979  1.00  0.00     0.101 N 
BRANCH  28  29
HETATM   29  C17 UNL     1      12.124  23.950   5.032  1.00  0.00     0.232 C 
BRANCH  29  30
HETATM   30  C18 UNL     1      11.644  22.921   4.083  1.00  0.00     0.032 C 
HETATM   31  C19 UNL     1      12.284  23.127   2.734  1.00  0.00     0.007 C 
ENDBRANCH  29  30
BRANCH  29  32
HETATM   32  C20 UNL     1      13.609  23.756   5.181  1.00  0.00     0.139 C 
BRANCH  32  33
HETATM   33  C21 UNL     1      14.043  22.683   6.098  1.00  0.00     0.225 C 
HETATM   34  O2  UNL     1      13.433  22.462   7.180  1.00  0.00    -0.273 OA
HETATM   35  N3  UNL     1      15.132  21.817   5.893  1.00  0.00    -0.304 N 
HETATM   36  C22 UNL     1      15.644  21.333   4.870  1.00  0.00     0.203 C 
ATOM     37  H3  UNL     1      15.593  21.529   6.756  1.00  0.00     0.171 HD
HETATM   38  N4  UNL     1      15.242  21.536   3.530  1.00  0.00    -0.066 NA
HETATM   39  N5  UNL     1      16.775  20.459   5.054  1.00  0.00    -0.066 NA
ENDBRANCH  32  33
ENDBRANCH  29  32
ENDBRANCH  28  29
ENDBRANCH   6  19
BRANCH   9  40
HETATM   40  O3  UNL     1      10.066  24.650   1.502  1.00  0.00    -0.345 OA
ATOM     41  H3  UNL     1       9.863  23.927   0.920  1.00  0.00     0.219 HD
ENDBRANCH   9  40
BRANCH   1  42
HETATM   42  C4  UNL     1       5.882  27.028   6.910  1.00  0.00     0.033 C 
BRANCH  42  43
HETATM   43  C3  UNL     1       6.934  26.810   7.968  1.00  0.00     0.002 C 
BRANCH  43  44
HETATM   44  C2  UNL     1       7.545  28.145   8.343  1.00  0.00    -0.004 C 
HETATM   45  C1  UNL     1       8.237  28.067   9.679  1.00  0.00     0.005 C 
ENDBRANCH  43  44
ENDBRANCH  42  43
ENDBRANCH   1  42
BRANCH  10  46
HETATM   46  C25 UNL     1       8.377  22.509   2.357  1.00  0.00     0.032 C 
HETATM   47  C26 UNL     1       8.864  21.628   1.246  1.00  0.00     0.016 C 
HETATM   48  C27 UNL     1       7.380  21.790   3.158  1.00  0.00     0.016 C 
ENDBRANCH  10  46
BRANCH  18  49
HETATM   49  O5  UNL     1       6.458  27.690   3.453  1.00  0.00    -0.348 OA
ATOM     50  H5  UNL     1       7.387  27.828   3.592  1.00  0.00     0.219 HD
ENDBRANCH  18  49
BRANCH  15  51
HETATM   51  C30 UNL     1       4.433  23.657   4.148  1.00  0.00     0.038 C 
BRANCH  51  52
HETATM   52  C31 UNL     1       2.955  23.399   4.288  1.00  0.00    -0.020 C 
HETATM   53  C32 UNL     1       2.266  24.753   4.170  1.00  0.00     0.009 C 
HETATM   54  C33 UNL     1       2.416  22.530   3.173  1.00  0.00     0.009 C 
ENDBRANCH  51  52
ENDBRANCH  15  51
TORSDOF 13
ENDMDL
MODEL 4
REMARK VINA RESULT: -8.155129777      2.323      8.909
REMARK  13 active torsions:
REMARK  status: ('A' for Active; 'I' for Inactive)
REMARK    1  A    between atoms: C2_2  and  C3_3 
REMARK    2  A    between atoms: C3_3  and  C4_4 
REMARK    3  A    between atoms: C4_4  and  C5_5 
REMARK    4  A    between atoms: C7_10  and  C8_11 
REMARK    5  A    between atoms: N2_20  and  C17_21 
REMARK    6  A    between atoms: C17_21  and  C18_22 
REMARK    7  A    between atoms: C17_21  and  C20_24 
REMARK    8  A    between atoms: C20_24  and  C21_25 
REMARK       I    between atoms: C21_25  and  N3_27 
REMARK    9  A    between atoms: C23_34  and  O3_35 
REMARK   10  A    between atoms: C24_37  and  C25_38 
REMARK   11  A    between atoms: C29_45  and  C30_46 
REMARK   12  A    between atoms: C30_46  and  C31_47 
REMARK   13  A    between atoms: C34_52  and  O5_53 
ROOT
HETATM    1  C5  UNL     1      10.096  23.807   1.972  1.00  0.00     0.159 C 
HETATM    2  N1  UNL     1       8.932  24.634   1.505  1.00  0.00    -0.347 N 
ATOM      3  H1  UNL     1       8.461  24.319   0.657  1.00  0.00     0.163 HD
HETATM    4  C6  UNL     1       8.428  25.778   2.101  1.00  0.00     0.243 C 
HETATM    5  O1  UNL     1       8.518  26.862   1.460  1.00  0.00    -0.271 OA
HETATM    6  C7  UNL     1       7.756  25.953   3.458  1.00  0.00     0.209 C 
HETATM    7  N6  UNL     1       8.386  27.006   4.181  1.00  0.00    -0.354 N 
ATOM      8  H6  UNL     1       8.515  27.797   3.549  1.00  0.00     0.162 HD
HETATM    9  C23 UNL     1       8.887  27.356   5.423  1.00  0.00     0.160 C 
HETATM   10  C24 UNL     1       9.723  26.922   6.490  1.00  0.00     0.066 C 
HETATM   11  N7  UNL     1      10.900  26.249   6.678  1.00  0.00    -0.325 N 
ATOM     12  H7  UNL     1      11.090  26.354   7.674  1.00  0.00     0.169 HD
HETATM   13  C28 UNL     1      11.975  25.492   6.204  1.00  0.00     0.244 C 
HETATM   14  O4  UNL     1      13.196  25.851   6.369  1.00  0.00    -0.271 OA
HETATM   15  C29 UNL     1      11.907  24.163   5.441  1.00  0.00     0.176 C 
HETATM   16  N8  UNL     1      10.912  24.373   4.442  1.00  0.00    -0.359 N 
ATOM     17  H8  UNL     1      10.009  24.454   4.910  1.00  0.00     0.162 HD
HETATM   18  C34 UNL     1      10.704  24.505   3.121  1.00  0.00     0.135 C 
ENDROOT
BRANCH   6  19
HETATM   19  C8  UNL     1       6.292  25.899   3.235  1.00  0.00     0.259 C 
HETATM   20  C9  UNL     1       5.667  24.539   3.237  1.00  0.00     0.026 C 
HETATM   21  C10 UNL     1       5.181  23.866   4.411  1.00  0.00     0.007 C 
HETATM   22  C14 UNL     1       4.546  24.486   2.185  1.00  0.00    -0.007 C 
HETATM   23  C11 UNL     1       5.121  22.352   4.032  1.00  0.00     0.000 C 
HETATM   24  C12 UNL     1       3.845  22.267   3.184  1.00  0.00     0.000 C 
HETATM   25  C13 UNL     1       3.879  23.201   2.030  1.00  0.00     0.005 C 
HETATM   26  C15 UNL     1       3.657  25.674   2.439  1.00  0.00     0.035 C 
HETATM   27  C16 UNL     1       4.465  26.962   2.399  1.00  0.00     0.274 C 
HETATM   28  N2  UNL     1       5.429  26.996   3.502  1.00  0.00     0.101 N 
BRANCH  28  29
HETATM   29  C17 UNL     1       4.726  27.201   4.657  1.00  0.00     0.232 C 
BRANCH  29  30
HETATM   30  C18 UNL     1       5.310  27.059   6.009  1.00  0.00     0.032 C 
HETATM   31  C19 UNL     1       4.349  26.326   6.909  1.00  0.00     0.007 C 
ENDBRANCH  29  30
BRANCH  29  32
HETATM   32  C20 UNL     1       3.923  28.474   4.653  1.00  0.00     0.139 C 
BRANCH  32  33
HETATM   33  C21 UNL     1       2.503  28.358   5.041  1.00  0.00     0.225 C 
HETATM   34  O2  UNL     1       1.773  27.439   4.580  1.00  0.00    -0.273 OA
HETATM   35  N3  UNL     1       1.821  29.211   5.927  1.00  0.00    -0.304 N 
HETATM   36  C22 UNL     1       2.181  29.847   6.931  1.00  0.00     0.203 C 
ATOM     37  H3  UNL     1       0.834  29.329   5.701  1.00  0.00     0.171 HD
HETATM   38  N4  UNL     1       3.475  29.893   7.500  1.00  0.00    -0.066 NA
HETATM   39  N5  UNL     1       1.176  30.629   7.607  1.00  0.00    -0.066 NA
ENDBRANCH  32  33
ENDBRANCH  29  32
ENDBRANCH  28  29
ENDBRANCH   6  19
BRANCH   9  40
HETATM   40  O3  UNL     1       8.357  28.563   5.671  1.00  0.00    -0.345 OA
ATOM     41  H3  UNL     1       9.106  29.119   5.853  1.00  0.00     0.219 HD
ENDBRANCH   9  40
BRANCH   1  42
HETATM   42  C4  UNL     1       9.706  22.393   2.132  1.00  0.00     0.033 C 
BRANCH  42  43
HETATM   43  C3  UNL     1       8.240  22.105   1.933  1.00  0.00     0.002 C 
BRANCH  43  44
HETATM   44  C2  UNL     1       7.870  20.855   2.708  1.00  0.00    -0.004 C 
HETATM   45  C1  UNL     1       8.823  19.728   2.406  1.00  0.00     0.005 C 
ENDBRANCH  43  44
ENDBRANCH  42  43
ENDBRANCH   1  42
BRANCH  10  46
HETATM   46  C25 UNL     1       8.722  26.474   7.587  1.00  0.00     0.032 C 
HETATM   47  C26 UNL     1       8.485  27.537   8.616  1.00  0.00     0.016 C 
HETATM   48  C27 UNL     1       9.052  25.207   8.250  1.00  0.00     0.016 C 
ENDBRANCH  10  46
BRANCH  18  49
HETATM   49  O5  UNL     1      11.160  25.619   2.581  1.00  0.00    -0.348 OA
ATOM     50  H5  UNL     1      10.982  26.268   3.252  1.00  0.00     0.219 HD
ENDBRANCH  18  49
BRANCH  15  51
HETATM   51  C30 UNL     1      11.363  23.067   6.362  1.00  0.00     0.038 C 
BRANCH  51  52
HETATM   52  C31 UNL     1      12.471  22.205   6.910  1.00  0.00    -0.020 C 
HETATM   53  C32 UNL     1      13.615  22.283   5.908  1.00  0.00     0.009 C 
HETATM   54  C33 UNL     1      13.001  22.723   8.229  1.00  0.00     0.009 C 
ENDBRANCH  51  52
ENDBRANCH  15  51
TORSDOF 13
ENDMDL
MODEL 5
REMARK VINA RESULT: -8.140010837      2.480      8.986
REMARK  13 active torsions:
REMARK  status: ('A' for Active; 'I' for Inactive)
REMARK    1  A    between atoms: C2_2  and  C3_3 
REMARK    2  A    between atoms: C3_3  and  C4_4 
REMARK    3  A    between atoms: C4_4  and  C5_5 
REMARK    4  A    between atoms: C7_10  and  C8_11 
REMARK    5  A    between atoms: N2_20  and  C17_21 
REMARK    6  A    between atoms: C17_21  and  C18_22 
REMARK    7  A    between atoms: C17_21  and  C20_24 
REMARK    8  A    between atoms: C20_24  and  C21_25 
REMARK       I    between atoms: C21_25  and  N3_27 
REMARK    9  A    between atoms: C23_34  and  O3_35 
REMARK   10  A    between atoms: C24_37  and  C25_38 
REMARK   11  A    between atoms: C29_45  and  C30_46 
REMARK   12  A    between atoms: C30_46  and  C31_47 
REMARK   13  A    between atoms: C34_52  and  O5_53 
ROOT
HETATM    1  C5  UNL     1       8.712  22.664   2.014  1.00  0.00     0.159 C 
HETATM    2  N1  UNL     1       7.501  23.454   1.605  1.00  0.00    -0.347 N 
ATOM      3  H1  UNL     1       6.808  22.963   1.040  1.00  0.00     0.163 HD
HETATM    4  C6  UNL     1       7.223  24.775   1.912  1.00  0.00     0.243 C 
HETATM    5  O1  UNL     1       7.183  25.603   0.959  1.00  0.00    -0.271 OA
HETATM    6  C7  UNL     1       6.946  25.422   3.264  1.00  0.00     0.209 C 
HETATM    7  N6  UNL     1       7.789  26.556   3.443  1.00  0.00    -0.354 N 
ATOM      8  H6  UNL     1       7.777  27.104   2.582  1.00  0.00     0.162 HD
HETATM    9  C23 UNL     1       8.618  27.192   4.351  1.00  0.00     0.160 C 
HETATM   10  C24 UNL     1       9.690  26.991   5.266  1.00  0.00     0.066 C 
HETATM   11  N7  UNL     1      10.845  26.264   5.367  1.00  0.00    -0.325 N 
ATOM     12  H7  UNL     1      11.299  26.633   6.203  1.00  0.00     0.169 HD
HETATM   13  C28 UNL     1      11.722  25.276   4.912  1.00  0.00     0.244 C 
HETATM   14  O4  UNL     1      12.957  25.515   4.656  1.00  0.00    -0.271 OA
HETATM   15  C29 UNL     1      11.398  23.800   4.649  1.00  0.00     0.176 C 
HETATM   16  N8  UNL     1      10.181  23.827   3.905  1.00  0.00    -0.359 N 
ATOM     17  H8  UNL     1       9.441  24.152   4.527  1.00  0.00     0.162 HD
HETATM   18  C34 UNL     1       9.634  23.590   2.702  1.00  0.00     0.135 C 
ENDROOT
BRANCH   6  19
HETATM   19  C8  UNL     1       5.474  25.485   3.429  1.00  0.00     0.259 C 
HETATM   20  C9  UNL     1       4.752  24.174   3.472  1.00  0.00     0.026 C 
HETATM   21  C10 UNL     1       4.524  23.407   4.667  1.00  0.00     0.007 C 
HETATM   22  C14 UNL     1       3.400  24.308   2.751  1.00  0.00    -0.007 C 
HETATM   23  C11 UNL     1       4.234  21.952   4.182  1.00  0.00     0.000 C 
HETATM   24  C12 UNL     1       2.781  22.041   3.695  1.00  0.00     0.000 C 
HETATM   25  C13 UNL     1       2.604  23.092   2.662  1.00  0.00     0.005 C 
HETATM   26  C15 UNL     1       2.714  25.514   3.336  1.00  0.00     0.035 C 
HETATM   27  C16 UNL     1       3.597  26.745   3.202  1.00  0.00     0.274 C 
HETATM   28  N2  UNL     1       4.810  26.597   4.012  1.00  0.00     0.101 N 
BRANCH  28  29
HETATM   29  C17 UNL     1       4.445  26.718   5.324  1.00  0.00     0.232 C 
BRANCH  29  30
HETATM   30  C18 UNL     1       5.378  26.526   6.455  1.00  0.00     0.032 C 
HETATM   31  C19 UNL     1       5.722  27.858   7.070  1.00  0.00     0.007 C 
ENDBRANCH  29  30
BRANCH  29  32
HETATM   32  C20 UNL     1       3.647  27.961   5.614  1.00  0.00     0.139 C 
BRANCH  32  33
HETATM   33  C21 UNL     1       2.378  27.772   6.346  1.00  0.00     0.225 C 
HETATM   34  O2  UNL     1       1.907  26.621   6.551  1.00  0.00    -0.273 OA
HETATM   35  N3  UNL     1       1.577  28.798   6.879  1.00  0.00    -0.304 N 
HETATM   36  C22 UNL     1       1.842  29.913   7.358  1.00  0.00     0.203 C 
ATOM     37  H3  UNL     1       0.581  28.583   6.873  1.00  0.00     0.171 HD
HETATM   38  N4  UNL     1       3.119  30.502   7.508  1.00  0.00    -0.066 NA
HETATM   39  N5  UNL     1       0.733  30.707   7.822  1.00  0.00    -0.066 NA
ENDBRANCH  32  33
ENDBRANCH  29  32
ENDBRANCH  28  29
ENDBRANCH   6  19
BRANCH   9  40
HETATM   40  O3  UNL     1       8.224  28.473   4.326  1.00  0.00    -0.345 OA
ATOM     41  H3  UNL     1       8.748  28.870   3.639  1.00  0.00     0.219 HD
ENDBRANCH   9  40
BRANCH   1  42
HETATM   42  C4  UNL     1       8.320  21.419   2.701  1.00  0.00     0.033 C 
BRANCH  42  43
HETATM   43  C3  UNL     1       9.198  20.227   2.419  1.00  0.00     0.002 C 
BRANCH  43  44
HETATM   44  C2  UNL     1       8.361  18.965   2.496  1.00  0.00    -0.004 C 
HETATM   45  C1  UNL     1       9.178  17.750   2.143  1.00  0.00     0.005 C 
ENDBRANCH  43  44
ENDBRANCH  42  43
ENDBRANCH   1  42
BRANCH  10  46
HETATM   46  C25 UNL     1       9.000  27.012   6.656  1.00  0.00     0.032 C 
HETATM   47  C26 UNL     1       9.605  28.024   7.581  1.00  0.00     0.016 C 
HETATM   48  C27 UNL     1       8.920  25.711   7.330  1.00  0.00     0.016 C 
ENDBRANCH  10  46
BRANCH  18  49
HETATM   49  O5  UNL     1       9.975  24.431   1.744  1.00  0.00    -0.348 OA
ATOM     50  H5  UNL     1       9.804  25.279   2.136  1.00  0.00     0.219 HD
ENDBRANCH  18  49
BRANCH  15  51
HETATM   51  C30 UNL     1      11.074  23.098   5.971  1.00  0.00     0.038 C 
BRANCH  51  52
HETATM   52  C31 UNL     1      12.289  23.000   6.856  1.00  0.00    -0.020 C 
HETATM   53  C32 UNL     1      12.008  23.871   8.074  1.00  0.00     0.009 C 
HETATM   54  C33 UNL     1      12.518  21.592   7.362  1.00  0.00     0.009 C 
ENDBRANCH  51  52
ENDBRANCH  15  51
TORSDOF 13
ENDMDL
