MODEL 1
REMARK VINA RESULT: -5.366133840      0.000      0.000
REMARK  6 active torsions:
REMARK  status: ('A' for Active; 'I' for Inactive)
REMARK    1  A    between atoms: C2_2  and  C4_4 
REMARK    2  A    between atoms: C4_4  and  N1_5 
REMARK    3  A    between atoms: N1_5  and  C5_7 
REMARK    4  A    between atoms: C6_10  and  N3_11 
REMARK    5  A    between atoms: C7_16  and  N5_17 
REMARK    6  A    between atoms: N5_17  and  C8_19 
ROOT
HETATM    1  C5  UNL     1      43.752  15.018   1.313  1.00  0.00     0.710 A 
HETATM    2  N2  UNL     1      43.577  15.411   0.051  1.00  0.00    -0.021 N 
ATOM      3  H2  UNL     1      43.439  16.405  -0.133  1.00  0.00     0.203 HD
HETATM    4  C6  UNL     1      43.574  14.554  -1.003  1.00  0.00     0.705 A 
HETATM    5  N4  UNL     1      43.757  13.246  -0.742  1.00  0.00    -0.022 N 
ATOM      6  H4  UNL     1      43.758  12.586  -1.520  1.00  0.00     0.203 HD
HETATM    7  C7  UNL     1      43.939  12.778   0.502  1.00  0.00     0.707 A 
HETATM    8  N6  UNL     1      43.931  13.679   1.500  1.00  0.00    -0.021 N 
ATOM      9  H6  UNL     1      44.067  13.341   2.452  1.00  0.00     0.203 HD
ENDROOT
BRANCH   1  10
HETATM   10  N1  UNL     1      43.757  15.818   2.314  1.00  0.00    -0.204 N 
ATOM     11  H1  UNL     1      43.462  16.780   2.147  1.00  0.00     0.183 HD
BRANCH  10  12
HETATM   12  C4  UNL     1      44.137  15.475   3.624  1.00  0.00     0.083 C 
BRANCH  12  13
HETATM   13  C2  UNL     1      45.628  15.564   3.876  1.00  0.00     0.016 C 
HETATM   14  C1  UNL     1      46.139  14.159   4.099  1.00  0.00     0.015 C 
HETATM   15  C3  UNL     1      45.962  16.374   5.099  1.00  0.00     0.015 C 
ENDBRANCH  12  13
ENDBRANCH  10  12
ENDBRANCH   1  10
BRANCH   4  16
HETATM   16  N3  UNL     1      43.402  14.979  -2.208  1.00  0.00    -0.234 N 
ATOM     17  H32 UNL     1      42.654  15.633  -2.438  1.00  0.00     0.174 HD
ATOM     18  H31 UNL     1      44.009  14.673  -2.968  1.00  0.00     0.174 HD
ENDBRANCH   4  16
BRANCH   7  19
HETATM   19  N5  UNL     1      44.107  11.538   0.697  1.00  0.00    -0.217 N 
ATOM     20  H5  UNL     1      43.246  11.021   0.878  1.00  0.00     0.178 HD
BRANCH  19  21
HETATM   21  C8  UNL     1      45.275  10.746   0.709  1.00  0.00     0.036 C 
HETATM   22  C9  UNL     1      45.860  10.596   2.101  1.00  0.00     0.038 C 
HETATM   23  C10 UNL     1      46.336  11.203  -0.264  1.00  0.00     0.038 C 
HETATM   24  C11 UNL     1      44.894   9.312   0.278  1.00  0.00     0.038 C 
ENDBRANCH  19  21
ENDBRANCH   7  19
TORSDOF 6
ENDMDL
MODEL 2
REMARK VINA RESULT: -5.279802204      2.379      3.766
REMARK  6 active torsions:
REMARK  status: ('A' for Active; 'I' for Inactive)
REMARK    1  A    between atoms: C2_2  and  C4_4 
REMARK    2  A    between atoms: C4_4  and  N1_5 
REMARK    3  A    between atoms: N1_5  and  C5_7 
REMARK    4  A    between atoms: C6_10  and  N3_11 
REMARK    5  A    between atoms: C7_16  and  N5_17 
REMARK    6  A    between atoms: N5_17  and  C8_19 
ROOT
HETATM    1  C5  UNL     1      45.083  11.869   1.720  1.00  0.00     0.710 A 
HETATM    2  N2  UNL     1      44.153  11.412   0.881  1.00  0.00    -0.021 N 
ATOM      3  H2  UNL     1      43.274  11.925   0.807  1.00  0.00     0.203 HD
HETATM    4  C6  UNL     1      44.317  10.300   0.120  1.00  0.00     0.705 A 
HETATM    5  N4  UNL     1      45.482   9.636   0.231  1.00  0.00    -0.022 N 
ATOM      6  H4  UNL     1      45.624   8.797  -0.332  1.00  0.00     0.203 HD
HETATM    7  C7  UNL     1      46.463  10.035   1.054  1.00  0.00     0.707 A 
HETATM    8  N6  UNL     1      46.237  11.144   1.780  1.00  0.00    -0.021 N 
ATOM      9  H6  UNL     1      46.972  11.461   2.411  1.00  0.00     0.203 HD
ENDROOT
BRANCH   1  10
HETATM   10  N1  UNL     1      44.939  12.917   2.442  1.00  0.00    -0.204 N 
ATOM     11  H1  UNL     1      44.096  13.473   2.299  1.00  0.00     0.183 HD
BRANCH  10  12
HETATM   12  C4  UNL     1      45.851  13.361   3.417  1.00  0.00     0.083 C 
BRANCH  12  13
HETATM   13  C2  UNL     1      45.488  14.695   4.037  1.00  0.00     0.016 C 
HETATM   14  C1  UNL     1      44.530  15.391   3.096  1.00  0.00     0.015 C 
HETATM   15  C3  UNL     1      46.680  15.592   4.223  1.00  0.00     0.015 C 
ENDBRANCH  12  13
ENDBRANCH  10  12
ENDBRANCH   1  10
BRANCH   4  16
HETATM   16  N3  UNL     1      43.388   9.895  -0.680  1.00  0.00    -0.234 N 
ATOM     17  H32 UNL     1      42.474  10.346  -0.701  1.00  0.00     0.174 HD
ATOM     18  H31 UNL     1      43.542   9.112  -1.315  1.00  0.00     0.174 HD
ENDBRANCH   4  16
BRANCH   7  19
HETATM   19  N5  UNL     1      47.543   9.376   1.124  1.00  0.00    -0.217 N 
ATOM     20  H5  UNL     1      48.328   9.804   0.632  1.00  0.00     0.178 HD
BRANCH  19  21
HETATM   21  C8  UNL     1      47.851   8.155   1.762  1.00  0.00     0.036 C 
HETATM   22  C9  UNL     1      47.674   6.961   0.843  1.00  0.00     0.038 C 
HETATM   23  C10 UNL     1      47.111   7.939   3.060  1.00  0.00     0.038 C 
HETATM   24  C11 UNL     1      49.352   8.163   2.125  1.00  0.00     0.038 C 
ENDBRANCH  19  21
ENDBRANCH   7  19
TORSDOF 6
ENDMDL
MODEL 3
REMARK VINA RESULT: -5.241333981      1.942      3.867
REMARK  6 active torsions:
REMARK  status: ('A' for Active; 'I' for Inactive)
REMARK    1  A    between atoms: C2_2  and  C4_4 
REMARK    2  A    between atoms: C4_4  and  N1_5 
REMARK    3  A    between atoms: N1_5  and  C5_7 
REMARK    4  A    between atoms: C6_10  and  N3_11 
REMARK    5  A    between atoms: C7_16  and  N5_17 
REMARK    6  A    between atoms: N5_17  and  C8_19 
ROOT
HETATM    1  C5  UNL     1      45.593  12.207   2.412  1.00  0.00     0.710 A 
HETATM    2  N2  UNL     1      46.124  10.985   2.361  1.00  0.00    -0.021 N 
ATOM      3  H2  UNL     1      46.740  10.692   3.120  1.00  0.00     0.203 HD
HETATM    4  C6  UNL     1      45.887  10.111   1.349  1.00  0.00     0.705 A 
HETATM    5  N4  UNL     1      45.073  10.515   0.356  1.00  0.00    -0.022 N 
ATOM      6  H4  UNL     1      44.883   9.873  -0.414  1.00  0.00     0.203 HD
HETATM    7  C7  UNL     1      44.504  11.729   0.340  1.00  0.00     0.707 A 
HETATM    8  N6  UNL     1      44.780  12.547   1.371  1.00  0.00    -0.021 N 
ATOM      9  H6  UNL     1      44.356  13.474   1.375  1.00  0.00     0.203 HD
ENDROOT
BRANCH   1  10
HETATM   10  N1  UNL     1      45.811  13.039   3.362  1.00  0.00    -0.204 N 
ATOM     11  H1  UNL     1      46.269  12.684   4.200  1.00  0.00     0.183 HD
BRANCH  10  12
HETATM   12  C4  UNL     1      45.467  14.404   3.339  1.00  0.00     0.083 C 
BRANCH  12  13
HETATM   13  C2  UNL     1      45.890  15.165   4.578  1.00  0.00     0.016 C 
HETATM   14  C1  UNL     1      44.760  16.099   4.948  1.00  0.00     0.015 C 
HETATM   15  C3  UNL     1      47.121  16.000   4.354  1.00  0.00     0.015 C 
ENDBRANCH  12  13
ENDBRANCH  10  12
ENDBRANCH   1  10
BRANCH   4  16
HETATM   16  N3  UNL     1      46.423   8.938   1.341  1.00  0.00    -0.234 N 
ATOM     17  H32 UNL     1      47.397   8.798   1.608  1.00  0.00     0.174 HD
ATOM     18  H31 UNL     1      45.887   8.114   1.067  1.00  0.00     0.174 HD
ENDBRANCH   4  16
BRANCH   7  19
HETATM   19  N5  UNL     1      43.744  12.064  -0.618  1.00  0.00    -0.217 N 
ATOM     20  H5  UNL     1      42.847  11.579  -0.631  1.00  0.00     0.178 HD
BRANCH  19  21
HETATM   21  C8  UNL     1      43.922  12.989  -1.669  1.00  0.00     0.036 C 
HETATM   22  C9  UNL     1      45.333  12.969  -2.225  1.00  0.00     0.038 C 
HETATM   23  C10 UNL     1      43.510  14.399  -1.321  1.00  0.00     0.038 C 
HETATM   24  C11 UNL     1      43.020  12.562  -2.848  1.00  0.00     0.038 C 
ENDBRANCH  19  21
ENDBRANCH   7  19
TORSDOF 6
ENDMDL
MODEL 4
REMARK VINA RESULT: -5.159767809      2.375      4.077
REMARK  6 active torsions:
REMARK  status: ('A' for Active; 'I' for Inactive)
REMARK    1  A    between atoms: C2_2  and  C4_4 
REMARK    2  A    between atoms: C4_4  and  N1_5 
REMARK    3  A    between atoms: N1_5  and  C5_7 
REMARK    4  A    between atoms: C6_10  and  N3_11 
REMARK    5  A    between atoms: C7_16  and  N5_17 
REMARK    6  A    between atoms: N5_17  and  C8_19 
ROOT
HETATM    1  C5  UNL     1      45.188  11.677   1.790  1.00  0.00     0.710 A 
HETATM    2  N2  UNL     1      46.298  10.947   1.911  1.00  0.00    -0.021 N 
ATOM      3  H2  UNL     1      47.051  11.305   2.499  1.00  0.00     0.203 HD
HETATM    4  C6  UNL     1      46.475   9.752   1.292  1.00  0.00     0.705 A 
HETATM    5  N4  UNL     1      45.471   9.296   0.520  1.00  0.00    -0.022 N 
ATOM      6  H4  UNL     1      45.584   8.400   0.046  1.00  0.00     0.203 HD
HETATM    7  C7  UNL     1      44.327   9.975   0.351  1.00  0.00     0.707 A 
HETATM    8  N6  UNL     1      44.215  11.152   0.991  1.00  0.00    -0.021 N 
ATOM      9  H6  UNL     1      43.352  11.683   0.873  1.00  0.00     0.203 HD
ENDROOT
BRANCH   1  10
HETATM   10  N1  UNL     1      45.011  12.806   2.369  1.00  0.00    -0.204 N 
ATOM     11  H1  UNL     1      44.226  13.376   2.056  1.00  0.00     0.183 HD
BRANCH  10  12
HETATM   12  C4  UNL     1      45.814  13.322   3.403  1.00  0.00     0.083 C 
BRANCH  12  13
HETATM   13  C2  UNL     1      45.347  14.660   3.936  1.00  0.00     0.016 C 
HETATM   14  C1  UNL     1      44.475  15.296   2.877  1.00  0.00     0.015 C 
HETATM   15  C3  UNL     1      46.485  15.601   4.220  1.00  0.00     0.015 C 
ENDBRANCH  12  13
ENDBRANCH  10  12
ENDBRANCH   1  10
BRANCH   4  16
HETATM   16  N3  UNL     1      47.566   9.079   1.439  1.00  0.00    -0.234 N 
ATOM     17  H32 UNL     1      48.426   9.355   0.967  1.00  0.00     0.174 HD
ATOM     18  H31 UNL     1      47.599   8.250   2.032  1.00  0.00     0.174 HD
ENDBRANCH   4  16
BRANCH   7  19
HETATM   19  N5  UNL     1      43.410   9.505  -0.386  1.00  0.00    -0.217 N 
ATOM     20  H5  UNL     1      42.692   8.984   0.118  1.00  0.00     0.178 HD
BRANCH  19  21
HETATM   21  C8  UNL     1      43.207   9.574  -1.781  1.00  0.00     0.036 C 
HETATM   22  C9  UNL     1      44.139   8.654  -2.547  1.00  0.00     0.038 C 
HETATM   23  C10 UNL     1      43.268  10.975  -2.341  1.00  0.00     0.038 C 
HETATM   24  C11 UNL     1      41.787   9.054  -2.092  1.00  0.00     0.038 C 
ENDBRANCH  19  21
ENDBRANCH   7  19
TORSDOF 6
ENDMDL
MODEL 5
REMARK VINA RESULT: -5.139520593      1.471      3.687
REMARK  6 active torsions:
REMARK  status: ('A' for Active; 'I' for Inactive)
REMARK    1  A    between atoms: C2_2  and  C4_4 
REMARK    2  A    between atoms: C4_4  and  N1_5 
REMARK    3  A    between atoms: N1_5  and  C5_7 
REMARK    4  A    between atoms: C6_10  and  N3_11 
REMARK    5  A    between atoms: C7_16  and  N5_17 
REMARK    6  A    between atoms: N5_17  and  C8_19 
ROOT
HETATM    1  C5  UNL     1      43.791  14.859   1.410  1.00  0.00     0.710 A 
HETATM    2  N2  UNL     1      43.915  13.556   1.662  1.00  0.00    -0.021 N 
ATOM      3  H2  UNL     1      44.033  13.259   2.631  1.00  0.00     0.203 HD
HETATM    4  C6  UNL     1      43.891  12.604   0.694  1.00  0.00     0.705 A 
HETATM    5  N4  UNL     1      43.735  13.013  -0.578  1.00  0.00    -0.022 N 
ATOM      6  H4  UNL     1      43.715  12.313  -1.320  1.00  0.00     0.203 HD
HETATM    7  C7  UNL     1      43.604  14.307  -0.907  1.00  0.00     0.707 A 
HETATM    8  N6  UNL     1      43.637  15.199   0.097  1.00  0.00    -0.021 N 
ATOM      9  H6  UNL     1      43.541  16.187  -0.135  1.00  0.00     0.203 HD
ENDROOT
BRANCH   1  10
HETATM   10  N1  UNL     1      43.812  15.766   2.315  1.00  0.00    -0.204 N 
ATOM     11  H1  UNL     1      43.557  16.713   2.036  1.00  0.00     0.183 HD
BRANCH  10  12
HETATM   12  C4  UNL     1      44.160  15.558   3.662  1.00  0.00     0.083 C 
BRANCH  12  13
HETATM   13  C2  UNL     1      45.647  15.645   3.935  1.00  0.00     0.016 C 
HETATM   14  C1  UNL     1      46.152  14.241   4.176  1.00  0.00     0.015 C 
HETATM   15  C3  UNL     1      45.967  16.464   5.155  1.00  0.00     0.015 C 
ENDBRANCH  12  13
ENDBRANCH  10  12
ENDBRANCH   1  10
BRANCH   4  16
HETATM   16  N3  UNL     1      44.014  11.353   0.986  1.00  0.00    -0.234 N 
ATOM     17  H32 UNL     1      43.967  10.633   0.264  1.00  0.00     0.174 HD
ATOM     18  H31 UNL     1      44.162  11.046   1.947  1.00  0.00     0.174 HD
ENDBRANCH   4  16
BRANCH   7  19
HETATM   19  N5  UNL     1      43.460  14.643  -2.120  1.00  0.00    -0.217 N 
ATOM     20  H5  UNL     1      42.500  14.586  -2.460  1.00  0.00     0.178 HD
BRANCH  19  21
HETATM   21  C8  UNL     1      44.393  15.084  -3.083  1.00  0.00     0.036 C 
HETATM   22  C9  UNL     1      45.686  14.291  -3.042  1.00  0.00     0.038 C 
HETATM   23  C10 UNL     1      44.679  16.566  -3.027  1.00  0.00     0.038 C 
HETATM   24  C11 UNL     1      43.805  14.818  -4.486  1.00  0.00     0.038 C 
ENDBRANCH  19  21
ENDBRANCH   7  19
TORSDOF 6
ENDMDL
