MODEL 1
REMARK VINA RESULT: -5.533806748      0.000      0.000
REMARK  4 active torsions:
REMARK  status: ('A' for Active; 'I' for Inactive)
REMARK    1  A    between atoms: C1_2  and  C4_7 
REMARK    2  A    between atoms: C2_3  and  C3_4 
REMARK    3  A    between atoms: C3_4  and  O1_5 
REMARK    4  A    between atoms: C10_13  and  O2_14 
ROOT
HETATM    1  C4  UNL     1      45.010  10.467  -0.683  1.00  0.00     0.043 C 
HETATM    2  C5  UNL     1      46.164   9.523  -0.690  1.00  0.00     0.002 C 
HETATM    3  C6  UNL     1      46.201   8.514  -1.779  1.00  0.00     0.006 C 
HETATM    4  C7  UNL     1      47.279   7.537  -1.277  1.00  0.00     0.001 C 
HETATM    5  C8  UNL     1      47.448   7.788   0.185  1.00  0.00     0.007 C 
HETATM    6  C9  UNL     1      46.207   8.599   0.528  1.00  0.00     0.021 C 
HETATM    7  C10 UNL     1      46.418   9.388   1.817  1.00  0.00     0.153 C 
HETATM    8  C11 UNL     1      46.017  10.803   1.492  1.00  0.00     0.219 C 
HETATM    9  N2  UNL     1      45.652  11.573   2.651  1.00  0.00    -0.068 N 
ATOM     10  H21 UNL     1      46.423  11.836   3.264  1.00  0.00     0.277 HD
ATOM     11  H22 UNL     1      45.137  11.068   3.371  1.00  0.00     0.277 HD
HETATM   12  C12 UNL     1      44.935  12.686   2.026  1.00  0.00     0.233 C 
HETATM   13  C13 UNL     1      44.015  12.015   1.035  1.00  0.00     0.035 C 
HETATM   14  C14 UNL     1      44.655  10.681   0.785  1.00  0.00     0.030 C 
ENDROOT
BRANCH   1  15
HETATM   15  C1  UNL     1      43.870  10.098  -1.515  1.00  0.00     0.027 C 
HETATM   16  N1  UNL     1      43.720  10.746  -2.779  1.00  0.00    -0.107 NA
HETATM   17  C2  UNL     1      42.989   9.207  -1.121  1.00  0.00     0.021 C 
BRANCH  17  18
HETATM   18  C3  UNL     1      41.836   8.869  -1.986  1.00  0.00     0.193 C 
BRANCH  18  19
HETATM   19  O1  UNL     1      41.731   7.487  -2.021  1.00  0.00    -0.397 OA
ATOM     20  H1  UNL     1      41.139   7.228  -1.324  1.00  0.00     0.209 HD
ENDBRANCH  18  19
ENDBRANCH  17  18
ENDBRANCH   1  15
BRANCH   7  21
HETATM   21  O2  UNL     1      47.723   9.274   2.259  1.00  0.00    -0.393 OA
ATOM     22  H2  UNL     1      47.774   8.727   3.033  1.00  0.00     0.210 HD
ENDBRANCH   7  21
TORSDOF 4
ENDMDL
MODEL 2
REMARK VINA RESULT: -5.410643863      2.445      3.581
REMARK  4 active torsions:
REMARK  status: ('A' for Active; 'I' for Inactive)
REMARK    1  A    between atoms: C1_2  and  C4_7 
REMARK    2  A    between atoms: C2_3  and  C3_4 
REMARK    3  A    between atoms: C3_4  and  O1_5 
REMARK    4  A    between atoms: C10_13  and  O2_14 
ROOT
HETATM    1  C4  UNL     1      44.803  11.482  -1.255  1.00  0.00     0.043 C 
HETATM    2  C5  UNL     1      45.378  11.490   0.120  1.00  0.00     0.002 C 
HETATM    3  C6  UNL     1      45.887  10.196   0.644  1.00  0.00     0.006 C 
HETATM    4  C7  UNL     1      46.058  10.499   2.142  1.00  0.00     0.001 C 
HETATM    5  C8  UNL     1      45.253  11.723   2.434  1.00  0.00     0.007 C 
HETATM    6  C9  UNL     1      44.358  11.832   1.208  1.00  0.00     0.021 C 
HETATM    7  C10 UNL     1      43.833  13.255   1.050  1.00  0.00     0.153 C 
HETATM    8  C11 UNL     1      44.123  13.633  -0.380  1.00  0.00     0.219 C 
HETATM    9  N2  UNL     1      43.279  14.689  -0.873  1.00  0.00    -0.068 N 
ATOM     10  H21 UNL     1      43.468  15.616  -0.494  1.00  0.00     0.277 HD
ATOM     11  H22 UNL     1      42.309  14.662  -0.557  1.00  0.00     0.277 HD
HETATM   12  C12 UNL     1      43.476  14.544  -2.316  1.00  0.00     0.233 C 
HETATM   13  C13 UNL     1      43.336  13.060  -2.556  1.00  0.00     0.035 C 
HETATM   14  C14 UNL     1      43.620  12.444  -1.219  1.00  0.00     0.030 C 
ENDROOT
BRANCH   1  15
HETATM   15  C1  UNL     1      44.477  10.173  -1.812  1.00  0.00     0.027 C 
HETATM   16  N1  UNL     1      45.400   9.581  -2.727  1.00  0.00    -0.107 NA
HETATM   17  C2  UNL     1      43.364   9.549  -1.499  1.00  0.00     0.021 C 
BRANCH  17  18
HETATM   18  C3  UNL     1      43.060   8.228  -2.095  1.00  0.00     0.193 C 
BRANCH  18  19
HETATM   19  O1  UNL     1      41.888   7.768  -1.516  1.00  0.00    -0.397 OA
ATOM     20  H1  UNL     1      41.437   8.520  -1.149  1.00  0.00     0.209 HD
ENDBRANCH  18  19
ENDBRANCH  17  18
ENDBRANCH   1  15
BRANCH   7  21
HETATM   21  O2  UNL     1      44.417  14.104   1.971  1.00  0.00    -0.393 OA
ATOM     22  H2  UNL     1      44.658  13.635   2.761  1.00  0.00     0.210 HD
ENDBRANCH   7  21
TORSDOF 4
ENDMDL
MODEL 3
REMARK VINA RESULT: -5.251043811      2.974      4.712
REMARK  4 active torsions:
REMARK  status: ('A' for Active; 'I' for Inactive)
REMARK    1  A    between atoms: C1_2  and  C4_7 
REMARK    2  A    between atoms: C2_3  and  C3_4 
REMARK    3  A    between atoms: C3_4  and  O1_5 
REMARK    4  A    between atoms: C10_13  and  O2_14 
ROOT
HETATM    1  C4  UNL     1      43.785  11.607  -1.417  1.00  0.00     0.043 C 
HETATM    2  C5  UNL     1      44.063  11.643   0.047  1.00  0.00     0.002 C 
HETATM    3  C6  UNL     1      43.945  12.962   0.721  1.00  0.00     0.006 C 
HETATM    4  C7  UNL     1      44.624  12.694   2.076  1.00  0.00     0.001 C 
HETATM    5  C8  UNL     1      45.440  11.453   1.916  1.00  0.00     0.007 C 
HETATM    6  C9  UNL     1      45.509  11.294   0.405  1.00  0.00     0.021 C 
HETATM    7  C10 UNL     1      45.841   9.852   0.030  1.00  0.00     0.153 C 
HETATM    8  C11 UNL     1      44.806   9.454  -0.991  1.00  0.00     0.219 C 
HETATM    9  N2  UNL     1      45.223   8.365  -1.832  1.00  0.00    -0.068 N 
ATOM     10  H21 UNL     1      45.262   7.451  -1.381  1.00  0.00     0.277 HD
ATOM     11  H22 UNL     1      46.207   8.370  -2.103  1.00  0.00     0.277 HD
HETATM   12  C12 UNL     1      44.266   8.486  -2.932  1.00  0.00     0.233 C 
HETATM   13  C13 UNL     1      44.270   9.960  -3.258  1.00  0.00     0.035 C 
HETATM   14  C14 UNL     1      44.779  10.611  -2.006  1.00  0.00     0.030 C 
ENDROOT
BRANCH   1  15
HETATM   15  C1  UNL     1      43.767  12.894  -2.103  1.00  0.00     0.027 C 
HETATM   16  N1  UNL     1      42.525  13.360  -2.632  1.00  0.00    -0.107 NA
HETATM   17  C2  UNL     1      44.858  13.611  -2.252  1.00  0.00     0.021 C 
BRANCH  17  18
HETATM   18  C3  UNL     1      44.805  14.906  -2.967  1.00  0.00     0.193 C 
BRANCH  18  19
HETATM   19  O1  UNL     1      44.031  15.770  -2.210  1.00  0.00    -0.397 OA
ATOM     20  H1  UNL     1      44.291  15.666  -1.302  1.00  0.00     0.209 HD
ENDBRANCH  18  19
ENDBRANCH  17  18
ENDBRANCH   1  15
BRANCH   7  21
HETATM   21  O2  UNL     1      45.850   9.040   1.148  1.00  0.00    -0.393 OA
ATOM     22  H2  UNL     1      46.721   8.696   1.312  1.00  0.00     0.210 HD
ENDBRANCH   7  21
TORSDOF 4
ENDMDL
MODEL 4
REMARK VINA RESULT: -5.242923016      2.684      4.334
REMARK  4 active torsions:
REMARK  status: ('A' for Active; 'I' for Inactive)
REMARK    1  A    between atoms: C1_2  and  C4_7 
REMARK    2  A    between atoms: C2_3  and  C3_4 
REMARK    3  A    between atoms: C3_4  and  O1_5 
REMARK    4  A    between atoms: C10_13  and  O2_14 
ROOT
HETATM    1  C4  UNL     1      44.376  11.313  -1.125  1.00  0.00     0.043 C 
HETATM    2  C5  UNL     1      44.399  11.606   0.336  1.00  0.00     0.002 C 
HETATM    3  C6  UNL     1      43.868  12.925   0.766  1.00  0.00     0.006 C 
HETATM    4  C7  UNL     1      44.364  13.015   2.220  1.00  0.00     0.001 C 
HETATM    5  C8  UNL     1      45.463  12.014   2.368  1.00  0.00     0.007 C 
HETATM    6  C9  UNL     1      45.810  11.686   0.923  1.00  0.00     0.021 C 
HETATM    7  C10 UNL     1      46.526  10.342   0.833  1.00  0.00     0.153 C 
HETATM    8  C11 UNL     1      45.791   9.566  -0.229  1.00  0.00     0.219 C 
HETATM    9  N2  UNL     1      46.582   8.521  -0.823  1.00  0.00    -0.068 N 
ATOM     10  H21 UNL     1      46.761   7.713  -0.227  1.00  0.00     0.277 HD
ATOM     11  H22 UNL     1      47.568   8.743  -0.966  1.00  0.00     0.277 HD
HETATM   12  C12 UNL     1      45.812   8.252  -2.038  1.00  0.00     0.233 C 
HETATM   13  C13 UNL     1      45.523   9.624  -2.597  1.00  0.00     0.035 C 
HETATM   14  C14 UNL     1      45.657  10.538  -1.415  1.00  0.00     0.030 C 
ENDROOT
BRANCH   1  15
HETATM   15  C1  UNL     1      44.167  12.454  -2.009  1.00  0.00     0.027 C 
HETATM   16  N1  UNL     1      45.280  13.305  -2.287  1.00  0.00    -0.107 NA
HETATM   17  C2  UNL     1      42.991  12.714  -2.533  1.00  0.00     0.021 C 
BRANCH  17  18
HETATM   18  C3  UNL     1      42.813  13.890  -3.415  1.00  0.00     0.193 C 
BRANCH  18  19
HETATM   19  O1  UNL     1      42.701  15.007  -2.603  1.00  0.00    -0.397 OA
ATOM     20  H1  UNL     1      43.263  14.870  -1.848  1.00  0.00     0.209 HD
ENDBRANCH  18  19
ENDBRANCH  17  18
ENDBRANCH   1  15
BRANCH   7  21
HETATM   21  O2  UNL     1      46.546   9.708   2.062  1.00  0.00    -0.393 OA
ATOM     22  H2  UNL     1      45.882   9.030   2.106  1.00  0.00     0.210 HD
ENDBRANCH   7  21
TORSDOF 4
ENDMDL
MODEL 5
REMARK VINA RESULT: -5.183615776      1.151      1.224
REMARK  4 active torsions:
REMARK  status: ('A' for Active; 'I' for Inactive)
REMARK    1  A    between atoms: C1_2  and  C4_7 
REMARK    2  A    between atoms: C2_3  and  C3_4 
REMARK    3  A    between atoms: C3_4  and  O1_5 
REMARK    4  A    between atoms: C10_13  and  O2_14 
ROOT
HETATM    1  C4  UNL     1      44.774  10.705  -0.723  1.00  0.00     0.043 C 
HETATM    2  C5  UNL     1      45.919   9.758  -0.839  1.00  0.00     0.002 C 
HETATM    3  C6  UNL     1      45.878   8.788  -1.965  1.00  0.00     0.006 C 
HETATM    4  C7  UNL     1      46.980   7.790  -1.571  1.00  0.00     0.001 C 
HETATM    5  C8  UNL     1      47.247   7.987  -0.114  1.00  0.00     0.007 C 
HETATM    6  C9  UNL     1      46.036   8.789   0.339  1.00  0.00     0.021 C 
HETATM    7  C10 UNL     1      46.336   9.529   1.638  1.00  0.00     0.153 C 
HETATM    8  C11 UNL     1      45.923  10.957   1.392  1.00  0.00     0.219 C 
HETATM    9  N2  UNL     1      45.640  11.686   2.600  1.00  0.00    -0.068 N 
ATOM     10  H21 UNL     1      46.451  11.923   3.170  1.00  0.00     0.277 HD
ATOM     11  H22 UNL     1      45.170  11.156   3.334  1.00  0.00     0.277 HD
HETATM   12  C12 UNL     1      44.891  12.823   2.064  1.00  0.00     0.233 C 
HETATM   13  C13 UNL     1      43.903  12.192   1.112  1.00  0.00     0.035 C 
HETATM   14  C14 UNL     1      44.517  10.866   0.772  1.00  0.00     0.030 C 
ENDROOT
BRANCH   1  15
HETATM   15  C1  UNL     1      43.579  10.372  -1.491  1.00  0.00     0.027 C 
HETATM   16  N1  UNL     1      42.820   9.229  -1.095  1.00  0.00    -0.107 NA
HETATM   17  C2  UNL     1      43.206  11.085  -2.529  1.00  0.00     0.021 C 
BRANCH  17  18
HETATM   18  C3  UNL     1      41.996  10.708  -3.294  1.00  0.00     0.193 C 
BRANCH  18  19
HETATM   19  O1  UNL     1      42.310   9.589  -4.048  1.00  0.00    -0.397 OA
ATOM     20  H1  UNL     1      42.862   9.873  -4.767  1.00  0.00     0.209 HD
ENDBRANCH  18  19
ENDBRANCH  17  18
ENDBRANCH   1  15
BRANCH   7  21
HETATM   21  O2  UNL     1      47.667   9.395   1.989  1.00  0.00    -0.393 OA
ATOM     22  H2  UNL     1      47.797   9.587   2.910  1.00  0.00     0.210 HD
ENDBRANCH   7  21
TORSDOF 4
ENDMDL
