MODEL 1
REMARK VINA RESULT: -6.771737150      0.000      0.000
REMARK  3 active torsions:
REMARK  status: ('A' for Active; 'I' for Inactive)
REMARK    1  A    between atoms: C3_7  and  N3_8 
REMARK    2  A    between atoms: N3_8  and  C4_10 
REMARK    3  A    between atoms: C8_14  and  O1_15 
ROOT
HETATM    1  C1  UNL     1      18.835  46.989  20.625  1.00  0.00     0.147 C 
HETATM    2  N1  UNL     1      17.570  46.459  20.418  1.00  0.00    -0.379 N 
ATOM      3  H1  UNL     1      17.316  45.797  21.153  1.00  0.00     0.160 HD
HETATM    4  C2  UNL     1      16.660  46.575  19.573  1.00  0.00     0.141 A 
HETATM    5  N2  UNL     1      15.499  45.842  19.731  1.00  0.00    -0.175 N 
ATOM      6  H2  UNL     1      15.411  45.221  20.535  1.00  0.00     0.186 HD
HETATM    7  C3  UNL     1      14.495  45.922  18.865  1.00  0.00     0.685 A 
HETATM    8  N4  UNL     1      14.544  46.716  17.789  1.00  0.00    -0.177 N 
ATOM      9  H4  UNL     1      13.755  46.754  17.144  1.00  0.00     0.185 HD
HETATM   10  C11 UNL     1      15.629  47.456  17.566  1.00  0.00     0.156 A 
HETATM   11  N5  UNL     1      15.724  48.309  16.440  1.00  0.00    -0.080 NA
HETATM   12  C12 UNL     1      16.706  47.385  18.473  1.00  0.00     0.130 A 
HETATM   13  C13 UNL     1      17.860  48.208  18.185  1.00  0.00     0.107 C 
HETATM   14  N6  UNL     1      18.773  48.882  17.927  1.00  0.00    -0.191 NA
ENDROOT
BRANCH   7  15
HETATM   15  N3  UNL     1      13.463  45.180  19.132  1.00  0.00    -0.192 N 
ATOM     16  H3  UNL     1      13.576  44.170  19.050  1.00  0.00     0.184 HD
BRANCH  15  17
HETATM   17  C4  UNL     1      12.220  45.656  19.520  1.00  0.00     0.051 A 
HETATM   18  C5  UNL     1      11.072  45.224  18.902  1.00  0.00     0.030 A 
HETATM   19  C6  UNL     1       9.818  45.696  19.282  1.00  0.00     0.005 A 
HETATM   20  C7  UNL     1       9.742  46.616  20.302  1.00  0.00     0.037 A 
HETATM   21  C8  UNL     1      10.856  47.063  20.933  1.00  0.00     0.070 A 
HETATM   22  C10 UNL     1      12.108  46.576  20.535  1.00  0.00     0.066 A 
BRANCH  21  23
HETATM   23  O1  UNL     1      10.743  47.986  21.952  1.00  0.00    -0.356 OA
HETATM   24  C9  UNL     1       9.889  49.080  21.820  1.00  0.00     0.210 C 
ENDBRANCH  21  23
ENDBRANCH  15  17
ENDBRANCH   7  15
TORSDOF 3
ENDMDL
MODEL 2
REMARK VINA RESULT: -6.672126282      0.590      2.248
REMARK  3 active torsions:
REMARK  status: ('A' for Active; 'I' for Inactive)
REMARK    1  A    between atoms: C3_7  and  N3_8 
REMARK    2  A    between atoms: N3_8  and  C4_10 
REMARK    3  A    between atoms: C8_14  and  O1_15 
ROOT
HETATM    1  C1  UNL     1      16.437  48.953  15.785  1.00  0.00     0.147 C 
HETATM    2  N1  UNL     1      15.589  48.058  16.419  1.00  0.00    -0.379 N 
ATOM      3  H1  UNL     1      14.728  47.917  15.889  1.00  0.00     0.160 HD
HETATM    4  C2  UNL     1      15.597  47.379  17.466  1.00  0.00     0.141 A 
HETATM    5  N2  UNL     1      14.511  46.574  17.753  1.00  0.00    -0.175 N 
ATOM      6  H2  UNL     1      13.725  46.553  17.102  1.00  0.00     0.186 HD
HETATM    7  C3  UNL     1      14.460  45.828  18.850  1.00  0.00     0.685 A 
HETATM    8  N4  UNL     1      15.455  45.809  19.745  1.00  0.00    -0.177 N 
ATOM      9  H4  UNL     1      15.384  45.225  20.578  1.00  0.00     0.185 HD
HETATM   10  C11 UNL     1      16.538  46.558  19.542  1.00  0.00     0.156 A 
HETATM   11  N5  UNL     1      17.614  46.569  20.462  1.00  0.00    -0.080 NA
HETATM   12  C12 UNL     1      16.611  47.356  18.382  1.00  0.00     0.130 A 
HETATM   13  C13 UNL     1      17.808  48.150  18.208  1.00  0.00     0.107 C 
HETATM   14  N6  UNL     1      18.782  48.777  18.096  1.00  0.00    -0.191 NA
ENDROOT
BRANCH   7  15
HETATM   15  N3  UNL     1      13.382  45.119  18.998  1.00  0.00    -0.192 N 
ATOM     16  H3  UNL     1      13.440  44.124  18.782  1.00  0.00     0.184 HD
BRANCH  15  17
HETATM   17  C4  UNL     1      12.159  45.612  19.428  1.00  0.00     0.051 A 
HETATM   18  C5  UNL     1      10.986  45.199  18.844  1.00  0.00     0.030 A 
HETATM   19  C6  UNL     1       9.752  45.687  19.266  1.00  0.00     0.005 A 
HETATM   20  C7  UNL     1       9.721  46.603  20.292  1.00  0.00     0.037 A 
HETATM   21  C8  UNL     1      10.862  47.031  20.890  1.00  0.00     0.070 A 
HETATM   22  C10 UNL     1      12.093  46.528  20.450  1.00  0.00     0.066 A 
BRANCH  21  23
HETATM   23  O1  UNL     1      10.794  47.951  21.916  1.00  0.00    -0.356 OA
HETATM   24  C9  UNL     1       9.863  48.988  21.872  1.00  0.00     0.210 C 
ENDBRANCH  21  23
ENDBRANCH  15  17
ENDBRANCH   7  15
TORSDOF 3
ENDMDL
MODEL 3
REMARK VINA RESULT: -6.316311778      2.364      2.934
REMARK  3 active torsions:
REMARK  status: ('A' for Active; 'I' for Inactive)
REMARK    1  A    between atoms: C3_7  and  N3_8 
REMARK    2  A    between atoms: N3_8  and  C4_10 
REMARK    3  A    between atoms: C8_14  and  O1_15 
ROOT
HETATM    1  C1  UNL     1      15.733  49.888  16.368  1.00  0.00     0.147 C 
HETATM    2  N1  UNL     1      15.072  49.010  17.213  1.00  0.00    -0.379 N 
ATOM      3  H1  UNL     1      14.955  49.405  18.147  1.00  0.00     0.160 HD
HETATM    4  C2  UNL     1      14.581  47.866  17.136  1.00  0.00     0.141 A 
HETATM    5  N2  UNL     1      13.981  47.316  18.253  1.00  0.00    -0.175 N 
ATOM      6  H2  UNL     1      13.952  47.858  19.117  1.00  0.00     0.186 HD
HETATM    7  C3  UNL     1      13.441  46.103  18.234  1.00  0.00     0.685 A 
HETATM    8  N4  UNL     1      13.445  45.338  17.136  1.00  0.00    -0.177 N 
ATOM      9  H4  UNL     1      13.021  44.410  17.156  1.00  0.00     0.185 HD
HETATM   10  C11 UNL     1      14.004  45.796  16.017  1.00  0.00     0.156 A 
HETATM   11  N5  UNL     1      14.032  45.021  14.832  1.00  0.00    -0.080 NA
HETATM   12  C12 UNL     1      14.582  47.082  16.016  1.00  0.00     0.130 A 
HETATM   13  C13 UNL     1      15.176  47.532  14.777  1.00  0.00     0.107 C 
HETATM   14  N6  UNL     1      15.646  47.866  13.765  1.00  0.00    -0.191 NA
ENDROOT
BRANCH   7  15
HETATM   15  N3  UNL     1      12.910  45.707  19.352  1.00  0.00    -0.192 N 
ATOM     16  H3  UNL     1      13.472  45.105  19.953  1.00  0.00     0.184 HD
BRANCH  15  17
HETATM   17  C4  UNL     1      11.637  46.042  19.790  1.00  0.00     0.051 A 
HETATM   18  C5  UNL     1      10.522  45.486  19.213  1.00  0.00     0.030 A 
HETATM   19  C6  UNL     1       9.239  45.815  19.643  1.00  0.00     0.005 A 
HETATM   20  C7  UNL     1       9.100  46.719  20.671  1.00  0.00     0.037 A 
HETATM   21  C8  UNL     1      10.182  47.285  21.263  1.00  0.00     0.070 A 
HETATM   22  C10 UNL     1      11.464  46.941  20.814  1.00  0.00     0.066 A 
BRANCH  21  23
HETATM   23  O1  UNL     1      10.006  48.188  22.291  1.00  0.00    -0.356 OA
HETATM   24  C9  UNL     1       8.727  48.479  22.762  1.00  0.00     0.210 C 
ENDBRANCH  21  23
ENDBRANCH  15  17
ENDBRANCH   7  15
TORSDOF 3
ENDMDL
MODEL 4
REMARK VINA RESULT: -6.267439970      3.259      4.511
REMARK  3 active torsions:
REMARK  status: ('A' for Active; 'I' for Inactive)
REMARK    1  A    between atoms: C3_7  and  N3_8 
REMARK    2  A    between atoms: N3_8  and  C4_10 
REMARK    3  A    between atoms: C8_14  and  O1_15 
ROOT
HETATM    1  C1  UNL     1      12.958  41.792  14.040  1.00  0.00     0.147 C 
HETATM    2  N1  UNL     1      12.871  42.443  15.261  1.00  0.00    -0.379 N 
ATOM      3  H1  UNL     1      12.560  41.813  16.001  1.00  0.00     0.160 HD
HETATM    4  C2  UNL     1      13.071  43.595  15.695  1.00  0.00     0.141 A 
HETATM    5  N2  UNL     1      12.861  43.853  17.037  1.00  0.00    -0.175 N 
ATOM      6  H2  UNL     1      12.546  43.095  17.643  1.00  0.00     0.186 HD
HETATM    7  C3  UNL     1      13.056  45.058  17.560  1.00  0.00     0.685 A 
HETATM    8  N4  UNL     1      13.468  46.096  16.823  1.00  0.00    -0.177 N 
ATOM      9  H4  UNL     1      13.608  47.009  17.256  1.00  0.00     0.185 HD
HETATM   10  C11 UNL     1      13.693  45.930  15.520  1.00  0.00     0.156 A 
HETATM   11  N5  UNL     1      14.128  47.001  14.702  1.00  0.00    -0.080 NA
HETATM   12  C12 UNL     1      13.492  44.658  14.946  1.00  0.00     0.130 A 
HETATM   13  C13 UNL     1      13.751  44.531  13.529  1.00  0.00     0.107 C 
HETATM   14  N6  UNL     1      13.967  44.460  12.387  1.00  0.00    -0.191 NA
ENDROOT
BRANCH   7  15
HETATM   15  N3  UNL     1      12.822  45.163  18.833  1.00  0.00    -0.192 N 
ATOM     16  H3  UNL     1      13.545  44.836  19.474  1.00  0.00     0.184 HD
BRANCH  15  17
HETATM   17  C4  UNL     1      11.663  45.685  19.388  1.00  0.00     0.051 A 
HETATM   18  C5  UNL     1      10.425  45.309  18.925  1.00  0.00     0.030 A 
HETATM   19  C6  UNL     1       9.255  45.827  19.473  1.00  0.00     0.005 A 
HETATM   20  C7  UNL     1       9.355  46.735  20.502  1.00  0.00     0.037 A 
HETATM   21  C8  UNL     1      10.562  47.127  20.982  1.00  0.00     0.070 A 
HETATM   22  C10 UNL     1      11.727  46.594  20.416  1.00  0.00     0.066 A 
BRANCH  21  23
HETATM   23  O1  UNL     1      10.625  48.039  22.015  1.00  0.00    -0.356 OA
HETATM   24  C9  UNL     1       9.863  49.206  21.971  1.00  0.00     0.210 C 
ENDBRANCH  21  23
ENDBRANCH  15  17
ENDBRANCH   7  15
TORSDOF 3
ENDMDL
MODEL 5
REMARK VINA RESULT: -6.178755899      1.359      2.163
REMARK  3 active torsions:
REMARK  status: ('A' for Active; 'I' for Inactive)
REMARK    1  A    between atoms: C3_7  and  N3_8 
REMARK    2  A    between atoms: N3_8  and  C4_10 
REMARK    3  A    between atoms: C8_14  and  O1_15 
ROOT
HETATM    1  C1  UNL     1      19.252  47.503  20.101  1.00  0.00     0.147 C 
HETATM    2  N1  UNL     1      18.004  46.901  20.104  1.00  0.00    -0.379 N 
ATOM      3  H1  UNL     1      17.879  46.301  20.919  1.00  0.00     0.160 HD
HETATM    4  C2  UNL     1      16.993  46.896  19.373  1.00  0.00     0.141 A 
HETATM    5  N2  UNL     1      15.902  46.130  19.741  1.00  0.00    -0.175 N 
ATOM      6  H2  UNL     1      15.948  45.584  20.601  1.00  0.00     0.186 HD
HETATM    7  C3  UNL     1      14.797  46.083  19.006  1.00  0.00     0.685 A 
HETATM    8  N4  UNL     1      14.670  46.774  17.867  1.00  0.00    -0.177 N 
ATOM      9  H4  UNL     1      13.807  46.716  17.326  1.00  0.00     0.185 HD
HETATM   10  C11 UNL     1      15.676  47.537  17.443  1.00  0.00     0.156 A 
HETATM   11  N5  UNL     1      15.585  48.284  16.244  1.00  0.00    -0.080 NA
HETATM   12  C12 UNL     1      16.858  47.600  18.210  1.00  0.00     0.130 A 
HETATM   13  C13 UNL     1      17.920  48.443  17.707  1.00  0.00     0.107 C 
HETATM   14  N6  UNL     1      18.756  49.129  17.276  1.00  0.00    -0.191 NA
ENDROOT
BRANCH   7  15
HETATM   15  N3  UNL     1      13.849  45.324  19.465  1.00  0.00    -0.192 N 
ATOM     16  H3  UNL     1      14.097  44.374  19.739  1.00  0.00     0.184 HD
BRANCH  15  17
HETATM   17  C4  UNL     1      12.524  45.708  19.613  1.00  0.00     0.051 A 
HETATM   18  C5  UNL     1      12.143  46.566  20.615  1.00  0.00     0.030 A 
HETATM   19  C6  UNL     1      10.816  46.957  20.774  1.00  0.00     0.005 A 
HETATM   20  C7  UNL     1       9.875  46.465  19.899  1.00  0.00     0.037 A 
HETATM   21  C8  UNL     1      10.219  45.616  18.898  1.00  0.00     0.070 A 
HETATM   22  C10 UNL     1      11.559  45.234  18.756  1.00  0.00     0.066 A 
BRANCH  21  23
HETATM   23  O1  UNL     1       9.249  45.142  18.039  1.00  0.00    -0.356 OA
HETATM   24  C9  UNL     1       9.442  45.195  16.659  1.00  0.00     0.210 C 
ENDBRANCH  21  23
ENDBRANCH  15  17
ENDBRANCH   7  15
TORSDOF 3
ENDMDL
