MODEL 1
REMARK VINA RESULT: -6.243391447      0.000      0.000
REMARK  3 active torsions:
REMARK  status: ('A' for Active; 'I' for Inactive)
REMARK    1  A    between atoms: C5_8  and  C6_9 
REMARK    2  A    between atoms: C11_16  and  N3_17 
REMARK    3  A    between atoms: N5_23  and  N6_25 
ROOT
HETATM    1  C1  UNL     1      14.039  41.929  16.138  1.00  0.00     0.048 C 
HETATM    2  C2  UNL     1      13.714  43.359  15.653  1.00  0.00     0.140 C 
HETATM    3  C3  UNL     1      14.785  43.740  14.695  1.00  0.00     0.048 C 
HETATM    4  N1  UNL     1      12.396  43.262  15.119  1.00  0.00    -0.064 N 
ATOM      5  H11 UNL     1      12.208  42.336  14.734  1.00  0.00     0.278 HD
ATOM      6  H12 UNL     1      12.291  43.805  14.262  1.00  0.00     0.278 HD
HETATM    7  C4  UNL     1      11.435  43.634  16.105  1.00  0.00     0.246 C 
HETATM    8  C5  UNL     1      12.217  43.926  17.347  1.00  0.00     0.087 C 
HETATM    9  C11 UNL     1      13.610  44.243  16.875  1.00  0.00     0.154 C 
ENDROOT
BRANCH   9  10
HETATM   10  N3  UNL     1      13.987  45.591  16.731  1.00  0.00    -0.183 N 
HETATM   11  C12 UNL     1      13.365  46.492  15.895  1.00  0.00     0.127 A 
HETATM   12  C13 UNL     1      13.951  47.720  15.975  1.00  0.00     0.124 A 
HETATM   13  N4  UNL     1      14.939  47.604  16.855  1.00  0.00    -0.199 N 
HETATM   14  C14 UNL     1      14.959  46.346  17.301  1.00  0.00     0.698 A 
ATOM     15  H4  UNL     1      15.574  48.349  17.142  1.00  0.00     0.183 HD
HETATM   16  N5  UNL     1      15.807  45.923  18.158  1.00  0.00    -0.138 N 
ATOM     17  H5  UNL     1      15.747  44.943  18.435  1.00  0.00     0.205 HD
BRANCH  16  18
HETATM   18  N6  UNL     1      16.798  46.691  18.739  1.00  0.00    -0.331 N 
ATOM     19  H62 UNL     1      16.658  47.701  18.723  1.00  0.00     0.177 HD
ATOM     20  H61 UNL     1      17.643  46.324  19.176  1.00  0.00     0.177 HD
ENDBRANCH  16  18
ENDBRANCH   9  10
BRANCH   8  21
HETATM   21  C6  UNL     1      11.649  44.796  18.342  1.00  0.00     0.016 A 
HETATM   22  C7  UNL     1      12.390  45.474  19.279  1.00  0.00     0.025 A 
HETATM   23  C8  UNL     1      11.797  46.296  20.235  1.00  0.00     0.003 A 
HETATM   24  C9  UNL     1      10.428  46.432  20.237  1.00  0.00     0.017 A 
HETATM   25  C10 UNL     1       9.698  45.754  19.302  1.00  0.00     0.088 A 
HETATM   26  N2  UNL     1      10.315  44.981  18.411  1.00  0.00    -0.369 N 
ATOM     27  H2  UNL     1       9.736  44.491  17.728  1.00  0.00     0.165 HD
ENDBRANCH   8  21
TORSDOF 3
ENDMDL
MODEL 2
REMARK VINA RESULT: -6.127500477      0.611      1.058
REMARK  3 active torsions:
REMARK  status: ('A' for Active; 'I' for Inactive)
REMARK    1  A    between atoms: C5_8  and  C6_9 
REMARK    2  A    between atoms: C11_16  and  N3_17 
REMARK    3  A    between atoms: N5_23  and  N6_25 
ROOT
HETATM    1  C1  UNL     1      14.025  41.931  15.847  1.00  0.00     0.048 C 
HETATM    2  C2  UNL     1      13.707  43.383  15.427  1.00  0.00     0.140 C 
HETATM    3  C3  UNL     1      14.789  43.807  14.499  1.00  0.00     0.048 C 
HETATM    4  N1  UNL     1      12.394  43.313  14.875  1.00  0.00    -0.064 N 
ATOM      5  H11 UNL     1      12.209  42.407  14.445  1.00  0.00     0.278 HD
ATOM      6  H12 UNL     1      12.299  43.896  14.043  1.00  0.00     0.278 HD
HETATM    7  C4  UNL     1      11.424  43.640  15.867  1.00  0.00     0.246 C 
HETATM    8  C5  UNL     1      12.194  43.872  17.130  1.00  0.00     0.087 C 
HETATM    9  C11 UNL     1      13.591  44.208  16.687  1.00  0.00     0.154 C 
ENDROOT
BRANCH   9  10
HETATM   10  N3  UNL     1      13.971  45.561  16.611  1.00  0.00    -0.183 N 
HETATM   11  C12 UNL     1      13.380  46.494  15.787  1.00  0.00     0.127 A 
HETATM   12  C13 UNL     1      13.960  47.718  15.937  1.00  0.00     0.124 A 
HETATM   13  N4  UNL     1      14.914  47.568  16.850  1.00  0.00    -0.199 N 
HETATM   14  C14 UNL     1      14.920  46.293  17.247  1.00  0.00     0.698 A 
ATOM     15  H4  UNL     1      15.536  48.301  17.190  1.00  0.00     0.183 HD
HETATM   16  N5  UNL     1      15.734  45.838  18.119  1.00  0.00    -0.138 N 
ATOM     17  H5  UNL     1      15.666  44.847  18.355  1.00  0.00     0.205 HD
BRANCH  16  18
HETATM   18  N6  UNL     1      16.701  46.582  18.767  1.00  0.00    -0.331 N 
ATOM     19  H62 UNL     1      17.127  47.337  18.230  1.00  0.00     0.177 HD
ATOM     20  H61 UNL     1      17.011  46.431  19.727  1.00  0.00     0.177 HD
ENDBRANCH  16  18
ENDBRANCH   9  10
BRANCH   8  21
HETATM   21  C6  UNL     1      11.616  44.695  18.159  1.00  0.00     0.016 A 
HETATM   22  C7  UNL     1      10.270  44.945  18.273  1.00  0.00     0.025 A 
HETATM   23  C8  UNL     1       9.754  45.761  19.278  1.00  0.00     0.003 A 
HETATM   24  C9  UNL     1      10.621  46.331  20.181  1.00  0.00     0.017 A 
HETATM   25  C10 UNL     1      11.959  46.078  20.061  1.00  0.00     0.088 A 
HETATM   26  N2  UNL     1      12.399  45.290  19.081  1.00  0.00    -0.369 N 
ATOM     27  H2  UNL     1      13.404  45.125  19.024  1.00  0.00     0.165 HD
ENDBRANCH   8  21
TORSDOF 3
ENDMDL
MODEL 3
REMARK VINA RESULT: -6.072147264      1.099      1.319
REMARK  3 active torsions:
REMARK  status: ('A' for Active; 'I' for Inactive)
REMARK    1  A    between atoms: C5_8  and  C6_9 
REMARK    2  A    between atoms: C11_16  and  N3_17 
REMARK    3  A    between atoms: N5_23  and  N6_25 
ROOT
HETATM    1  C1  UNL     1      14.372  41.647  15.254  1.00  0.00     0.048 C 
HETATM    2  C2  UNL     1      14.129  43.131  14.904  1.00  0.00     0.140 C 
HETATM    3  C3  UNL     1      15.419  43.669  14.398  1.00  0.00     0.048 C 
HETATM    4  N1  UNL     1      13.049  43.104  13.973  1.00  0.00    -0.064 N 
ATOM      5  H11 UNL     1      13.045  42.247  13.419  1.00  0.00     0.278 HD
ATOM      6  H12 UNL     1      13.182  43.773  13.215  1.00  0.00     0.278 HD
HETATM    7  C4  UNL     1      11.809  43.307  14.650  1.00  0.00     0.246 C 
HETATM    8  C5  UNL     1      12.150  43.411  16.103  1.00  0.00     0.087 C 
HETATM    9  C11 UNL     1      13.599  43.813  16.145  1.00  0.00     0.154 C 
ENDROOT
BRANCH   9  10
HETATM   10  N3  UNL     1      13.921  45.171  16.323  1.00  0.00    -0.183 N 
HETATM   11  C12 UNL     1      13.456  46.195  15.528  1.00  0.00     0.127 A 
HETATM   12  C13 UNL     1      13.936  47.400  15.949  1.00  0.00     0.124 A 
HETATM   13  N4  UNL     1      14.701  47.145  17.006  1.00  0.00    -0.199 N 
HETATM   14  C14 UNL     1      14.691  45.829  17.225  1.00  0.00     0.698 A 
ATOM     15  H4  UNL     1      15.209  47.838  17.556  1.00  0.00     0.183 HD
HETATM   16  N5  UNL     1      15.342  45.275  18.174  1.00  0.00    -0.138 N 
ATOM     17  H5  UNL     1      15.278  44.260  18.260  1.00  0.00     0.205 HD
BRANCH  16  18
HETATM   18  N6  UNL     1      16.128  45.943  19.093  1.00  0.00    -0.331 N 
ATOM     19  H62 UNL     1      16.968  45.459  19.409  1.00  0.00     0.177 HD
ATOM     20  H61 UNL     1      15.929  46.869  19.470  1.00  0.00     0.177 HD
ENDBRANCH  16  18
ENDBRANCH   9  10
BRANCH   8  21
HETATM   21  C6  UNL     1      11.251  44.108  16.983  1.00  0.00     0.016 A 
HETATM   22  C7  UNL     1      11.521  44.368  18.304  1.00  0.00     0.025 A 
HETATM   23  C8  UNL     1      10.614  45.036  19.125  1.00  0.00     0.003 A 
HETATM   24  C9  UNL     1       9.414  45.446  18.593  1.00  0.00     0.017 A 
HETATM   25  C10 UNL     1       9.152  45.184  17.278  1.00  0.00     0.088 A 
HETATM   26  N2  UNL     1      10.054  44.542  16.538  1.00  0.00    -0.369 N 
ATOM     27  H2  UNL     1       9.823  44.365  15.560  1.00  0.00     0.165 HD
ENDBRANCH   8  21
TORSDOF 3
ENDMDL
MODEL 4
REMARK VINA RESULT: -5.990475255      1.146      1.677
REMARK  3 active torsions:
REMARK  status: ('A' for Active; 'I' for Inactive)
REMARK    1  A    between atoms: C5_8  and  C6_9 
REMARK    2  A    between atoms: C11_16  and  N3_17 
REMARK    3  A    between atoms: N5_23  and  N6_25 
ROOT
HETATM    1  C1  UNL     1      14.404  41.675  14.984  1.00  0.00     0.048 C 
HETATM    2  C2  UNL     1      14.158  43.176  14.716  1.00  0.00     0.140 C 
HETATM    3  C3  UNL     1      15.442  43.738  14.222  1.00  0.00     0.048 C 
HETATM    4  N1  UNL     1      13.065  43.199  13.801  1.00  0.00    -0.064 N 
ATOM      5  H11 UNL     1      13.052  42.373  13.202  1.00  0.00     0.278 HD
ATOM      6  H12 UNL     1      13.189  43.907  13.077  1.00  0.00     0.278 HD
HETATM    7  C4  UNL     1      11.836  43.367  14.504  1.00  0.00     0.246 C 
HETATM    8  C5  UNL     1      12.197  43.393  15.956  1.00  0.00     0.087 C 
HETATM    9  C11 UNL     1      13.647  43.791  15.999  1.00  0.00     0.154 C 
ENDROOT
BRANCH   9  10
HETATM   10  N3  UNL     1      13.973  45.137  16.245  1.00  0.00    -0.183 N 
HETATM   11  C12 UNL     1      13.557  46.197  15.469  1.00  0.00     0.127 A 
HETATM   12  C13 UNL     1      14.028  47.378  15.959  1.00  0.00     0.124 A 
HETATM   13  N4  UNL     1      14.741  47.074  17.038  1.00  0.00    -0.199 N 
HETATM   14  C14 UNL     1      14.708  45.751  17.206  1.00  0.00     0.698 A 
ATOM     15  H4  UNL     1      15.230  47.740  17.637  1.00  0.00     0.183 HD
HETATM   16  N5  UNL     1      15.309  45.153  18.161  1.00  0.00    -0.138 N 
ATOM     17  H5  UNL     1      15.231  44.136  18.204  1.00  0.00     0.205 HD
BRANCH  16  18
HETATM   18  N6  UNL     1      16.058  45.776  19.141  1.00  0.00    -0.331 N 
ATOM     19  H62 UNL     1      15.712  45.696  20.096  1.00  0.00     0.177 HD
ATOM     20  H61 UNL     1      16.917  46.301  18.977  1.00  0.00     0.177 HD
ENDBRANCH  16  18
ENDBRANCH   9  10
BRANCH   8  21
HETATM   21  C6  UNL     1      11.311  44.044  16.884  1.00  0.00     0.016 A 
HETATM   22  C7  UNL     1      10.076  44.538  16.544  1.00  0.00     0.025 A 
HETATM   23  C8  UNL     1       9.255  45.175  17.473  1.00  0.00     0.003 A 
HETATM   24  C9  UNL     1       9.698  45.310  18.768  1.00  0.00     0.017 A 
HETATM   25  C10 UNL     1      10.928  44.816  19.098  1.00  0.00     0.088 A 
HETATM   26  N2  UNL     1      11.672  44.216  18.171  1.00  0.00    -0.369 N 
ATOM     27  H2  UNL     1      12.585  43.860  18.457  1.00  0.00     0.165 HD
ENDBRANCH   8  21
TORSDOF 3
ENDMDL
MODEL 5
REMARK VINA RESULT: -5.947601953      1.891      2.991
REMARK  3 active torsions:
REMARK  status: ('A' for Active; 'I' for Inactive)
REMARK    1  A    between atoms: C5_8  and  C6_9 
REMARK    2  A    between atoms: C11_16  and  N3_17 
REMARK    3  A    between atoms: N5_23  and  N6_25 
ROOT
HETATM    1  C1  UNL     1      17.880  44.852  16.374  1.00  0.00     0.048 C 
HETATM    2  C2  UNL     1      16.694  45.278  15.481  1.00  0.00     0.140 C 
HETATM    3  C3  UNL     1      17.237  46.224  14.471  1.00  0.00     0.048 C 
HETATM    4  N1  UNL     1      16.170  44.051  14.978  1.00  0.00    -0.064 N 
ATOM      5  H11 UNL     1      16.893  43.338  14.883  1.00  0.00     0.278 HD
ATOM      6  H12 UNL     1      15.901  44.125  13.997  1.00  0.00     0.278 HD
HETATM    7  C4  UNL     1      15.087  43.607  15.794  1.00  0.00     0.246 C 
HETATM    8  C5  UNL     1      14.977  44.603  16.905  1.00  0.00     0.087 C 
HETATM    9  C11 UNL     1      15.627  45.855  16.382  1.00  0.00     0.154 C 
ENDROOT
BRANCH   9  10
HETATM   10  N3  UNL     1      14.811  46.871  15.850  1.00  0.00    -0.183 N 
HETATM   11  C12 UNL     1      13.937  46.701  14.800  1.00  0.00     0.127 A 
HETATM   12  C13 UNL     1      13.283  47.862  14.513  1.00  0.00     0.124 A 
HETATM   13  N4  UNL     1      13.738  48.766  15.374  1.00  0.00    -0.199 N 
HETATM   14  C14 UNL     1      14.641  48.179  16.163  1.00  0.00     0.698 A 
ATOM     15  H4  UNL     1      13.447  49.743  15.423  1.00  0.00     0.183 HD
HETATM   16  N5  UNL     1      15.262  48.798  17.091  1.00  0.00    -0.138 N 
ATOM     17  H5  UNL     1      15.939  48.266  17.640  1.00  0.00     0.205 HD
BRANCH  16  18
HETATM   18  N6  UNL     1      15.090  50.131  17.411  1.00  0.00    -0.331 N 
ATOM     19  H62 UNL     1      14.163  50.522  17.240  1.00  0.00     0.177 HD
ATOM     20  H61 UNL     1      15.811  50.739  17.798  1.00  0.00     0.177 HD
ENDBRANCH  16  18
ENDBRANCH   9  10
BRANCH   8  21
HETATM   21  C6  UNL     1      13.719  44.753  17.587  1.00  0.00     0.016 A 
HETATM   22  C7  UNL     1      12.549  44.170  17.169  1.00  0.00     0.025 A 
HETATM   23  C8  UNL     1      11.348  44.353  17.851  1.00  0.00     0.003 A 
HETATM   24  C9  UNL     1      11.339  45.141  18.979  1.00  0.00     0.017 A 
HETATM   25  C10 UNL     1      12.508  45.718  19.389  1.00  0.00     0.088 A 
HETATM   26  N2  UNL     1      13.627  45.510  18.698  1.00  0.00    -0.369 N 
ATOM     27  H2  UNL     1      14.480  45.958  19.036  1.00  0.00     0.165 HD
ENDBRANCH   8  21
TORSDOF 3
ENDMDL
