MODEL 1
REMARK VINA RESULT: -5.696999518      0.000      0.000
REMARK  4 active torsions:
REMARK  status: ('A' for Active; 'I' for Inactive)
REMARK       I    between atoms: C1_4  and  N3_6 
REMARK    1  A    between atoms: C4_9  and  N4_10 
REMARK    2  A    between atoms: N4_10  and  C5_12 
REMARK    3  A    between atoms: C13_22  and  C14_23 
REMARK    4  A    between atoms: C14_23  and  O1_24 
ROOT
HETATM    1  N1  UNL     1      42.845  10.750  -4.787  1.00  0.00    -0.374 N 
ATOM      2  H11 UNL     1      42.413  10.215  -4.034  1.00  0.00     0.158 HD
ATOM      3  H12 UNL     1      42.362  10.784  -5.685  1.00  0.00     0.158 HD
HETATM    4  C1  UNL     1      43.973  11.347  -4.559  1.00  0.00     0.184 C 
HETATM    5  N2  UNL     1      44.575  12.091  -5.608  1.00  0.00    -0.064 NA
HETATM    6  N3  UNL     1      44.638  11.300  -3.324  1.00  0.00    -0.345 N 
HETATM    7  C2  UNL     1      44.697  10.388  -2.214  1.00  0.00     0.096 C 
HETATM    8  C3  UNL     1      43.884  10.792  -1.021  1.00  0.00     0.057 C 
HETATM    9  C4  UNL     1      44.737  11.925  -0.422  1.00  0.00     0.041 C 
HETATM   10  C10 UNL     1      46.095  11.200  -0.501  1.00  0.00     0.040 C 
HETATM   11  C11 UNL     1      46.092  10.898  -1.963  1.00  0.00     0.034 C 
HETATM   12  C12 UNL     1      45.561  12.140  -2.608  1.00  0.00     0.102 C 
HETATM   13  C13 UNL     1      44.899  12.952  -1.482  1.00  0.00     0.061 C 
ENDROOT
BRANCH   9  14
HETATM   14  N4  UNL     1      44.311  12.308   0.815  1.00  0.00    -0.366 N 
ATOM     15  H4  UNL     1      43.494  11.769   1.102  1.00  0.00     0.162 HD
BRANCH  14  16
HETATM   16  C5  UNL     1      44.634  13.125   1.691  1.00  0.00     0.101 A 
HETATM   17  C6  UNL     1      45.563  12.919   2.669  1.00  0.00     0.048 A 
HETATM   18  C7  UNL     1      45.878  13.878   3.621  1.00  0.00     0.005 A 
HETATM   19  C8  UNL     1      45.246  15.101   3.611  1.00  0.00     0.017 A 
HETATM   20  C9  UNL     1      44.311  15.276   2.607  1.00  0.00     0.089 A 
HETATM   21  N5  UNL     1      44.014  14.372   1.709  1.00  0.00    -0.353 N 
ATOM     22  H5  UNL     1      43.310  14.586   1.003  1.00  0.00     0.166 HD
ENDBRANCH  14  16
ENDBRANCH   9  14
BRANCH  13  23
HETATM   23  C14 UNL     1      43.592  13.533  -1.995  1.00  0.00     0.173 C 
BRANCH  23  24
HETATM   24  O1  UNL     1      43.240  14.614  -1.168  1.00  0.00    -0.400 OA
ATOM     25  H1  UNL     1      44.026  15.116  -0.988  1.00  0.00     0.209 HD
ENDBRANCH  23  24
ENDBRANCH  13  23
TORSDOF 4
ENDMDL
MODEL 2
REMARK VINA RESULT: -5.221262268      2.287      3.394
REMARK  4 active torsions:
REMARK  status: ('A' for Active; 'I' for Inactive)
REMARK       I    between atoms: C1_4  and  N3_6 
REMARK    1  A    between atoms: C4_9  and  N4_10 
REMARK    2  A    between atoms: N4_10  and  C5_12 
REMARK    3  A    between atoms: C13_22  and  C14_23 
REMARK    4  A    between atoms: C14_23  and  O1_24 
ROOT
HETATM    1  N1  UNL     1      46.434  13.288  -5.469  1.00  0.00    -0.374 N 
ATOM      2  H11 UNL     1      46.019  13.891  -4.760  1.00  0.00     0.158 HD
ATOM      3  H12 UNL     1      47.175  13.677  -6.052  1.00  0.00     0.158 HD
HETATM    4  C1  UNL     1      45.998  12.072  -5.587  1.00  0.00     0.184 C 
HETATM    5  N2  UNL     1      46.576  11.232  -6.574  1.00  0.00    -0.064 NA
HETATM    6  N3  UNL     1      44.977  11.536  -4.785  1.00  0.00    -0.345 N 
HETATM    7  C2  UNL     1      43.852  12.056  -4.057  1.00  0.00     0.096 C 
HETATM    8  C3  UNL     1      44.059  12.171  -2.576  1.00  0.00     0.057 C 
HETATM    9  C4  UNL     1      43.957  10.703  -2.123  1.00  0.00     0.041 C 
HETATM   10  C10 UNL     1      42.690  10.346  -2.927  1.00  0.00     0.040 C 
HETATM   11  C11 UNL     1      43.183  10.725  -4.284  1.00  0.00     0.034 C 
HETATM   12  C12 UNL     1      44.594  10.226  -4.331  1.00  0.00     0.102 C 
HETATM   13  C13 UNL     1      44.993   9.946  -2.872  1.00  0.00     0.061 C 
ENDROOT
BRANCH   9  14
HETATM   14  N4  UNL     1      43.887  10.573  -0.768  1.00  0.00    -0.366 N 
ATOM     15  H4  UNL     1      43.232   9.836  -0.506  1.00  0.00     0.162 HD
BRANCH  14  16
HETATM   16  C5  UNL     1      44.394  11.095   0.237  1.00  0.00     0.101 A 
HETATM   17  C6  UNL     1      44.076  12.322   0.742  1.00  0.00     0.048 A 
HETATM   18  C7  UNL     1      44.682  12.849   1.874  1.00  0.00     0.005 A 
HETATM   19  C8  UNL     1      45.650  12.132   2.541  1.00  0.00     0.017 A 
HETATM   20  C9  UNL     1      45.947  10.894   2.001  1.00  0.00     0.089 A 
HETATM   21  N5  UNL     1      45.376  10.397   0.935  1.00  0.00    -0.353 N 
ATOM     22  H5  UNL     1      45.657   9.473   0.606  1.00  0.00     0.166 HD
ENDBRANCH  14  16
ENDBRANCH   9  14
BRANCH  13  23
HETATM   23  C14 UNL     1      46.412  10.438  -2.644  1.00  0.00     0.173 C 
BRANCH  23  24
HETATM   24  O1  UNL     1      46.946   9.740  -1.548  1.00  0.00    -0.400 OA
ATOM     25  H1  UNL     1      47.803   9.413  -1.795  1.00  0.00     0.209 HD
ENDBRANCH  23  24
ENDBRANCH  13  23
TORSDOF 4
ENDMDL
MODEL 3
REMARK VINA RESULT: -5.205060434      1.507      2.228
REMARK  4 active torsions:
REMARK  status: ('A' for Active; 'I' for Inactive)
REMARK       I    between atoms: C1_4  and  N3_6 
REMARK    1  A    between atoms: C4_9  and  N4_10 
REMARK    2  A    between atoms: N4_10  and  C5_12 
REMARK    3  A    between atoms: C13_22  and  C14_23 
REMARK    4  A    between atoms: C14_23  and  O1_24 
ROOT
HETATM    1  N1  UNL     1      42.812   9.899  -2.007  1.00  0.00    -0.374 N 
ATOM      2  H11 UNL     1      42.290   9.876  -1.132  1.00  0.00     0.158 HD
ATOM      3  H12 UNL     1      42.362   9.522  -2.841  1.00  0.00     0.158 HD
HETATM    4  C1  UNL     1      44.007  10.402  -2.007  1.00  0.00     0.184 C 
HETATM    5  N2  UNL     1      44.735  10.435  -3.225  1.00  0.00    -0.064 NA
HETATM    6  N3  UNL     1      44.627  10.922  -0.859  1.00  0.00    -0.345 N 
HETATM    7  C2  UNL     1      44.529  10.705   0.559  1.00  0.00     0.096 C 
HETATM    8  C3  UNL     1      43.751  11.749   1.304  1.00  0.00     0.057 C 
HETATM    9  C4  UNL     1      44.740  12.928   1.328  1.00  0.00     0.041 C 
HETATM   10  C10 UNL     1      45.984  12.123   1.753  1.00  0.00     0.040 C 
HETATM   11  C11 UNL     1      45.975  11.117   0.649  1.00  0.00     0.034 C 
HETATM   12  C12 UNL     1      45.642  11.903  -0.580  1.00  0.00     0.102 C 
HETATM   13  C13 UNL     1      45.072  13.244  -0.085  1.00  0.00     0.061 C 
ENDROOT
BRANCH   9  14
HETATM   14  N4  UNL     1      44.341  13.933   2.158  1.00  0.00    -0.366 N 
ATOM     15  H4  UNL     1      43.358  14.161   2.008  1.00  0.00     0.162 HD
BRANCH  14  16
HETATM   16  C5  UNL     1      44.833  14.650   3.043  1.00  0.00     0.101 A 
HETATM   17  C6  UNL     1      46.041  14.455   3.646  1.00  0.00     0.048 A 
HETATM   18  C7  UNL     1      46.534  15.297   4.633  1.00  0.00     0.005 A 
HETATM   19  C8  UNL     1      45.801  16.385   5.048  1.00  0.00     0.017 A 
HETATM   20  C9  UNL     1      44.582  16.553   4.416  1.00  0.00     0.089 A 
HETATM   21  N5  UNL     1      44.116  15.759   3.485  1.00  0.00    -0.353 N 
ATOM     22  H5  UNL     1      43.205  15.959   3.073  1.00  0.00     0.166 HD
ENDBRANCH  14  16
ENDBRANCH   9  14
BRANCH  13  23
HETATM   23  C14 UNL     1      43.874  13.619  -0.940  1.00  0.00     0.173 C 
BRANCH  23  24
HETATM   24  O1  UNL     1      43.422  14.884  -0.528  1.00  0.00    -0.400 OA
ATOM     25  H1  UNL     1      44.113  15.513  -0.694  1.00  0.00     0.209 HD
ENDBRANCH  23  24
ENDBRANCH  13  23
TORSDOF 4
ENDMDL
MODEL 4
REMARK VINA RESULT: -5.094302038      1.908      2.793
REMARK  4 active torsions:
REMARK  status: ('A' for Active; 'I' for Inactive)
REMARK       I    between atoms: C1_4  and  N3_6 
REMARK    1  A    between atoms: C4_9  and  N4_10 
REMARK    2  A    between atoms: N4_10  and  C5_12 
REMARK    3  A    between atoms: C13_22  and  C14_23 
REMARK    4  A    between atoms: C14_23  and  O1_24 
ROOT
HETATM    1  N1  UNL     1      47.417  13.282  -4.246  1.00  0.00    -0.374 N 
ATOM      2  H11 UNL     1      46.849  14.032  -3.853  1.00  0.00     0.158 HD
ATOM      3  H12 UNL     1      48.221  13.542  -4.816  1.00  0.00     0.158 HD
HETATM    4  C1  UNL     1      47.084  12.053  -3.998  1.00  0.00     0.184 C 
HETATM    5  N2  UNL     1      47.875  11.009  -4.544  1.00  0.00    -0.064 NA
HETATM    6  N3  UNL     1      45.977  11.695  -3.213  1.00  0.00    -0.345 N 
HETATM    7  C2  UNL     1      44.713  12.290  -2.873  1.00  0.00     0.096 C 
HETATM    8  C3  UNL     1      44.654  12.910  -1.509  1.00  0.00     0.057 C 
HETATM    9  C4  UNL     1      44.568  11.671  -0.598  1.00  0.00     0.041 C 
HETATM   10  C10 UNL     1      43.483  10.923  -1.399  1.00  0.00     0.040 C 
HETATM   11  C11 UNL     1      44.178  10.890  -2.721  1.00  0.00     0.034 C 
HETATM   12  C12 UNL     1      45.604  10.572  -2.394  1.00  0.00     0.102 C 
HETATM   13  C13 UNL     1      45.762  10.837  -0.887  1.00  0.00     0.061 C 
ENDROOT
BRANCH   9  14
HETATM   14  N4  UNL     1      44.274  11.987   0.695  1.00  0.00    -0.366 N 
ATOM     15  H4  UNL     1      43.625  11.311   1.097  1.00  0.00     0.162 HD
BRANCH  14  16
HETATM   16  C5  UNL     1      44.572  12.863   1.521  1.00  0.00     0.101 A 
HETATM   17  C6  UNL     1      44.007  14.102   1.608  1.00  0.00     0.048 A 
HETATM   18  C7  UNL     1      44.387  15.037   2.560  1.00  0.00     0.005 A 
HETATM   19  C8  UNL     1      45.374  14.738   3.472  1.00  0.00     0.017 A 
HETATM   20  C9  UNL     1      45.925  13.475   3.355  1.00  0.00     0.089 A 
HETATM   21  N5  UNL     1      45.567  12.593   2.458  1.00  0.00    -0.353 N 
ATOM     22  H5  UNL     1      46.027  11.683   2.445  1.00  0.00     0.166 HD
ENDBRANCH  14  16
ENDBRANCH   9  14
BRANCH  13  23
HETATM   23  C14 UNL     1      47.088  11.540  -0.646  1.00  0.00     0.173 C 
BRANCH  23  24
HETATM   24  O1  UNL     1      47.490  11.272   0.674  1.00  0.00    -0.400 OA
ATOM     25  H1  UNL     1      46.712  11.212   1.214  1.00  0.00     0.209 HD
ENDBRANCH  23  24
ENDBRANCH  13  23
TORSDOF 4
ENDMDL
MODEL 5
REMARK VINA RESULT: -4.966809839      6.865      8.849
REMARK  4 active torsions:
REMARK  status: ('A' for Active; 'I' for Inactive)
REMARK       I    between atoms: C1_4  and  N3_6 
REMARK    1  A    between atoms: C4_9  and  N4_10 
REMARK    2  A    between atoms: N4_10  and  C5_12 
REMARK    3  A    between atoms: C13_22  and  C14_23 
REMARK    4  A    between atoms: C14_23  and  O1_24 
ROOT
HETATM    1  N1  UNL     1      49.481   3.305   4.124  1.00  0.00    -0.374 N 
ATOM      2  H11 UNL     1      48.979   3.152   3.250  1.00  0.00     0.158 HD
ATOM      3  H12 UNL     1      49.983   2.515   4.530  1.00  0.00     0.158 HD
HETATM    4  C1  UNL     1      49.450   4.484   4.663  1.00  0.00     0.184 C 
HETATM    5  N2  UNL     1      50.149   4.698   5.880  1.00  0.00    -0.064 NA
HETATM    6  N3  UNL     1      48.758   5.571   4.105  1.00  0.00    -0.345 N 
HETATM    7  C2  UNL     1      47.618   5.742   3.246  1.00  0.00     0.096 C 
HETATM    8  C3  UNL     1      47.947   6.060   1.817  1.00  0.00     0.057 C 
HETATM    9  C4  UNL     1      48.378   7.535   1.910  1.00  0.00     0.041 C 
HETATM   10  C10 UNL     1      47.211   8.018   2.793  1.00  0.00     0.040 C 
HETATM   11  C11 UNL     1      47.393   7.065   3.928  1.00  0.00     0.034 C 
HETATM   12  C12 UNL     1      48.873   7.005   4.141  1.00  0.00     0.102 C 
HETATM   13  C13 UNL     1      49.508   7.597   2.871  1.00  0.00     0.061 C 
ENDROOT
BRANCH   9  14
HETATM   14  N4  UNL     1      48.513   8.122   0.687  1.00  0.00    -0.366 N 
ATOM     15  H4  UNL     1      48.421   7.434  -0.060  1.00  0.00     0.162 HD
BRANCH  14  16
HETATM   16  C5  UNL     1      48.715   9.255   0.224  1.00  0.00     0.101 A 
HETATM   17  C6  UNL     1      47.753  10.126  -0.199  1.00  0.00     0.048 A 
HETATM   18  C7  UNL     1      48.049  11.383  -0.708  1.00  0.00     0.005 A 
HETATM   19  C8  UNL     1      49.356  11.803  -0.808  1.00  0.00     0.017 A 
HETATM   20  C9  UNL     1      50.304  10.896  -0.371  1.00  0.00     0.089 A 
HETATM   21  N5  UNL     1      50.026   9.711   0.110  1.00  0.00    -0.353 N 
ATOM     22  H5  UNL     1      50.790   9.105   0.409  1.00  0.00     0.166 HD
ENDBRANCH  14  16
ENDBRANCH   9  14
BRANCH  13  23
HETATM   23  C14 UNL     1      50.709   6.753   2.479  1.00  0.00     0.173 C 
BRANCH  23  24
HETATM   24  O1  UNL     1      51.371   7.399   1.421  1.00  0.00    -0.400 OA
ATOM     25  H1  UNL     1      52.264   7.574   1.694  1.00  0.00     0.209 HD
ENDBRANCH  23  24
ENDBRANCH  13  23
TORSDOF 4
ENDMDL
