MODEL 1
REMARK VINA RESULT: -4.851795763      0.000      0.000
REMARK  4 active torsions:
REMARK  status: ('A' for Active; 'I' for Inactive)
REMARK    1  A    between atoms: C4_8  and  N3_9 
REMARK    2  A    between atoms: N3_9  and  C5_11 
REMARK    3  A    between atoms: C5_11  and  C6_12 
REMARK    4  A    between atoms: C6_12  and  N4_14 
ROOT
HETATM    1  N3  UNL     1      19.166  -1.180  40.802  1.00  0.00    -0.373 N 
ATOM      2  H3  UNL     1      18.306  -1.691  40.605  1.00  0.00     0.161 HD
ENDROOT
BRANCH   1   3
HETATM    3  C4  UNL     1      19.144  -0.413  41.793  1.00  0.00     0.123 A 
HETATM    4  C2  UNL     1      19.301  -0.690  43.111  1.00  0.00    -0.000 A 
HETATM    5  C1  UNL     1      19.549  -1.976  43.801  1.00  0.00     0.054 C 
HETATM    6  C3  UNL     1      19.192   0.511  43.827  1.00  0.00     0.117 A 
HETATM    7  N1  UNL     1      18.973   1.468  42.917  1.00  0.00    -0.310 N 
HETATM    8  N2  UNL     1      18.943   0.935  41.711  1.00  0.00    -0.286 N 
ATOM      9  H1  UNL     1      18.849   2.459  43.125  1.00  0.00     0.186 HD
ATOM     10  H2  UNL     1      18.791   1.453  40.846  1.00  0.00     0.188 HD
ENDBRANCH   1   3
BRANCH   1  11
HETATM   11  C5  UNL     1      20.258  -1.417  39.922  1.00  0.00     0.153 C 
BRANCH  11  12
HETATM   12  C6  UNL     1      21.128  -2.580  40.449  1.00  0.00     0.197 C 
HETATM   13  C7  UNL     1      22.269  -2.697  39.458  1.00  0.00     0.041 C 
BRANCH  12  14
HETATM   14  N4  UNL     1      20.304  -3.770  40.458  1.00  0.00    -0.074 N 
ATOM     15  H43 UNL     1      20.072  -4.099  39.521  1.00  0.00     0.274 HD
ATOM     16  H42 UNL     1      20.809  -4.600  40.770  1.00  0.00     0.274 HD
ATOM     17  H41 UNL     1      19.480  -3.569  41.025  1.00  0.00     0.274 HD
ENDBRANCH  12  14
ENDBRANCH  11  12
ENDBRANCH   1  11
TORSDOF 4
ENDMDL
MODEL 2
REMARK VINA RESULT: -4.692469595      1.522      1.970
REMARK  4 active torsions:
REMARK  status: ('A' for Active; 'I' for Inactive)
REMARK    1  A    between atoms: C4_8  and  N3_9 
REMARK    2  A    between atoms: N3_9  and  C5_11 
REMARK    3  A    between atoms: C5_11  and  C6_12 
REMARK    4  A    between atoms: C6_12  and  N4_14 
ROOT
HETATM    1  N3  UNL     1      20.655  -2.179  40.184  1.00  0.00    -0.373 N 
ATOM      2  H3  UNL     1      21.151  -1.716  39.424  1.00  0.00     0.161 HD
ENDROOT
BRANCH   1   3
HETATM    3  C4  UNL     1      19.930  -1.450  40.902  1.00  0.00     0.123 A 
HETATM    4  C2  UNL     1      20.163  -0.935  42.133  1.00  0.00    -0.000 A 
HETATM    5  C1  UNL     1      21.339  -1.064  43.024  1.00  0.00     0.054 C 
HETATM    6  C3  UNL     1      19.043  -0.181  42.513  1.00  0.00     0.117 A 
HETATM    7  N1  UNL     1      18.175  -0.269  41.498  1.00  0.00    -0.310 N 
HETATM    8  N2  UNL     1      18.688  -1.016  40.539  1.00  0.00    -0.286 N 
ATOM      9  H1  UNL     1      17.257   0.175  41.469  1.00  0.00     0.186 HD
ATOM     10  H2  UNL     1      18.224  -1.236  39.657  1.00  0.00     0.188 HD
ENDBRANCH   1   3
BRANCH   1  11
HETATM   11  C5  UNL     1      20.861  -3.580  40.314  1.00  0.00     0.153 C 
BRANCH  11  12
HETATM   12  C6  UNL     1      22.261  -3.862  40.905  1.00  0.00     0.197 C 
HETATM   13  C7  UNL     1      23.199  -2.941  40.149  1.00  0.00     0.041 C 
BRANCH  12  14
HETATM   14  N4  UNL     1      22.566  -5.255  40.658  1.00  0.00    -0.074 N 
ATOM     15  H43 UNL     1      23.382  -5.382  40.060  1.00  0.00     0.274 HD
ATOM     16  H42 UNL     1      22.928  -5.735  41.482  1.00  0.00     0.274 HD
ATOM     17  H41 UNL     1      21.724  -5.691  40.282  1.00  0.00     0.274 HD
ENDBRANCH  12  14
ENDBRANCH  11  12
ENDBRANCH   1  11
TORSDOF 4
ENDMDL
MODEL 3
REMARK VINA RESULT: -4.586090425      2.768      4.508
REMARK  4 active torsions:
REMARK  status: ('A' for Active; 'I' for Inactive)
REMARK    1  A    between atoms: C4_8  and  N3_9 
REMARK    2  A    between atoms: N3_9  and  C5_11 
REMARK    3  A    between atoms: C5_11  and  C6_12 
REMARK    4  A    between atoms: C6_12  and  N4_14 
ROOT
HETATM    1  N3  UNL     1      21.312  -4.913  40.624  1.00  0.00    -0.373 N 
ATOM      2  H3  UNL     1      21.016  -5.619  39.950  1.00  0.00     0.161 HD
ENDROOT
BRANCH   1   3
HETATM    3  C4  UNL     1      20.832  -3.765  40.477  1.00  0.00     0.123 A 
HETATM    4  C2  UNL     1      21.387  -2.652  39.938  1.00  0.00    -0.000 A 
HETATM    5  C1  UNL     1      22.730  -2.434  39.354  1.00  0.00     0.054 C 
HETATM    6  C3  UNL     1      20.445  -1.616  40.003  1.00  0.00     0.117 A 
HETATM    7  N1  UNL     1      19.356  -2.140  40.577  1.00  0.00    -0.310 N 
HETATM    8  N2  UNL     1      19.572  -3.410  40.862  1.00  0.00    -0.286 N 
ATOM      9  H1  UNL     1      18.490  -1.635  40.766  1.00  0.00     0.186 HD
ATOM     10  H2  UNL     1      18.897  -4.034  41.305  1.00  0.00     0.188 HD
ENDBRANCH   1   3
BRANCH   1  11
HETATM   11  C5  UNL     1      22.226  -5.341  41.626  1.00  0.00     0.153 C 
BRANCH  11  12
HETATM   12  C6  UNL     1      21.488  -5.552  42.968  1.00  0.00     0.197 C 
HETATM   13  C7  UNL     1      22.122  -4.561  43.924  1.00  0.00     0.041 C 
BRANCH  12  14
HETATM   14  N4  UNL     1      21.720  -6.918  43.383  1.00  0.00    -0.074 N 
ATOM     15  H43 UNL     1      20.871  -7.387  43.699  1.00  0.00     0.274 HD
ATOM     16  H42 UNL     1      21.934  -7.540  42.604  1.00  0.00     0.274 HD
ATOM     17  H41 UNL     1      22.453  -6.903  44.092  1.00  0.00     0.274 HD
ENDBRANCH  12  14
ENDBRANCH  11  12
ENDBRANCH   1  11
TORSDOF 4
ENDMDL
MODEL 4
REMARK VINA RESULT: -4.574052739      1.649      4.823
REMARK  4 active torsions:
REMARK  status: ('A' for Active; 'I' for Inactive)
REMARK    1  A    between atoms: C4_8  and  N3_9 
REMARK    2  A    between atoms: N3_9  and  C5_11 
REMARK    3  A    between atoms: C5_11  and  C6_12 
REMARK    4  A    between atoms: C6_12  and  N4_14 
ROOT
HETATM    1  N3  UNL     1      19.823  -2.579  41.765  1.00  0.00    -0.373 N 
ATOM      2  H3  UNL     1      18.906  -2.818  41.390  1.00  0.00     0.161 HD
ENDROOT
BRANCH   1   3
HETATM    3  C4  UNL     1      20.719  -3.448  41.643  1.00  0.00     0.123 A 
HETATM    4  C2  UNL     1      21.712  -3.550  40.726  1.00  0.00    -0.000 A 
HETATM    5  C1  UNL     1      22.058  -2.676  39.582  1.00  0.00     0.054 C 
HETATM    6  C3  UNL     1      22.457  -4.702  41.013  1.00  0.00     0.117 A 
HETATM    7  N1  UNL     1      21.888  -5.253  42.092  1.00  0.00    -0.310 N 
HETATM    8  N2  UNL     1      20.859  -4.521  42.474  1.00  0.00    -0.286 N 
ATOM      9  H1  UNL     1      22.202  -6.109  42.549  1.00  0.00     0.186 HD
ATOM     10  H2  UNL     1      20.258  -4.727  43.272  1.00  0.00     0.188 HD
ENDBRANCH   1   3
BRANCH   1  11
HETATM   11  C5  UNL     1      19.946  -1.297  42.369  1.00  0.00     0.153 C 
BRANCH  11  12
HETATM   12  C6  UNL     1      18.851  -0.347  41.833  1.00  0.00     0.197 C 
HETATM   13  C7  UNL     1      18.983  -0.408  40.323  1.00  0.00     0.041 C 
BRANCH  12  14
HETATM   14  N4  UNL     1      19.137   0.978  42.340  1.00  0.00    -0.074 N 
ATOM     15  H43 UNL     1      19.779   0.970  43.133  1.00  0.00     0.274 HD
ATOM     16  H42 UNL     1      19.716   1.530  41.706  1.00  0.00     0.274 HD
ATOM     17  H41 UNL     1      18.245   1.424  42.554  1.00  0.00     0.274 HD
ENDBRANCH  12  14
ENDBRANCH  11  12
ENDBRANCH   1  11
TORSDOF 4
ENDMDL
MODEL 5
REMARK VINA RESULT: -4.552544263      1.763      4.421
REMARK  4 active torsions:
REMARK  status: ('A' for Active; 'I' for Inactive)
REMARK    1  A    between atoms: C4_8  and  N3_9 
REMARK    2  A    between atoms: N3_9  and  C5_11 
REMARK    3  A    between atoms: C5_11  and  C6_12 
REMARK    4  A    between atoms: C6_12  and  N4_14 
ROOT
HETATM    1  N3  UNL     1      19.631  -2.591  40.653  1.00  0.00    -0.373 N 
ATOM      2  H3  UNL     1      18.650  -2.805  40.830  1.00  0.00     0.161 HD
ENDROOT
BRANCH   1   3
HETATM    3  C4  UNL     1      20.454  -3.505  40.897  1.00  0.00     0.123 A 
HETATM    4  C2  UNL     1      20.649  -4.219  42.032  1.00  0.00    -0.000 A 
HETATM    5  C1  UNL     1      19.960  -4.152  43.341  1.00  0.00     0.054 C 
HETATM    6  C3  UNL     1      21.691  -5.129  41.805  1.00  0.00     0.117 A 
HETATM    7  N1  UNL     1      22.087  -4.931  40.541  1.00  0.00    -0.310 N 
HETATM    8  N2  UNL     1      21.363  -3.974  39.994  1.00  0.00    -0.286 N 
ATOM      9  H1  UNL     1      22.835  -5.443  40.073  1.00  0.00     0.186 HD
ATOM     10  H2  UNL     1      21.468  -3.635  39.037  1.00  0.00     0.188 HD
ENDBRANCH   1   3
BRANCH   1  11
HETATM   11  C5  UNL     1      19.914  -1.289  40.157  1.00  0.00     0.153 C 
BRANCH  11  12
HETATM   12  C6  UNL     1      19.132  -0.227  40.963  1.00  0.00     0.197 C 
HETATM   13  C7  UNL     1      19.530  -0.460  42.407  1.00  0.00     0.041 C 
BRANCH  12  14
HETATM   14  N4  UNL     1      17.722  -0.472  40.752  1.00  0.00    -0.074 N 
ATOM     15  H43 UNL     1      17.498  -1.463  40.670  1.00  0.00     0.274 HD
ATOM     16  H42 UNL     1      17.157  -0.275  41.578  1.00  0.00     0.274 HD
ATOM     17  H41 UNL     1      17.435   0.070  39.936  1.00  0.00     0.274 HD
ENDBRANCH  12  14
ENDBRANCH  11  12
ENDBRANCH   1  11
TORSDOF 4
ENDMDL
