MODEL 1
REMARK VINA RESULT: -4.290547879      0.000      0.000
REMARK  2 active torsions:
REMARK  status: ('A' for Active; 'I' for Inactive)
REMARK    1  A    between atoms: N2_7  and  C4_9 
REMARK    2  A    between atoms: C4_9  and  C5_10 
ROOT
HETATM    1  C1  UNL     1      27.857  57.286  46.609  1.00  0.00     0.286 C 
HETATM    2  N1  UNL     1      26.693  57.373  47.430  1.00  0.00    -0.065 N 
ATOM      3  H11 UNL     1      26.343  58.285  47.725  1.00  0.00     0.277 HD
ATOM      4  H12 UNL     1      26.731  57.073  48.404  1.00  0.00     0.277 HD
HETATM    5  C2  UNL     1      25.949  56.589  46.457  1.00  0.00     0.286 C 
HETATM    6  C3  UNL     1      27.220  56.262  45.739  1.00  0.00     0.037 C 
HETATM    7  N2  UNL     1      27.613  55.479  44.814  1.00  0.00    -0.371 N 
ATOM      8  H2  UNL     1      26.951  54.850  44.360  1.00  0.00     0.164 HD
ENDROOT
BRANCH   7   9
HETATM    9  C4  UNL     1      28.967  55.487  44.419  1.00  0.00     0.095 C 
BRANCH   9  10
HETATM   10  C5  UNL     1      29.188  55.605  42.950  1.00  0.00     0.249 A 
HETATM   11  C6  UNL     1      28.122  55.878  42.012  1.00  0.00     0.271 A 
HETATM   12  N3  UNL     1      28.652  54.473  42.178  1.00  0.00    -0.062 N 
ATOM     13  H32 UNL     1      29.035  53.754  41.565  1.00  0.00     0.278 HD
ATOM     14  H31 UNL     1      28.256  53.558  42.393  1.00  0.00     0.278 HD
ENDBRANCH   9  10
ENDBRANCH   7   9
TORSDOF 2
ENDMDL
MODEL 2
REMARK VINA RESULT: -4.267729185      1.139      4.345
REMARK  2 active torsions:
REMARK  status: ('A' for Active; 'I' for Inactive)
REMARK    1  A    between atoms: N2_7  and  C4_9 
REMARK    2  A    between atoms: C4_9  and  C5_10 
ROOT
HETATM    1  C1  UNL     1      29.237  55.833  44.471  1.00  0.00     0.286 C 
HETATM    2  N1  UNL     1      29.836  56.132  43.210  1.00  0.00    -0.065 N 
ATOM      3  H11 UNL     1      30.725  55.702  42.952  1.00  0.00     0.277 HD
ATOM      4  H12 UNL     1      30.232  57.055  43.039  1.00  0.00     0.277 HD
HETATM    5  C2  UNL     1      28.612  55.730  42.535  1.00  0.00     0.286 C 
HETATM    6  C3  UNL     1      27.895  55.683  43.848  1.00  0.00     0.037 C 
HETATM    7  N2  UNL     1      26.699  55.570  44.273  1.00  0.00    -0.371 N 
ATOM      8  H2  UNL     1      25.928  55.478  43.613  1.00  0.00     0.164 HD
ENDROOT
BRANCH   7   9
HETATM    9  C4  UNL     1      26.448  55.572  45.660  1.00  0.00     0.095 C 
BRANCH   9  10
HETATM   10  C5  UNL     1      26.247  56.922  46.257  1.00  0.00     0.249 A 
HETATM   11  C6  UNL     1      27.180  57.518  47.189  1.00  0.00     0.271 A 
HETATM   12  N3  UNL     1      25.898  56.892  47.686  1.00  0.00    -0.062 N 
ATOM     13  H32 UNL     1      25.107  57.190  48.257  1.00  0.00     0.278 HD
ATOM     14  H31 UNL     1      25.645  56.175  48.367  1.00  0.00     0.278 HD
ENDBRANCH   9  10
ENDBRANCH   7   9
TORSDOF 2
ENDMDL
MODEL 3
REMARK VINA RESULT: -3.726610330      0.921      1.203
REMARK  2 active torsions:
REMARK  status: ('A' for Active; 'I' for Inactive)
REMARK    1  A    between atoms: N2_7  and  C4_9 
REMARK    2  A    between atoms: C4_9  and  C5_10 
ROOT
HETATM    1  C1  UNL     1      26.578  55.961  45.925  1.00  0.00     0.286 C 
HETATM    2  N1  UNL     1      25.979  57.016  46.676  1.00  0.00    -0.065 N 
ATOM      3  H11 UNL     1      25.262  56.806  47.370  1.00  0.00     0.277 HD
ATOM      4  H12 UNL     1      25.344  57.671  46.219  1.00  0.00     0.277 HD
HETATM    5  C2  UNL     1      27.297  57.459  47.102  1.00  0.00     0.286 C 
HETATM    6  C3  UNL     1      27.934  56.542  46.108  1.00  0.00     0.037 C 
HETATM    7  N2  UNL     1      29.092  56.328  45.619  1.00  0.00    -0.371 N 
ATOM      8  H2  UNL     1      29.887  56.888  45.924  1.00  0.00     0.164 HD
ENDROOT
BRANCH   7   9
HETATM    9  C4  UNL     1      29.267  55.314  44.655  1.00  0.00     0.095 C 
BRANCH   9  10
HETATM   10  C5  UNL     1      29.215  55.780  43.241  1.00  0.00     0.249 A 
HETATM   11  C6  UNL     1      27.985  55.862  42.483  1.00  0.00     0.271 A 
HETATM   12  N3  UNL     1      28.936  54.707  42.274  1.00  0.00    -0.062 N 
ATOM     13  H32 UNL     1      29.420  54.288  41.480  1.00  0.00     0.278 HD
ATOM     14  H31 UNL     1      28.874  53.690  42.301  1.00  0.00     0.278 HD
ENDBRANCH   9  10
ENDBRANCH   7   9
TORSDOF 2
ENDMDL
MODEL 4
REMARK VINA RESULT: -3.706168220      2.271      3.270
REMARK  2 active torsions:
REMARK  status: ('A' for Active; 'I' for Inactive)
REMARK    1  A    between atoms: N2_7  and  C4_9 
REMARK    2  A    between atoms: C4_9  and  C5_10 
ROOT
HETATM    1  C1  UNL     1      29.816  56.392  43.489  1.00  0.00     0.286 C 
HETATM    2  N1  UNL     1      30.008  56.493  44.900  1.00  0.00    -0.065 N 
ATOM      3  H11 UNL     1      30.113  57.409  45.336  1.00  0.00     0.277 HD
ATOM      4  H12 UNL     1      30.888  56.193  45.318  1.00  0.00     0.277 HD
HETATM    5  C2  UNL     1      28.797  55.718  45.119  1.00  0.00     0.286 C 
HETATM    6  C3  UNL     1      28.745  55.375  43.664  1.00  0.00     0.037 C 
HETATM    7  N2  UNL     1      28.101  54.588  42.896  1.00  0.00    -0.371 N 
ATOM      8  H2  UNL     1      27.390  53.966  43.281  1.00  0.00     0.164 HD
ENDROOT
BRANCH   7   9
HETATM    9  C4  UNL     1      28.375  54.580  41.513  1.00  0.00     0.095 C 
BRANCH   9  10
HETATM   10  C5  UNL     1      28.919  53.295  40.990  1.00  0.00     0.249 A 
HETATM   11  C6  UNL     1      28.315  52.574  39.891  1.00  0.00     0.271 A 
HETATM   12  N3  UNL     1      28.088  52.125  41.315  1.00  0.00    -0.062 N 
ATOM     13  H32 UNL     1      28.209  51.261  41.842  1.00  0.00     0.278 HD
ATOM     14  H31 UNL     1      27.278  51.939  41.907  1.00  0.00     0.278 HD
ENDBRANCH   9  10
ENDBRANCH   7   9
TORSDOF 2
ENDMDL
MODEL 5
REMARK VINA RESULT: -3.660935843      0.839      4.589
REMARK  2 active torsions:
REMARK  status: ('A' for Active; 'I' for Inactive)
REMARK    1  A    between atoms: N2_7  and  C4_9 
REMARK    2  A    between atoms: C4_9  and  C5_10 
ROOT
HETATM    1  C1  UNL     1      27.519  55.712  42.782  1.00  0.00     0.286 C 
HETATM    2  N1  UNL     1      28.699  55.350  42.066  1.00  0.00    -0.065 N 
ATOM      3  H11 UNL     1      28.965  55.864  41.226  1.00  0.00     0.277 HD
ATOM      4  H12 UNL     1      28.731  54.476  41.541  1.00  0.00     0.277 HD
HETATM    5  C2  UNL     1      29.480  55.494  43.285  1.00  0.00     0.286 C 
HETATM    6  C3  UNL     1      28.222  55.598  44.087  1.00  0.00     0.037 C 
HETATM    7  N2  UNL     1      27.875  55.595  45.313  1.00  0.00    -0.371 N 
ATOM      8  H2  UNL     1      28.580  55.499  46.044  1.00  0.00     0.164 HD
ENDROOT
BRANCH   7   9
HETATM    9  C4  UNL     1      26.513  55.724  45.655  1.00  0.00     0.095 C 
BRANCH   9  10
HETATM   10  C5  UNL     1      26.164  56.989  46.361  1.00  0.00     0.249 A 
HETATM   11  C6  UNL     1      27.053  57.639  47.299  1.00  0.00     0.271 A 
HETATM   12  N3  UNL     1      25.892  56.810  47.796  1.00  0.00    -0.062 N 
ATOM     13  H32 UNL     1      25.097  56.956  48.417  1.00  0.00     0.278 HD
ATOM     14  H31 UNL     1      25.770  56.019  48.429  1.00  0.00     0.278 HD
ENDBRANCH   9  10
ENDBRANCH   7   9
TORSDOF 2
ENDMDL
