MODEL 1
REMARK VINA RESULT: -6.961378388      0.000      0.000
REMARK  9 active torsions:
REMARK  status: ('A' for Active; 'I' for Inactive)
REMARK    1  A    between atoms: C2_2  and  C3_3 
REMARK    2  A    between atoms: C3_3  and  O1_4 
REMARK    3  A    between atoms: O1_4  and  C4_5 
REMARK    4  A    between atoms: C12_13  and  O2_14 
REMARK    5  A    between atoms: C20_23  and  C21_24 
REMARK       I    between atoms: C21_24  and  N1_26 
REMARK    6  A    between atoms: N1_26  and  C22_28 
REMARK    7  A    between atoms: C22_28  and  C23_29 
REMARK    8  A    between atoms: C22_28  and  C27_33 
REMARK    9  A    between atoms: C23_29  and  C24_30 
REMARK       I    between atoms: C27_33  and  N2_35 
ROOT
HETATM    1  C4  UNL     1      30.611  44.761   2.624  1.00  0.00     0.154 C 
HETATM    2  C5  UNL     1      29.741  43.554   2.484  1.00  0.00     0.010 C 
HETATM    3  C6  UNL     1      30.435  42.431   2.539  1.00  0.00    -0.058 C 
HETATM    4  C7  UNL     1      29.936  41.019   2.440  1.00  0.00     0.020 C 
HETATM    5  C8  UNL     1      29.034  40.794   1.267  1.00  0.00     0.010 C 
HETATM    6  C9  UNL     1      29.112  39.474   0.623  1.00  0.00     0.006 C 
HETATM    7  C10 UNL     1      29.750  38.344   1.344  1.00  0.00    -0.004 C 
HETATM    8  C11 UNL     1      28.818  37.146   1.534  1.00  0.00     0.037 C 
HETATM    9  C12 UNL     1      27.781  37.369   2.567  1.00  0.00     0.118 C 
HETATM   10  C13 UNL     1      28.184  38.238   3.700  1.00  0.00     0.032 C 
HETATM   11  C14 UNL     1      29.656  38.455   3.857  1.00  0.00     0.012 C 
HETATM   12  C15 UNL     1      30.442  38.648   2.624  1.00  0.00    -0.036 C 
HETATM   13  C16 UNL     1      31.683  37.733   2.722  1.00  0.00     0.016 C 
HETATM   14  C17 UNL     1      31.062  40.046   2.464  1.00  0.00     0.002 C 
HETATM   15  C18 UNL     1      32.112  40.333   3.476  1.00  0.00     0.007 C 
HETATM   16  C19 UNL     1      32.369  41.755   3.772  1.00  0.00     0.025 C 
HETATM   17  C20 UNL     1      31.901  42.721   2.728  1.00  0.00     0.074 C 
HETATM   18  C29 UNL     1      31.875  44.146   3.218  1.00  0.00     0.002 C 
HETATM   19  C30 UNL     1      31.761  44.273   4.714  1.00  0.00     0.019 C 
HETATM   20  C31 UNL     1      32.996  45.003   2.666  1.00  0.00     0.019 C 
ENDROOT
BRANCH  17  21
HETATM   21  C21 UNL     1      32.652  42.684   1.469  1.00  0.00     0.232 C 
HETATM   22  O3  UNL     1      33.874  42.342   1.542  1.00  0.00    -0.272 OA
HETATM   23  N1  UNL     1      32.167  42.982   0.202  1.00  0.00    -0.347 N 
ATOM     24  H1  UNL     1      31.187  43.254   0.133  1.00  0.00     0.163 HD
BRANCH  23  25
HETATM   25  C22 UNL     1      32.935  42.940  -1.043  1.00  0.00     0.177 C 
BRANCH  25  26
HETATM   26  C23 UNL     1      32.369  41.820  -1.872  1.00  0.00     0.038 C 
BRANCH  26  27
HETATM   27  C24 UNL     1      33.105  40.546  -1.895  1.00  0.00    -0.020 C 
HETATM   28  C25 UNL     1      34.584  40.743  -1.549  1.00  0.00     0.009 C 
HETATM   29  C26 UNL     1      32.598  39.573  -0.825  1.00  0.00     0.009 C 
ENDBRANCH  26  27
ENDBRANCH  25  26
BRANCH  25  30
HETATM   30  C27 UNL     1      32.823  44.206  -1.771  1.00  0.00     0.240 C 
HETATM   31  O4  UNL     1      32.868  44.086  -3.062  1.00  0.00    -0.271 OA
HETATM   32  N2  UNL     1      32.673  45.505  -1.307  1.00  0.00    -0.364 N 
HETATM   33  C28 UNL     1      32.589  46.632  -2.239  1.00  0.00     0.149 C 
ATOM     34  H2  UNL     1      32.620  45.678  -0.303  1.00  0.00     0.161 HD
ENDBRANCH  25  30
ENDBRANCH  23  25
ENDBRANCH  17  21
BRANCH   1  35
HETATM   35  O1  UNL     1      30.825  45.419   1.440  1.00  0.00    -0.378 OA
BRANCH  35  36
HETATM   36  C3  UNL     1      29.930  46.495   1.373  1.00  0.00     0.195 C 
BRANCH  36  37
HETATM   37  C2  UNL     1      30.354  47.620   2.230  1.00  0.00    -0.011 C 
HETATM   38  C1  UNL     1      31.414  48.332   1.895  1.00  0.00     0.009 C 
ENDBRANCH  36  37
ENDBRANCH  35  36
ENDBRANCH   1  35
BRANCH   9  39
HETATM   39  O2  UNL     1      26.622  37.904   1.957  1.00  0.00    -0.396 OA
ATOM     40  H2  UNL     1      26.590  38.841   2.111  1.00  0.00     0.210 HD
ENDBRANCH   9  39
TORSDOF 9
ENDMDL
MODEL 2
REMARK VINA RESULT: -6.689736887      4.850      7.431
REMARK  9 active torsions:
REMARK  status: ('A' for Active; 'I' for Inactive)
REMARK    1  A    between atoms: C2_2  and  C3_3 
REMARK    2  A    between atoms: C3_3  and  O1_4 
REMARK    3  A    between atoms: O1_4  and  C4_5 
REMARK    4  A    between atoms: C12_13  and  O2_14 
REMARK    5  A    between atoms: C20_23  and  C21_24 
REMARK       I    between atoms: C21_24  and  N1_26 
REMARK    6  A    between atoms: N1_26  and  C22_28 
REMARK    7  A    between atoms: C22_28  and  C23_29 
REMARK    8  A    between atoms: C22_28  and  C27_33 
REMARK    9  A    between atoms: C23_29  and  C24_30 
REMARK       I    between atoms: C27_33  and  N2_35 
ROOT
HETATM    1  C4  UNL     1      28.260  48.074  -0.346  1.00  0.00     0.154 C 
HETATM    2  C5  UNL     1      29.308  47.316  -1.095  1.00  0.00     0.010 C 
HETATM    3  C6  UNL     1      30.302  46.935  -0.314  1.00  0.00    -0.058 C 
HETATM    4  C7  UNL     1      31.534  46.160  -0.680  1.00  0.00     0.020 C 
HETATM    5  C8  UNL     1      32.246  46.714  -1.874  1.00  0.00     0.010 C 
HETATM    6  C9  UNL     1      33.712  46.608  -1.872  1.00  0.00     0.006 C 
HETATM    7  C10 UNL     1      34.376  45.667  -0.936  1.00  0.00    -0.004 C 
HETATM    8  C11 UNL     1      35.248  44.627  -1.642  1.00  0.00     0.037 C 
HETATM    9  C12 UNL     1      34.463  43.573  -2.326  1.00  0.00     0.118 C 
HETATM   10  C13 UNL     1      33.179  43.212  -1.678  1.00  0.00     0.032 C 
HETATM   11  C14 UNL     1      33.023  43.657  -0.258  1.00  0.00     0.012 C 
HETATM   12  C15 UNL     1      33.529  44.998   0.086  1.00  0.00    -0.036 C 
HETATM   13  C16 UNL     1      34.362  44.858   1.378  1.00  0.00     0.016 C 
HETATM   14  C17 UNL     1      32.447  46.014   0.487  1.00  0.00     0.002 C 
HETATM   15  C18 UNL     1      31.773  45.668   1.766  1.00  0.00     0.007 C 
HETATM   16  C19 UNL     1      30.416  46.212   1.963  1.00  0.00     0.025 C 
HETATM   17  C20 UNL     1      30.067  47.387   1.104  1.00  0.00     0.074 C 
HETATM   18  C29 UNL     1      28.589  47.687   1.093  1.00  0.00     0.002 C 
HETATM   19  C30 UNL     1      27.726  46.501   1.435  1.00  0.00     0.019 C 
HETATM   20  C31 UNL     1      28.208  48.911   1.899  1.00  0.00     0.019 C 
ENDROOT
BRANCH  17  21
HETATM   21  C21 UNL     1      30.781  48.626   1.428  1.00  0.00     0.232 C 
HETATM   22  O3  UNL     1      30.874  48.927   2.659  1.00  0.00    -0.272 OA
HETATM   23  N1  UNL     1      31.372  49.506   0.531  1.00  0.00    -0.347 N 
ATOM     24  H1  UNL     1      31.306  49.271  -0.460  1.00  0.00     0.163 HD
BRANCH  23  25
HETATM   25  C22 UNL     1      32.080  50.739   0.876  1.00  0.00     0.177 C 
BRANCH  25  26
HETATM   26  C23 UNL     1      33.498  50.356   1.201  1.00  0.00     0.038 C 
BRANCH  26  27
HETATM   27  C24 UNL     1      34.106  49.263   0.426  1.00  0.00    -0.020 C 
HETATM   28  C25 UNL     1      34.992  49.797  -0.704  1.00  0.00     0.009 C 
HETATM   29  C26 UNL     1      35.058  48.417   1.280  1.00  0.00     0.009 C 
ENDBRANCH  26  27
ENDBRANCH  25  26
BRANCH  25  30
HETATM   30  C27 UNL     1      32.062  51.684  -0.242  1.00  0.00     0.240 C 
HETATM   31  O4  UNL     1      31.141  51.450  -1.125  1.00  0.00    -0.271 OA
HETATM   32  N2  UNL     1      32.862  52.786  -0.507  1.00  0.00    -0.364 N 
HETATM   33  C28 UNL     1      32.659  53.592  -1.713  1.00  0.00     0.149 C 
ATOM     34  H2  UNL     1      33.603  53.039   0.147  1.00  0.00     0.161 HD
ENDBRANCH  25  30
ENDBRANCH  23  25
ENDBRANCH  17  21
BRANCH   1  35
HETATM   35  O1  UNL     1      28.297  49.425  -0.574  1.00  0.00    -0.378 OA
BRANCH  35  36
HETATM   36  C3  UNL     1      27.581  49.688  -1.749  1.00  0.00     0.195 C 
BRANCH  36  37
HETATM   37  C2  UNL     1      26.459  50.619  -1.517  1.00  0.00    -0.011 C 
HETATM   38  C1  UNL     1      25.783  50.556  -0.384  1.00  0.00     0.009 C 
ENDBRANCH  36  37
ENDBRANCH  35  36
ENDBRANCH   1  35
BRANCH   9  39
HETATM   39  O2  UNL     1      34.219  43.967  -3.663  1.00  0.00    -0.396 OA
ATOM     40  H2  UNL     1      33.489  44.575  -3.683  1.00  0.00     0.210 HD
ENDBRANCH   9  39
TORSDOF 9
ENDMDL
MODEL 3
REMARK VINA RESULT: -6.613240400      4.131      7.899
REMARK  9 active torsions:
REMARK  status: ('A' for Active; 'I' for Inactive)
REMARK    1  A    between atoms: C2_2  and  C3_3 
REMARK    2  A    between atoms: C3_3  and  O1_4 
REMARK    3  A    between atoms: O1_4  and  C4_5 
REMARK    4  A    between atoms: C12_13  and  O2_14 
REMARK    5  A    between atoms: C20_23  and  C21_24 
REMARK       I    between atoms: C21_24  and  N1_26 
REMARK    6  A    between atoms: N1_26  and  C22_28 
REMARK    7  A    between atoms: C22_28  and  C23_29 
REMARK    8  A    between atoms: C22_28  and  C27_33 
REMARK    9  A    between atoms: C23_29  and  C24_30 
REMARK       I    between atoms: C27_33  and  N2_35 
ROOT
HETATM    1  C4  UNL     1      28.059  49.077  -0.477  1.00  0.00     0.154 C 
HETATM    2  C5  UNL     1      28.772  47.836  -0.908  1.00  0.00     0.010 C 
HETATM    3  C6  UNL     1      29.820  47.574  -0.149  1.00  0.00    -0.058 C 
HETATM    4  C7  UNL     1      30.786  46.429  -0.253  1.00  0.00     0.020 C 
HETATM    5  C8  UNL     1      31.323  46.235  -1.636  1.00  0.00     0.010 C 
HETATM    6  C9  UNL     1      32.713  45.767  -1.741  1.00  0.00     0.006 C 
HETATM    7  C10 UNL     1      33.374  45.165  -0.556  1.00  0.00    -0.004 C 
HETATM    8  C11 UNL     1      33.874  43.740  -0.803  1.00  0.00     0.037 C 
HETATM    9  C12 UNL     1      32.785  42.738  -0.849  1.00  0.00     0.118 C 
HETATM   10  C13 UNL     1      31.619  43.021   0.024  1.00  0.00     0.032 C 
HETATM   11  C14 UNL     1      31.846  44.039   1.096  1.00  0.00     0.012 C 
HETATM   12  C15 UNL     1      32.649  45.223   0.740  1.00  0.00    -0.036 C 
HETATM   13  C16 UNL     1      33.694  45.425   1.860  1.00  0.00     0.016 C 
HETATM   14  C17 UNL     1      31.879  46.554   0.751  1.00  0.00     0.002 C 
HETATM   15  C18 UNL     1      31.434  46.955   2.111  1.00  0.00     0.007 C 
HETATM   16  C19 UNL     1      30.271  47.859   2.182  1.00  0.00     0.025 C 
HETATM   17  C20 UNL     1      29.971  48.618   0.926  1.00  0.00     0.074 C 
HETATM   18  C29 UNL     1      28.604  49.253   0.938  1.00  0.00     0.002 C 
HETATM   19  C30 UNL     1      27.630  48.581   1.868  1.00  0.00     0.019 C 
HETATM   20  C31 UNL     1      28.630  50.754   1.138  1.00  0.00     0.019 C 
ENDROOT
BRANCH  17  21
HETATM   21  C21 UNL     1      30.952  49.650   0.578  1.00  0.00     0.232 C 
HETATM   22  O3  UNL     1      31.440  50.323   1.539  1.00  0.00    -0.272 OA
HETATM   23  N1  UNL     1      31.407  49.970  -0.695  1.00  0.00    -0.347 N 
ATOM     24  H1  UNL     1      31.024  49.434  -1.473  1.00  0.00     0.163 HD
BRANCH  23  25
HETATM   25  C22 UNL     1      32.387  51.007  -1.021  1.00  0.00     0.177 C 
BRANCH  25  26
HETATM   26  C23 UNL     1      31.823  52.315  -0.538  1.00  0.00     0.038 C 
BRANCH  26  27
HETATM   27  C24 UNL     1      32.553  53.544  -0.884  1.00  0.00    -0.020 C 
HETATM   28  C25 UNL     1      32.601  53.765  -2.399  1.00  0.00     0.009 C 
HETATM   29  C26 UNL     1      31.851  54.797  -0.346  1.00  0.00     0.009 C 
ENDBRANCH  26  27
ENDBRANCH  25  26
BRANCH  25  30
HETATM   30  C27 UNL     1      33.668  50.743  -0.361  1.00  0.00     0.240 C 
HETATM   31  O4  UNL     1      34.505  50.055  -1.076  1.00  0.00    -0.271 OA
HETATM   32  N2  UNL     1      34.132  51.110   0.894  1.00  0.00    -0.364 N 
HETATM   33  C28 UNL     1      35.468  50.718   1.347  1.00  0.00     0.149 C 
ATOM     34  H2  UNL     1      33.533  51.660   1.510  1.00  0.00     0.161 HD
ENDBRANCH  25  30
ENDBRANCH  23  25
ENDBRANCH  17  21
BRANCH   1  35
HETATM   35  O1  UNL     1      28.294  50.152  -1.295  1.00  0.00    -0.378 OA
BRANCH  35  36
HETATM   36  C3  UNL     1      27.212  50.274  -2.175  1.00  0.00     0.195 C 
BRANCH  36  37
HETATM   37  C2  UNL     1      25.972  50.667  -1.475  1.00  0.00    -0.011 C 
HETATM   38  C1  UNL     1      25.026  51.311  -2.135  1.00  0.00     0.009 C 
ENDBRANCH  36  37
ENDBRANCH  35  36
ENDBRANCH   1  35
BRANCH   9  39
HETATM   39  O2  UNL     1      32.344  42.588  -2.185  1.00  0.00    -0.396 OA
ATOM     40  H2  UNL     1      32.128  43.442  -2.541  1.00  0.00     0.210 HD
ENDBRANCH   9  39
TORSDOF 9
ENDMDL
MODEL 4
REMARK VINA RESULT: -6.402062543      2.346      5.046
REMARK  9 active torsions:
REMARK  status: ('A' for Active; 'I' for Inactive)
REMARK    1  A    between atoms: C2_2  and  C3_3 
REMARK    2  A    between atoms: C3_3  and  O1_4 
REMARK    3  A    between atoms: O1_4  and  C4_5 
REMARK    4  A    between atoms: C12_13  and  O2_14 
REMARK    5  A    between atoms: C20_23  and  C21_24 
REMARK       I    between atoms: C21_24  and  N1_26 
REMARK    6  A    between atoms: N1_26  and  C22_28 
REMARK    7  A    between atoms: C22_28  and  C23_29 
REMARK    8  A    between atoms: C22_28  and  C27_33 
REMARK    9  A    between atoms: C23_29  and  C24_30 
REMARK       I    between atoms: C27_33  and  N2_35 
ROOT
HETATM    1  C4  UNL     1      35.079  43.543   3.827  1.00  0.00     0.154 C 
HETATM    2  C5  UNL     1      34.190  42.363   4.056  1.00  0.00     0.010 C 
HETATM    3  C6  UNL     1      33.221  42.288   3.162  1.00  0.00    -0.058 C 
HETATM    4  C7  UNL     1      32.133  41.260   3.048  1.00  0.00     0.020 C 
HETATM    5  C8  UNL     1      31.412  41.020   4.337  1.00  0.00     0.010 C 
HETATM    6  C9  UNL     1      29.978  40.712   4.240  1.00  0.00     0.006 C 
HETATM    7  C10 UNL     1      29.407  40.288   2.936  1.00  0.00    -0.004 C 
HETATM    8  C11 UNL     1      28.731  38.917   2.991  1.00  0.00     0.037 C 
HETATM    9  C12 UNL     1      29.692  37.793   3.065  1.00  0.00     0.118 C 
HETATM   10  C13 UNL     1      30.980  38.006   2.360  1.00  0.00     0.032 C 
HETATM   11  C14 UNL     1      30.997  39.127   1.369  1.00  0.00     0.012 C 
HETATM   12  C15 UNL     1      30.287  40.365   1.742  1.00  0.00    -0.036 C 
HETATM   13  C16 UNL     1      29.416  40.777   0.534  1.00  0.00     0.016 C 
HETATM   14  C17 UNL     1      31.191  41.593   1.943  1.00  0.00     0.002 C 
HETATM   15  C18 UNL     1      31.840  42.047   0.686  1.00  0.00     0.007 C 
HETATM   16  C19 UNL     1      33.093  42.811   0.832  1.00  0.00     0.025 C 
HETATM   17  C20 UNL     1      33.315  43.426   2.179  1.00  0.00     0.074 C 
HETATM   18  C29 UNL     1      34.734  43.895   2.382  1.00  0.00     0.002 C 
HETATM   19  C30 UNL     1      35.738  43.191   1.509  1.00  0.00     0.019 C 
HETATM   20  C31 UNL     1      34.893  45.400   2.322  1.00  0.00     0.019 C 
ENDROOT
BRANCH  17  21
HETATM   21  C21 UNL     1      32.415  44.535   2.510  1.00  0.00     0.232 C 
HETATM   22  O3  UNL     1      31.881  44.514   3.663  1.00  0.00    -0.272 OA
HETATM   23  N1  UNL     1      32.086  45.610   1.695  1.00  0.00    -0.347 N 
ATOM     24  H1  UNL     1      32.512  45.638   0.769  1.00  0.00     0.163 HD
BRANCH  23  25
HETATM   25  C22 UNL     1      31.183  46.708   2.045  1.00  0.00     0.177 C 
BRANCH  25  26
HETATM   26  C23 UNL     1      31.566  47.884   1.189  1.00  0.00     0.038 C 
BRANCH  26  27
HETATM   27  C24 UNL     1      31.910  49.142   1.870  1.00  0.00    -0.020 C 
HETATM   28  C25 UNL     1      33.295  49.647   1.457  1.00  0.00     0.009 C 
HETATM   29  C26 UNL     1      30.964  50.283   1.476  1.00  0.00     0.009 C 
ENDBRANCH  26  27
ENDBRANCH  25  26
BRANCH  25  30
HETATM   30  C27 UNL     1      29.788  46.340   1.791  1.00  0.00     0.240 C 
HETATM   31  O4  UNL     1      29.113  47.228   1.128  1.00  0.00    -0.271 OA
HETATM   32  N2  UNL     1      29.076  45.201   2.138  1.00  0.00    -0.364 N 
HETATM   33  C28 UNL     1      27.664  45.056   1.776  1.00  0.00     0.149 C 
ATOM     34  H2  UNL     1      29.542  44.454   2.653  1.00  0.00     0.161 HD
ENDBRANCH  25  30
ENDBRANCH  23  25
ENDBRANCH  17  21
BRANCH   1  35
HETATM   35  O1  UNL     1      34.861  44.569   4.710  1.00  0.00    -0.378 OA
BRANCH  35  36
HETATM   36  C3  UNL     1      35.137  44.099   6.000  1.00  0.00     0.195 C 
BRANCH  36  37
HETATM   37  C2  UNL     1      34.216  44.668   7.004  1.00  0.00    -0.011 C 
HETATM   38  C1  UNL     1      32.938  44.335   6.981  1.00  0.00     0.009 C 
ENDBRANCH  36  37
ENDBRANCH  35  36
ENDBRANCH   1  35
BRANCH   9  39
HETATM   39  O2  UNL     1      29.947  37.485   4.422  1.00  0.00    -0.396 OA
ATOM     40  H2  UNL     1      29.836  36.552   4.558  1.00  0.00     0.210 HD
ENDBRANCH   9  39
TORSDOF 9
ENDMDL
MODEL 5
REMARK VINA RESULT: -6.365562674      2.260      7.445
REMARK  9 active torsions:
REMARK  status: ('A' for Active; 'I' for Inactive)
REMARK    1  A    between atoms: C2_2  and  C3_3 
REMARK    2  A    between atoms: C3_3  and  O1_4 
REMARK    3  A    between atoms: O1_4  and  C4_5 
REMARK    4  A    between atoms: C12_13  and  O2_14 
REMARK    5  A    between atoms: C20_23  and  C21_24 
REMARK       I    between atoms: C21_24  and  N1_26 
REMARK    6  A    between atoms: N1_26  and  C22_28 
REMARK    7  A    between atoms: C22_28  and  C23_29 
REMARK    8  A    between atoms: C22_28  and  C27_33 
REMARK    9  A    between atoms: C23_29  and  C24_30 
REMARK       I    between atoms: C27_33  and  N2_35 
ROOT
HETATM    1  C4  UNL     1      30.788  41.258  -0.457  1.00  0.00     0.154 C 
HETATM    2  C5  UNL     1      30.033  42.527  -0.222  1.00  0.00     0.010 C 
HETATM    3  C6  UNL     1      30.816  43.499   0.210  1.00  0.00    -0.058 C 
HETATM    4  C7  UNL     1      30.446  44.912   0.557  1.00  0.00     0.020 C 
HETATM    5  C8  UNL     1      29.267  45.004   1.475  1.00  0.00     0.010 C 
HETATM    6  C9  UNL     1      29.279  46.103   2.451  1.00  0.00     0.006 C 
HETATM    7  C10 UNL     1      30.203  47.248   2.253  1.00  0.00    -0.004 C 
HETATM    8  C11 UNL     1      29.485  48.596   2.163  1.00  0.00     0.037 C 
HETATM    9  C12 UNL     1      28.778  48.797   0.879  1.00  0.00     0.118 C 
HETATM   10  C13 UNL     1      29.410  48.164  -0.305  1.00  0.00     0.032 C 
HETATM   11  C14 UNL     1      30.835  47.747  -0.131  1.00  0.00     0.012 C 
HETATM   12  C15 UNL     1      31.206  47.142   1.161  1.00  0.00    -0.036 C 
HETATM   13  C16 UNL     1      32.503  47.833   1.638  1.00  0.00     0.016 C 
HETATM   14  C17 UNL     1      31.618  45.662   1.089  1.00  0.00     0.002 C 
HETATM   15  C18 UNL     1      32.885  45.448   0.342  1.00  0.00     0.007 C 
HETATM   16  C19 UNL     1      33.080  44.113  -0.253  1.00  0.00     0.025 C 
HETATM   17  C20 UNL     1      32.239  43.022   0.332  1.00  0.00     0.074 C 
HETATM   18  C29 UNL     1      32.223  41.775  -0.517  1.00  0.00     0.002 C 
HETATM   19  C30 UNL     1      32.538  42.025  -1.968  1.00  0.00     0.019 C 
HETATM   20  C31 UNL     1      33.047  40.639   0.051  1.00  0.00     0.019 C 
ENDROOT
BRANCH  17  21
HETATM   21  C21 UNL     1      32.591  42.636   1.702  1.00  0.00     0.232 C 
HETATM   22  O3  UNL     1      33.830  42.558   1.975  1.00  0.00    -0.272 OA
HETATM   23  N1  UNL     1      31.711  42.349   2.738  1.00  0.00    -0.347 N 
ATOM     24  H1  UNL     1      30.715  42.412   2.530  1.00  0.00     0.163 HD
BRANCH  23  25
HETATM   25  C22 UNL     1      32.084  41.965   4.100  1.00  0.00     0.177 C 
BRANCH  25  26
HETATM   26  C23 UNL     1      32.092  43.222   4.926  1.00  0.00     0.038 C 
BRANCH  26  27
HETATM   27  C24 UNL     1      33.263  43.470   5.781  1.00  0.00    -0.020 C 
HETATM   28  C25 UNL     1      34.380  44.186   5.016  1.00  0.00     0.009 C 
HETATM   29  C26 UNL     1      32.935  44.420   6.939  1.00  0.00     0.009 C 
ENDBRANCH  26  27
ENDBRANCH  25  26
BRANCH  25  30
HETATM   30  C27 UNL     1      31.123  41.009   4.656  1.00  0.00     0.240 C 
HETATM   31  O4  UNL     1      30.584  41.383   5.775  1.00  0.00    -0.271 OA
HETATM   32  N2  UNL     1      30.695  39.777   4.181  1.00  0.00    -0.364 N 
HETATM   33  C28 UNL     1      29.716  38.983   4.925  1.00  0.00     0.149 C 
ATOM     34  H2  UNL     1      31.068  39.420   3.301  1.00  0.00     0.161 HD
ENDBRANCH  25  30
ENDBRANCH  23  25
ENDBRANCH  17  21
BRANCH   1  35
HETATM   35  O1  UNL     1      30.584  40.315   0.517  1.00  0.00    -0.378 OA
BRANCH  35  36
HETATM   36  C3  UNL     1      29.204  40.201   0.728  1.00  0.00     0.195 C 
BRANCH  36  37
HETATM   37  C2  UNL     1      28.836  38.879   1.276  1.00  0.00    -0.011 C 
HETATM   38  C1  UNL     1      29.697  37.880   1.201  1.00  0.00     0.009 C 
ENDBRANCH  36  37
ENDBRANCH  35  36
ENDBRANCH   1  35
BRANCH   9  39
HETATM   39  O2  UNL     1      27.446  48.336   1.002  1.00  0.00    -0.396 OA
ATOM     40  H2  UNL     1      26.901  48.776   0.360  1.00  0.00     0.210 HD
ENDBRANCH   9  39
TORSDOF 9
ENDMDL
