MODEL 1
REMARK VINA RESULT: -6.914505303      0.000      0.000
REMARK  10 active torsions:
REMARK  status: ('A' for Active; 'I' for Inactive)
REMARK    1  A    between atoms: C2_2  and  C3_3 
REMARK    2  A    between atoms: C2_2  and  N3_15 
REMARK    3  A    between atoms: C3_3  and  C4_4 
REMARK    4  A    between atoms: C4_4  and  C5_5 
REMARK    5  A    between atoms: C4_4  and  N1_8 
REMARK    6  A    between atoms: N1_8  and  C6_9 
REMARK    7  A    between atoms: N1_8  and  C7_13 
REMARK    8  A    between atoms: N3_15  and  C8_18 
REMARK    9  A    between atoms: C8_18  and  C9_19 
REMARK       I    between atoms: C9_19  and  N4_21 
REMARK   10  A    between atoms: N4_21  and  C10_23 
ROOT
HETATM    1  N3  UNL     1      -2.547   3.748  14.578  1.00  0.00    -0.060 N 
ATOM      2  H31 UNL     1      -2.408   2.787  14.264  1.00  0.00     0.278 HD
ATOM      3  H32 UNL     1      -2.390   3.615  15.577  1.00  0.00     0.278 HD
ENDROOT
BRANCH   1   4
HETATM    4  C2  UNL     1      -3.917   4.201  14.310  1.00  0.00     0.207 C 
HETATM    5  C1  UNL     1      -3.997   5.621  14.674  1.00  0.00     0.044 C 
BRANCH   4   6
HETATM    6  C3  UNL     1      -4.877   3.220  14.778  1.00  0.00     0.042 C 
BRANCH   6   7
HETATM    7  C4  UNL     1      -4.883   1.805  14.383  1.00  0.00     0.117 C 
BRANCH   7   8
HETATM    8  C5  UNL     1      -4.469   0.835  15.409  1.00  0.00     0.227 C 
HETATM    9  O1  UNL     1      -4.935  -0.300  15.559  1.00  0.00    -0.643 OA
HETATM   10  O2  UNL     1      -3.458   1.230  16.294  1.00  0.00    -0.643 OA
ENDBRANCH   7   8
BRANCH   7  11
HETATM   11  N1  UNL     1      -4.476   1.448  13.047  1.00  0.00    -0.280 N 
BRANCH  11  12
HETATM   12  C6  UNL     1      -3.692   0.333  12.686  1.00  0.00     0.184 C 
HETATM   13  N2  UNL     1      -4.291  -0.761  12.313  1.00  0.00    -0.395 N 
ATOM     14  H22 UNL     1      -5.310  -0.795  12.289  1.00  0.00     0.156 HD
ATOM     15  H21 UNL     1      -3.723  -1.567  12.052  1.00  0.00     0.156 HD
ENDBRANCH  11  12
BRANCH  11  16
HETATM   16  C7  UNL     1      -4.947   2.252  11.974  1.00  0.00     0.361 C 
HETATM   17  O3  UNL     1      -5.851   1.833  11.231  1.00  0.00    -0.283 OA
ENDBRANCH  11  16
ENDBRANCH   7  11
ENDBRANCH   6   7
ENDBRANCH   4   6
ENDBRANCH   1   4
BRANCH   1  18
HETATM   18  C8  UNL     1      -1.565   4.632  14.007  1.00  0.00     0.335 C 
BRANCH  18  19
HETATM   19  C9  UNL     1      -1.439   4.245  12.564  1.00  0.00     0.243 C 
HETATM   20  O4  UNL     1      -1.352   3.022  12.293  1.00  0.00    -0.272 OA
HETATM   21  N4  UNL     1      -1.414   5.183  11.517  1.00  0.00    -0.353 N 
ATOM     22  H4  UNL     1      -1.485   6.178  11.732  1.00  0.00     0.163 HD
BRANCH  21  23
HETATM   23  C10 UNL     1      -1.292   4.767  10.164  1.00  0.00     0.118 C 
HETATM   24  C11 UNL     1       0.149   4.846   9.657  1.00  0.00     0.297 C 
HETATM   25  N5  UNL     1       0.044   5.475   8.332  1.00  0.00     0.090 N 
HETATM   26  C12 UNL     1      -0.760   4.617   7.489  1.00  0.00     0.273 C 
HETATM   27  C15 UNL     1      -0.920   6.537   8.677  1.00  0.00     0.279 C 
HETATM   28  C13 UNL     1      -2.213   4.787   7.916  1.00  0.00     0.038 C 
HETATM   29  C14 UNL     1      -2.030   5.601   9.178  1.00  0.00     0.040 C 
ENDBRANCH  21  23
ENDBRANCH  18  19
ENDBRANCH   1  18
TORSDOF 10
ENDMDL
MODEL 2
REMARK VINA RESULT: -6.901002944      3.379      3.982
REMARK  10 active torsions:
REMARK  status: ('A' for Active; 'I' for Inactive)
REMARK    1  A    between atoms: C2_2  and  C3_3 
REMARK    2  A    between atoms: C2_2  and  N3_15 
REMARK    3  A    between atoms: C3_3  and  C4_4 
REMARK    4  A    between atoms: C4_4  and  C5_5 
REMARK    5  A    between atoms: C4_4  and  N1_8 
REMARK    6  A    between atoms: N1_8  and  C6_9 
REMARK    7  A    between atoms: N1_8  and  C7_13 
REMARK    8  A    between atoms: N3_15  and  C8_18 
REMARK    9  A    between atoms: C8_18  and  C9_19 
REMARK       I    between atoms: C9_19  and  N4_21 
REMARK   10  A    between atoms: N4_21  and  C10_23 
ROOT
HETATM    1  N3  UNL     1      -5.579   5.351  14.967  1.00  0.00    -0.060 N 
ATOM      2  H31 UNL     1      -5.690   5.824  15.864  1.00  0.00     0.278 HD
ATOM      3  H32 UNL     1      -6.280   5.861  14.430  1.00  0.00     0.278 HD
ENDROOT
BRANCH   1   4
HETATM    4  C2  UNL     1      -5.918   3.928  15.070  1.00  0.00     0.207 C 
HETATM    5  C1  UNL     1      -6.710   3.743  16.291  1.00  0.00     0.044 C 
BRANCH   4   6
HETATM    6  C3  UNL     1      -4.763   3.107  14.757  1.00  0.00     0.042 C 
BRANCH   6   7
HETATM    7  C4  UNL     1      -4.825   1.684  14.394  1.00  0.00     0.117 C 
BRANCH   7   8
HETATM    8  C5  UNL     1      -4.452   0.722  15.442  1.00  0.00     0.227 C 
HETATM    9  O1  UNL     1      -4.962  -0.391  15.614  1.00  0.00    -0.643 OA
HETATM   10  O2  UNL     1      -3.430   1.096  16.322  1.00  0.00    -0.643 OA
ENDBRANCH   7   8
BRANCH   7  11
HETATM   11  N1  UNL     1      -4.432   1.282  13.067  1.00  0.00    -0.280 N 
BRANCH  11  12
HETATM   12  C6  UNL     1      -3.773   0.084  12.722  1.00  0.00     0.184 C 
HETATM   13  N2  UNL     1      -4.423  -0.816  12.042  1.00  0.00    -0.395 N 
ATOM     14  H22 UNL     1      -5.391  -0.642  11.772  1.00  0.00     0.156 HD
ATOM     15  H21 UNL     1      -3.946  -1.682  11.792  1.00  0.00     0.156 HD
ENDBRANCH  11  12
BRANCH  11  16
HETATM   16  C7  UNL     1      -4.783   2.133  11.985  1.00  0.00     0.361 C 
HETATM   17  O3  UNL     1      -5.789   1.887  11.298  1.00  0.00    -0.283 OA
ENDBRANCH  11  16
ENDBRANCH   7  11
ENDBRANCH   6   7
ENDBRANCH   4   6
ENDBRANCH   1   4
BRANCH   1  18
HETATM   18  C8  UNL     1      -4.258   5.554  14.430  1.00  0.00     0.335 C 
BRANCH  18  19
HETATM   19  C9  UNL     1      -4.405   6.545  13.315  1.00  0.00     0.243 C 
HETATM   20  O4  UNL     1      -3.458   7.346  13.119  1.00  0.00    -0.272 OA
HETATM   21  N4  UNL     1      -5.543   6.613  12.493  1.00  0.00    -0.353 N 
ATOM     22  H4  UNL     1      -6.314   5.964  12.649  1.00  0.00     0.163 HD
BRANCH  21  23
HETATM   23  C10 UNL     1      -5.636   7.571  11.448  1.00  0.00     0.118 C 
HETATM   24  C11 UNL     1      -7.033   8.185  11.343  1.00  0.00     0.297 C 
HETATM   25  N5  UNL     1      -7.338   8.172   9.904  1.00  0.00     0.090 N 
HETATM   26  C12 UNL     1      -6.355   8.990   9.228  1.00  0.00     0.273 C 
HETATM   27  C15 UNL     1      -6.853   6.813   9.597  1.00  0.00     0.279 C 
HETATM   28  C13 UNL     1      -5.057   8.195   9.173  1.00  0.00     0.038 C 
HETATM   29  C14 UNL     1      -5.411   7.036  10.079  1.00  0.00     0.040 C 
ENDBRANCH  21  23
ENDBRANCH  18  19
ENDBRANCH   1  18
TORSDOF 10
ENDMDL
MODEL 3
REMARK VINA RESULT: -6.873854689      3.006      3.863
REMARK  10 active torsions:
REMARK  status: ('A' for Active; 'I' for Inactive)
REMARK    1  A    between atoms: C2_2  and  C3_3 
REMARK    2  A    between atoms: C2_2  and  N3_15 
REMARK    3  A    between atoms: C3_3  and  C4_4 
REMARK    4  A    between atoms: C4_4  and  C5_5 
REMARK    5  A    between atoms: C4_4  and  N1_8 
REMARK    6  A    between atoms: N1_8  and  C6_9 
REMARK    7  A    between atoms: N1_8  and  C7_13 
REMARK    8  A    between atoms: N3_15  and  C8_18 
REMARK    9  A    between atoms: C8_18  and  C9_19 
REMARK       I    between atoms: C9_19  and  N4_21 
REMARK   10  A    between atoms: N4_21  and  C10_23 
ROOT
HETATM    1  N3  UNL     1      -6.232   5.093  15.531  1.00  0.00    -0.060 N 
ATOM      2  H31 UNL     1      -6.255   5.518  16.458  1.00  0.00     0.278 HD
ATOM      3  H32 UNL     1      -7.106   5.467  15.161  1.00  0.00     0.278 HD
ENDROOT
BRANCH   1   4
HETATM    4  C2  UNL     1      -6.273   3.629  15.615  1.00  0.00     0.207 C 
HETATM    5  C1  UNL     1      -6.968   3.271  16.856  1.00  0.00     0.044 C 
BRANCH   4   6
HETATM    6  C3  UNL     1      -4.987   3.064  15.250  1.00  0.00     0.042 C 
BRANCH   6   7
HETATM    7  C4  UNL     1      -4.805   1.761  14.596  1.00  0.00     0.117 C 
BRANCH   7   8
HETATM    8  C5  UNL     1      -4.424   0.637  15.466  1.00  0.00     0.227 C 
HETATM    9  O1  UNL     1      -4.877  -0.511  15.402  1.00  0.00    -0.643 OA
HETATM   10  O2  UNL     1      -3.464   0.888  16.454  1.00  0.00    -0.643 OA
ENDBRANCH   7   8
BRANCH   7  11
HETATM   11  N1  UNL     1      -4.207   1.711  13.286  1.00  0.00    -0.280 N 
BRANCH  11  12
HETATM   12  C6  UNL     1      -4.443   0.731  12.299  1.00  0.00     0.184 C 
HETATM   13  N2  UNL     1      -4.834   1.113  11.118  1.00  0.00    -0.395 N 
ATOM     14  H22 UNL     1      -4.961   2.107  10.925  1.00  0.00     0.156 HD
ATOM     15  H21 UNL     1      -5.005   0.405  10.404  1.00  0.00     0.156 HD
ENDBRANCH  11  12
BRANCH  11  16
HETATM   16  C7  UNL     1      -3.336   2.771  12.914  1.00  0.00     0.361 C 
HETATM   17  O3  UNL     1      -2.253   2.522  12.358  1.00  0.00    -0.283 OA
ENDBRANCH  11  16
ENDBRANCH   7  11
ENDBRANCH   6   7
ENDBRANCH   4   6
ENDBRANCH   1   4
BRANCH   1  18
HETATM   18  C8  UNL     1      -5.102   5.559  14.770  1.00  0.00     0.335 C 
BRANCH  18  19
HETATM   19  C9  UNL     1      -5.659   6.183  13.527  1.00  0.00     0.243 C 
HETATM   20  O4  UNL     1      -6.907   6.300  13.441  1.00  0.00    -0.272 OA
HETATM   21  N4  UNL     1      -4.854   6.637  12.468  1.00  0.00    -0.353 N 
ATOM     22  H4  UNL     1      -3.840   6.545  12.533  1.00  0.00     0.163 HD
BRANCH  21  23
HETATM   23  C10 UNL     1      -5.430   7.222  11.308  1.00  0.00     0.118 C 
HETATM   24  C11 UNL     1      -5.120   6.428  10.039  1.00  0.00     0.297 C 
HETATM   25  N5  UNL     1      -4.731   7.444   9.048  1.00  0.00     0.090 N 
HETATM   26  C12 UNL     1      -5.856   8.330   8.848  1.00  0.00     0.273 C 
HETATM   27  C15 UNL     1      -3.861   8.262   9.915  1.00  0.00     0.279 C 
HETATM   28  C13 UNL     1      -5.941   9.245  10.063  1.00  0.00     0.038 C 
HETATM   29  C14 UNL     1      -4.929   8.582  10.972  1.00  0.00     0.040 C 
ENDBRANCH  21  23
ENDBRANCH  18  19
ENDBRANCH   1  18
TORSDOF 10
ENDMDL
MODEL 4
REMARK VINA RESULT: -6.835701883      1.490      1.762
REMARK  10 active torsions:
REMARK  status: ('A' for Active; 'I' for Inactive)
REMARK    1  A    between atoms: C2_2  and  C3_3 
REMARK    2  A    between atoms: C2_2  and  N3_15 
REMARK    3  A    between atoms: C3_3  and  C4_4 
REMARK    4  A    between atoms: C4_4  and  C5_5 
REMARK    5  A    between atoms: C4_4  and  N1_8 
REMARK    6  A    between atoms: N1_8  and  C6_9 
REMARK    7  A    between atoms: N1_8  and  C7_13 
REMARK    8  A    between atoms: N3_15  and  C8_18 
REMARK    9  A    between atoms: C8_18  and  C9_19 
REMARK       I    between atoms: C9_19  and  N4_21 
REMARK   10  A    between atoms: N4_21  and  C10_23 
ROOT
HETATM    1  N3  UNL     1      -3.193   4.959  13.503  1.00  0.00    -0.060 N 
ATOM      2  H31 UNL     1      -3.215   5.979  13.483  1.00  0.00     0.278 HD
ATOM      3  H32 UNL     1      -3.267   4.777  12.503  1.00  0.00     0.278 HD
ENDROOT
BRANCH   1   4
HETATM    4  C2  UNL     1      -4.347   4.416  14.230  1.00  0.00     0.207 C 
HETATM    5  C1  UNL     1      -4.973   5.521  14.965  1.00  0.00     0.044 C 
BRANCH   4   6
HETATM    6  C3  UNL     1      -4.002   3.156  14.860  1.00  0.00     0.042 C 
BRANCH   6   7
HETATM    7  C4  UNL     1      -4.521   1.846  14.443  1.00  0.00     0.117 C 
BRANCH   7   8
HETATM    8  C5  UNL     1      -4.414   0.754  15.423  1.00  0.00     0.227 C 
HETATM    9  O1  UNL     1      -5.037  -0.312  15.387  1.00  0.00    -0.643 OA
HETATM   10  O2  UNL     1      -3.529   0.937  16.493  1.00  0.00    -0.643 OA
ENDBRANCH   7   8
BRANCH   7  11
HETATM   11  N1  UNL     1      -4.337   1.421  13.078  1.00  0.00    -0.280 N 
BRANCH  11  12
HETATM   12  C6  UNL     1      -3.676   0.252  12.651  1.00  0.00     0.184 C 
HETATM   13  N2  UNL     1      -4.387  -0.743  12.205  1.00  0.00    -0.395 N 
ATOM     14  H22 UNL     1      -5.403  -0.662  12.171  1.00  0.00     0.156 HD
ATOM     15  H21 UNL     1      -3.908  -1.589  11.896  1.00  0.00     0.156 HD
ENDBRANCH  11  12
BRANCH  11  16
HETATM   16  C7  UNL     1      -4.920   2.216  12.053  1.00  0.00     0.361 C 
HETATM   17  O3  UNL     1      -5.782   1.729  11.301  1.00  0.00    -0.283 OA
ENDBRANCH  11  16
ENDBRANCH   7  11
ENDBRANCH   6   7
ENDBRANCH   4   6
ENDBRANCH   1   4
BRANCH   1  18
HETATM   18  C8  UNL     1      -1.945   4.473  14.033  1.00  0.00     0.335 C 
BRANCH  18  19
HETATM   19  C9  UNL     1      -1.100   4.109  12.850  1.00  0.00     0.243 C 
HETATM   20  O4  UNL     1      -1.394   3.062  12.222  1.00  0.00    -0.272 OA
HETATM   21  N4  UNL     1      -0.006   4.881  12.421  1.00  0.00    -0.353 N 
ATOM     22  H4  UNL     1       0.237   5.732  12.928  1.00  0.00     0.163 HD
BRANCH  21  23
HETATM   23  C10 UNL     1       0.766   4.495  11.293  1.00  0.00     0.118 C 
HETATM   24  C11 UNL     1       2.266   4.693  11.518  1.00  0.00     0.297 C 
HETATM   25  N5  UNL     1       2.747   5.330  10.282  1.00  0.00     0.090 N 
HETATM   26  C12 UNL     1       2.499   4.424   9.183  1.00  0.00     0.273 C 
HETATM   27  C15 UNL     1       1.657   6.308  10.110  1.00  0.00     0.279 C 
HETATM   28  C13 UNL     1       1.008   4.473   8.876  1.00  0.00     0.038 C 
HETATM   29  C14 UNL     1       0.515   5.282  10.056  1.00  0.00     0.040 C 
ENDBRANCH  21  23
ENDBRANCH  18  19
ENDBRANCH   1  18
TORSDOF 10
ENDMDL
MODEL 5
REMARK VINA RESULT: -6.821328163      3.435      4.463
REMARK  10 active torsions:
REMARK  status: ('A' for Active; 'I' for Inactive)
REMARK    1  A    between atoms: C2_2  and  C3_3 
REMARK    2  A    between atoms: C2_2  and  N3_15 
REMARK    3  A    between atoms: C3_3  and  C4_4 
REMARK    4  A    between atoms: C4_4  and  C5_5 
REMARK    5  A    between atoms: C4_4  and  N1_8 
REMARK    6  A    between atoms: N1_8  and  C6_9 
REMARK    7  A    between atoms: N1_8  and  C7_13 
REMARK    8  A    between atoms: N3_15  and  C8_18 
REMARK    9  A    between atoms: C8_18  and  C9_19 
REMARK       I    between atoms: C9_19  and  N4_21 
REMARK   10  A    between atoms: N4_21  and  C10_23 
ROOT
HETATM    1  N3  UNL     1      -4.713   5.427  14.720  1.00  0.00    -0.060 N 
ATOM      2  H31 UNL     1      -4.758   5.828  15.657  1.00  0.00     0.278 HD
ATOM      3  H32 UNL     1      -5.259   6.127  14.219  1.00  0.00     0.278 HD
ENDROOT
BRANCH   1   4
HETATM    4  C2  UNL     1      -5.362   4.111  14.673  1.00  0.00     0.207 C 
HETATM    5  C1  UNL     1      -6.361   4.067  15.747  1.00  0.00     0.044 C 
BRANCH   4   6
HETATM    6  C3  UNL     1      -4.375   3.065  14.481  1.00  0.00     0.042 C 
BRANCH   6   7
HETATM    7  C4  UNL     1      -4.695   1.647  14.268  1.00  0.00     0.117 C 
BRANCH   7   8
HETATM    8  C5  UNL     1      -4.443   0.739  15.398  1.00  0.00     0.227 C 
HETATM    9  O1  UNL     1      -5.030  -0.326  15.613  1.00  0.00    -0.643 OA
HETATM   10  O2  UNL     1      -3.449   1.114  16.311  1.00  0.00    -0.643 OA
ENDBRANCH   7   8
BRANCH   7  11
HETATM   11  N1  UNL     1      -4.439   1.056  12.979  1.00  0.00    -0.280 N 
BRANCH  11  12
HETATM   12  C6  UNL     1      -4.032  -0.273  12.738  1.00  0.00     0.184 C 
HETATM   13  N2  UNL     1      -4.497  -0.891  11.691  1.00  0.00    -0.395 N 
ATOM     14  H22 UNL     1      -5.143  -0.408  11.066  1.00  0.00     0.156 HD
ATOM     15  H21 UNL     1      -4.203  -1.852  11.517  1.00  0.00     0.156 HD
ENDBRANCH  11  12
BRANCH  11  16
HETATM   16  C7  UNL     1      -4.666   1.856  11.826  1.00  0.00     0.361 C 
HETATM   17  O3  UNL     1      -5.791   1.884  11.298  1.00  0.00    -0.283 OA
ENDBRANCH  11  16
ENDBRANCH   7  11
ENDBRANCH   6   7
ENDBRANCH   4   6
ENDBRANCH   1   4
BRANCH   1  18
HETATM   18  C8  UNL     1      -3.357   5.376  14.237  1.00  0.00     0.335 C 
BRANCH  18  19
HETATM   19  C9  UNL     1      -2.997   6.778  13.847  1.00  0.00     0.243 C 
HETATM   20  O4  UNL     1      -3.679   7.327  12.947  1.00  0.00    -0.272 OA
HETATM   21  N4  UNL     1      -1.942   7.493  14.440  1.00  0.00    -0.353 N 
ATOM     22  H4  UNL     1      -1.385   7.051  15.172  1.00  0.00     0.163 HD
BRANCH  21  23
HETATM   23  C10 UNL     1      -1.638   8.820  14.036  1.00  0.00     0.118 C 
HETATM   24  C11 UNL     1      -0.169   8.990  13.644  1.00  0.00     0.297 C 
HETATM   25  N5  UNL     1       0.250  10.238  14.301  1.00  0.00     0.090 N 
HETATM   26  C12 UNL     1      -0.558  11.316  13.775  1.00  0.00     0.273 C 
HETATM   27  C15 UNL     1      -0.381  10.009  15.614  1.00  0.00     0.279 C 
HETATM   28  C13 UNL     1      -1.940  11.203  14.407  1.00  0.00     0.038 C 
HETATM   29  C14 UNL     1      -1.816   9.857  15.088  1.00  0.00     0.040 C 
ENDBRANCH  21  23
ENDBRANCH  18  19
ENDBRANCH   1  18
TORSDOF 10
ENDMDL
