MODEL 1
REMARK VINA RESULT: -6.829875919      0.000      0.000
REMARK  7 active torsions:
REMARK  status: ('A' for Active; 'I' for Inactive)
REMARK    1  A    between atoms: O1_1  and  C1_3 
REMARK    2  A    between atoms: C1_3  and  C2_4 
REMARK    3  A    between atoms: C2_4  and  C3_5 
REMARK    4  A    between atoms: C3_5  and  C4_6 
REMARK    5  A    between atoms: C4_6  and  N1_7 
REMARK    6  A    between atoms: N1_7  and  C5_9 
REMARK    7  A    between atoms: N2_10  and  N3_12 
ROOT
HETATM    1  C5  UNL     1      -1.780  31.609  -9.449  1.00  0.00     0.196 C 
HETATM    2  N2  UNL     1      -1.715  31.544  -8.229  1.00  0.00    -0.295 N 
ATOM      3  H2  UNL     1      -0.978  30.920  -7.900  1.00  0.00     0.187 HD
ENDROOT
BRANCH   2   4
HETATM    4  N3  UNL     1      -2.391  32.106  -7.253  1.00  0.00    -0.288 N 
HETATM    5  C6  UNL     1      -3.061  31.714  -6.270  1.00  0.00     0.091 C 
HETATM    6  C7  UNL     1      -3.595  32.869  -5.501  1.00  0.00     0.077 C 
HETATM    7  N4  UNL     1      -3.188  30.321  -6.083  1.00  0.00    -0.379 N 
HETATM    8  C8  UNL     1      -2.832  33.090  -4.217  1.00  0.00     0.007 C 
HETATM    9  C9  UNL     1      -3.483  32.413  -3.041  1.00  0.00     0.000 C 
HETATM   10  C10 UNL     1      -3.952  31.017  -3.321  1.00  0.00     0.002 C 
HETATM   11  C11 UNL     1      -2.841  30.079  -3.664  1.00  0.00     0.020 C 
HETATM   12  C12 UNL     1      -3.151  29.414  -4.987  1.00  0.00     0.121 C 
ATOM     13  H4  UNL     1      -3.350  29.836  -6.966  1.00  0.00     0.160 HD
ATOM     14  H3  UNL     1      -2.363  33.124  -7.310  1.00  0.00     0.188 HD
ENDBRANCH   2   4
BRANCH   1  15
HETATM   15  N1  UNL     1      -0.978  30.938 -10.392  1.00  0.00    -0.365 N 
ATOM     16  H1  UNL     1       0.009  30.893 -10.135  1.00  0.00     0.165 HD
BRANCH  15  17
HETATM   17  C4  UNL     1      -1.272  30.323 -11.609  1.00  0.00     0.062 C 
BRANCH  17  18
HETATM   18  C3  UNL     1      -2.623  30.287 -12.188  1.00  0.00     0.046 C 
BRANCH  18  19
HETATM   19  C2  UNL     1      -3.161  29.019 -12.693  1.00  0.00     0.031 C 
BRANCH  19  20
HETATM   20  C1  UNL     1      -2.201  28.506 -13.799  1.00  0.00     0.164 C 
BRANCH  20  21
HETATM   21  O1  UNL     1      -2.405  27.151 -13.894  1.00  0.00    -0.401 OA
ATOM     22  H1  UNL     1      -2.450  26.950 -14.820  1.00  0.00     0.209 HD
ENDBRANCH  20  21
ENDBRANCH  19  20
ENDBRANCH  18  19
ENDBRANCH  17  18
ENDBRANCH  15  17
ENDBRANCH   1  15
TORSDOF 7
ENDMDL
MODEL 2
REMARK VINA RESULT: -6.606809988      1.125      2.097
REMARK  7 active torsions:
REMARK  status: ('A' for Active; 'I' for Inactive)
REMARK    1  A    between atoms: O1_1  and  C1_3 
REMARK    2  A    between atoms: C1_3  and  C2_4 
REMARK    3  A    between atoms: C2_4  and  C3_5 
REMARK    4  A    between atoms: C3_5  and  C4_6 
REMARK    5  A    between atoms: C4_6  and  N1_7 
REMARK    6  A    between atoms: N1_7  and  C5_9 
REMARK    7  A    between atoms: N2_10  and  N3_12 
ROOT
HETATM    1  C5  UNL     1      -2.159  31.117  -9.702  1.00  0.00     0.196 C 
HETATM    2  N2  UNL     1      -2.752  30.576  -8.779  1.00  0.00    -0.295 N 
ATOM      3  H2  UNL     1      -3.703  30.298  -9.022  1.00  0.00     0.187 HD
ENDROOT
BRANCH   2   4
HETATM    4  N3  UNL     1      -2.426  30.276  -7.542  1.00  0.00    -0.288 N 
HETATM    5  C6  UNL     1      -2.401  30.872  -6.441  1.00  0.00     0.091 C 
HETATM    6  C7  UNL     1      -1.923  29.966  -5.362  1.00  0.00     0.077 C 
HETATM    7  N4  UNL     1      -2.800  32.225  -6.424  1.00  0.00    -0.379 N 
HETATM    8  C8  UNL     1      -3.056  29.499  -4.480  1.00  0.00     0.007 C 
HETATM    9  C9  UNL     1      -3.218  30.356  -3.254  1.00  0.00     0.000 C 
HETATM   10  C10 UNL     1      -3.127  31.829  -3.519  1.00  0.00     0.002 C 
HETATM   11  C11 UNL     1      -4.210  32.334  -4.416  1.00  0.00     0.020 C 
HETATM   12  C12 UNL     1      -3.582  33.065  -5.581  1.00  0.00     0.121 C 
ATOM     13  H4  UNL     1      -2.431  32.737  -7.225  1.00  0.00     0.160 HD
ATOM     14  H3  UNL     1      -2.113  29.309  -7.457  1.00  0.00     0.188 HD
ENDBRANCH   2   4
BRANCH   1  15
HETATM   15  N1  UNL     1      -2.640  31.380 -10.999  1.00  0.00    -0.365 N 
ATOM     16  H1  UNL     1      -2.161  32.148 -11.468  1.00  0.00     0.165 HD
BRANCH  15  17
HETATM   17  C4  UNL     1      -3.646  30.790 -11.765  1.00  0.00     0.062 C 
BRANCH  17  18
HETATM   18  C3  UNL     1      -3.465  29.532 -12.504  1.00  0.00     0.046 C 
BRANCH  18  19
HETATM   19  C2  UNL     1      -2.138  29.183 -13.023  1.00  0.00     0.031 C 
BRANCH  19  20
HETATM   20  C1  UNL     1      -2.340  28.285 -14.272  1.00  0.00     0.164 C 
BRANCH  20  21
HETATM   21  O1  UNL     1      -2.432  26.994 -13.813  1.00  0.00    -0.401 OA
ATOM     22  H1  UNL     1      -1.543  26.699 -13.660  1.00  0.00     0.209 HD
ENDBRANCH  20  21
ENDBRANCH  19  20
ENDBRANCH  18  19
ENDBRANCH  17  18
ENDBRANCH  15  17
ENDBRANCH   1  15
TORSDOF 7
ENDMDL
MODEL 3
REMARK VINA RESULT: -6.522521725      1.026      2.097
REMARK  7 active torsions:
REMARK  status: ('A' for Active; 'I' for Inactive)
REMARK    1  A    between atoms: O1_1  and  C1_3 
REMARK    2  A    between atoms: C1_3  and  C2_4 
REMARK    3  A    between atoms: C2_4  and  C3_5 
REMARK    4  A    between atoms: C3_5  and  C4_6 
REMARK    5  A    between atoms: C4_6  and  N1_7 
REMARK    6  A    between atoms: N1_7  and  C5_9 
REMARK    7  A    between atoms: N2_10  and  N3_12 
ROOT
HETATM    1  C5  UNL     1      -2.002  31.262  -8.814  1.00  0.00     0.196 C 
HETATM    2  N2  UNL     1      -2.812  31.174  -7.901  1.00  0.00    -0.295 N 
ATOM      3  H2  UNL     1      -3.775  31.318  -8.203  1.00  0.00     0.187 HD
ENDROOT
BRANCH   2   4
HETATM    4  N3  UNL     1      -2.705  30.934  -6.613  1.00  0.00    -0.288 N 
HETATM    5  C6  UNL     1      -2.672  31.615  -5.563  1.00  0.00     0.091 C 
HETATM    6  C7  UNL     1      -2.538  30.738  -4.369  1.00  0.00     0.077 C 
HETATM    7  N4  UNL     1      -2.756  33.018  -5.694  1.00  0.00    -0.379 N 
HETATM    8  C8  UNL     1      -3.839  30.613  -3.615  1.00  0.00     0.007 C 
HETATM    9  C9  UNL     1      -3.943  31.601  -2.485  1.00  0.00     0.000 C 
HETATM   10  C10 UNL     1      -3.494  32.987  -2.838  1.00  0.00     0.002 C 
HETATM   11  C11 UNL     1      -4.326  33.622  -3.905  1.00  0.00     0.020 C 
HETATM   12  C12 UNL     1      -3.420  34.084  -5.024  1.00  0.00     0.121 C 
ATOM     13  H4  UNL     1      -2.193  33.358  -6.473  1.00  0.00     0.160 HD
ATOM     14  H3  UNL     1      -2.629  29.936  -6.419  1.00  0.00     0.188 HD
ENDBRANCH   2   4
BRANCH   1  15
HETATM   15  N1  UNL     1      -2.262  31.530 -10.171  1.00  0.00    -0.365 N 
ATOM     16  H1  UNL     1      -1.791  32.364 -10.524  1.00  0.00     0.165 HD
BRANCH  15  17
HETATM   17  C4  UNL     1      -3.039  30.875 -11.127  1.00  0.00     0.062 C 
BRANCH  17  18
HETATM   18  C3  UNL     1      -2.467  30.094 -12.234  1.00  0.00     0.046 C 
BRANCH  18  19
HETATM   19  C2  UNL     1      -3.243  28.997 -12.822  1.00  0.00     0.031 C 
BRANCH  19  20
HETATM   20  C1  UNL     1      -2.394  28.375 -13.962  1.00  0.00     0.164 C 
BRANCH  20  21
HETATM   21  O1  UNL     1      -2.482  27.013 -13.813  1.00  0.00    -0.401 OA
ATOM     22  H1  UNL     1      -1.750  26.642 -14.291  1.00  0.00     0.209 HD
ENDBRANCH  20  21
ENDBRANCH  19  20
ENDBRANCH  18  19
ENDBRANCH  17  18
ENDBRANCH  15  17
ENDBRANCH   1  15
TORSDOF 7
ENDMDL
MODEL 4
REMARK VINA RESULT: -6.519520600      2.359      6.781
REMARK  7 active torsions:
REMARK  status: ('A' for Active; 'I' for Inactive)
REMARK    1  A    between atoms: O1_1  and  C1_3 
REMARK    2  A    between atoms: C1_3  and  C2_4 
REMARK    3  A    between atoms: C2_4  and  C3_5 
REMARK    4  A    between atoms: C3_5  and  C4_6 
REMARK    5  A    between atoms: C4_6  and  N1_7 
REMARK    6  A    between atoms: N1_7  and  C5_9 
REMARK    7  A    between atoms: N2_10  and  N3_12 
ROOT
HETATM    1  C5  UNL     1      -3.529  32.484  -6.150  1.00  0.00     0.196 C 
HETATM    2  N2  UNL     1      -3.063  31.616  -6.875  1.00  0.00    -0.295 N 
ATOM      3  H2  UNL     1      -3.388  30.678  -6.639  1.00  0.00     0.187 HD
ENDROOT
BRANCH   2   4
HETATM    4  N3  UNL     1      -2.232  31.633  -7.893  1.00  0.00    -0.288 N 
HETATM    5  C6  UNL     1      -2.018  30.921  -8.901  1.00  0.00     0.091 C 
HETATM    6  C7  UNL     1      -0.906  31.481  -9.715  1.00  0.00     0.077 C 
HETATM    7  N4  UNL     1      -2.821  29.773  -9.071  1.00  0.00    -0.379 N 
HETATM    8  C8  UNL     1      -1.412  32.163 -10.964  1.00  0.00     0.007 C 
HETATM    9  C9  UNL     1      -1.405  31.249 -12.159  1.00  0.00     0.000 C 
HETATM   10  C10 UNL     1      -1.925  29.871 -11.879  1.00  0.00     0.002 C 
HETATM   11  C11 UNL     1      -3.361  29.856 -11.465  1.00  0.00     0.020 C 
HETATM   12  C12 UNL     1      -3.484  29.122 -10.149  1.00  0.00     0.121 C 
ATOM     13  H4  UNL     1      -2.964  29.281  -8.189  1.00  0.00     0.160 HD
ATOM     14  H3  UNL     1      -1.599  32.432  -7.852  1.00  0.00     0.188 HD
ENDBRANCH   2   4
BRANCH   1  15
HETATM   15  N1  UNL     1      -4.424  32.319  -5.076  1.00  0.00    -0.365 N 
ATOM     16  H1  UNL     1      -5.379  32.611  -5.287  1.00  0.00     0.165 HD
BRANCH  15  17
HETATM   17  C4  UNL     1      -4.256  31.834  -3.779  1.00  0.00     0.062 C 
BRANCH  17  18
HETATM   18  C3  UNL     1      -3.251  30.823  -3.420  1.00  0.00     0.046 C 
BRANCH  18  19
HETATM   19  C2  UNL     1      -3.448  29.429  -3.831  1.00  0.00     0.031 C 
BRANCH  19  20
HETATM   20  C1  UNL     1      -2.439  29.124  -4.970  1.00  0.00     0.164 C 
BRANCH  20  21
HETATM   21  O1  UNL     1      -3.186  28.783  -6.070  1.00  0.00    -0.401 OA
ATOM     22  H1  UNL     1      -2.896  29.346  -6.777  1.00  0.00     0.209 HD
ENDBRANCH  20  21
ENDBRANCH  19  20
ENDBRANCH  18  19
ENDBRANCH  17  18
ENDBRANCH  15  17
ENDBRANCH   1  15
TORSDOF 7
ENDMDL
MODEL 5
REMARK VINA RESULT: -6.515004962      1.538      1.710
REMARK  7 active torsions:
REMARK  status: ('A' for Active; 'I' for Inactive)
REMARK    1  A    between atoms: O1_1  and  C1_3 
REMARK    2  A    between atoms: C1_3  and  C2_4 
REMARK    3  A    between atoms: C2_4  and  C3_5 
REMARK    4  A    between atoms: C3_5  and  C4_6 
REMARK    5  A    between atoms: C4_6  and  N1_7 
REMARK    6  A    between atoms: N1_7  and  C5_9 
REMARK    7  A    between atoms: N2_10  and  N3_12 
ROOT
HETATM    1  C5  UNL     1      -1.247  30.983  -8.549  1.00  0.00     0.196 C 
HETATM    2  N2  UNL     1      -2.235  31.533  -8.082  1.00  0.00    -0.295 N 
ATOM      3  H2  UNL     1      -3.029  31.542  -8.722  1.00  0.00     0.187 HD
ENDROOT
BRANCH   2   4
HETATM    4  N3  UNL     1      -2.492  32.114  -6.932  1.00  0.00    -0.288 N 
HETATM    5  C6  UNL     1      -3.002  31.776  -5.839  1.00  0.00     0.091 C 
HETATM    6  C7  UNL     1      -3.012  32.919  -4.887  1.00  0.00     0.077 C 
HETATM    7  N4  UNL     1      -3.457  30.446  -5.716  1.00  0.00    -0.379 N 
HETATM    8  C8  UNL     1      -1.947  32.776  -3.827  1.00  0.00     0.007 C 
HETATM    9  C9  UNL     1      -2.471  32.134  -2.570  1.00  0.00     0.000 C 
HETATM   10  C10 UNL     1      -3.353  30.946  -2.811  1.00  0.00     0.002 C 
HETATM   11  C11 UNL     1      -2.647  29.815  -3.485  1.00  0.00     0.020 C 
HETATM   12  C12 UNL     1      -3.419  29.424  -4.726  1.00  0.00     0.121 C 
ATOM     13  H4  UNL     1      -3.941  30.135  -6.558  1.00  0.00     0.160 HD
ATOM     14  H3  UNL     1      -2.202  33.092  -6.928  1.00  0.00     0.188 HD
ENDBRANCH   2   4
BRANCH   1  15
HETATM   15  N1  UNL     1      -1.109  30.394  -9.820  1.00  0.00    -0.365 N 
ATOM     16  H1  UNL     1      -1.140  29.375  -9.807  1.00  0.00     0.165 HD
BRANCH  15  17
HETATM   17  C4  UNL     1      -0.939  30.938 -11.094  1.00  0.00     0.062 C 
BRANCH  17  18
HETATM   18  C3  UNL     1      -1.627  30.425 -12.288  1.00  0.00     0.046 C 
BRANCH  18  19
HETATM   19  C2  UNL     1      -2.924  29.756 -12.144  1.00  0.00     0.031 C 
BRANCH  19  20
HETATM   20  C1  UNL     1      -3.951  30.814 -11.660  1.00  0.00     0.164 C 
BRANCH  20  21
HETATM   21  O1  UNL     1      -4.245  30.502 -10.356  1.00  0.00    -0.401 OA
ATOM     22  H1  UNL     1      -3.853  31.182  -9.822  1.00  0.00     0.209 HD
ENDBRANCH  20  21
ENDBRANCH  19  20
ENDBRANCH  18  19
ENDBRANCH  17  18
ENDBRANCH  15  17
ENDBRANCH   1  15
TORSDOF 7
ENDMDL
