MODEL 1
REMARK VINA RESULT: -8.516836930      0.000      0.000
REMARK  6 active torsions:
REMARK  status: ('A' for Active; 'I' for Inactive)
REMARK    1  A    between atoms: N1_1  and  N2_4 
REMARK       I    between atoms: N2_4  and  C1_6 
REMARK    2  A    between atoms: C1_6  and  C2_8 
REMARK    3  A    between atoms: C3_9  and  O2_10 
REMARK    4  A    between atoms: N4_15  and  N5_17 
REMARK    5  A    between atoms: C5_19  and  C6_20 
REMARK    6  A    between atoms: C9_23  and  N6_24 
ROOT
HETATM    1  C2  UNL     1      56.956 -10.546  53.944  1.00  0.00     0.159 A 
HETATM    2  C3  UNL     1      55.717 -11.111  54.112  1.00  0.00     0.165 A 
HETATM    3  N3  UNL     1      55.153 -11.958  53.195  1.00  0.00    -0.300 N 
ATOM      4  H3  UNL     1      54.230 -12.367  53.341  1.00  0.00     0.171 HD
HETATM    5  C4  UNL     1      55.873 -12.223  52.095  1.00  0.00     0.248 A 
HETATM    6  N4  UNL     1      55.390 -13.014  51.197  1.00  0.00    -0.265 N 
ATOM      7  H4  UNL     1      55.970 -13.189  50.377  1.00  0.00     0.190 HD
HETATM    8  O5  UNL     1      57.063 -11.697  51.904  1.00  0.00    -0.240 OA
HETATM    9  C12 UNL     1      57.611 -10.895  52.761  1.00  0.00     0.310 A 
HETATM   10  O6  UNL     1      58.754 -10.407  52.550  1.00  0.00    -0.258 OA
ENDROOT
BRANCH   6  11
HETATM   11  N5  UNL     1      54.191 -13.631  51.241  1.00  0.00    -0.308 N 
HETATM   12  C5  UNL     1      53.134 -13.489  50.619  1.00  0.00     0.118 C 
ATOM     13  H5  UNL     1      54.149 -14.376  51.937  1.00  0.00     0.186 HD
BRANCH  12  14
HETATM   14  C6  UNL     1      52.836 -12.540  49.571  1.00  0.00    -0.019 A 
HETATM   15  C7  UNL     1      52.152 -11.355  49.903  1.00  0.00     0.015 A 
HETATM   16  C8  UNL     1      51.817 -10.390  49.000  1.00  0.00     0.037 A 
HETATM   17  C9  UNL     1      52.171 -10.584  47.669  1.00  0.00     0.102 A 
HETATM   18  C10 UNL     1      52.841 -11.719  47.274  1.00  0.00     0.037 A 
HETATM   19  C11 UNL     1      53.154 -12.671  48.254  1.00  0.00     0.015 A 
BRANCH  17  20
HETATM   20  N6  UNL     1      51.847  -9.614  46.700  1.00  0.00    -0.116 N 
HETATM   21  O3  UNL     1      50.720  -9.569  46.185  1.00  0.00    -0.532 OA
HETATM   22  O4  UNL     1      52.796  -8.703  46.319  1.00  0.00    -0.532 OA
ENDBRANCH  17  20
ENDBRANCH  12  14
ENDBRANCH   6  11
BRANCH   2  23
HETATM   23  O2  UNL     1      54.972 -10.844  55.238  1.00  0.00    -0.345 OA
ATOM     24  H2  UNL     1      54.123 -11.252  55.365  1.00  0.00     0.219 HD
ENDBRANCH   2  23
BRANCH   1  25
HETATM   25  C1  UNL     1      57.595  -9.646  54.886  1.00  0.00     0.280 C 
HETATM   26  N2  UNL     1      58.613  -9.946  55.787  1.00  0.00    -0.272 N 
ATOM     27  H2  UNL     1      59.007 -10.885  55.851  1.00  0.00     0.189 HD
HETATM   28  O1  UNL     1      57.149  -8.431  54.864  1.00  0.00    -0.266 OA
BRANCH  26  29
HETATM   29  N1  UNL     1      59.080  -8.883  56.615  1.00  0.00    -0.342 N 
ATOM     30  H12 UNL     1      59.445  -8.025  56.202  1.00  0.00     0.176 HD
ATOM     31  H11 UNL     1      59.029  -9.026  57.624  1.00  0.00     0.176 HD
ENDBRANCH  26  29
ENDBRANCH   1  25
TORSDOF 6
ENDMDL
MODEL 2
REMARK VINA RESULT: -8.473812522      4.354      8.105
REMARK  6 active torsions:
REMARK  status: ('A' for Active; 'I' for Inactive)
REMARK    1  A    between atoms: N1_1  and  N2_4 
REMARK       I    between atoms: N2_4  and  C1_6 
REMARK    2  A    between atoms: C1_6  and  C2_8 
REMARK    3  A    between atoms: C3_9  and  O2_10 
REMARK    4  A    between atoms: N4_15  and  N5_17 
REMARK    5  A    between atoms: C5_19  and  C6_20 
REMARK    6  A    between atoms: C9_23  and  N6_24 
ROOT
HETATM    1  C2  UNL     1      56.039 -15.792  51.655  1.00  0.00     0.159 A 
HETATM    2  C3  UNL     1      54.952 -15.013  51.956  1.00  0.00     0.165 A 
HETATM    3  N3  UNL     1      55.027 -13.653  52.102  1.00  0.00    -0.300 N 
ATOM      4  H3  UNL     1      54.205 -13.092  52.325  1.00  0.00     0.171 HD
HETATM    5  C4  UNL     1      56.235 -13.094  51.937  1.00  0.00     0.248 A 
HETATM    6  N4  UNL     1      56.364 -11.817  52.064  1.00  0.00    -0.265 N 
ATOM      7  H4  UNL     1      57.299 -11.432  51.930  1.00  0.00     0.190 HD
HETATM    8  O5  UNL     1      57.297 -13.813  51.649  1.00  0.00    -0.240 OA
HETATM    9  C12 UNL     1      57.243 -15.100  51.507  1.00  0.00     0.310 A 
HETATM   10  O6  UNL     1      58.278 -15.764  51.230  1.00  0.00    -0.258 OA
ENDROOT
BRANCH   6  11
HETATM   11  N5  UNL     1      55.380 -10.941  52.356  1.00  0.00    -0.308 N 
HETATM   12  C5  UNL     1      55.236 -10.078  53.227  1.00  0.00     0.118 C 
ATOM     13  H5  UNL     1      54.583 -11.005  51.721  1.00  0.00     0.186 HD
BRANCH  12  14
HETATM   14  C6  UNL     1      56.151  -9.714  54.284  1.00  0.00    -0.019 A 
HETATM   15  C7  UNL     1      56.146  -8.389  54.761  1.00  0.00     0.015 A 
HETATM   16  C8  UNL     1      56.963  -7.932  55.752  1.00  0.00     0.037 A 
HETATM   17  C9  UNL     1      57.858  -8.826  56.329  1.00  0.00     0.102 A 
HETATM   18  C10 UNL     1      57.918 -10.136  55.912  1.00  0.00     0.037 A 
HETATM   19  C11 UNL     1      57.050 -10.539  54.889  1.00  0.00     0.015 A 
BRANCH  17  20
HETATM   20  N6  UNL     1      58.723  -8.400  57.357  1.00  0.00    -0.116 N 
HETATM   21  O3  UNL     1      58.304  -8.189  58.505  1.00  0.00    -0.532 OA
HETATM   22  O4  UNL     1      60.051  -8.215  57.083  1.00  0.00    -0.532 OA
ENDBRANCH  17  20
ENDBRANCH  12  14
ENDBRANCH   6  11
BRANCH   2  23
HETATM   23  O2  UNL     1      53.708 -15.579  52.126  1.00  0.00    -0.345 OA
ATOM     24  H2  UNL     1      53.127 -15.703  51.385  1.00  0.00     0.219 HD
ENDBRANCH   2  23
BRANCH   1  25
HETATM   25  C1  UNL     1      56.009 -17.234  51.490  1.00  0.00     0.280 C 
HETATM   26  N2  UNL     1      56.833 -18.174  52.104  1.00  0.00    -0.272 N 
ATOM     27  H2  UNL     1      57.564 -17.895  52.758  1.00  0.00     0.189 HD
HETATM   28  O1  UNL     1      55.104 -17.669  50.672  1.00  0.00    -0.266 OA
BRANCH  26  29
HETATM   29  N1  UNL     1      56.608 -19.544  51.778  1.00  0.00    -0.342 N 
ATOM     30  H12 UNL     1      57.393 -20.184  51.656  1.00  0.00     0.176 HD
ATOM     31  H11 UNL     1      55.638 -19.842  51.674  1.00  0.00     0.176 HD
ENDBRANCH  26  29
ENDBRANCH   1  25
TORSDOF 6
ENDMDL
MODEL 3
REMARK VINA RESULT: -8.363381620      1.410      1.762
REMARK  6 active torsions:
REMARK  status: ('A' for Active; 'I' for Inactive)
REMARK    1  A    between atoms: N1_1  and  N2_4 
REMARK       I    between atoms: N2_4  and  C1_6 
REMARK    2  A    between atoms: C1_6  and  C2_8 
REMARK    3  A    between atoms: C3_9  and  O2_10 
REMARK    4  A    between atoms: N4_15  and  N5_17 
REMARK    5  A    between atoms: C5_19  and  C6_20 
REMARK    6  A    between atoms: C9_23  and  N6_24 
ROOT
HETATM    1  C2  UNL     1      57.112  -9.959  55.046  1.00  0.00     0.159 A 
HETATM    2  C3  UNL     1      55.939 -10.544  55.450  1.00  0.00     0.165 A 
HETATM    3  N3  UNL     1      55.325 -11.545  54.744  1.00  0.00    -0.300 N 
ATOM      4  H3  UNL     1      54.453 -11.967  55.064  1.00  0.00     0.171 HD
HETATM    5  C4  UNL     1      55.926 -11.944  53.615  1.00  0.00     0.248 A 
HETATM    6  N4  UNL     1      55.391 -12.884  52.910  1.00  0.00    -0.265 N 
ATOM      7  H4  UNL     1      55.880 -13.157  52.059  1.00  0.00     0.190 HD
HETATM    8  O5  UNL     1      57.050 -11.403  53.200  1.00  0.00    -0.240 OA
HETATM    9  C12 UNL     1      57.645 -10.456  53.855  1.00  0.00     0.310 A 
HETATM   10  O6  UNL     1      58.723  -9.957  53.434  1.00  0.00    -0.258 OA
ENDROOT
BRANCH   6  11
HETATM   11  N5  UNL     1      54.245 -13.539  53.194  1.00  0.00    -0.308 N 
HETATM   12  C5  UNL     1      53.163 -13.657  52.612  1.00  0.00     0.118 C 
ATOM     13  H5  UNL     1      54.282 -14.046  54.079  1.00  0.00     0.186 HD
BRANCH  12  14
HETATM   14  C6  UNL     1      52.761 -13.082  51.350  1.00  0.00    -0.019 A 
HETATM   15  C7  UNL     1      51.800 -12.052  51.348  1.00  0.00     0.015 A 
HETATM   16  C8  UNL     1      51.345 -11.436  50.220  1.00  0.00     0.037 A 
HETATM   17  C9  UNL     1      51.858 -11.847  48.994  1.00  0.00     0.102 A 
HETATM   18  C10 UNL     1      52.799 -12.848  48.922  1.00  0.00     0.037 A 
HETATM   19  C11 UNL     1      53.223 -13.439  50.120  1.00  0.00     0.015 A 
BRANCH  17  20
HETATM   20  N6  UNL     1      51.418 -11.240  47.801  1.00  0.00    -0.116 N 
HETATM   21  O3  UNL     1      52.170 -11.121  46.823  1.00  0.00    -0.532 OA
HETATM   22  O4  UNL     1      50.134 -10.771  47.721  1.00  0.00    -0.532 OA
ENDBRANCH  17  20
ENDBRANCH  12  14
ENDBRANCH   6  11
BRANCH   2  23
HETATM   23  O2  UNL     1      55.316 -10.140  56.609  1.00  0.00    -0.345 OA
ATOM     24  H2  UNL     1      55.696 -10.336  57.457  1.00  0.00     0.219 HD
ENDBRANCH   2  23
BRANCH   1  25
HETATM   25  C1  UNL     1      57.800  -8.897  55.758  1.00  0.00     0.280 C 
HETATM   26  N2  UNL     1      58.975  -8.998  56.499  1.00  0.00    -0.272 N 
ATOM     27  H2  UNL     1      59.467  -9.886  56.600  1.00  0.00     0.189 HD
HETATM   28  O1  UNL     1      57.237  -7.735  55.678  1.00  0.00    -0.266 OA
BRANCH  26  29
HETATM   29  N1  UNL     1      59.459  -7.804  57.111  1.00  0.00    -0.342 N 
ATOM     30  H12 UNL     1      59.070  -6.896  56.857  1.00  0.00     0.176 HD
ATOM     31  H11 UNL     1      60.202  -7.907  57.803  1.00  0.00     0.176 HD
ENDBRANCH  26  29
ENDBRANCH   1  25
TORSDOF 6
ENDMDL
MODEL 4
REMARK VINA RESULT: -8.286109286      4.225      5.944
REMARK  6 active torsions:
REMARK  status: ('A' for Active; 'I' for Inactive)
REMARK    1  A    between atoms: N1_1  and  N2_4 
REMARK       I    between atoms: N2_4  and  C1_6 
REMARK    2  A    between atoms: C1_6  and  C2_8 
REMARK    3  A    between atoms: C3_9  and  O2_10 
REMARK    4  A    between atoms: N4_15  and  N5_17 
REMARK    5  A    between atoms: C5_19  and  C6_20 
REMARK    6  A    between atoms: C9_23  and  N6_24 
ROOT
HETATM    1  C2  UNL     1      55.091  -9.669  55.105  1.00  0.00     0.159 A 
HETATM    2  C3  UNL     1      56.266 -10.370  55.202  1.00  0.00     0.165 A 
HETATM    3  N3  UNL     1      56.836 -11.020  54.139  1.00  0.00    -0.300 N 
ATOM      4  H3  UNL     1      57.711 -11.535  54.234  1.00  0.00     0.171 HD
HETATM    5  C4  UNL     1      56.187 -10.947  52.969  1.00  0.00     0.248 A 
HETATM    6  N4  UNL     1      56.678 -11.541  51.934  1.00  0.00    -0.265 N 
ATOM      7  H4  UNL     1      56.154 -11.461  51.063  1.00  0.00     0.190 HD
HETATM    8  O5  UNL     1      55.059 -10.284  52.842  1.00  0.00    -0.240 OA
HETATM    9  C12 UNL     1      54.507  -9.663  53.837  1.00  0.00     0.310 A 
HETATM   10  O6  UNL     1      53.424  -9.035  53.686  1.00  0.00    -0.258 OA
ENDROOT
BRANCH   6  11
HETATM   11  N5  UNL     1      57.820 -12.260  51.895  1.00  0.00    -0.308 N 
HETATM   12  C5  UNL     1      58.067 -13.468  51.840  1.00  0.00     0.118 C 
ATOM     13  H5  UNL     1      58.660 -11.680  51.915  1.00  0.00     0.186 HD
BRANCH  12  14
HETATM   14  C6  UNL     1      57.133 -14.569  51.798  1.00  0.00    -0.019 A 
HETATM   15  C7  UNL     1      57.440 -15.747  52.506  1.00  0.00     0.015 A 
HETATM   16  C8  UNL     1      56.637 -16.848  52.540  1.00  0.00     0.037 A 
HETATM   17  C9  UNL     1      55.441 -16.810  51.831  1.00  0.00     0.102 A 
HETATM   18  C10 UNL     1      55.078 -15.692  51.117  1.00  0.00     0.037 A 
HETATM   19  C11 UNL     1      55.950 -14.595  51.125  1.00  0.00     0.015 A 
BRANCH  17  20
HETATM   20  N6  UNL     1      54.578 -17.923  51.836  1.00  0.00    -0.116 N 
HETATM   21  O3  UNL     1      53.494 -17.902  51.234  1.00  0.00    -0.532 OA
HETATM   22  O4  UNL     1      54.943 -19.052  52.520  1.00  0.00    -0.532 OA
ENDBRANCH  17  20
ENDBRANCH  12  14
ENDBRANCH   6  11
BRANCH   2  23
HETATM   23  O2  UNL     1      56.938 -10.450  56.401  1.00  0.00    -0.345 OA
ATOM     24  H2  UNL     1      57.804 -10.839  56.446  1.00  0.00     0.219 HD
ENDBRANCH   2  23
BRANCH   1  25
HETATM   25  C1  UNL     1      54.449  -8.964  56.200  1.00  0.00     0.280 C 
HETATM   26  N2  UNL     1      53.087  -8.897  56.480  1.00  0.00    -0.272 N 
ATOM     27  H2  UNL     1      52.398  -9.371  55.896  1.00  0.00     0.189 HD
HETATM   28  O1  UNL     1      55.259  -8.336  56.990  1.00  0.00    -0.266 OA
BRANCH  26  29
HETATM   29  N1  UNL     1      52.698  -8.135  57.622  1.00  0.00    -0.342 N 
ATOM     30  H12 UNL     1      53.143  -7.241  57.825  1.00  0.00     0.176 HD
ATOM     31  H11 UNL     1      51.964  -8.528  58.212  1.00  0.00     0.176 HD
ENDBRANCH  26  29
ENDBRANCH   1  25
TORSDOF 6
ENDMDL
MODEL 5
REMARK VINA RESULT: -8.259672264      1.273      1.817
REMARK  6 active torsions:
REMARK  status: ('A' for Active; 'I' for Inactive)
REMARK    1  A    between atoms: N1_1  and  N2_4 
REMARK       I    between atoms: N2_4  and  C1_6 
REMARK    2  A    between atoms: C1_6  and  C2_8 
REMARK    3  A    between atoms: C3_9  and  O2_10 
REMARK    4  A    between atoms: N4_15  and  N5_17 
REMARK    5  A    between atoms: C5_19  and  C6_20 
REMARK    6  A    between atoms: C9_23  and  N6_24 
ROOT
HETATM    1  C2  UNL     1      57.065 -10.223  54.726  1.00  0.00     0.159 A 
HETATM    2  C3  UNL     1      55.891 -10.806  55.129  1.00  0.00     0.165 A 
HETATM    3  N3  UNL     1      55.283 -11.817  54.431  1.00  0.00    -0.300 N 
ATOM      4  H3  UNL     1      54.409 -12.236  54.750  1.00  0.00     0.171 HD
HETATM    5  C4  UNL     1      55.892 -12.228  53.310  1.00  0.00     0.248 A 
HETATM    6  N4  UNL     1      55.363 -13.177  52.614  1.00  0.00    -0.265 N 
ATOM      7  H4  UNL     1      55.858 -13.459  51.768  1.00  0.00     0.190 HD
HETATM    8  O5  UNL     1      57.018 -11.690  52.897  1.00  0.00    -0.240 OA
HETATM    9  C12 UNL     1      57.606 -10.734  53.544  1.00  0.00     0.310 A 
HETATM   10  O6  UNL     1      58.686 -10.237  53.124  1.00  0.00    -0.258 OA
ENDROOT
BRANCH   6  11
HETATM   11  N5  UNL     1      54.217 -13.831  52.898  1.00  0.00    -0.308 N 
HETATM   12  C5  UNL     1      53.092 -13.839  52.391  1.00  0.00     0.118 C 
ATOM     13  H5  UNL     1      54.299 -14.451  53.704  1.00  0.00     0.186 HD
BRANCH  12  14
HETATM   14  C6  UNL     1      52.621 -13.092  51.249  1.00  0.00    -0.019 A 
HETATM   15  C7  UNL     1      53.041 -13.481  49.962  1.00  0.00     0.015 A 
HETATM   16  C8  UNL     1      52.663 -12.852  48.813  1.00  0.00     0.037 A 
HETATM   17  C9  UNL     1      51.810 -11.758  48.914  1.00  0.00     0.102 A 
HETATM   18  C10 UNL     1      51.360 -11.323  50.139  1.00  0.00     0.037 A 
HETATM   19  C11 UNL     1      51.788 -12.015  51.280  1.00  0.00     0.015 A 
BRANCH  17  20
HETATM   20  N6  UNL     1      51.391 -11.076  47.754  1.00  0.00    -0.116 N 
HETATM   21  O3  UNL     1      52.127 -10.983  46.761  1.00  0.00    -0.532 OA
HETATM   22  O4  UNL     1      50.147 -10.505  47.724  1.00  0.00    -0.532 OA
ENDBRANCH  17  20
ENDBRANCH  12  14
ENDBRANCH   6  11
BRANCH   2  23
HETATM   23  O2  UNL     1      55.259 -10.390  56.279  1.00  0.00    -0.345 OA
ATOM     24  H2  UNL     1      55.165  -9.465  56.473  1.00  0.00     0.219 HD
ENDBRANCH   2  23
BRANCH   1  25
HETATM   25  C1  UNL     1      57.747  -9.152  55.430  1.00  0.00     0.280 C 
HETATM   26  N2  UNL     1      58.844  -9.262  56.280  1.00  0.00    -0.272 N 
ATOM     27  H2  UNL     1      59.275 -10.164  56.480  1.00  0.00     0.189 HD
HETATM   28  O1  UNL     1      57.259  -7.971  55.225  1.00  0.00    -0.266 OA
BRANCH  26  29
HETATM   29  N1  UNL     1      59.339  -8.055  56.857  1.00  0.00    -0.342 N 
ATOM     30  H12 UNL     1      58.697  -7.321  57.156  1.00  0.00     0.176 HD
ATOM     31  H11 UNL     1      60.351  -7.969  56.953  1.00  0.00     0.176 HD
ENDBRANCH  26  29
ENDBRANCH   1  25
TORSDOF 6
ENDMDL
