MODEL 1
REMARK VINA RESULT: -8.421850610      0.000      0.000
REMARK  7 active torsions:
REMARK  status: ('A' for Active; 'I' for Inactive)
REMARK    1  A    between atoms: C3_5  and  C4_6 
REMARK    2  A    between atoms: C6_18  and  C7_19 
REMARK    3  A    between atoms: C7_19  and  O1_20 
REMARK    4  A    between atoms: C7_19  and  N7_22 
REMARK    5  A    between atoms: N7_22  and  N8_24 
REMARK    6  A    between atoms: C8_26  and  C9_27 
REMARK    7  A    between atoms: C12_34  and  N11_35 
ROOT
HETATM    1  C7  UNL     1      58.140 -11.346  53.648  1.00  0.00     0.168 C 
ENDROOT
BRANCH   1   2
HETATM    2  C6  UNL     1      56.865 -10.933  54.199  1.00  0.00     0.054 A 
HETATM    3  C2  UNL     1      55.664 -10.986  53.557  1.00  0.00     0.023 A 
HETATM    4  C1  UNL     1      55.555 -11.403  52.119  1.00  0.00     0.069 C 
HETATM    5  N1  UNL     1      54.512 -10.611  54.195  1.00  0.00    -0.342 N 
HETATM    6  C3  UNL     1      54.519 -10.180  55.455  1.00  0.00     0.153 A 
ATOM      7  H1  UNL     1      53.626 -10.663  53.692  1.00  0.00     0.167 HD
HETATM    8  N6  UNL     1      55.687 -10.123  56.093  1.00  0.00    -0.348 N 
HETATM    9  C5  UNL     1      56.839 -10.472  55.535  1.00  0.00     0.107 A 
ATOM     10  H6  UNL     1      55.695  -9.795  57.059  1.00  0.00     0.167 HD
BRANCH   6  11
HETATM   11  C4  UNL     1      53.289  -9.776  56.129  1.00  0.00     0.182 A 
HETATM   12  N2  UNL     1      52.145 -10.502  56.131  1.00  0.00    -0.266 N 
HETATM   13  N3  UNL     1      51.258  -9.801  56.854  1.00  0.00    -0.226 N 
ATOM     14  H2  UNL     1      51.990 -11.401  55.674  1.00  0.00     0.190 HD
HETATM   15  N4  UNL     1      51.810  -8.698  57.282  1.00  0.00    -0.226 N 
ATOM     16  H3  UNL     1      50.297 -10.088  57.041  1.00  0.00     0.210 HD
HETATM   17  N5  UNL     1      53.060  -8.678  56.839  1.00  0.00    -0.266 N 
ATOM     18  H4  UNL     1      51.361  -7.982  57.854  1.00  0.00     0.210 HD
ATOM     19  H5  UNL     1      53.737  -7.937  57.015  1.00  0.00     0.190 HD
ENDBRANCH   6  11
ENDBRANCH   1   2
BRANCH   1  20
HETATM   20  O1  UNL     1      58.791 -10.389  53.055  1.00  0.00    -0.344 OA
ATOM     21  H1  UNL     1      59.663 -10.637  52.771  1.00  0.00     0.219 HD
ENDBRANCH   1  20
BRANCH   1  22
HETATM   22  N7  UNL     1      58.762 -12.574  53.659  1.00  0.00    -0.280 N 
ATOM     23  H7  UNL     1      59.690 -12.646  54.075  1.00  0.00     0.189 HD
BRANCH  22  24
HETATM   24  N8  UNL     1      58.183 -13.716  53.131  1.00  0.00    -0.309 N 
HETATM   25  C8  UNL     1      57.426 -14.574  53.591  1.00  0.00     0.123 C 
ATOM     26  H8  UNL     1      58.436 -13.882  52.157  1.00  0.00     0.186 HD
BRANCH  25  27
HETATM   27  C9  UNL     1      56.934 -15.713  52.821  1.00  0.00     0.040 A 
HETATM   28  C10 UNL     1      55.670 -15.590  52.189  1.00  0.00     0.105 A 
HETATM   29  N9  UNL     1      55.223 -16.617  51.483  1.00  0.00    -0.361 N 
HETATM   30  C11 UNL     1      55.886 -17.770  51.325  1.00  0.00     0.181 A 
ATOM     31  H9  UNL     1      54.313 -16.525  51.030  1.00  0.00     0.166 HD
HETATM   32  N10 UNL     1      57.073 -17.942  51.894  1.00  0.00    -0.338 N 
HETATM   33  C12 UNL     1      57.597 -16.905  52.645  1.00  0.00     0.112 A 
ATOM     34  H10 UNL     1      57.587 -18.816  51.779  1.00  0.00     0.168 HD
BRANCH  33  35
HETATM   35  N11 UNL     1      58.723 -17.117  53.172  1.00  0.00    -0.385 N 
ATOM     36 2H11 UNL     1      59.113 -16.350  53.720  1.00  0.00     0.157 HD
ATOM     37 1H11 UNL     1      59.212 -18.004  53.048  1.00  0.00     0.157 HD
ENDBRANCH  33  35
ENDBRANCH  25  27
ENDBRANCH  22  24
ENDBRANCH   1  22
TORSDOF 7
ENDMDL
MODEL 2
REMARK VINA RESULT: -8.401474249      0.552      2.069
REMARK  7 active torsions:
REMARK  status: ('A' for Active; 'I' for Inactive)
REMARK    1  A    between atoms: C3_5  and  C4_6 
REMARK    2  A    between atoms: C6_18  and  C7_19 
REMARK    3  A    between atoms: C7_19  and  O1_20 
REMARK    4  A    between atoms: C7_19  and  N7_22 
REMARK    5  A    between atoms: N7_22  and  N8_24 
REMARK    6  A    between atoms: C8_26  and  C9_27 
REMARK    7  A    between atoms: C12_34  and  N11_35 
ROOT
HETATM    1  C7  UNL     1      58.105 -11.376  53.561  1.00  0.00     0.168 C 
ENDROOT
BRANCH   1   2
HETATM    2  C6  UNL     1      56.914 -10.995  54.293  1.00  0.00     0.054 A 
HETATM    3  C2  UNL     1      56.889 -10.395  55.517  1.00  0.00     0.023 A 
HETATM    4  C1  UNL     1      58.144 -10.150  56.303  1.00  0.00     0.069 C 
HETATM    5  N1  UNL     1      55.701 -10.036  56.096  1.00  0.00    -0.342 N 
HETATM    6  C3  UNL     1      54.533 -10.259  55.494  1.00  0.00     0.153 A 
ATOM      7  H1  UNL     1      55.710  -9.586  57.011  1.00  0.00     0.167 HD
HETATM    8  N6  UNL     1      54.546 -10.846  54.298  1.00  0.00    -0.348 N 
HETATM    9  C5  UNL     1      55.660 -11.217  53.681  1.00  0.00     0.107 A 
ATOM     10  H6  UNL     1      53.654 -11.018  53.834  1.00  0.00     0.167 HD
BRANCH   6  11
HETATM   11  C4  UNL     1      53.269  -9.880  56.117  1.00  0.00     0.182 A 
HETATM   12  N2  UNL     1      53.083  -8.749  56.837  1.00  0.00    -0.266 N 
HETATM   13  N3  UNL     1      51.800  -8.763  57.233  1.00  0.00    -0.226 N 
ATOM     14  H2  UNL     1      53.777  -8.029  57.039  1.00  0.00     0.190 HD
HETATM   15  N4  UNL     1      51.213  -9.842  56.788  1.00  0.00    -0.226 N 
ATOM     16  H3  UNL     1      51.351  -8.040  57.795  1.00  0.00     0.210 HD
HETATM   17  N5  UNL     1      52.114 -10.532  56.101  1.00  0.00    -0.266 N 
ATOM     18  H4  UNL     1      50.239 -10.106  56.941  1.00  0.00     0.210 HD
ATOM     19  H5  UNL     1      51.945 -11.423  55.635  1.00  0.00     0.190 HD
ENDBRANCH   6  11
ENDBRANCH   1   2
BRANCH   1  20
HETATM   20  O1  UNL     1      58.590 -10.425  52.817  1.00  0.00    -0.344 OA
ATOM     21  H1  UNL     1      59.408 -10.652  52.390  1.00  0.00     0.219 HD
ENDBRANCH   1  20
BRANCH   1  22
HETATM   22  N7  UNL     1      58.795 -12.567  53.534  1.00  0.00    -0.280 N 
ATOM     23  H7  UNL     1      59.761 -12.578  53.860  1.00  0.00     0.189 HD
BRANCH  22  24
HETATM   24  N8  UNL     1      58.235 -13.751  53.084  1.00  0.00    -0.309 N 
HETATM   25  C8  UNL     1      57.439 -14.554  53.575  1.00  0.00     0.123 C 
ATOM     26  H8  UNL     1      58.548 -14.015  52.150  1.00  0.00     0.186 HD
BRANCH  25  27
HETATM   27  C9  UNL     1      56.981 -15.760  52.891  1.00  0.00     0.040 A 
HETATM   28  C10 UNL     1      57.881 -16.852  52.799  1.00  0.00     0.105 A 
HETATM   29  N9  UNL     1      57.467 -17.951  52.186  1.00  0.00    -0.361 N 
HETATM   30  C11 UNL     1      56.251 -18.101  51.646  1.00  0.00     0.181 A 
ATOM     31  H9  UNL     1      58.117 -18.735  52.122  1.00  0.00     0.166 HD
HETATM   32  N10 UNL     1      55.368 -17.112  51.702  1.00  0.00    -0.338 N 
HETATM   33  C12 UNL     1      55.738 -15.936  52.329  1.00  0.00     0.112 A 
ATOM     34  H10 UNL     1      54.439 -17.216  51.293  1.00  0.00     0.168 HD
BRANCH  33  35
HETATM   35  N11 UNL     1      54.869 -15.022  52.351  1.00  0.00    -0.385 N 
ATOM     36 2H11 UNL     1      55.174 -14.122  52.721  1.00  0.00     0.157 HD
ATOM     37 1H11 UNL     1      53.917 -15.183  52.021  1.00  0.00     0.157 HD
ENDBRANCH  33  35
ENDBRANCH  25  27
ENDBRANCH  22  24
ENDBRANCH   1  22
TORSDOF 7
ENDMDL
MODEL 3
REMARK VINA RESULT: -8.397464770      0.432      1.523
REMARK  7 active torsions:
REMARK  status: ('A' for Active; 'I' for Inactive)
REMARK    1  A    between atoms: C3_5  and  C4_6 
REMARK    2  A    between atoms: C6_18  and  C7_19 
REMARK    3  A    between atoms: C7_19  and  O1_20 
REMARK    4  A    between atoms: C7_19  and  N7_22 
REMARK    5  A    between atoms: N7_22  and  N8_24 
REMARK    6  A    between atoms: C8_26  and  C9_27 
REMARK    7  A    between atoms: C12_34  and  N11_35 
ROOT
HETATM    1  C7  UNL     1      58.130 -11.362  53.629  1.00  0.00     0.168 C 
ENDROOT
BRANCH   1   2
HETATM    2  C6  UNL     1      56.855 -10.952  54.180  1.00  0.00     0.054 A 
HETATM    3  C2  UNL     1      55.657 -10.989  53.532  1.00  0.00     0.023 A 
HETATM    4  C1  UNL     1      55.552 -11.381  52.086  1.00  0.00     0.069 C 
HETATM    5  N1  UNL     1      54.502 -10.620  54.170  1.00  0.00    -0.342 N 
HETATM    6  C3  UNL     1      54.505 -10.211  55.438  1.00  0.00     0.153 A 
ATOM      7  H1  UNL     1      53.619 -10.659  53.663  1.00  0.00     0.167 HD
HETATM    8  N6  UNL     1      55.670 -10.170  56.082  1.00  0.00    -0.348 N 
HETATM    9  C5  UNL     1      56.823 -10.514  55.524  1.00  0.00     0.107 A 
ATOM     10  H6  UNL     1      55.676  -9.858  57.054  1.00  0.00     0.167 HD
BRANCH   6  11
HETATM   11  C4  UNL     1      53.274  -9.813  56.113  1.00  0.00     0.182 A 
HETATM   12  N2  UNL     1      53.134  -8.677  56.837  1.00  0.00    -0.266 N 
HETATM   13  N3  UNL     1      51.869  -8.672  57.287  1.00  0.00    -0.226 N 
ATOM     14  H2  UNL     1      53.846  -7.966  57.007  1.00  0.00     0.190 HD
HETATM   15  N4  UNL     1      51.249  -9.744  56.871  1.00  0.00    -0.226 N 
ATOM     16  H3  UNL     1      51.454  -7.942  57.865  1.00  0.00     0.210 HD
HETATM   17  N5  UNL     1      52.110 -10.449  56.148  1.00  0.00    -0.266 N 
ATOM     18  H4  UNL     1      50.279  -9.994  57.066  1.00  0.00     0.210 HD
ATOM     19  H5  UNL     1      51.909 -11.338  55.692  1.00  0.00     0.190 HD
ENDBRANCH   6  11
ENDBRANCH   1   2
BRANCH   1  20
HETATM   20  O1  UNL     1      58.762 -10.411  53.005  1.00  0.00    -0.344 OA
ATOM     21  H1  UNL     1      59.571 -10.693  52.595  1.00  0.00     0.219 HD
ENDBRANCH   1  20
BRANCH   1  22
HETATM   22  N7  UNL     1      58.770 -12.580  53.666  1.00  0.00    -0.280 N 
ATOM     23  H7  UNL     1      59.702 -12.628  54.076  1.00  0.00     0.189 HD
BRANCH  22  24
HETATM   24  N8  UNL     1      58.203 -13.743  53.173  1.00  0.00    -0.309 N 
HETATM   25  C8  UNL     1      57.370 -14.537  53.617  1.00  0.00     0.123 C 
ATOM     26  H8  UNL     1      58.547 -13.998  52.247  1.00  0.00     0.186 HD
BRANCH  25  27
HETATM   27  C9  UNL     1      56.914 -15.720  52.893  1.00  0.00     0.040 A 
HETATM   28  C10 UNL     1      57.809 -16.815  52.782  1.00  0.00     0.105 A 
HETATM   29  N9  UNL     1      57.396 -17.894  52.133  1.00  0.00    -0.361 N 
HETATM   30  C11 UNL     1      56.187 -18.020  51.572  1.00  0.00     0.181 A 
ATOM     31  H9  UNL     1      58.042 -18.680  52.056  1.00  0.00     0.166 HD
HETATM   32  N10 UNL     1      55.309 -17.027  51.644  1.00  0.00    -0.338 N 
HETATM   33  C12 UNL     1      55.678 -15.872  52.309  1.00  0.00     0.112 A 
ATOM     34  H10 UNL     1      54.385 -17.114  51.220  1.00  0.00     0.168 HD
BRANCH  33  35
HETATM   35  N11 UNL     1      54.815 -14.953  52.345  1.00  0.00    -0.385 N 
ATOM     36 2H11 UNL     1      55.123 -14.063  52.737  1.00  0.00     0.157 HD
ATOM     37 1H11 UNL     1      53.864 -15.101  52.006  1.00  0.00     0.157 HD
ENDBRANCH  33  35
ENDBRANCH  25  27
ENDBRANCH  22  24
ENDBRANCH   1  22
TORSDOF 7
ENDMDL
MODEL 4
REMARK VINA RESULT: -8.395139777      0.354      1.588
REMARK  7 active torsions:
REMARK  status: ('A' for Active; 'I' for Inactive)
REMARK    1  A    between atoms: C3_5  and  C4_6 
REMARK    2  A    between atoms: C6_18  and  C7_19 
REMARK    3  A    between atoms: C7_19  and  O1_20 
REMARK    4  A    between atoms: C7_19  and  N7_22 
REMARK    5  A    between atoms: N7_22  and  N8_24 
REMARK    6  A    between atoms: C8_26  and  C9_27 
REMARK    7  A    between atoms: C12_34  and  N11_35 
ROOT
HETATM    1  C7  UNL     1      58.113 -11.345  53.570  1.00  0.00     0.168 C 
ENDROOT
BRANCH   1   2
HETATM    2  C6  UNL     1      56.921 -10.963  54.300  1.00  0.00     0.054 A 
HETATM    3  C2  UNL     1      56.894 -10.362  55.523  1.00  0.00     0.023 A 
HETATM    4  C1  UNL     1      58.148 -10.117  56.311  1.00  0.00     0.069 C 
HETATM    5  N1  UNL     1      55.705 -10.003  56.101  1.00  0.00    -0.342 N 
HETATM    6  C3  UNL     1      54.538 -10.227  55.497  1.00  0.00     0.153 A 
ATOM      7  H1  UNL     1      55.713  -9.553  57.015  1.00  0.00     0.167 HD
HETATM    8  N6  UNL     1      54.553 -10.814  54.302  1.00  0.00    -0.348 N 
HETATM    9  C5  UNL     1      55.668 -11.186  53.686  1.00  0.00     0.107 A 
ATOM     10  H6  UNL     1      53.661 -10.986  53.836  1.00  0.00     0.167 HD
BRANCH   6  11
HETATM   11  C4  UNL     1      53.274  -9.847  56.118  1.00  0.00     0.182 A 
HETATM   12  N2  UNL     1      53.082  -8.707  56.823  1.00  0.00    -0.266 N 
HETATM   13  N3  UNL     1      51.800  -8.724  57.222  1.00  0.00    -0.226 N 
ATOM     14  H2  UNL     1      53.772  -7.981  57.013  1.00  0.00     0.190 HD
HETATM   15  N4  UNL     1      51.219  -9.813  56.794  1.00  0.00    -0.226 N 
ATOM     16  H3  UNL     1      51.348  -7.997  57.776  1.00  0.00     0.210 HD
HETATM   17  N5  UNL     1      52.122 -10.507  56.114  1.00  0.00    -0.266 N 
ATOM     18  H4  UNL     1      50.247 -10.081  56.953  1.00  0.00     0.210 HD
ATOM     19  H5  UNL     1      51.958 -11.405  55.660  1.00  0.00     0.190 HD
ENDBRANCH   6  11
ENDBRANCH   1   2
BRANCH   1  20
HETATM   20  O1  UNL     1      58.609 -10.389  52.840  1.00  0.00    -0.344 OA
ATOM     21  H1  UNL     1      59.153 -10.696  52.123  1.00  0.00     0.219 HD
ENDBRANCH   1  20
BRANCH   1  22
HETATM   22  N7  UNL     1      58.794 -12.540  53.532  1.00  0.00    -0.280 N 
ATOM     23  H7  UNL     1      59.758 -12.563  53.865  1.00  0.00     0.189 HD
BRANCH  22  24
HETATM   24  N8  UNL     1      58.228 -13.715  53.064  1.00  0.00    -0.309 N 
HETATM   25  C8  UNL     1      57.507 -14.572  53.578  1.00  0.00     0.123 C 
ATOM     26  H8  UNL     1      58.457 -13.911  52.090  1.00  0.00     0.186 HD
BRANCH  25  27
HETATM   27  C9  UNL     1      57.020 -15.751  52.866  1.00  0.00     0.040 A 
HETATM   28  C10 UNL     1      55.731 -15.685  52.278  1.00  0.00     0.105 A 
HETATM   29  N9  UNL     1      55.289 -16.749  51.625  1.00  0.00    -0.361 N 
HETATM   30  C11 UNL     1      55.980 -17.887  51.481  1.00  0.00     0.181 A 
ATOM     31  H9  UNL     1      54.361 -16.699  51.203  1.00  0.00     0.166 HD
HETATM   32  N10 UNL     1      57.192 -18.005  52.009  1.00  0.00    -0.338 N 
HETATM   33  C12 UNL     1      57.712 -16.929  52.705  1.00  0.00     0.112 A 
ATOM     34  H10 UNL     1      57.727 -18.868  51.905  1.00  0.00     0.168 HD
BRANCH  33  35
HETATM   35  N11 UNL     1      58.862 -17.090  53.196  1.00  0.00    -0.385 N 
ATOM     36 2H11 UNL     1      59.643 -17.015  52.544  1.00  0.00     0.157 HD
ATOM     37 1H11 UNL     1      58.996 -17.288  54.188  1.00  0.00     0.157 HD
ENDBRANCH  33  35
ENDBRANCH  25  27
ENDBRANCH  22  24
ENDBRANCH   1  22
TORSDOF 7
ENDMDL
MODEL 5
REMARK VINA RESULT: -8.251103117      1.140      1.441
REMARK  7 active torsions:
REMARK  status: ('A' for Active; 'I' for Inactive)
REMARK    1  A    between atoms: C3_5  and  C4_6 
REMARK    2  A    between atoms: C6_18  and  C7_19 
REMARK    3  A    between atoms: C7_19  and  O1_20 
REMARK    4  A    between atoms: C7_19  and  N7_22 
REMARK    5  A    between atoms: N7_22  and  N8_24 
REMARK    6  A    between atoms: C8_26  and  C9_27 
REMARK    7  A    between atoms: C12_34  and  N11_35 
ROOT
HETATM    1  C7  UNL     1      58.507 -12.186  53.460  1.00  0.00     0.168 C 
ENDROOT
BRANCH   1   2
HETATM    2  C6  UNL     1      57.462 -11.403  54.087  1.00  0.00     0.054 A 
HETATM    3  C2  UNL     1      56.266 -11.073  53.523  1.00  0.00     0.023 A 
HETATM    4  C1  UNL     1      55.941 -11.418  52.099  1.00  0.00     0.069 C 
HETATM    5  N1  UNL     1      55.329 -10.366  54.230  1.00  0.00    -0.342 N 
HETATM    6  C3  UNL     1      55.549  -9.974  55.485  1.00  0.00     0.153 A 
ATOM      7  H1  UNL     1      54.442 -10.134  53.785  1.00  0.00     0.167 HD
HETATM    8  N6  UNL     1      56.715 -10.290  56.046  1.00  0.00    -0.348 N 
HETATM    9  C5  UNL     1      57.664 -10.973  55.418  1.00  0.00     0.107 A 
ATOM     10  H6  UNL     1      56.887  -9.993  57.006  1.00  0.00     0.167 HD
BRANCH   6  11
HETATM   11  C4  UNL     1      54.552  -9.216  56.232  1.00  0.00     0.182 A 
HETATM   12  N2  UNL     1      54.836  -8.156  57.026  1.00  0.00    -0.266 N 
HETATM   13  N3  UNL     1      53.663  -7.738  57.527  1.00  0.00    -0.226 N 
ATOM     14  H2  UNL     1      55.756  -7.755  57.207  1.00  0.00     0.190 HD
HETATM   15  N4  UNL     1      52.696  -8.492  57.076  1.00  0.00    -0.226 N 
ATOM     16  H3  UNL     1      53.544  -6.950  58.164  1.00  0.00     0.210 HD
HETATM   17  N5  UNL     1      53.238  -9.402  56.279  1.00  0.00    -0.266 N 
ATOM     18  H4  UNL     1      51.704  -8.397  57.297  1.00  0.00     0.210 HD
ATOM     19  H5  UNL     1      52.728 -10.131  55.781  1.00  0.00     0.190 HD
ENDBRANCH   6  11
ENDBRANCH   1   2
BRANCH   1  20
HETATM   20  O1  UNL     1      59.618 -12.217  54.136  1.00  0.00    -0.344 OA
ATOM     21  H1  UNL     1      60.396 -12.103  53.602  1.00  0.00     0.219 HD
ENDBRANCH   1  20
BRANCH   1  22
HETATM   22  N7  UNL     1      58.506 -12.895  52.280  1.00  0.00    -0.280 N 
ATOM     23  H7  UNL     1      58.824 -12.428  51.430  1.00  0.00     0.189 HD
BRANCH  22  24
HETATM   24  N8  UNL     1      58.094 -14.214  52.194  1.00  0.00    -0.309 N 
HETATM   25  C8  UNL     1      57.503 -14.970  52.969  1.00  0.00     0.123 C 
ATOM     26  H8  UNL     1      58.327 -14.652  51.303  1.00  0.00     0.186 HD
BRANCH  25  27
HETATM   27  C9  UNL     1      57.165 -16.354  52.646  1.00  0.00     0.040 A 
HETATM   28  C10 UNL     1      55.852 -16.625  52.183  1.00  0.00     0.105 A 
HETATM   29  N9  UNL     1      55.543 -17.877  51.882  1.00  0.00    -0.361 N 
HETATM   30  C11 UNL     1      56.391 -18.909  51.985  1.00  0.00     0.181 A 
ATOM     31  H9  UNL     1      54.598 -18.069  51.549  1.00  0.00     0.166 HD
HETATM   32  N10 UNL     1      57.632 -18.715  52.413  1.00  0.00    -0.338 N 
HETATM   33  C12 UNL     1      58.018 -17.428  52.744  1.00  0.00     0.112 A 
ATOM     34  H10 UNL     1      58.285 -19.494  52.494  1.00  0.00     0.168 HD
BRANCH  33  35
HETATM   35  N11 UNL     1      59.204 -17.293  53.153  1.00  0.00    -0.385 N 
ATOM     36 2H11 UNL     1      59.712 -18.156  53.349  1.00  0.00     0.157 HD
ATOM     37 1H11 UNL     1      59.621 -16.372  53.282  1.00  0.00     0.157 HD
ENDBRANCH  33  35
ENDBRANCH  25  27
ENDBRANCH  22  24
ENDBRANCH   1  22
TORSDOF 7
ENDMDL
