MODEL 1
REMARK VINA RESULT: -7.062842683      0.000      0.000
REMARK  7 active torsions:
REMARK  status: ('A' for Active; 'I' for Inactive)
REMARK    1  A    between atoms: C3_5  and  N2_6 
REMARK    2  A    between atoms: N2_6  and  N3_8 
REMARK    3  A    between atoms: C5_15  and  N5_16 
REMARK    4  A    between atoms: N5_16  and  N6_18 
REMARK       I    between atoms: N6_18  and  C6_20 
REMARK    5  A    between atoms: C7_23  and  N8_24 
REMARK    6  A    between atoms: N8_24  and  N9_26 
REMARK    7  A    between atoms: N9_26  and  N10_27 
ROOT
HETATM    1  C1  UNL     1      37.698  48.155   8.651  1.00  0.00     0.071 C 
HETATM    2  C2  UNL     1      36.213  48.055   8.715  1.00  0.00     0.040 C 
HETATM    3  N1  UNL     1      35.645  46.877   8.355  1.00  0.00    -0.338 N 
ATOM      4  H1  UNL     1      36.292  46.146   8.061  1.00  0.00     0.167 HD
HETATM    5  C3  UNL     1      34.342  46.547   8.333  1.00  0.00     0.189 C 
HETATM    6  C4  UNL     1      33.250  47.415   8.348  1.00  0.00     0.292 C 
HETATM    7  O1  UNL     1      32.178  46.952   7.910  1.00  0.00    -0.264 OA
HETATM    8  N4  UNL     1      33.159  48.697   8.766  1.00  0.00    -0.303 N 
ATOM      9  H4  UNL     1      32.244  49.144   8.714  1.00  0.00     0.171 HD
HETATM   10  C5  UNL     1      34.185  49.435   9.248  1.00  0.00     0.154 C 
HETATM   11  C7  UNL     1      35.553  49.189   9.141  1.00  0.00     0.130 C 
ENDROOT
BRANCH  10  12
HETATM   12  N5  UNL     1      33.924  50.500   9.888  1.00  0.00    -0.280 N 
ATOM     13  H5  UNL     1      33.649  51.310   9.332  1.00  0.00     0.188 HD
BRANCH  12  14
HETATM   14  N6  UNL     1      33.972  50.679  11.254  1.00  0.00    -0.252 N 
HETATM   15  C6  UNL     1      34.546  51.869  11.780  1.00  0.00     0.347 C 
HETATM   16  N7  UNL     1      34.620  52.103  13.175  1.00  0.00    -0.038 NA
HETATM   17  O2  UNL     1      35.013  52.764  11.001  1.00  0.00    -0.249 OA
ATOM     18  H6  UNL     1      33.601  49.964  11.880  1.00  0.00     0.191 HD
ENDBRANCH  12  14
ENDBRANCH  10  12
BRANCH  11  19
HETATM   19  N8  UNL     1      36.440  50.245   9.520  1.00  0.00    -0.211 N 
ATOM     20  H8  UNL     1      36.953  50.239  10.402  1.00  0.00     0.204 HD
BRANCH  19  21
HETATM   21  N9  UNL     1      36.540  51.176   8.693  1.00  0.00    -0.243 NA
BRANCH  21  22
HETATM   22  N10 UNL     1      36.783  52.258   8.170  1.00  0.00    -0.260 N 
ATOM     23 2H10 UNL     1      37.305  52.622   8.967  1.00  0.00     0.193 HD
ATOM     24 1H10 UNL     1      36.828  53.032   7.508  1.00  0.00     0.193 HD
ENDBRANCH  21  22
ENDBRANCH  19  21
ENDBRANCH  11  19
BRANCH   5  25
HETATM   25  N2  UNL     1      34.075  45.299   8.296  1.00  0.00    -0.287 N 
ATOM     26  H2  UNL     1      33.109  45.003   8.433  1.00  0.00     0.188 HD
BRANCH  25  27
HETATM   27  N3  UNL     1      35.039  44.332   8.079  1.00  0.00    -0.343 N 
ATOM     28  H32 UNL     1      35.997  44.553   8.348  1.00  0.00     0.176 HD
ATOM     29  H31 UNL     1      34.828  43.424   7.667  1.00  0.00     0.176 HD
ENDBRANCH  25  27
ENDBRANCH   5  25
TORSDOF 7
ENDMDL
MODEL 2
REMARK VINA RESULT: -5.608357626      0.741      1.086
REMARK  7 active torsions:
REMARK  status: ('A' for Active; 'I' for Inactive)
REMARK    1  A    between atoms: C3_5  and  N2_6 
REMARK    2  A    between atoms: N2_6  and  N3_8 
REMARK    3  A    between atoms: C5_15  and  N5_16 
REMARK    4  A    between atoms: N5_16  and  N6_18 
REMARK       I    between atoms: N6_18  and  C6_20 
REMARK    5  A    between atoms: C7_23  and  N8_24 
REMARK    6  A    between atoms: N8_24  and  N9_26 
REMARK    7  A    between atoms: N9_26  and  N10_27 
ROOT
HETATM    1  C1  UNL     1      37.606  48.369   8.682  1.00  0.00     0.071 C 
HETATM    2  C2  UNL     1      36.135  48.145   8.753  1.00  0.00     0.040 C 
HETATM    3  N1  UNL     1      35.684  46.877   8.583  1.00  0.00    -0.338 N 
ATOM      4  H1  UNL     1      36.399  46.171   8.415  1.00  0.00     0.167 HD
HETATM    5  C3  UNL     1      34.416  46.429   8.608  1.00  0.00     0.189 C 
HETATM    6  C4  UNL     1      33.250  47.183   8.476  1.00  0.00     0.292 C 
HETATM    7  O1  UNL     1      32.234  46.560   8.111  1.00  0.00    -0.264 OA
HETATM    8  N4  UNL     1      33.036  48.502   8.681  1.00  0.00    -0.303 N 
ATOM      9  H4  UNL     1      32.085  48.848   8.551  1.00  0.00     0.171 HD
HETATM   10  C5  UNL     1      33.980  49.399   9.043  1.00  0.00     0.154 C 
HETATM   11  C7  UNL     1      35.367  49.267   8.986  1.00  0.00     0.130 C 
ENDROOT
BRANCH  10  12
HETATM   12  N5  UNL     1      33.611  50.524   9.502  1.00  0.00    -0.280 N 
ATOM     13  H5  UNL     1      33.564  51.295   8.835  1.00  0.00     0.188 HD
BRANCH  12  14
HETATM   14  N6  UNL     1      33.267  50.816  10.805  1.00  0.00    -0.252 N 
HETATM   15  C6  UNL     1      33.795  51.985  11.418  1.00  0.00     0.347 C 
HETATM   16  N7  UNL     1      33.474  52.331  12.754  1.00  0.00    -0.038 NA
HETATM   17  O2  UNL     1      34.580  52.758  10.775  1.00  0.00    -0.249 OA
ATOM     18  H6  UNL     1      32.642  50.199  11.323  1.00  0.00     0.191 HD
ENDBRANCH  12  14
ENDBRANCH  10  12
BRANCH  11  19
HETATM   19  N8  UNL     1      36.147  50.447   9.195  1.00  0.00    -0.211 N 
ATOM     20  H8  UNL     1      36.443  51.050   8.429  1.00  0.00     0.204 HD
BRANCH  19  21
HETATM   21  N9  UNL     1      36.438  50.684  10.387  1.00  0.00    -0.243 NA
BRANCH  21  22
HETATM   22  N10 UNL     1      36.483  50.650  11.612  1.00  0.00    -0.260 N 
ATOM     23 2H10 UNL     1      35.555  51.051  11.742  1.00  0.00     0.193 HD
ATOM     24 1H10 UNL     1      36.794  50.503  12.572  1.00  0.00     0.193 HD
ENDBRANCH  21  22
ENDBRANCH  19  21
ENDBRANCH  11  19
BRANCH   5  25
HETATM   25  N2  UNL     1      34.263  45.172   8.771  1.00  0.00    -0.287 N 
ATOM     26  H2  UNL     1      33.720  44.846   9.570  1.00  0.00     0.188 HD
BRANCH  25  27
HETATM   27  N3  UNL     1      34.802  44.233   7.910  1.00  0.00    -0.343 N 
ATOM     28  H32 UNL     1      35.730  44.418   7.532  1.00  0.00     0.176 HD
ATOM     29  H31 UNL     1      34.311  43.380   7.646  1.00  0.00     0.176 HD
ENDBRANCH  25  27
ENDBRANCH   5  25
TORSDOF 7
ENDMDL
MODEL 3
REMARK VINA RESULT: -3.581667270      1.236      1.268
REMARK  7 active torsions:
REMARK  status: ('A' for Active; 'I' for Inactive)
REMARK    1  A    between atoms: C3_5  and  N2_6 
REMARK    2  A    between atoms: N2_6  and  N3_8 
REMARK    3  A    between atoms: C5_15  and  N5_16 
REMARK    4  A    between atoms: N5_16  and  N6_18 
REMARK       I    between atoms: N6_18  and  C6_20 
REMARK    5  A    between atoms: C7_23  and  N8_24 
REMARK    6  A    between atoms: N8_24  and  N9_26 
REMARK    7  A    between atoms: N9_26  and  N10_27 
ROOT
HETATM    1  C1  UNL     1      37.266  47.951   7.209  1.00  0.00     0.071 C 
HETATM    2  C2  UNL     1      36.183  47.607   8.172  1.00  0.00     0.040 C 
HETATM    3  N1  UNL     1      35.564  46.410   8.021  1.00  0.00    -0.338 N 
ATOM      4  H1  UNL     1      35.894  45.836   7.245  1.00  0.00     0.167 HD
HETATM    5  C3  UNL     1      34.573  45.881   8.759  1.00  0.00     0.189 C 
HETATM    6  C4  UNL     1      33.718  46.552   9.634  1.00  0.00     0.292 C 
HETATM    7  O1  UNL     1      32.637  45.984   9.886  1.00  0.00    -0.264 OA
HETATM    8  N4  UNL     1      33.870  47.738  10.264  1.00  0.00    -0.303 N 
ATOM      9  H4  UNL     1      33.123  48.035  10.891  1.00  0.00     0.171 HD
HETATM   10  C5  UNL     1      34.934  48.563  10.128  1.00  0.00     0.154 C 
HETATM   11  C7  UNL     1      35.914  48.556   9.137  1.00  0.00     0.130 C 
ENDROOT
BRANCH  10  12
HETATM   12  N5  UNL     1      35.109  49.480  10.989  1.00  0.00    -0.280 N 
ATOM     13  H5  UNL     1      35.995  49.469  11.493  1.00  0.00     0.188 HD
BRANCH  12  14
HETATM   14  N6  UNL     1      34.229  50.490  11.314  1.00  0.00    -0.252 N 
HETATM   15  C6  UNL     1      34.681  51.576  12.114  1.00  0.00     0.347 C 
HETATM   16  N7  UNL     1      33.819  52.639  12.477  1.00  0.00    -0.038 NA
HETATM   17  O2  UNL     1      35.886  51.618  12.530  1.00  0.00    -0.249 OA
ATOM     18  H6  UNL     1      33.264  50.459  10.985  1.00  0.00     0.191 HD
ENDBRANCH  12  14
ENDBRANCH  10  12
BRANCH  11  19
HETATM   19  N8  UNL     1      36.792  49.682   9.077  1.00  0.00    -0.211 N 
ATOM     20  H8  UNL     1      37.796  49.603   9.244  1.00  0.00     0.204 HD
BRANCH  19  21
HETATM   21  N9  UNL     1      36.241  50.770   8.806  1.00  0.00    -0.243 NA
BRANCH  21  22
HETATM   22  N10 UNL     1      35.987  51.967   8.723  1.00  0.00    -0.260 N 
ATOM     23 2H10 UNL     1      35.267  51.950   9.445  1.00  0.00     0.193 HD
ATOM     24 1H10 UNL     1      35.992  52.947   8.443  1.00  0.00     0.193 HD
ENDBRANCH  21  22
ENDBRANCH  19  21
ENDBRANCH  11  19
BRANCH   5  25
HETATM   25  N2  UNL     1      34.394  44.621   8.647  1.00  0.00    -0.287 N 
ATOM     26  H2  UNL     1      33.673  44.178   9.216  1.00  0.00     0.188 HD
BRANCH  25  27
HETATM   27  N3  UNL     1      35.136  43.832   7.787  1.00  0.00    -0.343 N 
ATOM     28  H32 UNL     1      36.042  43.500   8.117  1.00  0.00     0.176 HD
ATOM     29  H31 UNL     1      34.814  43.577   6.854  1.00  0.00     0.176 HD
ENDBRANCH  25  27
ENDBRANCH   5  25
TORSDOF 7
ENDMDL
MODEL 4
REMARK VINA RESULT: -3.339792367      1.315      1.416
REMARK  7 active torsions:
REMARK  status: ('A' for Active; 'I' for Inactive)
REMARK    1  A    between atoms: C3_5  and  N2_6 
REMARK    2  A    between atoms: N2_6  and  N3_8 
REMARK    3  A    between atoms: C5_15  and  N5_16 
REMARK    4  A    between atoms: N5_16  and  N6_18 
REMARK       I    between atoms: N6_18  and  C6_20 
REMARK    5  A    between atoms: C7_23  and  N8_24 
REMARK    6  A    between atoms: N8_24  and  N9_26 
REMARK    7  A    between atoms: N9_26  and  N10_27 
ROOT
HETATM    1  C1  UNL     1      37.697  50.041   8.257  1.00  0.00     0.071 C 
HETATM    2  C2  UNL     1      36.345  49.530   8.616  1.00  0.00     0.040 C 
HETATM    3  N1  UNL     1      36.155  48.187   8.600  1.00  0.00    -0.338 N 
ATOM      4  H1  UNL     1      36.966  47.628   8.335  1.00  0.00     0.167 HD
HETATM    5  C3  UNL     1      35.038  47.495   8.886  1.00  0.00     0.189 C 
HETATM    6  C4  UNL     1      33.732  47.981   8.938  1.00  0.00     0.292 C 
HETATM    7  O1  UNL     1      32.827  47.134   8.805  1.00  0.00    -0.264 OA
HETATM    8  N4  UNL     1      33.277  49.242   9.113  1.00  0.00    -0.303 N 
ATOM      9  H4  UNL     1      32.266  49.375   9.148  1.00  0.00     0.171 HD
HETATM   10  C5  UNL     1      34.054  50.341   9.244  1.00  0.00     0.154 C 
HETATM   11  C7  UNL     1      35.405  50.489   8.932  1.00  0.00     0.130 C 
ENDROOT
BRANCH  10  12
HETATM   12  N5  UNL     1      33.536  51.405   9.706  1.00  0.00    -0.280 N 
ATOM     13  H5  UNL     1      33.428  52.180   9.053  1.00  0.00     0.188 HD
BRANCH  12  14
HETATM   14  N6  UNL     1      33.104  51.622  10.997  1.00  0.00    -0.252 N 
HETATM   15  C6  UNL     1      34.031  51.507  12.070  1.00  0.00     0.347 C 
HETATM   16  N7  UNL     1      33.640  51.720  13.414  1.00  0.00    -0.038 NA
HETATM   17  O2  UNL     1      35.249  51.203  11.845  1.00  0.00    -0.249 OA
ATOM     18  H6  UNL     1      32.130  51.864  11.181  1.00  0.00     0.191 HD
ENDBRANCH  12  14
ENDBRANCH  10  12
BRANCH  11  19
HETATM   19  N8  UNL     1      35.935  51.816   8.931  1.00  0.00    -0.211 N 
ATOM     20  H8  UNL     1      35.687  52.504   8.219  1.00  0.00     0.204 HD
BRANCH  19  21
HETATM   21  N9  UNL     1      36.725  52.072   9.864  1.00  0.00    -0.243 NA
BRANCH  21  22
HETATM   22  N10 UNL     1      37.503  52.648  10.617  1.00  0.00    -0.260 N 
ATOM     23 2H10 UNL     1      37.316  53.577  10.237  1.00  0.00     0.193 HD
ATOM     24 1H10 UNL     1      38.192  52.845  11.342  1.00  0.00     0.193 HD
ENDBRANCH  21  22
ENDBRANCH  19  21
ENDBRANCH  11  19
BRANCH   5  25
HETATM   25  N2  UNL     1      35.192  46.253   9.139  1.00  0.00    -0.287 N 
ATOM     26  H2  UNL     1      35.513  45.980  10.067  1.00  0.00     0.188 HD
BRANCH  25  27
HETATM   27  N3  UNL     1      34.941  45.261   8.208  1.00  0.00    -0.343 N 
ATOM     28  H32 UNL     1      34.020  45.249   7.770  1.00  0.00     0.176 HD
ATOM     29  H31 UNL     1      35.631  44.557   7.951  1.00  0.00     0.176 HD
ENDBRANCH  25  27
ENDBRANCH   5  25
TORSDOF 7
ENDMDL
MODEL 5
REMARK VINA RESULT: -3.198657639      1.851      5.500
REMARK  7 active torsions:
REMARK  status: ('A' for Active; 'I' for Inactive)
REMARK    1  A    between atoms: C3_5  and  N2_6 
REMARK    2  A    between atoms: N2_6  and  N3_8 
REMARK    3  A    between atoms: C5_15  and  N5_16 
REMARK    4  A    between atoms: N5_16  and  N6_18 
REMARK       I    between atoms: N6_18  and  C6_20 
REMARK    5  A    between atoms: C7_23  and  N8_24 
REMARK    6  A    between atoms: N8_24  and  N9_26 
REMARK    7  A    between atoms: N9_26  and  N10_27 
ROOT
HETATM    1  C1  UNL     1      37.268  52.372   9.451  1.00  0.00     0.071 C 
HETATM    2  C2  UNL     1      36.085  51.727  10.085  1.00  0.00     0.040 C 
HETATM    3  N1  UNL     1      35.512  52.361  11.139  1.00  0.00    -0.338 N 
ATOM      4  H1  UNL     1      35.947  53.240  11.417  1.00  0.00     0.167 HD
HETATM    5  C3  UNL     1      34.445  51.983  11.865  1.00  0.00     0.189 C 
HETATM    6  C4  UNL     1      33.880  50.710  11.937  1.00  0.00     0.292 C 
HETATM    7  O1  UNL     1      33.191  50.474  12.950  1.00  0.00    -0.264 OA
HETATM    8  N4  UNL     1      33.956  49.671  11.076  1.00  0.00    -0.303 N 
ATOM      9  H4  UNL     1      33.435  48.826  11.312  1.00  0.00     0.171 HD
HETATM   10  C5  UNL     1      34.668  49.661   9.927  1.00  0.00     0.154 C 
HETATM   11  C7  UNL     1      35.684  50.529   9.530  1.00  0.00     0.130 C 
ENDROOT
BRANCH  10  12
HETATM   12  N5  UNL     1      34.421  48.764   9.061  1.00  0.00    -0.280 N 
ATOM     13  H5  UNL     1      34.119  49.089   8.143  1.00  0.00     0.188 HD
BRANCH  12  14
HETATM   14  N6  UNL     1      34.515  47.400   9.232  1.00  0.00    -0.252 N 
HETATM   15  C6  UNL     1      34.280  46.542   8.122  1.00  0.00     0.347 C 
HETATM   16  N7  UNL     1      34.364  45.133   8.242  1.00  0.00    -0.038 NA
HETATM   17  O2  UNL     1      33.983  47.026   6.980  1.00  0.00    -0.249 OA
ATOM     18  H6  UNL     1      34.750  47.009  10.145  1.00  0.00     0.191 HD
ENDBRANCH  12  14
ENDBRANCH  10  12
BRANCH  11  19
HETATM   19  N8  UNL     1      36.448  50.161   8.379  1.00  0.00    -0.211 N 
ATOM     20  H8  UNL     1      36.520  50.759   7.555  1.00  0.00     0.204 HD
BRANCH  19  21
HETATM   21  N9  UNL     1      37.021  49.054   8.455  1.00  0.00    -0.243 NA
BRANCH  21  22
HETATM   22  N10 UNL     1      37.430  47.926   8.203  1.00  0.00    -0.260 N 
ATOM     23 2H10 UNL     1      37.050  47.908   7.257  1.00  0.00     0.193 HD
ATOM     24 1H10 UNL     1      37.876  47.012   8.276  1.00  0.00     0.193 HD
ENDBRANCH  21  22
ENDBRANCH  19  21
ENDBRANCH  11  19
BRANCH   5  25
HETATM   25  N2  UNL     1      33.887  52.892  12.566  1.00  0.00    -0.287 N 
ATOM     26  H2  UNL     1      34.479  53.537  13.089  1.00  0.00     0.188 HD
BRANCH  25  27
HETATM   27  N3  UNL     1      32.515  53.041  12.648  1.00  0.00    -0.343 N 
ATOM     28  H32 UNL     1      31.937  52.318  12.220  1.00  0.00     0.176 HD
ATOM     29  H31 UNL     1      32.071  53.833  13.111  1.00  0.00     0.176 HD
ENDBRANCH  25  27
ENDBRANCH   5  25
TORSDOF 7
ENDMDL
