MODEL 1
REMARK VINA RESULT: -6.482609226      0.000      0.000
REMARK  12 active torsions:
REMARK  status: ('A' for Active; 'I' for Inactive)
REMARK    1  A    between atoms: O1_2  and  C2_3 
REMARK    2  A    between atoms: C3_4  and  N1_5 
REMARK    3  A    between atoms: C5_10  and  O2_11 
REMARK    4  A    between atoms: O2_11  and  C6_12 
REMARK    5  A    between atoms: C7_13  and  O3_14 
REMARK    6  A    between atoms: C8_17  and  C9_18 
REMARK    7  A    between atoms: C14_23  and  N2_24 
REMARK    8  A    between atoms: N2_24  and  C15_27 
REMARK    9  A    between atoms: C15_27  and  C17_29 
REMARK   10  A    between atoms: C17_29  and  O5_30 
REMARK   11  A    between atoms: C18_32  and  O6_33 
REMARK   12  A    between atoms: C19_35  and  O7_36 
ROOT
HETATM    1  C6  UNL     1       2.851  40.105  49.099  1.00  0.00     0.210 C 
HETATM    2  C7  UNL     1       3.755  41.053  48.343  1.00  0.00     0.288 C 
HETATM    3  O4  UNL     1       4.531  41.825  49.205  1.00  0.00    -0.350 OA
HETATM    4  C8  UNL     1       3.703  42.639  50.019  1.00  0.00     0.162 C 
HETATM    5  C18 UNL     1       3.112  41.627  51.011  1.00  0.00     0.179 C 
HETATM    6  C19 UNL     1       2.113  40.798  50.215  1.00  0.00     0.183 C 
ENDROOT
BRANCH   1   7
HETATM    7  O2  UNL     1       3.648  39.122  49.675  1.00  0.00    -0.348 OA
BRANCH   7   8
HETATM    8  C5  UNL     1       4.056  38.162  48.739  1.00  0.00     0.263 C 
HETATM    9  C4  UNL     1       3.590  36.838  49.206  1.00  0.00     0.096 C 
HETATM   10  C3  UNL     1       4.479  35.683  48.885  1.00  0.00     0.219 C 
HETATM   11  C2  UNL     1       5.933  36.034  48.768  1.00  0.00     0.179 C 
HETATM   12  C20 UNL     1       6.000  37.274  47.864  1.00  0.00     0.151 C 
HETATM   13  O8  UNL     1       5.428  38.298  48.614  1.00  0.00    -0.354 OA
HETATM   14  C21 UNL     1       7.470  37.604  47.703  1.00  0.00     0.042 C 
BRANCH  10  15
HETATM   15  N1  UNL     1       4.357  34.669  49.922  1.00  0.00    -0.072 N 
ATOM     16  H13 UNL     1       4.753  33.770  49.647  1.00  0.00     0.274 HD
ATOM     17  H12 UNL     1       4.965  34.843  50.723  1.00  0.00     0.274 HD
ATOM     18  H11 UNL     1       3.371  34.609  50.176  1.00  0.00     0.274 HD
ENDBRANCH  10  15
BRANCH  11  19
HETATM   19  O1  UNL     1       6.415  36.456  50.006  1.00  0.00    -0.386 OA
HETATM   20  C1  UNL     1       7.472  35.681  50.443  1.00  0.00     0.202 C 
ENDBRANCH  11  19
ENDBRANCH   7   8
ENDBRANCH   1   7
BRANCH   2  21
HETATM   21  O3  UNL     1       3.049  41.827  47.428  1.00  0.00    -0.369 OA
ATOM     22  H3  UNL     1       3.627  42.303  46.843  1.00  0.00     0.212 HD
ENDBRANCH   2  21
BRANCH   6  23
HETATM   23  O7  UNL     1       1.188  41.669  49.659  1.00  0.00    -0.390 OA
ATOM     24  H7  UNL     1       0.889  41.308  48.833  1.00  0.00     0.210 HD
ENDBRANCH   6  23
BRANCH   5  25
HETATM   25  O6  UNL     1       4.124  40.819  51.530  1.00  0.00    -0.390 OA
ATOM     26  H6  UNL     1       4.586  40.382  50.825  1.00  0.00     0.210 HD
ENDBRANCH   5  25
BRANCH   4  27
HETATM   27  C9  UNL     1       4.607  43.554  50.767  1.00  0.00     0.048 C 
HETATM   28  C10 UNL     1       3.815  44.042  52.023  1.00  0.00     0.009 C 
HETATM   29  C11 UNL     1       4.614  45.187  52.574  1.00  0.00     0.001 C 
HETATM   30  C12 UNL     1       5.943  45.401  51.941  1.00  0.00     0.002 C 
HETATM   31  C13 UNL     1       6.749  44.154  51.692  1.00  0.00     0.033 C 
HETATM   32  C14 UNL     1       5.840  42.966  51.357  1.00  0.00     0.193 C 
BRANCH  32  33
HETATM   33  N2  UNL     1       6.514  41.966  50.611  1.00  0.00    -0.065 N 
ATOM     34  H22 UNL     1       5.845  41.350  50.149  1.00  0.00     0.278 HD
ATOM     35  H21 UNL     1       6.966  42.373  49.792  1.00  0.00     0.278 HD
BRANCH  33  36
HETATM   36  C15 UNL     1       7.457  41.202  51.383  1.00  0.00     0.205 C 
HETATM   37  C16 UNL     1       7.066  41.159  52.854  1.00  0.00     0.042 C 
BRANCH  36  38
HETATM   38  C17 UNL     1       7.411  39.763  50.875  1.00  0.00     0.196 C 
BRANCH  38  39
HETATM   39  O5  UNL     1       6.223  39.132  51.298  1.00  0.00    -0.399 OA
ATOM     40  H5  UNL     1       6.393  38.224  51.517  1.00  0.00     0.209 HD
ENDBRANCH  38  39
ENDBRANCH  36  38
ENDBRANCH  33  36
ENDBRANCH  32  33
ENDBRANCH   4  27
TORSDOF 12
ENDMDL
MODEL 2
REMARK VINA RESULT: -6.425350823      3.751      6.165
REMARK  12 active torsions:
REMARK  status: ('A' for Active; 'I' for Inactive)
REMARK    1  A    between atoms: O1_2  and  C2_3 
REMARK    2  A    between atoms: C3_4  and  N1_5 
REMARK    3  A    between atoms: C5_10  and  O2_11 
REMARK    4  A    between atoms: O2_11  and  C6_12 
REMARK    5  A    between atoms: C7_13  and  O3_14 
REMARK    6  A    between atoms: C8_17  and  C9_18 
REMARK    7  A    between atoms: C14_23  and  N2_24 
REMARK    8  A    between atoms: N2_24  and  C15_27 
REMARK    9  A    between atoms: C15_27  and  C17_29 
REMARK   10  A    between atoms: C17_29  and  O5_30 
REMARK   11  A    between atoms: C18_32  and  O6_33 
REMARK   12  A    between atoms: C19_35  and  O7_36 
ROOT
HETATM    1  C6  UNL     1       7.788  39.140  53.163  1.00  0.00     0.210 C 
HETATM    2  C7  UNL     1       8.508  40.458  53.342  1.00  0.00     0.288 C 
HETATM    3  O4  UNL     1       7.636  41.540  53.242  1.00  0.00    -0.350 OA
HETATM    4  C8  UNL     1       7.052  41.586  51.950  1.00  0.00     0.162 C 
HETATM    5  C18 UNL     1       6.046  40.425  51.999  1.00  0.00     0.179 C 
HETATM    6  C19 UNL     1       6.880  39.152  51.961  1.00  0.00     0.183 C 
ENDROOT
BRANCH   1   7
HETATM    7  O2  UNL     1       6.992  38.931  54.283  1.00  0.00    -0.348 OA
BRANCH   7   8
HETATM    8  C5  UNL     1       7.497  37.912  55.103  1.00  0.00     0.263 C 
HETATM    9  C4  UNL     1       6.461  36.863  55.222  1.00  0.00     0.096 C 
HETATM   10  C3  UNL     1       6.405  36.149  56.531  1.00  0.00     0.219 C 
HETATM   11  C2  UNL     1       6.869  36.963  57.702  1.00  0.00     0.179 C 
HETATM   12  C20 UNL     1       8.204  37.593  57.279  1.00  0.00     0.151 C 
HETATM   13  O8  UNL     1       7.869  38.517  56.292  1.00  0.00    -0.354 OA
HETATM   14  C21 UNL     1       8.703  38.378  58.475  1.00  0.00     0.042 C 
BRANCH  10  15
HETATM   15  N1  UNL     1       5.036  35.735  56.803  1.00  0.00    -0.072 N 
ATOM     16  H13 UNL     1       4.969  35.054  57.559  1.00  0.00     0.274 HD
ATOM     17  H12 UNL     1       4.476  36.470  57.237  1.00  0.00     0.274 HD
ATOM     18  H11 UNL     1       4.639  35.397  55.927  1.00  0.00     0.274 HD
ENDBRANCH  10  15
BRANCH  11  19
HETATM   19  O1  UNL     1       6.003  38.036  57.902  1.00  0.00    -0.386 OA
HETATM   20  C1  UNL     1       5.368  37.969  59.127  1.00  0.00     0.202 C 
ENDBRANCH  11  19
ENDBRANCH   7   8
ENDBRANCH   1   7
BRANCH   2  21
HETATM   21  O3  UNL     1       9.600  40.576  52.488  1.00  0.00    -0.369 OA
ATOM     22  H3  UNL     1      10.068  41.392  52.619  1.00  0.00     0.212 HD
ENDBRANCH   2  21
BRANCH   6  23
HETATM   23  O7  UNL     1       7.662  39.191  50.816  1.00  0.00    -0.390 OA
ATOM     24  H7  UNL     1       7.660  40.079  50.478  1.00  0.00     0.210 HD
ENDBRANCH   6  23
BRANCH   5  25
HETATM   25  O6  UNL     1       5.295  40.491  53.172  1.00  0.00    -0.390 OA
ATOM     26  H6  UNL     1       4.753  39.716  53.256  1.00  0.00     0.210 HD
ENDBRANCH   5  25
BRANCH   4  27
HETATM   27  C9  UNL     1       6.289  42.861  51.872  1.00  0.00     0.048 C 
HETATM   28  C10 UNL     1       7.342  44.005  51.712  1.00  0.00     0.009 C 
HETATM   29  C11 UNL     1       6.583  45.277  51.956  1.00  0.00     0.001 C 
HETATM   30  C12 UNL     1       5.108  45.128  52.076  1.00  0.00     0.002 C 
HETATM   31  C13 UNL     1       4.467  44.214  51.066  1.00  0.00     0.033 C 
HETATM   32  C14 UNL     1       5.401  43.057  50.695  1.00  0.00     0.193 C 
BRANCH  32  33
HETATM   33  N2  UNL     1       4.693  41.929  50.210  1.00  0.00    -0.065 N 
ATOM     34  H22 UNL     1       5.162  41.534  49.394  1.00  0.00     0.278 HD
ATOM     35  H21 UNL     1       4.783  41.144  50.854  1.00  0.00     0.278 HD
BRANCH  33  36
HETATM   36  C15 UNL     1       3.308  42.191  49.921  1.00  0.00     0.205 C 
HETATM   37  C16 UNL     1       2.974  41.883  48.469  1.00  0.00     0.042 C 
BRANCH  36  38
HETATM   38  C17 UNL     1       2.471  41.242  50.776  1.00  0.00     0.196 C 
BRANCH  38  39
HETATM   39  O5  UNL     1       2.686  41.498  52.145  1.00  0.00    -0.399 OA
ATOM     40  H5  UNL     1       3.612  41.453  52.347  1.00  0.00     0.209 HD
ENDBRANCH  38  39
ENDBRANCH  36  38
ENDBRANCH  33  36
ENDBRANCH  32  33
ENDBRANCH   4  27
TORSDOF 12
ENDMDL
MODEL 3
REMARK VINA RESULT: -6.075982660      3.508      5.564
REMARK  12 active torsions:
REMARK  status: ('A' for Active; 'I' for Inactive)
REMARK    1  A    between atoms: O1_2  and  C2_3 
REMARK    2  A    between atoms: C3_4  and  N1_5 
REMARK    3  A    between atoms: C5_10  and  O2_11 
REMARK    4  A    between atoms: O2_11  and  C6_12 
REMARK    5  A    between atoms: C7_13  and  O3_14 
REMARK    6  A    between atoms: C8_17  and  C9_18 
REMARK    7  A    between atoms: C14_23  and  N2_24 
REMARK    8  A    between atoms: N2_24  and  C15_27 
REMARK    9  A    between atoms: C15_27  and  C17_29 
REMARK   10  A    between atoms: C17_29  and  O5_30 
REMARK   11  A    between atoms: C18_32  and  O6_33 
REMARK   12  A    between atoms: C19_35  and  O7_36 
ROOT
HETATM    1  C6  UNL     1       7.775  39.607  49.802  1.00  0.00     0.210 C 
HETATM    2  C7  UNL     1       6.659  40.257  49.014  1.00  0.00     0.288 C 
HETATM    3  O4  UNL     1       6.067  41.301  49.723  1.00  0.00    -0.350 OA
HETATM    4  C8  UNL     1       5.473  40.813  50.916  1.00  0.00     0.162 C 
HETATM    5  C18 UNL     1       6.694  40.533  51.805  1.00  0.00     0.179 C 
HETATM    6  C19 UNL     1       7.362  39.298  51.217  1.00  0.00     0.183 C 
ENDROOT
BRANCH   1   7
HETATM    7  O2  UNL     1       8.834  40.506  49.864  1.00  0.00    -0.348 OA
BRANCH   7   8
HETATM    8  C5  UNL     1       9.353  40.794  48.595  1.00  0.00     0.263 C 
HETATM    9  C4  UNL     1      10.225  39.670  48.189  1.00  0.00     0.096 C 
HETATM   10  C3  UNL     1      11.413  40.032  47.361  1.00  0.00     0.219 C 
HETATM   11  C2  UNL     1      11.938  41.416  47.603  1.00  0.00     0.179 C 
HETATM   12  C20 UNL     1      10.718  42.347  47.564  1.00  0.00     0.151 C 
HETATM   13  O8  UNL     1       9.981  42.023  48.701  1.00  0.00    -0.354 OA
HETATM   14  C21 UNL     1      11.248  43.753  47.759  1.00  0.00     0.042 C 
BRANCH  10  15
HETATM   15  N1  UNL     1      12.498  39.100  47.631  1.00  0.00    -0.072 N 
ATOM     16  H13 UNL     1      13.183  39.468  48.291  1.00  0.00     0.274 HD
ATOM     17  H12 UNL     1      12.203  38.293  48.181  1.00  0.00     0.274 HD
ATOM     18  H11 UNL     1      12.909  38.842  46.734  1.00  0.00     0.274 HD
ENDBRANCH  10  15
BRANCH  11  19
HETATM   19  O1  UNL     1      12.431  41.511  48.903  1.00  0.00    -0.386 OA
HETATM   20  C1  UNL     1      13.773  41.836  48.927  1.00  0.00     0.202 C 
ENDBRANCH  11  19
ENDBRANCH   7   8
ENDBRANCH   1   7
BRANCH   2  21
HETATM   21  O3  UNL     1       5.728  39.326  48.565  1.00  0.00    -0.369 OA
ATOM     22  H3  UNL     1       5.397  39.541  47.701  1.00  0.00     0.212 HD
ENDBRANCH   2  21
BRANCH   6  23
HETATM   23  O7  UNL     1       6.421  38.280  51.191  1.00  0.00    -0.390 OA
ATOM     24  H7  UNL     1       6.074  38.164  52.067  1.00  0.00     0.210 HD
ENDBRANCH   6  23
BRANCH   5  25
HETATM   25  O6  UNL     1       7.563  41.624  51.783  1.00  0.00    -0.390 OA
ATOM     26  H6  UNL     1       8.281  41.481  52.389  1.00  0.00     0.210 HD
ENDBRANCH   5  25
BRANCH   4  27
HETATM   27  C9  UNL     1       4.714  41.948  51.508  1.00  0.00     0.048 C 
HETATM   28  C10 UNL     1       5.267  43.252  50.848  1.00  0.00     0.009 C 
HETATM   29  C11 UNL     1       4.723  44.376  51.680  1.00  0.00     0.001 C 
HETATM   30  C12 UNL     1       3.720  43.985  52.706  1.00  0.00     0.002 C 
HETATM   31  C13 UNL     1       2.678  43.000  52.248  1.00  0.00     0.033 C 
HETATM   32  C14 UNL     1       3.256  42.020  51.222  1.00  0.00     0.193 C 
BRANCH  32  33
HETATM   33  N2  UNL     1       2.534  40.801  51.175  1.00  0.00    -0.065 N 
ATOM     34  H22 UNL     1       3.159  40.006  51.311  1.00  0.00     0.278 HD
ATOM     35  H21 UNL     1       1.945  40.700  52.001  1.00  0.00     0.278 HD
BRANCH  33  36
HETATM   36  C15 UNL     1       1.757  40.632  49.975  1.00  0.00     0.205 C 
HETATM   37  C16 UNL     1       2.392  41.353  48.795  1.00  0.00     0.042 C 
BRANCH  36  38
HETATM   38  C17 UNL     1       1.754  39.144  49.632  1.00  0.00     0.196 C 
BRANCH  38  39
HETATM   39  O5  UNL     1       3.068  38.634  49.660  1.00  0.00    -0.399 OA
ATOM     40  H5  UNL     1       3.339  38.471  50.555  1.00  0.00     0.209 HD
ENDBRANCH  38  39
ENDBRANCH  36  38
ENDBRANCH  33  36
ENDBRANCH  32  33
ENDBRANCH   4  27
TORSDOF 12
ENDMDL
MODEL 4
REMARK VINA RESULT: -5.995887190      3.183      5.994
REMARK  12 active torsions:
REMARK  status: ('A' for Active; 'I' for Inactive)
REMARK    1  A    between atoms: O1_2  and  C2_3 
REMARK    2  A    between atoms: C3_4  and  N1_5 
REMARK    3  A    between atoms: C5_10  and  O2_11 
REMARK    4  A    between atoms: O2_11  and  C6_12 
REMARK    5  A    between atoms: C7_13  and  O3_14 
REMARK    6  A    between atoms: C8_17  and  C9_18 
REMARK    7  A    between atoms: C14_23  and  N2_24 
REMARK    8  A    between atoms: N2_24  and  C15_27 
REMARK    9  A    between atoms: C15_27  and  C17_29 
REMARK   10  A    between atoms: C17_29  and  O5_30 
REMARK   11  A    between atoms: C18_32  and  O6_33 
REMARK   12  A    between atoms: C19_35  and  O7_36 
ROOT
HETATM    1  C6  UNL     1       7.973  39.597  50.217  1.00  0.00     0.210 C 
HETATM    2  C7  UNL     1       7.306  40.640  49.347  1.00  0.00     0.288 C 
HETATM    3  O4  UNL     1       6.595  41.566  50.107  1.00  0.00    -0.350 OA
HETATM    4  C8  UNL     1       5.550  40.923  50.818  1.00  0.00     0.162 C 
HETATM    5  C18 UNL     1       6.310  40.183  51.929  1.00  0.00     0.179 C 
HETATM    6  C19 UNL     1       7.027  39.028  51.242  1.00  0.00     0.183 C 
ENDROOT
BRANCH   1   7
HETATM    7  O2  UNL     1       9.012  40.214  50.905  1.00  0.00    -0.348 OA
BRANCH   7   8
HETATM    8  C5  UNL     1       9.702  41.131  50.101  1.00  0.00     0.263 C 
HETATM    9  C4  UNL     1      11.057  40.593  49.852  1.00  0.00     0.096 C 
HETATM   10  C3  UNL     1      12.149  41.604  49.739  1.00  0.00     0.219 C 
HETATM   11  C2  UNL     1      11.910  42.864  50.517  1.00  0.00     0.179 C 
HETATM   12  C20 UNL     1      10.478  43.305  50.182  1.00  0.00     0.151 C 
HETATM   13  O8  UNL     1       9.658  42.344  50.768  1.00  0.00    -0.354 OA
HETATM   14  C21 UNL     1      10.247  44.604  50.926  1.00  0.00     0.042 C 
BRANCH  10  15
HETATM   15  N1  UNL     1      13.399  41.029  50.215  1.00  0.00    -0.072 N 
ATOM     16  H13 UNL     1      13.803  41.547  50.995  1.00  0.00     0.274 HD
ATOM     17  H12 UNL     1      13.270  40.140  50.698  1.00  0.00     0.274 HD
ATOM     18  H11 UNL     1      14.028  40.959  49.415  1.00  0.00     0.274 HD
ENDBRANCH  10  15
BRANCH  11  19
HETATM   19  O1  UNL     1      11.897  42.579  51.881  1.00  0.00    -0.386 OA
HETATM   20  C1  UNL     1      12.875  43.274  52.565  1.00  0.00     0.202 C 
ENDBRANCH  11  19
ENDBRANCH   7   8
ENDBRANCH   1   7
BRANCH   2  21
HETATM   21  O3  UNL     1       6.529  40.064  48.347  1.00  0.00    -0.369 OA
ATOM     22  H3  UNL     1       6.034  40.714  47.862  1.00  0.00     0.212 HD
ENDBRANCH   2  21
BRANCH   6  23
HETATM   23  O7  UNL     1       6.073  38.265  50.589  1.00  0.00    -0.390 OA
ATOM     24  H7  UNL     1       6.044  38.530  49.677  1.00  0.00     0.210 HD
ENDBRANCH   6  23
BRANCH   5  25
HETATM   25  O6  UNL     1       7.224  41.042  52.538  1.00  0.00    -0.390 OA
ATOM     26  H6  UNL     1       7.176  41.904  52.142  1.00  0.00     0.210 HD
ENDBRANCH   5  25
BRANCH   4  27
HETATM   27  C9  UNL     1       4.737  42.000  51.446  1.00  0.00     0.048 C 
HETATM   28  C10 UNL     1       5.226  43.350  50.830  1.00  0.00     0.009 C 
HETATM   29  C11 UNL     1       4.628  44.419  51.697  1.00  0.00     0.001 C 
HETATM   30  C12 UNL     1       3.646  43.947  52.709  1.00  0.00     0.002 C 
HETATM   31  C13 UNL     1       2.652  42.927  52.218  1.00  0.00     0.033 C 
HETATM   32  C14 UNL     1       3.277  42.010  51.161  1.00  0.00     0.193 C 
BRANCH  32  33
HETATM   33  N2  UNL     1       2.614  40.760  51.073  1.00  0.00    -0.065 N 
ATOM     34  H22 UNL     1       3.285  39.993  51.122  1.00  0.00     0.278 HD
ATOM     35  H21 UNL     1       2.081  40.576  51.922  1.00  0.00     0.278 HD
BRANCH  33  36
HETATM   36  C15 UNL     1       1.777  40.627  49.910  1.00  0.00     0.205 C 
HETATM   37  C16 UNL     1       2.251  41.527  48.778  1.00  0.00     0.042 C 
BRANCH  36  38
HETATM   38  C17 UNL     1       1.906  39.189  49.411  1.00  0.00     0.196 C 
BRANCH  38  39
HETATM   39  O5  UNL     1       3.192  38.686  49.696  1.00  0.00    -0.399 OA
ATOM     40  H5  UNL     1       3.808  38.958  49.027  1.00  0.00     0.209 HD
ENDBRANCH  38  39
ENDBRANCH  36  38
ENDBRANCH  33  36
ENDBRANCH  32  33
ENDBRANCH   4  27
TORSDOF 12
ENDMDL
MODEL 5
REMARK VINA RESULT: -5.980334611      1.152      1.229
REMARK  12 active torsions:
REMARK  status: ('A' for Active; 'I' for Inactive)
REMARK    1  A    between atoms: O1_2  and  C2_3 
REMARK    2  A    between atoms: C3_4  and  N1_5 
REMARK    3  A    between atoms: C5_10  and  O2_11 
REMARK    4  A    between atoms: O2_11  and  C6_12 
REMARK    5  A    between atoms: C7_13  and  O3_14 
REMARK    6  A    between atoms: C8_17  and  C9_18 
REMARK    7  A    between atoms: C14_23  and  N2_24 
REMARK    8  A    between atoms: N2_24  and  C15_27 
REMARK    9  A    between atoms: C15_27  and  C17_29 
REMARK   10  A    between atoms: C17_29  and  O5_30 
REMARK   11  A    between atoms: C18_32  and  O6_33 
REMARK   12  A    between atoms: C19_35  and  O7_36 
ROOT
HETATM    1  C6  UNL     1       2.973  40.099  49.181  1.00  0.00     0.210 C 
HETATM    2  C7  UNL     1       3.828  41.089  48.421  1.00  0.00     0.288 C 
HETATM    3  O4  UNL     1       4.564  41.901  49.282  1.00  0.00    -0.350 OA
HETATM    4  C8  UNL     1       3.695  42.675  50.093  1.00  0.00     0.162 C 
HETATM    5  C18 UNL     1       3.157  41.636  51.089  1.00  0.00     0.179 C 
HETATM    6  C19 UNL     1       2.201  40.757  50.294  1.00  0.00     0.183 C 
ENDROOT
BRANCH   1   7
HETATM    7  O2  UNL     1       3.818  39.158  49.759  1.00  0.00    -0.348 OA
BRANCH   7   8
HETATM    8  C5  UNL     1       4.536  38.436  48.797  1.00  0.00     0.263 C 
HETATM    9  C4  UNL     1       4.294  36.995  49.029  1.00  0.00     0.096 C 
HETATM   10  C3  UNL     1       5.436  36.084  48.723  1.00  0.00     0.219 C 
HETATM   11  C2  UNL     1       6.789  36.712  48.882  1.00  0.00     0.179 C 
HETATM   12  C20 UNL     1       6.721  38.059  48.148  1.00  0.00     0.151 C 
HETATM   13  O8  UNL     1       5.855  38.841  48.909  1.00  0.00    -0.354 OA
HETATM   14  C21 UNL     1       8.100  38.677  48.263  1.00  0.00     0.042 C 
BRANCH  10  15
HETATM   15  N1  UNL     1       5.387  34.927  49.605  1.00  0.00    -0.072 N 
ATOM     16  H13 UNL     1       4.549  34.360  49.470  1.00  0.00     0.274 HD
ATOM     17  H12 UNL     1       6.072  34.211  49.361  1.00  0.00     0.274 HD
ATOM     18  H11 UNL     1       5.488  35.266  50.561  1.00  0.00     0.274 HD
ENDBRANCH  10  15
BRANCH  11  19
HETATM   19  O1  UNL     1       7.004  37.034  50.220  1.00  0.00    -0.386 OA
HETATM   20  C1  UNL     1       8.076  36.346  50.754  1.00  0.00     0.202 C 
ENDBRANCH  11  19
ENDBRANCH   7   8
ENDBRANCH   1   7
BRANCH   2  21
HETATM   21  O3  UNL     1       3.084  41.824  47.504  1.00  0.00    -0.369 OA
ATOM     22  H3  UNL     1       3.614  42.468  47.050  1.00  0.00     0.212 HD
ENDBRANCH   2  21
BRANCH   6  23
HETATM   23  O7  UNL     1       1.233  41.578  49.737  1.00  0.00    -0.390 OA
ATOM     24  H7  UNL     1       1.661  42.209  49.170  1.00  0.00     0.210 HD
ENDBRANCH   6  23
BRANCH   5  25
HETATM   25  O6  UNL     1       4.208  40.882  51.610  1.00  0.00    -0.390 OA
ATOM     26  H6  UNL     1       4.009  39.956  51.544  1.00  0.00     0.210 HD
ENDBRANCH   5  25
BRANCH   4  27
HETATM   27  C9  UNL     1       4.553  43.636  50.839  1.00  0.00     0.048 C 
HETATM   28  C10 UNL     1       3.761  44.042  52.124  1.00  0.00     0.009 C 
HETATM   29  C11 UNL     1       4.492  45.229  52.679  1.00  0.00     0.001 C 
HETATM   30  C12 UNL     1       5.786  45.549  52.020  1.00  0.00     0.002 C 
HETATM   31  C13 UNL     1       6.671  44.367  51.724  1.00  0.00     0.033 C 
HETATM   32  C14 UNL     1       5.839  43.125  51.386  1.00  0.00     0.193 C 
BRANCH  32  33
HETATM   33  N2  UNL     1       6.561  42.190  50.602  1.00  0.00    -0.065 N 
ATOM     34  H22 UNL     1       5.965  41.407  50.336  1.00  0.00     0.278 HD
ATOM     35  H21 UNL     1       6.763  42.574  49.680  1.00  0.00     0.278 HD
BRANCH  33  36
HETATM   36  C15 UNL     1       7.768  41.717  51.229  1.00  0.00     0.205 C 
HETATM   37  C16 UNL     1       7.640  40.261  51.654  1.00  0.00     0.042 C 
BRANCH  36  38
HETATM   38  C17 UNL     1       8.882  41.774  50.186  1.00  0.00     0.196 C 
BRANCH  38  39
HETATM   39  O5  UNL     1       9.686  42.913  50.390  1.00  0.00    -0.399 OA
ATOM     40  H5  UNL     1       9.160  43.634  50.714  1.00  0.00     0.209 HD
ENDBRANCH  38  39
ENDBRANCH  36  38
ENDBRANCH  33  36
ENDBRANCH  32  33
ENDBRANCH   4  27
TORSDOF 12
ENDMDL
