MODEL 1
REMARK VINA RESULT: -8.966296248      0.000      0.000
REMARK  10 active torsions:
REMARK  status: ('A' for Active; 'I' for Inactive)
REMARK    1  A    between atoms: C4_4  and  C5_5 
REMARK    2  A    between atoms: C5_5  and  C6_6 
REMARK    3  A    between atoms: C6_6  and  C7_7 
REMARK    4  A    between atoms: C7_7  and  C8_8 
REMARK    5  A    between atoms: C8_8  and  C9_9 
REMARK    6  A    between atoms: C9_9  and  C10_10 
REMARK    7  A    between atoms: C10_10  and  C11_11 
REMARK    8  A    between atoms: N1_14  and  C14_15 
REMARK    9  A    between atoms: C22_27  and  C23_28 
REMARK   10  A    between atoms: C23_28  and  C24_29 
ROOT
HETATM    1  C11 UNL     1     -19.948 -32.906  18.018  1.00  0.00     0.086 C 
HETATM    2  C12 UNL     1     -19.902 -34.384  18.337  1.00  0.00     0.045 C 
HETATM    3  C13 UNL     1     -20.713 -35.237  17.417  1.00  0.00     0.128 C 
HETATM    4  N1  UNL     1     -20.262 -36.623  17.545  1.00  0.00    -0.348 N 
HETATM    5  C17 UNL     1     -20.519 -37.336  18.723  1.00  0.00     0.220 C 
HETATM    6  O1  UNL     1     -19.669 -38.223  19.060  1.00  0.00    -0.273 OA
HETATM    7  C18 UNL     1     -21.698 -37.139  19.605  1.00  0.00     0.103 C 
HETATM    8  C19 UNL     1     -21.360 -36.893  21.034  1.00  0.00     0.018 C 
HETATM    9  C20 UNL     1     -21.973 -35.633  21.602  1.00  0.00     0.103 C 
HETATM   10  C21 UNL     1     -23.093 -35.125  20.810  1.00  0.00     0.218 C 
HETATM   11  O2  UNL     1     -24.143 -35.840  20.792  1.00  0.00    -0.274 OA
HETATM   12  N2  UNL     1     -23.140 -33.929  20.064  1.00  0.00    -0.348 N 
ATOM     13  H2  UNL     1     -23.792 -33.898  19.280  1.00  0.00     0.163 HD
HETATM   14  C22 UNL     1     -22.357 -32.755  20.307  1.00  0.00     0.177 C 
HETATM   15  C27 UNL     1     -22.077 -31.961  19.077  1.00  0.00     0.240 C 
HETATM   16  O3  UNL     1     -22.632 -30.822  18.991  1.00  0.00    -0.271 OA
HETATM   17  N3  UNL     1     -21.261 -32.352  18.009  1.00  0.00    -0.355 N 
ATOM     18  H3  UNL     1     -21.668 -32.221  17.083  1.00  0.00     0.162 HD
ENDROOT
BRANCH   1  19
HETATM   19  C10 UNL     1     -18.964 -32.251  18.957  1.00  0.00     0.025 C 
BRANCH  19  20
HETATM   20  C9  UNL     1     -18.743 -33.048  20.206  1.00  0.00     0.002 C 
BRANCH  20  21
HETATM   21  C8  UNL     1     -17.799 -32.277  21.136  1.00  0.00     0.000 C 
BRANCH  21  22
HETATM   22  C7  UNL     1     -16.396 -32.344  20.589  1.00  0.00     0.000 C 
BRANCH  22  23
HETATM   23  C6  UNL     1     -15.671 -33.584  20.990  1.00  0.00     0.006 C 
BRANCH  23  24
HETATM   24  C5  UNL     1     -14.735 -33.403  22.158  1.00  0.00     0.057 C 
BRANCH  24  25
HETATM   25  C4  UNL     1     -15.193 -34.120  23.361  1.00  0.00     0.011 A 
HETATM   26  C3  UNL     1     -14.719 -33.778  24.541  1.00  0.00     0.036 A 
HETATM   27  C2  UNL     1     -15.142 -34.459  25.778  1.00  0.00    -0.035 A 
HETATM   28  C1  UNL     1     -14.631 -34.071  26.940  1.00  0.00     0.024 C 
HETATM   29  C29 UNL     1     -16.112 -35.545  25.705  1.00  0.00    -0.018 A 
HETATM   30  C28 UNL     1     -16.574 -35.871  24.499  1.00  0.00     0.086 A 
HETATM   31  C30 UNL     1     -16.557 -36.254  26.945  1.00  0.00     0.052 C 
HETATM   32  N4  UNL     1     -16.137 -35.183  23.319  1.00  0.00    -0.353 N 
HETATM   33 BR1  UNL     1     -17.837 -37.277  24.351  1.00  0.00    -0.031 Br
ATOM     34  H4  UNL     1     -16.517 -35.466  22.416  1.00  0.00     0.166 HD
ENDBRANCH  24  25
ENDBRANCH  23  24
ENDBRANCH  22  23
ENDBRANCH  21  22
ENDBRANCH  20  21
ENDBRANCH  19  20
ENDBRANCH   1  19
BRANCH   4  35
HETATM   35  C14 UNL     1     -19.550 -37.199  16.404  1.00  0.00     0.079 C 
HETATM   36  C15 UNL     1     -20.391 -38.315  15.826  1.00  0.00     0.032 C 
HETATM   37  C16 UNL     1     -19.297 -36.122  15.346  1.00  0.00     0.032 C 
ENDBRANCH   4  35
BRANCH  14  38
HETATM   38  C23 UNL     1     -22.958 -31.986  21.432  1.00  0.00     0.038 C 
BRANCH  38  39
HETATM   39  C24 UNL     1     -22.096 -31.389  22.462  1.00  0.00    -0.020 C 
HETATM   40  C25 UNL     1     -20.988 -30.493  22.030  1.00  0.00     0.009 C 
HETATM   41  C26 UNL     1     -22.941 -30.533  23.451  1.00  0.00     0.009 C 
ENDBRANCH  38  39
ENDBRANCH  14  38
TORSDOF 10
ENDMDL
MODEL 2
REMARK VINA RESULT: -8.725020399      3.830      7.784
REMARK  10 active torsions:
REMARK  status: ('A' for Active; 'I' for Inactive)
REMARK    1  A    between atoms: C4_4  and  C5_5 
REMARK    2  A    between atoms: C5_5  and  C6_6 
REMARK    3  A    between atoms: C6_6  and  C7_7 
REMARK    4  A    between atoms: C7_7  and  C8_8 
REMARK    5  A    between atoms: C8_8  and  C9_9 
REMARK    6  A    between atoms: C9_9  and  C10_10 
REMARK    7  A    between atoms: C10_10  and  C11_11 
REMARK    8  A    between atoms: N1_14  and  C14_15 
REMARK    9  A    between atoms: C22_27  and  C23_28 
REMARK   10  A    between atoms: C23_28  and  C24_29 
ROOT
HETATM    1  C11 UNL     1     -17.609 -36.728  22.708  1.00  0.00     0.086 C 
HETATM    2  C12 UNL     1     -16.584 -37.668  22.114  1.00  0.00     0.045 C 
HETATM    3  C13 UNL     1     -16.897 -39.116  22.301  1.00  0.00     0.128 C 
HETATM    4  N1  UNL     1     -16.103 -39.894  21.350  1.00  0.00    -0.348 N 
HETATM    5  C17 UNL     1     -14.714 -39.988  21.511  1.00  0.00     0.220 C 
HETATM    6  O1  UNL     1     -14.016 -40.109  20.452  1.00  0.00    -0.273 OA
HETATM    7  C18 UNL     1     -13.998 -39.960  22.812  1.00  0.00     0.103 C 
HETATM    8  C19 UNL     1     -12.915 -38.942  22.892  1.00  0.00     0.018 C 
HETATM    9  C20 UNL     1     -13.038 -38.004  24.070  1.00  0.00     0.103 C 
HETATM   10  C21 UNL     1     -13.920 -38.508  25.123  1.00  0.00     0.218 C 
HETATM   11  O2  UNL     1     -13.518 -39.534  25.755  1.00  0.00    -0.274 OA
HETATM   12  N2  UNL     1     -15.169 -37.983  25.517  1.00  0.00    -0.348 N 
ATOM     13  H2  UNL     1     -15.825 -38.629  25.955  1.00  0.00     0.163 HD
HETATM   14  C22 UNL     1     -15.600 -36.627  25.356  1.00  0.00     0.177 C 
HETATM   15  C27 UNL     1     -17.076 -36.485  25.197  1.00  0.00     0.240 C 
HETATM   16  O3  UNL     1     -17.702 -35.922  26.147  1.00  0.00    -0.271 OA
HETATM   17  N3  UNL     1     -17.834 -36.914  24.102  1.00  0.00    -0.355 N 
ATOM     18  H3  UNL     1     -18.674 -37.440  24.337  1.00  0.00     0.162 HD
ENDROOT
BRANCH   1  19
HETATM   19  C10 UNL     1     -17.187 -35.341  22.288  1.00  0.00     0.025 C 
BRANCH  19  20
HETATM   20  C9  UNL     1     -15.723 -35.252  21.984  1.00  0.00     0.002 C 
BRANCH  20  21
HETATM   21  C8  UNL     1     -15.249 -33.811  22.201  1.00  0.00     0.000 C 
BRANCH  21  22
HETATM   22  C7  UNL     1     -14.895 -33.196  20.871  1.00  0.00     0.000 C 
BRANCH  22  23
HETATM   23  C6  UNL     1     -16.053 -32.529  20.208  1.00  0.00     0.006 C 
BRANCH  23  24
HETATM   24  C5  UNL     1     -16.961 -31.782  21.152  1.00  0.00     0.057 C 
BRANCH  24  25
HETATM   25  C4  UNL     1     -18.385 -32.054  20.894  1.00  0.00     0.011 A 
HETATM   26  C3  UNL     1     -18.723 -32.972  20.012  1.00  0.00     0.036 A 
HETATM   27  C2  UNL     1     -20.132 -33.285  19.714  1.00  0.00    -0.035 A 
HETATM   28  C1  UNL     1     -20.412 -34.222  18.816  1.00  0.00     0.024 C 
HETATM   29  C29 UNL     1     -21.191 -32.564  20.408  1.00  0.00    -0.018 A 
HETATM   30  C28 UNL     1     -20.822 -31.641  21.294  1.00  0.00     0.086 A 
HETATM   31  C30 UNL     1     -22.630 -32.863  20.124  1.00  0.00     0.052 C 
HETATM   32  N4  UNL     1     -19.439 -31.365  21.556  1.00  0.00    -0.353 N 
HETATM   33 BR1  UNL     1     -22.163 -30.675  22.224  1.00  0.00    -0.031 Br
ATOM     34  H4  UNL     1     -19.203 -30.649  22.242  1.00  0.00     0.166 HD
ENDBRANCH  24  25
ENDBRANCH  23  24
ENDBRANCH  22  23
ENDBRANCH  21  22
ENDBRANCH  20  21
ENDBRANCH  19  20
ENDBRANCH   1  19
BRANCH   4  35
HETATM   35  C14 UNL     1     -16.824 -40.544  20.255  1.00  0.00     0.079 C 
HETATM   36  C15 UNL     1     -16.962 -42.015  20.577  1.00  0.00     0.032 C 
HETATM   37  C16 UNL     1     -18.205 -39.906  20.085  1.00  0.00     0.032 C 
ENDBRANCH   4  35
BRANCH  14  38
HETATM   38  C23 UNL     1     -14.996 -35.788  26.428  1.00  0.00     0.038 C 
BRANCH  38  39
HETATM   39  C24 UNL     1     -14.567 -34.413  26.137  1.00  0.00    -0.020 C 
HETATM   40  C25 UNL     1     -14.292 -33.497  27.278  1.00  0.00     0.009 C 
HETATM   41  C26 UNL     1     -13.253 -34.417  25.300  1.00  0.00     0.009 C 
ENDBRANCH  38  39
ENDBRANCH  14  38
TORSDOF 10
ENDMDL
MODEL 3
REMARK VINA RESULT: -8.529302710      3.383      8.108
REMARK  10 active torsions:
REMARK  status: ('A' for Active; 'I' for Inactive)
REMARK    1  A    between atoms: C4_4  and  C5_5 
REMARK    2  A    between atoms: C5_5  and  C6_6 
REMARK    3  A    between atoms: C6_6  and  C7_7 
REMARK    4  A    between atoms: C7_7  and  C8_8 
REMARK    5  A    between atoms: C8_8  and  C9_9 
REMARK    6  A    between atoms: C9_9  and  C10_10 
REMARK    7  A    between atoms: C10_10  and  C11_11 
REMARK    8  A    between atoms: N1_14  and  C14_15 
REMARK    9  A    between atoms: C22_27  and  C23_28 
REMARK   10  A    between atoms: C23_28  and  C24_29 
ROOT
HETATM    1  C11 UNL     1     -19.821 -35.816  21.768  1.00  0.00     0.086 C 
HETATM    2  C12 UNL     1     -18.343 -35.762  22.084  1.00  0.00     0.045 C 
HETATM    3  C13 UNL     1     -18.024 -35.226  23.441  1.00  0.00     0.128 C 
HETATM    4  N1  UNL     1     -16.657 -35.614  23.788  1.00  0.00    -0.348 N 
HETATM    5  C17 UNL     1     -15.573 -35.040  23.109  1.00  0.00     0.220 C 
HETATM    6  O1  UNL     1     -14.531 -35.759  22.969  1.00  0.00    -0.273 OA
HETATM    7  C18 UNL     1     -15.547 -33.667  22.544  1.00  0.00     0.103 C 
HETATM    8  C19 UNL     1     -15.169 -33.604  21.105  1.00  0.00     0.018 C 
HETATM    9  C20 UNL     1     -16.166 -32.870  20.239  1.00  0.00     0.103 C 
HETATM   10  C21 UNL     1     -17.074 -32.012  21.000  1.00  0.00     0.218 C 
HETATM   11  O2  UNL     1     -16.555 -31.001  21.568  1.00  0.00    -0.274 OA
HETATM   12  N2  UNL     1     -18.464 -32.179  21.176  1.00  0.00    -0.348 N 
ATOM     13  H2  UNL     1     -18.878 -31.767  22.012  1.00  0.00     0.163 HD
HETATM   14  C22 UNL     1     -19.346 -32.876  20.288  1.00  0.00     0.177 C 
HETATM   15  C27 UNL     1     -20.520 -33.487  20.973  1.00  0.00     0.240 C 
HETATM   16  O3  UNL     1     -21.658 -32.985  20.717  1.00  0.00    -0.271 OA
HETATM   17  N3  UNL     1     -20.486 -34.561  21.871  1.00  0.00    -0.355 N 
ATOM     18  H3  UNL     1     -21.018 -34.423  22.730  1.00  0.00     0.162 HD
ENDROOT
BRANCH   1  19
HETATM   19  C10 UNL     1     -19.932 -36.512  20.433  1.00  0.00     0.025 C 
BRANCH  19  20
HETATM   20  C9  UNL     1     -21.327 -36.971  20.138  1.00  0.00     0.002 C 
BRANCH  20  21
HETATM   21  C8  UNL     1     -21.772 -36.396  18.789  1.00  0.00     0.000 C 
BRANCH  21  22
HETATM   22  C7  UNL     1     -20.562 -35.918  18.026  1.00  0.00     0.000 C 
BRANCH  22  23
HETATM   23  C6  UNL     1     -20.318 -36.689  16.774  1.00  0.00     0.006 C 
BRANCH  23  24
HETATM   24  C5  UNL     1     -19.693 -35.886  15.663  1.00  0.00     0.057 C 
BRANCH  24  25
HETATM   25  C4  UNL     1     -18.553 -36.580  15.040  1.00  0.00     0.011 A 
HETATM   26  C3  UNL     1     -18.193 -37.766  15.484  1.00  0.00     0.036 A 
HETATM   27  C2  UNL     1     -17.060 -38.508  14.898  1.00  0.00    -0.035 A 
HETATM   28  C1  UNL     1     -16.745 -39.700  15.387  1.00  0.00     0.024 C 
HETATM   29  C29 UNL     1     -16.310 -37.920  13.796  1.00  0.00    -0.018 A 
HETATM   30  C28 UNL     1     -16.694 -36.719  13.368  1.00  0.00     0.086 A 
HETATM   31  C30 UNL     1     -15.156 -38.650  13.185  1.00  0.00     0.052 C 
HETATM   32  N4  UNL     1     -17.802 -36.030  13.964  1.00  0.00    -0.353 N 
HETATM   33 BR1  UNL     1     -15.750 -35.911  11.936  1.00  0.00    -0.031 Br
ATOM     34  H4  UNL     1     -18.061 -35.112  13.604  1.00  0.00     0.166 HD
ENDBRANCH  24  25
ENDBRANCH  23  24
ENDBRANCH  22  23
ENDBRANCH  21  22
ENDBRANCH  20  21
ENDBRANCH  19  20
ENDBRANCH   1  19
BRANCH   4  35
HETATM   35  C14 UNL     1     -16.495 -36.606  24.851  1.00  0.00     0.079 C 
HETATM   36  C15 UNL     1     -16.155 -35.883  26.135  1.00  0.00     0.032 C 
HETATM   37  C16 UNL     1     -17.787 -37.408  25.020  1.00  0.00     0.032 C 
ENDBRANCH   4  35
BRANCH  14  38
HETATM   38  C23 UNL     1     -19.676 -31.997  19.132  1.00  0.00     0.038 C 
BRANCH  38  39
HETATM   39  C24 UNL     1     -19.688 -32.545  17.768  1.00  0.00    -0.020 C 
HETATM   40  C25 UNL     1     -20.901 -32.338  16.930  1.00  0.00     0.009 C 
HETATM   41  C26 UNL     1     -18.517 -31.949  16.931  1.00  0.00     0.009 C 
ENDBRANCH  38  39
ENDBRANCH  14  38
TORSDOF 10
ENDMDL
MODEL 4
REMARK VINA RESULT: -8.496058381      2.163      4.278
REMARK  10 active torsions:
REMARK  status: ('A' for Active; 'I' for Inactive)
REMARK    1  A    between atoms: C4_4  and  C5_5 
REMARK    2  A    between atoms: C5_5  and  C6_6 
REMARK    3  A    between atoms: C6_6  and  C7_7 
REMARK    4  A    between atoms: C7_7  and  C8_8 
REMARK    5  A    between atoms: C8_8  and  C9_9 
REMARK    6  A    between atoms: C9_9  and  C10_10 
REMARK    7  A    between atoms: C10_10  and  C11_11 
REMARK    8  A    between atoms: N1_14  and  C14_15 
REMARK    9  A    between atoms: C22_27  and  C23_28 
REMARK   10  A    between atoms: C23_28  and  C24_29 
ROOT
HETATM    1  C11 UNL     1     -20.613 -33.616  18.539  1.00  0.00     0.086 C 
HETATM    2  C12 UNL     1     -19.808 -33.908  17.292  1.00  0.00     0.045 C 
HETATM    3  C13 UNL     1     -20.560 -33.717  16.016  1.00  0.00     0.128 C 
HETATM    4  N1  UNL     1     -19.598 -33.606  14.918  1.00  0.00    -0.348 N 
HETATM    5  C17 UNL     1     -18.857 -34.727  14.523  1.00  0.00     0.220 C 
HETATM    6  O1  UNL     1     -17.690 -34.515  14.058  1.00  0.00    -0.273 OA
HETATM    7  C18 UNL     1     -19.323 -36.135  14.604  1.00  0.00     0.103 C 
HETATM    8  C19 UNL     1     -18.396 -37.047  15.330  1.00  0.00     0.018 C 
HETATM    9  C20 UNL     1     -19.046 -37.811  16.460  1.00  0.00     0.103 C 
HETATM   10  C21 UNL     1     -20.506 -37.847  16.372  1.00  0.00     0.218 C 
HETATM   11  O2  UNL     1     -20.999 -38.507  15.405  1.00  0.00    -0.274 OA
HETATM   12  N2  UNL     1     -21.431 -37.231  17.240  1.00  0.00    -0.348 N 
ATOM     13  H2  UNL     1     -22.349 -37.007  16.856  1.00  0.00     0.163 HD
HETATM   14  C22 UNL     1     -21.198 -36.890  18.612  1.00  0.00     0.177 C 
HETATM   15  C27 UNL     1     -21.983 -35.709  19.073  1.00  0.00     0.240 C 
HETATM   16  O3  UNL     1     -22.899 -35.928  19.926  1.00  0.00    -0.271 OA
HETATM   17  N3  UNL     1     -21.806 -34.385  18.656  1.00  0.00    -0.355 N 
ATOM     18  H3  UNL     1     -22.662 -33.896  18.395  1.00  0.00     0.162 HD
ENDROOT
BRANCH   1  19
HETATM   19  C10 UNL     1     -19.644 -33.726  19.690  1.00  0.00     0.025 C 
BRANCH  19  20
HETATM   20  C9  UNL     1     -18.656 -32.601  19.721  1.00  0.00     0.002 C 
BRANCH  20  21
HETATM   21  C8  UNL     1     -17.740 -32.766  20.939  1.00  0.00     0.000 C 
BRANCH  21  22
HETATM   22  C7  UNL     1     -16.304 -32.604  20.508  1.00  0.00     0.000 C 
BRANCH  22  23
HETATM   23  C6  UNL     1     -15.421 -33.703  20.995  1.00  0.00     0.006 C 
BRANCH  23  24
HETATM   24  C5  UNL     1     -14.641 -33.367  22.240  1.00  0.00     0.057 C 
BRANCH  24  25
HETATM   25  C4  UNL     1     -15.122 -34.104  23.421  1.00  0.00     0.011 A 
HETATM   26  C3  UNL     1     -14.668 -33.788  24.615  1.00  0.00     0.036 A 
HETATM   27  C2  UNL     1     -15.114 -34.492  25.831  1.00  0.00    -0.035 A 
HETATM   28  C1  UNL     1     -14.621 -34.128  27.009  1.00  0.00     0.024 C 
HETATM   29  C29 UNL     1     -16.087 -35.571  25.721  1.00  0.00    -0.018 A 
HETATM   30  C28 UNL     1     -16.531 -35.870  24.501  1.00  0.00     0.086 A 
HETATM   31  C30 UNL     1     -16.557 -36.301  26.939  1.00  0.00     0.052 C 
HETATM   32  N4  UNL     1     -16.071 -35.162  23.342  1.00  0.00    -0.353 N 
HETATM   33 BR1  UNL     1     -17.798 -37.267  24.304  1.00  0.00    -0.031 Br
ATOM     34  H4  UNL     1     -16.437 -35.426  22.428  1.00  0.00     0.166 HD
ENDBRANCH  24  25
ENDBRANCH  23  24
ENDBRANCH  22  23
ENDBRANCH  21  22
ENDBRANCH  20  21
ENDBRANCH  19  20
ENDBRANCH   1  19
BRANCH   4  35
HETATM   35  C14 UNL     1     -19.463 -32.296  14.281  1.00  0.00     0.079 C 
HETATM   36  C15 UNL     1     -20.802 -31.903  13.700  1.00  0.00     0.032 C 
HETATM   37  C16 UNL     1     -19.004 -31.259  15.308  1.00  0.00     0.032 C 
ENDBRANCH   4  35
BRANCH  14  38
HETATM   38  C23 UNL     1     -21.338 -38.110  19.453  1.00  0.00     0.038 C 
BRANCH  38  39
HETATM   39  C24 UNL     1     -20.415 -38.345  20.573  1.00  0.00    -0.020 C 
HETATM   40  C25 UNL     1     -19.391 -37.308  20.879  1.00  0.00     0.009 C 
HETATM   41  C26 UNL     1     -21.206 -38.531  21.901  1.00  0.00     0.009 C 
ENDBRANCH  38  39
ENDBRANCH  14  38
TORSDOF 10
ENDMDL
MODEL 5
REMARK VINA RESULT: -8.433888285      2.513      5.433
REMARK  10 active torsions:
REMARK  status: ('A' for Active; 'I' for Inactive)
REMARK    1  A    between atoms: C4_4  and  C5_5 
REMARK    2  A    between atoms: C5_5  and  C6_6 
REMARK    3  A    between atoms: C6_6  and  C7_7 
REMARK    4  A    between atoms: C7_7  and  C8_8 
REMARK    5  A    between atoms: C8_8  and  C9_9 
REMARK    6  A    between atoms: C9_9  and  C10_10 
REMARK    7  A    between atoms: C10_10  and  C11_11 
REMARK    8  A    between atoms: N1_14  and  C14_15 
REMARK    9  A    between atoms: C22_27  and  C23_28 
REMARK   10  A    between atoms: C23_28  and  C24_29 
ROOT
HETATM    1  C11 UNL     1     -19.580 -36.452  21.709  1.00  0.00     0.086 C 
HETATM    2  C12 UNL     1     -18.877 -35.282  21.056  1.00  0.00     0.045 C 
HETATM    3  C13 UNL     1     -18.749 -34.077  21.929  1.00  0.00     0.128 C 
HETATM    4  N1  UNL     1     -17.713 -33.205  21.375  1.00  0.00    -0.348 N 
HETATM    5  C17 UNL     1     -17.939 -32.530  20.168  1.00  0.00     0.220 C 
HETATM    6  O1  UNL     1     -16.925 -32.305  19.431  1.00  0.00    -0.273 OA
HETATM    7  C18 UNL     1     -19.263 -32.059  19.685  1.00  0.00     0.103 C 
HETATM    8  C19 UNL     1     -19.614 -32.521  18.314  1.00  0.00     0.018 C 
HETATM    9  C20 UNL     1     -20.946 -33.229  18.226  1.00  0.00     0.103 C 
HETATM   10  C21 UNL     1     -21.818 -32.968  19.372  1.00  0.00     0.218 C 
HETATM   11  O2  UNL     1     -22.256 -31.781  19.491  1.00  0.00    -0.274 OA
HETATM   12  N2  UNL     1     -22.229 -33.885  20.361  1.00  0.00    -0.348 N 
ATOM     13  H2  UNL     1     -22.487 -33.502  21.270  1.00  0.00     0.163 HD
HETATM   14  C22 UNL     1     -22.317 -35.307  20.205  1.00  0.00     0.177 C 
HETATM   15  C27 UNL     1     -22.097 -36.060  21.473  1.00  0.00     0.240 C 
HETATM   16  O3  UNL     1     -23.099 -36.671  21.958  1.00  0.00    -0.271 OA
HETATM   17  N3  UNL     1     -20.891 -36.155  22.178  1.00  0.00    -0.355 N 
ATOM     18  H3  UNL     1     -20.963 -35.986  23.181  1.00  0.00     0.162 HD
ENDROOT
BRANCH   1  19
HETATM   19  C10 UNL     1     -19.475 -37.595  20.728  1.00  0.00     0.025 C 
BRANCH  19  20
HETATM   20  C9  UNL     1     -19.175 -38.901  21.397  1.00  0.00     0.002 C 
BRANCH  20  21
HETATM   21  C8  UNL     1     -17.885 -39.484  20.811  1.00  0.00     0.000 C 
BRANCH  21  22
HETATM   22  C7  UNL     1     -16.818 -39.505  21.877  1.00  0.00     0.000 C 
BRANCH  22  23
HETATM   23  C6  UNL     1     -16.461 -38.145  22.375  1.00  0.00     0.006 C 
BRANCH  23  24
HETATM   24  C5  UNL     1     -15.011 -37.985  22.752  1.00  0.00     0.057 C 
BRANCH  24  25
HETATM   25  C4  UNL     1     -14.817 -37.003  23.832  1.00  0.00     0.011 A 
HETATM   26  C3  UNL     1     -15.663 -36.969  24.840  1.00  0.00     0.036 A 
HETATM   27  C2  UNL     1     -15.518 -36.008  25.949  1.00  0.00    -0.035 A 
HETATM   28  C1  UNL     1     -16.402 -36.021  26.938  1.00  0.00     0.024 C 
HETATM   29  C29 UNL     1     -14.409 -35.062  25.940  1.00  0.00    -0.018 A 
HETATM   30  C28 UNL     1     -13.568 -35.118  24.909  1.00  0.00     0.086 A 
HETATM   31  C30 UNL     1     -14.238 -34.077  27.052  1.00  0.00     0.052 C 
HETATM   32  N4  UNL     1     -13.744 -36.068  23.849  1.00  0.00    -0.353 N 
HETATM   33 BR1  UNL     1     -12.108 -33.909  24.850  1.00  0.00    -0.031 Br
ATOM     34  H4  UNL     1     -13.076 -36.074  23.079  1.00  0.00     0.166 HD
ENDBRANCH  24  25
ENDBRANCH  23  24
ENDBRANCH  22  23
ENDBRANCH  21  22
ENDBRANCH  20  21
ENDBRANCH  19  20
ENDBRANCH   1  19
BRANCH   4  35
HETATM   35  C14 UNL     1     -16.467 -33.087  22.132  1.00  0.00     0.079 C 
HETATM   36  C15 UNL     1     -16.687 -33.660  23.514  1.00  0.00     0.032 C 
HETATM   37  C16 UNL     1     -15.345 -33.843  21.416  1.00  0.00     0.032 C 
ENDBRANCH   4  35
BRANCH  14  38
HETATM   38  C23 UNL     1     -23.571 -35.646  19.479  1.00  0.00     0.038 C 
BRANCH  38  39
HETATM   39  C24 UNL     1     -23.613 -36.808  18.580  1.00  0.00    -0.020 C 
HETATM   40  C25 UNL     1     -22.368 -37.602  18.386  1.00  0.00     0.009 C 
HETATM   41  C26 UNL     1     -24.673 -37.838  19.069  1.00  0.00     0.009 C 
ENDBRANCH  38  39
ENDBRANCH  14  38
TORSDOF 10
ENDMDL
