MODEL 1
REMARK VINA RESULT: -8.021797118      0.000      0.000
REMARK  19 active torsions:
REMARK  status: ('A' for Active; 'I' for Inactive)
REMARK    1  A    between atoms: C2_2  and  C3_3 
REMARK    2  A    between atoms: C2_2  and  C12_21 
REMARK    3  A    between atoms: C3_3  and  C4_4 
REMARK    4  A    between atoms: C4_4  and  C5_5 
REMARK    5  A    between atoms: C5_5  and  C6_6 
REMARK    6  A    between atoms: C5_5  and  N2_18 
REMARK    7  A    between atoms: C6_6  and  O1_7 
REMARK    8  A    between atoms: C6_6  and  C7_9 
REMARK    9  A    between atoms: C7_9  and  C8_10 
REMARK   10  A    between atoms: C8_10  and  N1_11 
REMARK   11  A    between atoms: C8_10  and  C9_15 
REMARK   12  A    between atoms: C22_32  and  C24_34 
REMARK       I    between atoms: C24_34  and  N3_36 
REMARK   13  A    between atoms: N3_36  and  C25_38 
REMARK   14  A    between atoms: C25_38  and  C26_39 
REMARK   15  A    between atoms: C26_39  and  C27_40 
REMARK   16  A    between atoms: C27_40  and  C28_41 
REMARK   17  A    between atoms: C28_41  and  C29_42 
REMARK   18  A    between atoms: C29_42  and  N4_43 
REMARK   19  A    between atoms: C32_49  and  O6_50 
ROOT
HETATM    1  C12 UNL     1      13.556  22.771   4.917  1.00  0.00     0.001 C 
HETATM    2  C13 UNL     1      14.981  22.199   5.028  1.00  0.00     0.011 C 
HETATM    3  C14 UNL     1      14.418  21.149   5.902  1.00  0.00     0.001 C 
HETATM    4  C15 UNL     1      15.217  20.588   6.991  1.00  0.00    -0.005 C 
HETATM    5  C16 UNL     1      16.696  20.656   6.575  1.00  0.00     0.006 C 
HETATM    6  C17 UNL     1      17.360  19.652   7.521  1.00  0.00     0.007 C 
HETATM    7  C18 UNL     1      17.314  20.227   8.884  1.00  0.00     0.015 C 
HETATM    8  C19 UNL     1      16.087  20.883   9.331  1.00  0.00     0.003 C 
HETATM    9  C20 UNL     1      15.536  19.996  10.461  1.00  0.00     0.085 C 
HETATM   10  C21 UNL     1      16.303  18.741  10.370  1.00  0.00     0.145 C 
HETATM   11  O4  UNL     1      15.900  17.637  10.654  1.00  0.00    -0.297 OA
HETATM   12  C22 UNL     1      17.635  19.092   9.870  1.00  0.00     0.101 C 
HETATM   13  C23 UNL     1      18.283  17.918   9.153  1.00  0.00     0.034 C 
HETATM   14  C30 UNL     1      15.025  21.198   8.350  1.00  0.00    -0.003 C 
HETATM   15  C31 UNL     1      14.804  22.705   8.224  1.00  0.00     0.038 C 
HETATM   16  C32 UNL     1      13.651  23.054   7.363  1.00  0.00     0.127 C 
HETATM   17  C33 UNL     1      13.319  22.101   6.262  1.00  0.00    -0.010 C 
HETATM   18  C34 UNL     1      12.041  21.354   6.447  1.00  0.00     0.018 C 
ENDROOT
BRANCH   1  19
HETATM   19  C2  UNL     1      12.847  22.167   3.751  1.00  0.00    -0.010 C 
HETATM   20  C1  UNL     1      13.842  21.685   2.678  1.00  0.00     0.010 C 
BRANCH  19  21
HETATM   21  C3  UNL     1      11.961  23.165   3.001  1.00  0.00     0.034 C 
BRANCH  21  22
HETATM   22  C4  UNL     1      10.689  23.264   3.694  1.00  0.00     0.005 C 
BRANCH  22  23
HETATM   23  C5  UNL     1       9.991  24.192   4.227  1.00  0.00     0.055 C 
BRANCH  23  24
HETATM   24  C6  UNL     1      10.260  24.963   5.389  1.00  0.00     0.072 C 
BRANCH  24  25
HETATM   25  O1  UNL     1      11.452  25.505   5.413  1.00  0.00    -0.363 OA
ATOM     26  H1  UNL     1      11.616  26.054   6.171  1.00  0.00     0.217 HD
ENDBRANCH  24  25
BRANCH  24  27
HETATM   27  C7  UNL     1       9.471  25.275   6.568  1.00  0.00     0.110 C 
BRANCH  27  28
HETATM   28  C8  UNL     1      10.088  26.302   7.498  1.00  0.00     0.289 C 
BRANCH  28  29
HETATM   29  N1  UNL     1      10.873  25.719   8.532  1.00  0.00    -0.065 N 
ATOM     30  H13 UNL     1      11.358  26.438   9.069  1.00  0.00     0.275 HD
ATOM     31  H12 UNL     1      10.279  25.334   9.266  1.00  0.00     0.275 HD
ATOM     32  H11 UNL     1      11.527  25.017   8.188  1.00  0.00     0.275 HD
ENDBRANCH  28  29
BRANCH  28  33
HETATM   33  C9  UNL     1       9.014  27.129   8.094  1.00  0.00     0.204 C 
HETATM   34  O2  UNL     1       8.094  26.614   8.761  1.00  0.00    -0.646 OA
HETATM   35  O3  UNL     1       9.042  28.499   7.901  1.00  0.00    -0.646 OA
ENDBRANCH  28  33
ENDBRANCH  27  28
ENDBRANCH  24  27
ENDBRANCH  23  24
BRANCH  23  36
HETATM   36  N2  UNL     1       8.728  24.516   3.547  1.00  0.00    -0.388 N 
HETATM   37  C10 UNL     1       7.775  23.479   3.224  1.00  0.00     0.149 C 
HETATM   38  C11 UNL     1       8.398  25.873   3.180  1.00  0.00     0.149 C 
ENDBRANCH  23  36
ENDBRANCH  22  23
ENDBRANCH  21  22
ENDBRANCH  19  21
ENDBRANCH   1  19
BRANCH  16  39
HETATM   39  O6  UNL     1      13.878  24.360   6.867  1.00  0.00    -0.395 OA
ATOM     40  H6  UNL     1      13.248  24.511   6.172  1.00  0.00     0.210 HD
ENDBRANCH  16  39
BRANCH  12  41
HETATM   41  C24 UNL     1      18.565  19.537  10.904  1.00  0.00     0.233 C 
HETATM   42  O5  UNL     1      19.263  20.561  10.732  1.00  0.00    -0.272 OA
HETATM   43  N3  UNL     1      18.693  18.817  12.114  1.00  0.00    -0.360 N 
ATOM     44  H3  UNL     1      18.127  17.982  12.261  1.00  0.00     0.162 HD
BRANCH  43  45
HETATM   45  C25 UNL     1      19.618  19.248  13.156  1.00  0.00     0.122 C 
BRANCH  45  46
HETATM   46  C26 UNL     1      20.928  18.522  12.993  1.00  0.00     0.020 C 
BRANCH  46  47
HETATM   47  C27 UNL     1      22.033  19.298  13.604  1.00  0.00     0.003 C 
BRANCH  47  48
HETATM   48  C28 UNL     1      21.784  20.740  13.752  1.00  0.00     0.027 C 
BRANCH  48  49
HETATM   49  C29 UNL     1      21.910  21.229  15.152  1.00  0.00     0.229 C 
BRANCH  49  50
HETATM   50  N4  UNL     1      20.721  21.338  15.916  1.00  0.00    -0.079 N 
ATOM     51  H43 UNL     1      20.382  20.404  16.148  1.00  0.00     0.274 HD
ATOM     52  H42 UNL     1      20.947  21.696  16.844  1.00  0.00     0.274 HD
ATOM     53  H41 UNL     1      19.956  21.886  15.520  1.00  0.00     0.274 HD
ENDBRANCH  49  50
ENDBRANCH  48  49
ENDBRANCH  47  48
ENDBRANCH  46  47
ENDBRANCH  45  46
ENDBRANCH  43  45
ENDBRANCH  12  41
TORSDOF 19
ENDMDL
MODEL 2
REMARK VINA RESULT: -8.004219486      1.118      1.975
REMARK  19 active torsions:
REMARK  status: ('A' for Active; 'I' for Inactive)
REMARK    1  A    between atoms: C2_2  and  C3_3 
REMARK    2  A    between atoms: C2_2  and  C12_21 
REMARK    3  A    between atoms: C3_3  and  C4_4 
REMARK    4  A    between atoms: C4_4  and  C5_5 
REMARK    5  A    between atoms: C5_5  and  C6_6 
REMARK    6  A    between atoms: C5_5  and  N2_18 
REMARK    7  A    between atoms: C6_6  and  O1_7 
REMARK    8  A    between atoms: C6_6  and  C7_9 
REMARK    9  A    between atoms: C7_9  and  C8_10 
REMARK   10  A    between atoms: C8_10  and  N1_11 
REMARK   11  A    between atoms: C8_10  and  C9_15 
REMARK   12  A    between atoms: C22_32  and  C24_34 
REMARK       I    between atoms: C24_34  and  N3_36 
REMARK   13  A    between atoms: N3_36  and  C25_38 
REMARK   14  A    between atoms: C25_38  and  C26_39 
REMARK   15  A    between atoms: C26_39  and  C27_40 
REMARK   16  A    between atoms: C27_40  and  C28_41 
REMARK   17  A    between atoms: C28_41  and  C29_42 
REMARK   18  A    between atoms: C29_42  and  N4_43 
REMARK   19  A    between atoms: C32_49  and  O6_50 
ROOT
HETATM    1  C12 UNL     1      13.389  22.852   4.921  1.00  0.00     0.001 C 
HETATM    2  C13 UNL     1      14.819  22.288   5.004  1.00  0.00     0.011 C 
HETATM    3  C14 UNL     1      14.280  21.236   5.891  1.00  0.00     0.001 C 
HETATM    4  C15 UNL     1      15.105  20.682   6.964  1.00  0.00    -0.005 C 
HETATM    5  C16 UNL     1      16.575  20.759   6.518  1.00  0.00     0.006 C 
HETATM    6  C17 UNL     1      17.264  19.760   7.452  1.00  0.00     0.007 C 
HETATM    7  C18 UNL     1      17.242  20.336   8.814  1.00  0.00     0.015 C 
HETATM    8  C19 UNL     1      16.020  20.986   9.286  1.00  0.00     0.003 C 
HETATM    9  C20 UNL     1      15.498  20.097  10.427  1.00  0.00     0.085 C 
HETATM   10  C21 UNL     1      16.270  18.846  10.323  1.00  0.00     0.145 C 
HETATM   11  O4  UNL     1      15.880  17.740  10.616  1.00  0.00    -0.297 OA
HETATM   12  C22 UNL     1      17.590  19.205   9.795  1.00  0.00     0.101 C 
HETATM   13  C23 UNL     1      18.231  18.034   9.067  1.00  0.00     0.034 C 
HETATM   14  C30 UNL     1      14.936  21.292   8.326  1.00  0.00    -0.003 C 
HETATM   15  C31 UNL     1      14.703  22.798   8.203  1.00  0.00     0.038 C 
HETATM   16  C32 UNL     1      13.532  23.138   7.364  1.00  0.00     0.127 C 
HETATM   17  C33 UNL     1      13.183  22.182   6.271  1.00  0.00    -0.010 C 
HETATM   18  C34 UNL     1      11.914  21.427   6.484  1.00  0.00     0.018 C 
ENDROOT
BRANCH   1  19
HETATM   19  C2  UNL     1      12.660  22.242   3.771  1.00  0.00    -0.010 C 
HETATM   20  C1  UNL     1      13.637  21.746   2.688  1.00  0.00     0.010 C 
BRANCH  19  21
HETATM   21  C3  UNL     1      11.769  23.237   3.025  1.00  0.00     0.034 C 
BRANCH  21  22
HETATM   22  C4  UNL     1      10.518  23.372   3.751  1.00  0.00     0.005 C 
BRANCH  22  23
HETATM   23  C5  UNL     1       9.879  24.313   4.333  1.00  0.00     0.055 C 
BRANCH  23  24
HETATM   24  C6  UNL     1      10.215  25.035   5.508  1.00  0.00     0.072 C 
BRANCH  24  25
HETATM   25  O1  UNL     1      11.416  25.558   5.495  1.00  0.00    -0.363 OA
ATOM     26  H1  UNL     1      12.105  24.961   5.764  1.00  0.00     0.217 HD
ENDBRANCH  24  25
BRANCH  24  27
HETATM   27  C7  UNL     1       9.489  25.315   6.735  1.00  0.00     0.110 C 
BRANCH  27  28
HETATM   28  C8  UNL     1      10.112  26.376   7.621  1.00  0.00     0.289 C 
BRANCH  28  29
HETATM   29  N1  UNL     1      10.829  25.832   8.723  1.00  0.00    -0.065 N 
ATOM     30  H13 UNL     1      10.771  24.813   8.728  1.00  0.00     0.275 HD
ATOM     31  H12 UNL     1      11.835  25.941   8.591  1.00  0.00     0.275 HD
ATOM     32  H11 UNL     1      10.536  26.218   9.620  1.00  0.00     0.275 HD
ENDBRANCH  28  29
BRANCH  28  33
HETATM   33  C9  UNL     1       9.052  27.283   8.116  1.00  0.00     0.204 C 
HETATM   34  O2  UNL     1       9.153  28.521   8.000  1.00  0.00    -0.646 OA
HETATM   35  O3  UNL     1       7.932  26.736   8.716  1.00  0.00    -0.646 OA
ENDBRANCH  28  33
ENDBRANCH  27  28
ENDBRANCH  24  27
ENDBRANCH  23  24
BRANCH  23  36
HETATM   36  N2  UNL     1       8.611  24.711   3.702  1.00  0.00    -0.388 N 
HETATM   37  C10 UNL     1       7.667  23.717   3.246  1.00  0.00     0.149 C 
HETATM   38  C11 UNL     1       8.269  26.102   3.518  1.00  0.00     0.149 C 
ENDBRANCH  23  36
ENDBRANCH  22  23
ENDBRANCH  21  22
ENDBRANCH  19  21
ENDBRANCH   1  19
BRANCH  16  39
HETATM   39  O6  UNL     1      13.741  24.445   6.862  1.00  0.00    -0.395 OA
ATOM     40  H6  UNL     1      14.678  24.565   6.770  1.00  0.00     0.210 HD
ENDBRANCH  16  39
BRANCH  12  41
HETATM   41  C24 UNL     1      18.538  19.657  10.810  1.00  0.00     0.233 C 
HETATM   42  O5  UNL     1      19.250  20.666  10.608  1.00  0.00    -0.272 OA
HETATM   43  N3  UNL     1      18.667  18.962  12.034  1.00  0.00    -0.360 N 
ATOM     44  H3  UNL     1      18.090  18.139  12.205  1.00  0.00     0.162 HD
BRANCH  43  45
HETATM   45  C25 UNL     1      19.610  19.400  13.057  1.00  0.00     0.122 C 
BRANCH  45  46
HETATM   46  C26 UNL     1      19.734  18.333  14.112  1.00  0.00     0.020 C 
BRANCH  46  47
HETATM   47  C27 UNL     1      19.283  17.023  13.584  1.00  0.00     0.003 C 
BRANCH  47  48
HETATM   48  C28 UNL     1      18.283  16.323  14.405  1.00  0.00     0.027 C 
BRANCH  48  49
HETATM   49  C29 UNL     1      17.200  15.680  13.612  1.00  0.00     0.229 C 
BRANCH  49  50
HETATM   50  N4  UNL     1      17.323  15.703  12.201  1.00  0.00    -0.079 N 
ATOM     51  H43 UNL     1      17.675  16.614  11.907  1.00  0.00     0.274 HD
ATOM     52  H42 UNL     1      18.095  15.099  11.919  1.00  0.00     0.274 HD
ATOM     53  H41 UNL     1      16.494  15.468  11.653  1.00  0.00     0.274 HD
ENDBRANCH  49  50
ENDBRANCH  48  49
ENDBRANCH  47  48
ENDBRANCH  46  47
ENDBRANCH  45  46
ENDBRANCH  43  45
ENDBRANCH  12  41
TORSDOF 19
ENDMDL
MODEL 3
REMARK VINA RESULT: -7.927188826      2.926     11.954
REMARK  19 active torsions:
REMARK  status: ('A' for Active; 'I' for Inactive)
REMARK    1  A    between atoms: C2_2  and  C3_3 
REMARK    2  A    between atoms: C2_2  and  C12_21 
REMARK    3  A    between atoms: C3_3  and  C4_4 
REMARK    4  A    between atoms: C4_4  and  C5_5 
REMARK    5  A    between atoms: C5_5  and  C6_6 
REMARK    6  A    between atoms: C5_5  and  N2_18 
REMARK    7  A    between atoms: C6_6  and  O1_7 
REMARK    8  A    between atoms: C6_6  and  C7_9 
REMARK    9  A    between atoms: C7_9  and  C8_10 
REMARK   10  A    between atoms: C8_10  and  N1_11 
REMARK   11  A    between atoms: C8_10  and  C9_15 
REMARK   12  A    between atoms: C22_32  and  C24_34 
REMARK       I    between atoms: C24_34  and  N3_36 
REMARK   13  A    between atoms: N3_36  and  C25_38 
REMARK   14  A    between atoms: C25_38  and  C26_39 
REMARK   15  A    between atoms: C26_39  and  C27_40 
REMARK   16  A    between atoms: C27_40  and  C28_41 
REMARK   17  A    between atoms: C28_41  and  C29_42 
REMARK   18  A    between atoms: C29_42  and  N4_43 
REMARK   19  A    between atoms: C32_49  and  O6_50 
ROOT
HETATM    1  C12 UNL     1      13.621  21.563   4.975  1.00  0.00     0.001 C 
HETATM    2  C13 UNL     1      12.418  21.363   4.035  1.00  0.00     0.011 C 
HETATM    3  C14 UNL     1      12.385  22.832   3.877  1.00  0.00     0.001 C 
HETATM    4  C15 UNL     1      11.111  23.523   3.677  1.00  0.00    -0.005 C 
HETATM    5  C16 UNL     1      10.159  22.560   2.949  1.00  0.00     0.006 C 
HETATM    6  C17 UNL     1       9.090  23.501   2.387  1.00  0.00     0.007 C 
HETATM    7  C18 UNL     1       8.312  24.025   3.532  1.00  0.00     0.015 C 
HETATM    8  C19 UNL     1       9.025  24.439   4.739  1.00  0.00     0.003 C 
HETATM    9  C20 UNL     1       8.827  25.961   4.829  1.00  0.00     0.085 C 
HETATM   10  C21 UNL     1       8.291  26.357   3.515  1.00  0.00     0.145 C 
HETATM   11  O4  UNL     1       8.477  27.413   2.957  1.00  0.00    -0.297 OA
HETATM   12  C22 UNL     1       7.500  25.226   3.021  1.00  0.00     0.101 C 
HETATM   13  C23 UNL     1       7.426  25.224   1.502  1.00  0.00     0.034 C 
HETATM   14  C30 UNL     1      10.453  24.087   4.903  1.00  0.00    -0.003 C 
HETATM   15  C31 UNL     1      10.669  23.153   6.094  1.00  0.00     0.038 C 
HETATM   16  C32 UNL     1      12.099  22.896   6.379  1.00  0.00     0.127 C 
HETATM   17  C33 UNL     1      13.038  22.946   5.219  1.00  0.00    -0.010 C 
HETATM   18  C34 UNL     1      13.980  24.103   5.228  1.00  0.00     0.018 C 
ENDROOT
BRANCH   1  19
HETATM   19  C2  UNL     1      14.895  21.518   4.199  1.00  0.00    -0.010 C 
HETATM   20  C1  UNL     1      14.705  20.792   2.852  1.00  0.00     0.010 C 
BRANCH  19  21
HETATM   21  C3  UNL     1      15.996  20.712   4.892  1.00  0.00     0.034 C 
BRANCH  21  22
HETATM   22  C4  UNL     1      15.731  20.701   6.320  1.00  0.00     0.005 C 
BRANCH  22  23
HETATM   23  C5  UNL     1      16.411  20.845   7.392  1.00  0.00     0.055 C 
BRANCH  23  24
HETATM   24  C6  UNL     1      17.645  20.247   7.760  1.00  0.00     0.072 C 
BRANCH  24  25
HETATM   25  O1  UNL     1      18.691  21.014   7.582  1.00  0.00    -0.363 OA
ATOM     26  H1  UNL     1      18.826  21.657   8.269  1.00  0.00     0.217 HD
ENDBRANCH  24  25
BRANCH  24  27
HETATM   27  C7  UNL     1      17.985  18.942   8.300  1.00  0.00     0.110 C 
BRANCH  27  28
HETATM   28  C8  UNL     1      17.971  18.850   9.814  1.00  0.00     0.289 C 
BRANCH  28  29
HETATM   29  N1  UNL     1      18.493  20.011  10.448  1.00  0.00    -0.065 N 
ATOM     30  H13 UNL     1      18.165  20.858   9.983  1.00  0.00     0.275 HD
ATOM     31  H12 UNL     1      18.065  20.148  11.364  1.00  0.00     0.275 HD
ATOM     32  H11 UNL     1      19.510  20.005  10.519  1.00  0.00     0.275 HD
ENDBRANCH  28  29
BRANCH  28  33
HETATM   33  C9  UNL     1      18.742  17.660  10.238  1.00  0.00     0.204 C 
HETATM   34  O2  UNL     1      18.221  16.527  10.270  1.00  0.00    -0.646 OA
HETATM   35  O3  UNL     1      20.067  17.820  10.605  1.00  0.00    -0.646 OA
ENDBRANCH  28  33
ENDBRANCH  27  28
ENDBRANCH  24  27
ENDBRANCH  23  24
BRANCH  23  36
HETATM   36  N2  UNL     1      15.842  21.759   8.393  1.00  0.00    -0.388 N 
HETATM   37  C10 UNL     1      15.134  21.248   9.545  1.00  0.00     0.149 C 
HETATM   38  C11 UNL     1      15.970  23.192   8.262  1.00  0.00     0.149 C 
ENDBRANCH  23  36
ENDBRANCH  22  23
ENDBRANCH  21  22
ENDBRANCH  19  21
ENDBRANCH   1  19
BRANCH  16  39
HETATM   39  O6  UNL     1      12.175  21.655   7.056  1.00  0.00    -0.395 OA
ATOM     40  H6  UNL     1      13.092  21.493   7.243  1.00  0.00     0.210 HD
ENDBRANCH  16  39
BRANCH  12  41
HETATM   41  C24 UNL     1       6.129  25.190   3.523  1.00  0.00     0.233 C 
HETATM   42  O5  UNL     1       5.631  26.192   4.082  1.00  0.00    -0.272 OA
HETATM   43  N3  UNL     1       5.343  24.022   3.385  1.00  0.00    -0.360 N 
ATOM     44  H3  UNL     1       5.743  23.201   2.930  1.00  0.00     0.162 HD
BRANCH  43  45
HETATM   45  C25 UNL     1       3.973  23.969   3.882  1.00  0.00     0.122 C 
BRANCH  45  46
HETATM   46  C26 UNL     1       3.270  22.780   3.283  1.00  0.00     0.020 C 
BRANCH  46  47
HETATM   47  C27 UNL     1       3.479  21.575   4.120  1.00  0.00     0.003 C 
BRANCH  47  48
HETATM   48  C28 UNL     1       2.835  20.347   3.630  1.00  0.00     0.027 C 
BRANCH  48  49
HETATM   49  C29 UNL     1       3.358  19.104   4.259  1.00  0.00     0.229 C 
BRANCH  49  50
HETATM   50  N4  UNL     1       4.200  19.248   5.389  1.00  0.00    -0.079 N 
ATOM     51  H43 UNL     1       5.095  18.795   5.203  1.00  0.00     0.274 HD
ATOM     52  H42 UNL     1       4.491  20.222   5.471  1.00  0.00     0.274 HD
ATOM     53  H41 UNL     1       3.840  18.927   6.288  1.00  0.00     0.274 HD
ENDBRANCH  49  50
ENDBRANCH  48  49
ENDBRANCH  47  48
ENDBRANCH  46  47
ENDBRANCH  45  46
ENDBRANCH  43  45
ENDBRANCH  12  41
TORSDOF 19
ENDMDL
MODEL 4
REMARK VINA RESULT: -7.752083308      2.805     11.411
REMARK  19 active torsions:
REMARK  status: ('A' for Active; 'I' for Inactive)
REMARK    1  A    between atoms: C2_2  and  C3_3 
REMARK    2  A    between atoms: C2_2  and  C12_21 
REMARK    3  A    between atoms: C3_3  and  C4_4 
REMARK    4  A    between atoms: C4_4  and  C5_5 
REMARK    5  A    between atoms: C5_5  and  C6_6 
REMARK    6  A    between atoms: C5_5  and  N2_18 
REMARK    7  A    between atoms: C6_6  and  O1_7 
REMARK    8  A    between atoms: C6_6  and  C7_9 
REMARK    9  A    between atoms: C7_9  and  C8_10 
REMARK   10  A    between atoms: C8_10  and  N1_11 
REMARK   11  A    between atoms: C8_10  and  C9_15 
REMARK   12  A    between atoms: C22_32  and  C24_34 
REMARK       I    between atoms: C24_34  and  N3_36 
REMARK   13  A    between atoms: N3_36  and  C25_38 
REMARK   14  A    between atoms: C25_38  and  C26_39 
REMARK   15  A    between atoms: C26_39  and  C27_40 
REMARK   16  A    between atoms: C27_40  and  C28_41 
REMARK   17  A    between atoms: C28_41  and  C29_42 
REMARK   18  A    between atoms: C29_42  and  N4_43 
REMARK   19  A    between atoms: C32_49  and  O6_50 
ROOT
HETATM    1  C12 UNL     1      13.662  21.578   4.974  1.00  0.00     0.001 C 
HETATM    2  C13 UNL     1      12.423  21.361   4.088  1.00  0.00     0.011 C 
HETATM    3  C14 UNL     1      12.395  22.825   3.887  1.00  0.00     0.001 C 
HETATM    4  C15 UNL     1      11.120  23.522   3.715  1.00  0.00    -0.005 C 
HETATM    5  C16 UNL     1      10.133  22.545   3.053  1.00  0.00     0.006 C 
HETATM    6  C17 UNL     1       9.051  23.479   2.504  1.00  0.00     0.007 C 
HETATM    7  C18 UNL     1       8.321  24.043   3.661  1.00  0.00     0.015 C 
HETATM    8  C19 UNL     1       9.083  24.486   4.827  1.00  0.00     0.003 C 
HETATM    9  C20 UNL     1       8.900  26.012   4.880  1.00  0.00     0.085 C 
HETATM   10  C21 UNL     1       8.318  26.374   3.575  1.00  0.00     0.145 C 
HETATM   11  O4  UNL     1       8.490  27.411   2.980  1.00  0.00    -0.297 OA
HETATM   12  C22 UNL     1       7.499  25.236   3.146  1.00  0.00     0.101 C 
HETATM   13  C23 UNL     1       7.368  25.190   1.632  1.00  0.00     0.034 C 
HETATM   14  C30 UNL     1      10.513  24.127   4.948  1.00  0.00    -0.003 C 
HETATM   15  C31 UNL     1      10.767  23.227   6.157  1.00  0.00     0.038 C 
HETATM   16  C32 UNL     1      12.205  22.966   6.395  1.00  0.00     0.127 C 
HETATM   17  C33 UNL     1      13.100  22.973   5.200  1.00  0.00    -0.010 C 
HETATM   18  C34 UNL     1      14.050  24.121   5.138  1.00  0.00     0.018 C 
ENDROOT
BRANCH   1  19
HETATM   19  C2  UNL     1      14.905  21.499   4.152  1.00  0.00    -0.010 C 
HETATM   20  C1  UNL     1      14.658  20.739   2.835  1.00  0.00     0.010 C 
BRANCH  19  21
HETATM   21  C3  UNL     1      16.025  20.701   4.825  1.00  0.00     0.034 C 
BRANCH  21  22
HETATM   22  C4  UNL     1      15.767  20.660   6.254  1.00  0.00     0.005 C 
BRANCH  22  23
HETATM   23  C5  UNL     1      16.447  20.811   7.325  1.00  0.00     0.055 C 
BRANCH  23  24
HETATM   24  C6  UNL     1      17.666  20.193   7.710  1.00  0.00     0.072 C 
BRANCH  24  25
HETATM   25  O1  UNL     1      18.735  20.910   7.466  1.00  0.00    -0.363 OA
ATOM     26  H1  UNL     1      19.341  20.513   6.851  1.00  0.00     0.217 HD
ENDBRANCH  24  25
BRANCH  24  27
HETATM   27  C7  UNL     1      17.972  18.914   8.326  1.00  0.00     0.110 C 
BRANCH  27  28
HETATM   28  C8  UNL     1      17.962  18.913   9.842  1.00  0.00     0.289 C 
BRANCH  28  29
HETATM   29  N1  UNL     1      18.490  20.108  10.405  1.00  0.00    -0.065 N 
ATOM     30  H13 UNL     1      19.506  20.054  10.485  1.00  0.00     0.275 HD
ATOM     31  H12 UNL     1      18.416  20.883   9.746  1.00  0.00     0.275 HD
ATOM     32  H11 UNL     1      18.067  20.349  11.300  1.00  0.00     0.275 HD
ENDBRANCH  28  29
BRANCH  28  33
HETATM   33  C9  UNL     1      18.730  17.748  10.335  1.00  0.00     0.204 C 
HETATM   34  O2  UNL     1      19.976  17.764  10.378  1.00  0.00    -0.646 OA
HETATM   35  O3  UNL     1      18.041  16.623  10.755  1.00  0.00    -0.646 OA
ENDBRANCH  28  33
ENDBRANCH  27  28
ENDBRANCH  24  27
ENDBRANCH  23  24
BRANCH  23  36
HETATM   36  N2  UNL     1      15.896  21.758   8.306  1.00  0.00    -0.388 N 
HETATM   37  C10 UNL     1      15.115  21.290   9.428  1.00  0.00     0.149 C 
HETATM   38  C11 UNL     1      16.114  23.180   8.182  1.00  0.00     0.149 C 
ENDBRANCH  23  36
ENDBRANCH  22  23
ENDBRANCH  21  22
ENDBRANCH  19  21
ENDBRANCH   1  19
BRANCH  16  39
HETATM   39  O6  UNL     1      12.298  21.744   7.105  1.00  0.00    -0.395 OA
ATOM     40  H6  UNL     1      12.406  21.960   8.023  1.00  0.00     0.210 HD
ENDBRANCH  16  39
BRANCH  12  41
HETATM   41  C24 UNL     1       6.148  25.226   3.701  1.00  0.00     0.233 C 
HETATM   42  O5  UNL     1       5.311  24.380   3.316  1.00  0.00    -0.272 OA
HETATM   43  N3  UNL     1       5.765  26.174   4.678  1.00  0.00    -0.360 N 
ATOM     44  H3  UNL     1       6.442  26.867   4.995  1.00  0.00     0.162 HD
BRANCH  43  45
HETATM   45  C25 UNL     1       4.419  26.178   5.239  1.00  0.00     0.122 C 
BRANCH  45  46
HETATM   46  C26 UNL     1       4.444  26.842   6.591  1.00  0.00     0.020 C 
BRANCH  46  47
HETATM   47  C27 UNL     1       5.837  26.983   7.076  1.00  0.00     0.003 C 
BRANCH  47  48
HETATM   48  C28 UNL     1       6.154  28.266   7.723  1.00  0.00     0.027 C 
BRANCH  48  49
HETATM   49  C29 UNL     1       7.603  28.457   7.998  1.00  0.00     0.229 C 
BRANCH  49  50
HETATM   50  N4  UNL     1       7.994  28.640   9.348  1.00  0.00    -0.079 N 
ATOM     51  H43 UNL     1       8.986  28.877   9.383  1.00  0.00     0.274 HD
ATOM     52  H42 UNL     1       7.579  29.500   9.706  1.00  0.00     0.274 HD
ATOM     53  H41 UNL     1       7.807  27.877   9.999  1.00  0.00     0.274 HD
ENDBRANCH  49  50
ENDBRANCH  48  49
ENDBRANCH  47  48
ENDBRANCH  46  47
ENDBRANCH  45  46
ENDBRANCH  43  45
ENDBRANCH  12  41
TORSDOF 19
ENDMDL
MODEL 5
REMARK VINA RESULT: -7.751853872      3.388     11.915
REMARK  19 active torsions:
REMARK  status: ('A' for Active; 'I' for Inactive)
REMARK    1  A    between atoms: C2_2  and  C3_3 
REMARK    2  A    between atoms: C2_2  and  C12_21 
REMARK    3  A    between atoms: C3_3  and  C4_4 
REMARK    4  A    between atoms: C4_4  and  C5_5 
REMARK    5  A    between atoms: C5_5  and  C6_6 
REMARK    6  A    between atoms: C5_5  and  N2_18 
REMARK    7  A    between atoms: C6_6  and  O1_7 
REMARK    8  A    between atoms: C6_6  and  C7_9 
REMARK    9  A    between atoms: C7_9  and  C8_10 
REMARK   10  A    between atoms: C8_10  and  N1_11 
REMARK   11  A    between atoms: C8_10  and  C9_15 
REMARK   12  A    between atoms: C22_32  and  C24_34 
REMARK       I    between atoms: C24_34  and  N3_36 
REMARK   13  A    between atoms: N3_36  and  C25_38 
REMARK   14  A    between atoms: C25_38  and  C26_39 
REMARK   15  A    between atoms: C26_39  and  C27_40 
REMARK   16  A    between atoms: C27_40  and  C28_41 
REMARK   17  A    between atoms: C28_41  and  C29_42 
REMARK   18  A    between atoms: C29_42  and  N4_43 
REMARK   19  A    between atoms: C32_49  and  O6_50 
ROOT
HETATM    1  C12 UNL     1      13.415  21.613   4.853  1.00  0.00     0.001 C 
HETATM    2  C13 UNL     1      12.210  21.424   3.913  1.00  0.00     0.011 C 
HETATM    3  C14 UNL     1      12.166  22.895   3.785  1.00  0.00     0.001 C 
HETATM    4  C15 UNL     1      10.887  23.582   3.603  1.00  0.00    -0.005 C 
HETATM    5  C16 UNL     1       9.939  22.626   2.859  1.00  0.00     0.006 C 
HETATM    6  C17 UNL     1       8.862  23.571   2.319  1.00  0.00     0.007 C 
HETATM    7  C18 UNL     1       8.084  24.065   3.476  1.00  0.00     0.015 C 
HETATM    8  C19 UNL     1       8.797  24.460   4.689  1.00  0.00     0.003 C 
HETATM    9  C20 UNL     1       8.588  25.979   4.812  1.00  0.00     0.085 C 
HETATM   10  C21 UNL     1       8.046  26.397   3.507  1.00  0.00     0.145 C 
HETATM   11  O4  UNL     1       8.222  27.466   2.971  1.00  0.00    -0.297 OA
HETATM   12  C22 UNL     1       7.261  25.271   2.993  1.00  0.00     0.101 C 
HETATM   13  C23 UNL     1       7.183  25.299   1.474  1.00  0.00     0.034 C 
HETATM   14  C30 UNL     1      10.228  24.116   4.842  1.00  0.00    -0.003 C 
HETATM   15  C31 UNL     1      10.455  23.159   6.013  1.00  0.00     0.038 C 
HETATM   16  C32 UNL     1      11.887  22.907   6.289  1.00  0.00     0.127 C 
HETATM   17  C33 UNL     1      12.822  22.987   5.127  1.00  0.00    -0.010 C 
HETATM   18  C34 UNL     1      13.756  24.150   5.157  1.00  0.00     0.018 C 
ENDROOT
BRANCH   1  19
HETATM   19  C2  UNL     1      14.686  21.593   4.072  1.00  0.00    -0.010 C 
HETATM   20  C1  UNL     1      14.713  20.420   3.073  1.00  0.00     0.010 C 
BRANCH  19  21
HETATM   21  C3  UNL     1      15.924  21.357   4.940  1.00  0.00     0.034 C 
BRANCH  21  22
HETATM   22  C4  UNL     1      16.449  20.035   4.646  1.00  0.00     0.005 C 
BRANCH  22  23
HETATM   23  C5  UNL     1      17.437  19.321   5.029  1.00  0.00     0.055 C 
BRANCH  23  24
HETATM   24  C6  UNL     1      18.334  19.535   6.109  1.00  0.00     0.072 C 
BRANCH  24  25
HETATM   25  O1  UNL     1      19.461  20.109   5.768  1.00  0.00    -0.363 OA
ATOM     26  H1  UNL     1      20.041  20.296   6.497  1.00  0.00     0.217 HD
ENDBRANCH  24  25
BRANCH  24  27
HETATM   27  C7  UNL     1      18.255  19.242   7.529  1.00  0.00     0.110 C 
BRANCH  27  28
HETATM   28  C8  UNL     1      17.596  20.318   8.370  1.00  0.00     0.289 C 
BRANCH  28  29
HETATM   29  N1  UNL     1      18.035  21.631   8.041  1.00  0.00    -0.065 N 
ATOM     30  H13 UNL     1      18.080  21.756   7.030  1.00  0.00     0.275 HD
ATOM     31  H12 UNL     1      17.318  22.321   8.264  1.00  0.00     0.275 HD
ATOM     32  H11 UNL     1      18.924  21.876   8.478  1.00  0.00     0.275 HD
ENDBRANCH  28  29
BRANCH  28  33
HETATM   33  C9  UNL     1      17.858  20.048   9.802  1.00  0.00     0.204 C 
HETATM   34  O2  UNL     1      19.021  19.982  10.246  1.00  0.00    -0.646 OA
HETATM   35  O3  UNL     1      16.783  19.869  10.655  1.00  0.00    -0.646 OA
ENDBRANCH  28  33
ENDBRANCH  27  28
ENDBRANCH  24  27
ENDBRANCH  23  24
BRANCH  23  36
HETATM   36  N2  UNL     1      17.687  18.101   4.247  1.00  0.00    -0.388 N 
HETATM   37  C10 UNL     1      18.022  16.858   4.903  1.00  0.00     0.149 C 
HETATM   38  C11 UNL     1      17.608  18.103   2.805  1.00  0.00     0.149 C 
ENDBRANCH  23  36
ENDBRANCH  22  23
ENDBRANCH  21  22
ENDBRANCH  19  21
ENDBRANCH   1  19
BRANCH  16  39
HETATM   39  O6  UNL     1      11.975  21.653   6.939  1.00  0.00    -0.395 OA
ATOM     40  H6  UNL     1      11.103  21.276   6.942  1.00  0.00     0.210 HD
ENDBRANCH  16  39
BRANCH  12  41
HETATM   41  C24 UNL     1       5.892  25.214   3.498  1.00  0.00     0.233 C 
HETATM   42  O5  UNL     1       5.356  26.230   3.994  1.00  0.00    -0.272 OA
HETATM   43  N3  UNL     1       5.151  24.011   3.435  1.00  0.00    -0.360 N 
ATOM     44  H3  UNL     1       5.582  23.179   3.032  1.00  0.00     0.162 HD
BRANCH  43  45
HETATM   45  C25 UNL     1       3.784  23.939   3.936  1.00  0.00     0.122 C 
BRANCH  45  46
HETATM   46  C26 UNL     1       3.185  22.608   3.563  1.00  0.00     0.020 C 
BRANCH  46  47
HETATM   47  C27 UNL     1       3.823  21.515   4.336  1.00  0.00     0.003 C 
BRANCH  47  48
HETATM   48  C28 UNL     1       3.321  20.163   4.048  1.00  0.00     0.027 C 
BRANCH  48  49
HETATM   49  C29 UNL     1       3.719  19.148   5.061  1.00  0.00     0.229 C 
BRANCH  49  50
HETATM   50  N4  UNL     1       4.425  18.008   4.602  1.00  0.00    -0.079 N 
ATOM     51  H43 UNL     1       3.959  17.165   4.937  1.00  0.00     0.274 HD
ATOM     52  H42 UNL     1       4.295  17.913   3.595  1.00  0.00     0.274 HD
ATOM     53  H41 UNL     1       5.420  17.952   4.820  1.00  0.00     0.274 HD
ENDBRANCH  49  50
ENDBRANCH  48  49
ENDBRANCH  47  48
ENDBRANCH  46  47
ENDBRANCH  45  46
ENDBRANCH  43  45
ENDBRANCH  12  41
TORSDOF 19
ENDMDL
