MODEL 1
REMARK VINA RESULT: -7.799537826      0.000      0.000
REMARK  12 active torsions:
REMARK  status: ('A' for Active; 'I' for Inactive)
REMARK    1  A    between atoms: N1_2  and  C3_4 
REMARK    2  A    between atoms: C3_4  and  C4_5 
REMARK    3  A    between atoms: C4_5  and  O1_6 
REMARK    4  A    between atoms: O1_6  and  C5_7 
REMARK    5  A    between atoms: C5_7  and  C6_8 
REMARK    6  A    between atoms: C6_8  and  C7_10 
REMARK    7  A    between atoms: C7_10  and  O3_11 
REMARK    8  A    between atoms: C7_10  and  C8_13 
REMARK    9  A    between atoms: C16_23  and  O6_24 
REMARK   10  A    between atoms: C22_32  and  C23_33 
REMARK   11  A    between atoms: C23_33  and  O8_34 
REMARK   12  A    between atoms: C25_37  and  O9_38 
ROOT
HETATM    1  C5  UNL     1      13.857 -13.419  19.834  1.00  0.00     0.134 C 
HETATM    2  C18 UNL     1      14.048 -13.722  18.354  1.00  0.00     0.047 C 
HETATM    3  C19 UNL     1      15.248 -14.619  18.225  1.00  0.00     0.009 C 
HETATM    4  C20 UNL     1      15.877 -14.644  19.592  1.00  0.00     0.000 C 
HETATM    5  C21 UNL     1      17.389 -14.459  19.514  1.00  0.00     0.012 C 
HETATM    6  C22 UNL     1      17.894 -14.205  20.895  1.00  0.00     0.012 C 
HETATM    7  C24 UNL     1      17.232 -13.149  21.688  1.00  0.00     0.039 C 
HETATM    8  C25 UNL     1      15.704 -13.107  21.572  1.00  0.00     0.130 C 
HETATM    9  C26 UNL     1      15.338 -13.410  20.184  1.00  0.00     0.024 C 
HETATM   10  C27 UNL     1      15.878 -12.244  19.372  1.00  0.00     0.022 C 
ENDROOT
BRANCH   1  11
HETATM   11  O1  UNL     1      13.505 -12.170  20.146  1.00  0.00    -0.370 OA
BRANCH  11  12
HETATM   12  C4  UNL     1      12.553 -11.641  20.837  1.00  0.00     0.199 C 
BRANCH  12  13
HETATM   13  C3  UNL     1      12.803 -10.932  22.151  1.00  0.00     0.297 C 
BRANCH  13  14
HETATM   14  N1  UNL     1      12.074 -11.506  23.261  1.00  0.00     0.082 N 
HETATM   15  C1  UNL     1      11.466 -10.486  24.091  1.00  0.00     0.309 C 
HETATM   16  C2  UNL     1      11.049 -12.385  22.714  1.00  0.00     0.309 C 
ENDBRANCH  13  14
ENDBRANCH  12  13
ENDBRANCH  11  12
ENDBRANCH   1  11
BRANCH   1  17
HETATM   17  C6  UNL     1      13.102 -14.557  20.349  1.00  0.00     0.193 C 
HETATM   18  O2  UNL     1      11.928 -14.590  19.905  1.00  0.00    -0.292 OA
BRANCH  17  19
HETATM   19  C7  UNL     1      13.344 -15.676  21.236  1.00  0.00     0.222 C 
BRANCH  19  20
HETATM   20  O3  UNL     1      12.547 -15.550  22.404  1.00  0.00    -0.385 OA
ATOM     21  H3  UNL     1      11.808 -16.147  22.359  1.00  0.00     0.210 HD
ENDBRANCH  19  20
BRANCH  19  22
HETATM   22  C8  UNL     1      12.988 -17.056  20.743  1.00  0.00     0.188 C 
HETATM   23  O4  UNL     1      13.472 -17.179  19.469  1.00  0.00    -0.367 OA
HETATM   24  C9  UNL     1      12.757 -17.922  18.575  1.00  0.00     0.083 C 
HETATM   25  C10 UNL     1      13.391 -17.680  17.192  1.00  0.00     0.048 C 
HETATM   26  C11 UNL     1      11.322 -17.477  18.415  1.00  0.00     0.048 C 
HETATM   27  C12 UNL     1      12.807 -19.339  18.968  1.00  0.00     0.185 A 
HETATM   28  O5  UNL     1      13.761 -20.252  18.748  1.00  0.00    -0.372 OA
HETATM   29  C13 UNL     1      14.113 -19.476  19.783  1.00  0.00     0.161 A 
HETATM   30  C14 UNL     1      13.649 -19.469  21.168  1.00  0.00     0.053 C 
HETATM   31  C15 UNL     1      14.833 -19.759  22.098  1.00  0.00     0.070 C 
HETATM   32  C17 UNL     1      13.082 -18.170  21.688  1.00  0.00     0.163 C 
HETATM   33  C16 UNL     1      14.267 -19.124  23.361  1.00  0.00     0.258 C 
HETATM   34  O7  UNL     1      13.672 -17.956  22.907  1.00  0.00    -0.353 OA
BRANCH  33  35
HETATM   35  O6  UNL     1      13.418 -19.969  24.033  1.00  0.00    -0.371 OA
ATOM     36  H6  UNL     1      12.882 -19.509  24.669  1.00  0.00     0.212 HD
ENDBRANCH  33  35
ENDBRANCH  19  22
ENDBRANCH  17  19
ENDBRANCH   1  17
BRANCH   8  37
HETATM   37  O9  UNL     1      15.229 -13.882  22.569  1.00  0.00    -0.395 OA
ATOM     38  H9  UNL     1      14.642 -14.508  22.161  1.00  0.00     0.210 HD
ENDBRANCH   8  37
BRANCH   6  39
HETATM   39  C23 UNL     1      19.371 -13.814  20.763  1.00  0.00     0.168 C 
BRANCH  39  40
HETATM   40  O8  UNL     1      19.428 -12.792  19.831  1.00  0.00    -0.400 OA
ATOM     41  H8  UNL     1      20.349 -12.622  19.670  1.00  0.00     0.209 HD
ENDBRANCH  39  40
ENDBRANCH   6  39
TORSDOF 12
ENDMDL
MODEL 2
REMARK VINA RESULT: -7.653260780      3.210      6.234
REMARK  12 active torsions:
REMARK  status: ('A' for Active; 'I' for Inactive)
REMARK    1  A    between atoms: N1_2  and  C3_4 
REMARK    2  A    between atoms: C3_4  and  C4_5 
REMARK    3  A    between atoms: C4_5  and  O1_6 
REMARK    4  A    between atoms: O1_6  and  C5_7 
REMARK    5  A    between atoms: C5_7  and  C6_8 
REMARK    6  A    between atoms: C6_8  and  C7_10 
REMARK    7  A    between atoms: C7_10  and  O3_11 
REMARK    8  A    between atoms: C7_10  and  C8_13 
REMARK    9  A    between atoms: C16_23  and  O6_24 
REMARK   10  A    between atoms: C22_32  and  C23_33 
REMARK   11  A    between atoms: C23_33  and  O8_34 
REMARK   12  A    between atoms: C25_37  and  O9_38 
ROOT
HETATM    1  C5  UNL     1      17.863 -15.822  22.187  1.00  0.00     0.134 C 
HETATM    2  C18 UNL     1      17.003 -16.056  23.422  1.00  0.00     0.047 C 
HETATM    3  C19 UNL     1      17.466 -15.100  24.487  1.00  0.00     0.009 C 
HETATM    4  C20 UNL     1      18.729 -14.484  23.947  1.00  0.00     0.000 C 
HETATM    5  C21 UNL     1      19.831 -14.457  25.003  1.00  0.00     0.012 C 
HETATM    6  C22 UNL     1      21.112 -14.111  24.322  1.00  0.00     0.012 C 
HETATM    7  C24 UNL     1      21.490 -14.891  23.125  1.00  0.00     0.039 C 
HETATM    8  C25 UNL     1      20.341 -15.200  22.159  1.00  0.00     0.130 C 
HETATM    9  C26 UNL     1      19.137 -15.482  22.947  1.00  0.00     0.024 C 
HETATM   10  C27 UNL     1      19.450 -16.769  23.693  1.00  0.00     0.022 C 
ENDROOT
BRANCH   1  11
HETATM   11  O1  UNL     1      18.242 -16.909  21.511  1.00  0.00    -0.370 OA
BRANCH  11  12
HETATM   12  C4  UNL     1      17.634 -17.948  21.049  1.00  0.00     0.199 C 
BRANCH  12  13
HETATM   13  C3  UNL     1      17.992 -19.354  21.483  1.00  0.00     0.297 C 
BRANCH  13  14
HETATM   14  N1  UNL     1      16.991 -19.965  22.330  1.00  0.00     0.082 N 
HETATM   15  C1  UNL     1      17.314 -19.822  23.735  1.00  0.00     0.309 C 
HETATM   16  C2  UNL     1      15.713 -19.328  22.041  1.00  0.00     0.309 C 
ENDBRANCH  13  14
ENDBRANCH  12  13
ENDBRANCH  11  12
ENDBRANCH   1  11
BRANCH   1  17
HETATM   17  C6  UNL     1      17.228 -14.701  21.502  1.00  0.00     0.193 C 
HETATM   18  O2  UNL     1      17.774 -14.446  20.401  1.00  0.00    -0.292 OA
BRANCH  17  19
HETATM   19  C7  UNL     1      16.122 -13.799  21.746  1.00  0.00     0.222 C 
BRANCH  19  20
HETATM   20  O3  UNL     1      16.542 -12.455  21.561  1.00  0.00    -0.385 OA
ATOM     21  H3  UNL     1      15.810 -11.923  21.269  1.00  0.00     0.210 HD
ENDBRANCH  19  20
BRANCH  19  22
HETATM   22  C8  UNL     1      14.921 -13.894  20.838  1.00  0.00     0.188 C 
HETATM   23  O4  UNL     1      14.663 -15.222  20.630  1.00  0.00    -0.367 OA
HETATM   24  C9  UNL     1      14.182 -15.604  19.411  1.00  0.00     0.083 C 
HETATM   25  C10 UNL     1      14.226 -17.143  19.380  1.00  0.00     0.048 C 
HETATM   26  C11 UNL     1      15.048 -15.179  18.248  1.00  0.00     0.048 C 
HETATM   27  C12 UNL     1      12.816 -15.083  19.242  1.00  0.00     0.185 A 
HETATM   28  O5  UNL     1      11.655 -15.573  19.695  1.00  0.00    -0.372 OA
HETATM   29  C13 UNL     1      12.279 -14.912  20.680  1.00  0.00     0.161 A 
HETATM   30  C14 UNL     1      12.419 -13.478  20.924  1.00  0.00     0.053 C 
HETATM   31  C15 UNL     1      11.773 -13.130  22.270  1.00  0.00     0.070 C 
HETATM   32  C17 UNL     1      13.826 -12.944  21.042  1.00  0.00     0.163 C 
HETATM   33  C16 UNL     1      12.544 -11.845  22.546  1.00  0.00     0.258 C 
HETATM   34  O7  UNL     1      13.841 -12.147  22.158  1.00  0.00    -0.353 OA
BRANCH  33  35
HETATM   35  O6  UNL     1      11.998 -10.763  21.902  1.00  0.00    -0.371 OA
ATOM     36  H6  UNL     1      12.629 -10.065  21.772  1.00  0.00     0.212 HD
ENDBRANCH  33  35
ENDBRANCH  19  22
ENDBRANCH  17  19
ENDBRANCH   1  17
BRANCH   8  37
HETATM   37  O9  UNL     1      20.325 -14.194  21.259  1.00  0.00    -0.395 OA
ATOM     38  H9  UNL     1      19.618 -13.617  21.520  1.00  0.00     0.210 HD
ENDBRANCH   8  37
BRANCH   6  39
HETATM   39  C23 UNL     1      22.230 -14.299  25.356  1.00  0.00     0.168 C 
BRANCH  39  40
HETATM   40  O8  UNL     1      23.395 -13.838  24.768  1.00  0.00    -0.400 OA
ATOM     41  H8  UNL     1      24.114 -14.183  25.284  1.00  0.00     0.209 HD
ENDBRANCH  39  40
ENDBRANCH   6  39
TORSDOF 12
ENDMDL
MODEL 3
REMARK VINA RESULT: -7.481815816      1.206      1.300
REMARK  12 active torsions:
REMARK  status: ('A' for Active; 'I' for Inactive)
REMARK    1  A    between atoms: N1_2  and  C3_4 
REMARK    2  A    between atoms: C3_4  and  C4_5 
REMARK    3  A    between atoms: C4_5  and  O1_6 
REMARK    4  A    between atoms: O1_6  and  C5_7 
REMARK    5  A    between atoms: C5_7  and  C6_8 
REMARK    6  A    between atoms: C6_8  and  C7_10 
REMARK    7  A    between atoms: C7_10  and  O3_11 
REMARK    8  A    between atoms: C7_10  and  C8_13 
REMARK    9  A    between atoms: C16_23  and  O6_24 
REMARK   10  A    between atoms: C22_32  and  C23_33 
REMARK   11  A    between atoms: C23_33  and  O8_34 
REMARK   12  A    between atoms: C25_37  and  O9_38 
ROOT
HETATM    1  C5  UNL     1      13.920 -13.291  19.995  1.00  0.00     0.134 C 
HETATM    2  C18 UNL     1      14.020 -13.598  18.508  1.00  0.00     0.047 C 
HETATM    3  C19 UNL     1      15.178 -14.540  18.314  1.00  0.00     0.009 C 
HETATM    4  C20 UNL     1      15.877 -14.590  19.646  1.00  0.00     0.000 C 
HETATM    5  C21 UNL     1      17.389 -14.461  19.487  1.00  0.00     0.012 C 
HETATM    6  C22 UNL     1      17.976 -14.229  20.839  1.00  0.00     0.012 C 
HETATM    7  C24 UNL     1      17.397 -13.150  21.666  1.00  0.00     0.039 C 
HETATM    8  C25 UNL     1      15.868 -13.050  21.631  1.00  0.00     0.130 C 
HETATM    9  C26 UNL     1      15.417 -13.338  20.266  1.00  0.00     0.024 C 
HETATM   10  C27 UNL     1      15.956 -12.192  19.425  1.00  0.00     0.022 C 
ENDROOT
BRANCH   1  11
HETATM   11  O1  UNL     1      13.632 -12.031  20.325  1.00  0.00    -0.370 OA
BRANCH  11  12
HETATM   12  C4  UNL     1      12.675 -11.458  20.973  1.00  0.00     0.199 C 
BRANCH  12  13
HETATM   13  C3  UNL     1      12.879 -10.842  22.341  1.00  0.00     0.297 C 
BRANCH  13  14
HETATM   14  N1  UNL     1      12.038 -11.425  23.365  1.00  0.00     0.082 N 
HETATM   15  C1  UNL     1      11.416 -10.412  24.192  1.00  0.00     0.309 C 
HETATM   16  C2  UNL     1      11.019 -12.227  22.700  1.00  0.00     0.309 C 
ENDBRANCH  13  14
ENDBRANCH  12  13
ENDBRANCH  11  12
ENDBRANCH   1  11
BRANCH   1  17
HETATM   17  C6  UNL     1      13.152 -14.402  20.551  1.00  0.00     0.193 C 
HETATM   18  O2  UNL     1      12.039 -14.539  19.986  1.00  0.00    -0.292 OA
BRANCH  17  19
HETATM   19  C7  UNL     1      13.330 -15.404  21.581  1.00  0.00     0.222 C 
BRANCH  19  20
HETATM   20  O3  UNL     1      12.166 -15.481  22.389  1.00  0.00    -0.385 OA
ATOM     21  H3  UNL     1      11.927 -16.390  22.528  1.00  0.00     0.210 HD
ENDBRANCH  19  20
BRANCH  19  22
HETATM   22  C8  UNL     1      13.523 -16.835  21.146  1.00  0.00     0.188 C 
HETATM   23  O4  UNL     1      13.182 -16.916  19.823  1.00  0.00    -0.367 OA
HETATM   24  C9  UNL     1      12.590 -18.062  19.377  1.00  0.00     0.083 C 
HETATM   25  C10 UNL     1      12.099 -17.779  17.945  1.00  0.00     0.048 C 
HETATM   26  C11 UNL     1      11.340 -18.444  20.135  1.00  0.00     0.048 C 
HETATM   27  C12 UNL     1      13.566 -19.163  19.422  1.00  0.00     0.185 A 
HETATM   28  O5  UNL     1      14.527 -19.487  18.547  1.00  0.00    -0.372 OA
HETATM   29  C13 UNL     1      14.944 -18.473  19.318  1.00  0.00     0.161 A 
HETATM   30  C14 UNL     1      15.420 -18.460  20.699  1.00  0.00     0.053 C 
HETATM   31  C15 UNL     1      16.863 -17.940  20.730  1.00  0.00     0.070 C 
HETATM   32  C17 UNL     1      14.684 -17.561  21.663  1.00  0.00     0.163 C 
HETATM   33  C16 UNL     1      16.884 -17.470  22.179  1.00  0.00     0.258 C 
HETATM   34  O7  UNL     1      15.646 -16.867  22.350  1.00  0.00    -0.353 OA
BRANCH  33  35
HETATM   35  O6  UNL     1      17.140 -18.497  23.055  1.00  0.00    -0.371 OA
ATOM     36  H6  UNL     1      17.967 -18.385  23.508  1.00  0.00     0.212 HD
ENDBRANCH  33  35
ENDBRANCH  19  22
ENDBRANCH  17  19
ENDBRANCH   1  17
BRANCH   8  37
HETATM   37  O9  UNL     1      15.419 -13.810  22.653  1.00  0.00    -0.395 OA
ATOM     38  H9  UNL     1      14.576 -13.448  22.900  1.00  0.00     0.210 HD
ENDBRANCH   8  37
BRANCH   6  39
HETATM   39  C23 UNL     1      19.458 -13.892  20.628  1.00  0.00     0.168 C 
BRANCH  39  40
HETATM   40  O8  UNL     1      19.499 -12.803  19.775  1.00  0.00    -0.400 OA
ATOM     41  H8  UNL     1      19.500 -12.027  20.324  1.00  0.00     0.209 HD
ENDBRANCH  39  40
ENDBRANCH   6  39
TORSDOF 12
ENDMDL
MODEL 4
REMARK VINA RESULT: -7.342203292      2.443      7.319
REMARK  12 active torsions:
REMARK  status: ('A' for Active; 'I' for Inactive)
REMARK    1  A    between atoms: N1_2  and  C3_4 
REMARK    2  A    between atoms: C3_4  and  C4_5 
REMARK    3  A    between atoms: C4_5  and  O1_6 
REMARK    4  A    between atoms: O1_6  and  C5_7 
REMARK    5  A    between atoms: C5_7  and  C6_8 
REMARK    6  A    between atoms: C6_8  and  C7_10 
REMARK    7  A    between atoms: C7_10  and  O3_11 
REMARK    8  A    between atoms: C7_10  and  C8_13 
REMARK    9  A    between atoms: C16_23  and  O6_24 
REMARK   10  A    between atoms: C22_32  and  C23_33 
REMARK   11  A    between atoms: C23_33  and  O8_34 
REMARK   12  A    between atoms: C25_37  and  O9_38 
ROOT
HETATM    1  C5  UNL     1      13.935 -17.595  20.199  1.00  0.00     0.134 C 
HETATM    2  C18 UNL     1      13.543 -16.830  18.943  1.00  0.00     0.047 C 
HETATM    3  C19 UNL     1      12.069 -17.039  18.724  1.00  0.00     0.009 C 
HETATM    4  C20 UNL     1      11.666 -18.100  19.713  1.00  0.00     0.000 C 
HETATM    5  C21 UNL     1      10.787 -19.164  19.062  1.00  0.00     0.012 C 
HETATM    6  C22 UNL     1      10.674 -20.311  20.009  1.00  0.00     0.012 C 
HETATM    7  C24 UNL     1      11.922 -20.868  20.569  1.00  0.00     0.039 C 
HETATM    8  C25 UNL     1      12.974 -19.832  20.977  1.00  0.00     0.130 C 
HETATM    9  C26 UNL     1      12.958 -18.744  19.994  1.00  0.00     0.024 C 
HETATM   10  C27 UNL     1      13.438 -19.379  18.698  1.00  0.00     0.022 C 
ENDROOT
BRANCH   1  11
HETATM   11  O1  UNL     1      15.105 -18.235  20.166  1.00  0.00    -0.370 OA
BRANCH  11  12
HETATM   12  C4  UNL     1      16.341 -17.868  20.191  1.00  0.00     0.199 C 
BRANCH  12  13
HETATM   13  C3  UNL     1      17.357 -18.509  21.113  1.00  0.00     0.297 C 
BRANCH  13  14
HETATM   14  N1  UNL     1      17.058 -18.321  22.516  1.00  0.00     0.082 N 
HETATM   15  C1  UNL     1      16.509 -19.520  23.115  1.00  0.00     0.309 C 
HETATM   16  C2  UNL     1      18.294 -17.944  23.188  1.00  0.00     0.309 C 
ENDBRANCH  13  14
ENDBRANCH  12  13
ENDBRANCH  11  12
ENDBRANCH   1  11
BRANCH   1  17
HETATM   17  C6  UNL     1      13.610 -16.691  21.298  1.00  0.00     0.193 C 
HETATM   18  O2  UNL     1      13.908 -17.176  22.417  1.00  0.00    -0.292 OA
BRANCH  17  19
HETATM   19  C7  UNL     1      13.041 -15.368  21.450  1.00  0.00     0.222 C 
BRANCH  19  20
HETATM   20  O3  UNL     1      12.296 -15.296  22.656  1.00  0.00    -0.385 OA
ATOM     21  H3  UNL     1      12.506 -14.493  23.120  1.00  0.00     0.210 HD
ENDBRANCH  19  20
BRANCH  19  22
HETATM   22  C8  UNL     1      13.989 -14.203  21.580  1.00  0.00     0.188 C 
HETATM   23  O4  UNL     1      14.923 -14.315  20.586  1.00  0.00    -0.367 OA
HETATM   24  C9  UNL     1      16.198 -13.906  20.847  1.00  0.00     0.083 C 
HETATM   25  C10 UNL     1      17.065 -14.373  19.663  1.00  0.00     0.048 C 
HETATM   26  C11 UNL     1      16.821 -14.568  22.055  1.00  0.00     0.048 C 
HETATM   27  C12 UNL     1      16.218 -12.443  21.006  1.00  0.00     0.185 A 
HETATM   28  O5  UNL     1      16.254 -11.484  20.072  1.00  0.00    -0.372 OA
HETATM   29  C13 UNL     1      15.000 -11.942  20.198  1.00  0.00     0.161 A 
HETATM   30  C14 UNL     1      13.993 -11.690  21.226  1.00  0.00     0.053 C 
HETATM   31  C15 UNL     1      12.768 -11.032  20.580  1.00  0.00     0.070 C 
HETATM   32  C17 UNL     1      13.431 -12.897  21.937  1.00  0.00     0.163 C 
HETATM   33  C16 UNL     1      11.740 -11.427  21.633  1.00  0.00     0.258 C 
HETATM   34  O7  UNL     1      12.069 -12.739  21.941  1.00  0.00    -0.353 OA
BRANCH  33  35
HETATM   35  O6  UNL     1      11.743 -10.574  22.709  1.00  0.00    -0.371 OA
ATOM     36  H6  UNL     1      10.966 -10.670  23.246  1.00  0.00     0.212 HD
ENDBRANCH  33  35
ENDBRANCH  19  22
ENDBRANCH  17  19
ENDBRANCH   1  17
BRANCH   8  37
HETATM   37  O9  UNL     1      12.744 -19.554  22.278  1.00  0.00    -0.395 OA
ATOM     38  H9  UNL     1      13.459 -18.996  22.560  1.00  0.00     0.210 HD
ENDBRANCH   8  37
BRANCH   6  39
HETATM   39  C23 UNL     1       9.971 -21.444  19.252  1.00  0.00     0.168 C 
BRANCH  39  40
HETATM   40  O8  UNL     1       9.592 -20.927  18.026  1.00  0.00    -0.400 OA
ATOM     41  H8  UNL     1      10.391 -20.793  17.530  1.00  0.00     0.209 HD
ENDBRANCH  39  40
ENDBRANCH   6  39
TORSDOF 12
ENDMDL
MODEL 5
REMARK VINA RESULT: -7.312596946      2.437      6.690
REMARK  12 active torsions:
REMARK  status: ('A' for Active; 'I' for Inactive)
REMARK    1  A    between atoms: N1_2  and  C3_4 
REMARK    2  A    between atoms: C3_4  and  C4_5 
REMARK    3  A    between atoms: C4_5  and  O1_6 
REMARK    4  A    between atoms: O1_6  and  C5_7 
REMARK    5  A    between atoms: C5_7  and  C6_8 
REMARK    6  A    between atoms: C6_8  and  C7_10 
REMARK    7  A    between atoms: C7_10  and  O3_11 
REMARK    8  A    between atoms: C7_10  and  C8_13 
REMARK    9  A    between atoms: C16_23  and  O6_24 
REMARK   10  A    between atoms: C22_32  and  C23_33 
REMARK   11  A    between atoms: C23_33  and  O8_34 
REMARK   12  A    between atoms: C25_37  and  O9_38 
ROOT
HETATM    1  C5  UNL     1      15.427 -17.342  20.974  1.00  0.00     0.134 C 
HETATM    2  C18 UNL     1      16.073 -17.798  19.673  1.00  0.00     0.047 C 
HETATM    3  C19 UNL     1      15.146 -17.425  18.548  1.00  0.00     0.009 C 
HETATM    4  C20 UNL     1      13.876 -16.967  19.214  1.00  0.00     0.000 C 
HETATM    5  C21 UNL     1      12.647 -17.578  18.549  1.00  0.00     0.012 C 
HETATM    6  C22 UNL     1      11.470 -17.317  19.428  1.00  0.00     0.012 C 
HETATM    7  C24 UNL     1      11.583 -17.679  20.856  1.00  0.00     0.039 C 
HETATM    8  C25 UNL     1      12.928 -17.344  21.510  1.00  0.00     0.130 C 
HETATM    9  C26 UNL     1      13.993 -17.604  20.535  1.00  0.00     0.024 C 
HETATM   10  C27 UNL     1      13.967 -19.108  20.317  1.00  0.00     0.022 C 
ENDROOT
BRANCH   1  11
HETATM   11  O1  UNL     1      15.538 -18.168  22.016  1.00  0.00    -0.370 OA
BRANCH  11  12
HETATM   12  C4  UNL     1      16.460 -18.416  22.883  1.00  0.00     0.199 C 
BRANCH  12  13
HETATM   13  C3  UNL     1      16.476 -17.773  24.253  1.00  0.00     0.297 C 
BRANCH  13  14
HETATM   14  N1  UNL     1      17.435 -16.695  24.370  1.00  0.00     0.082 N 
HETATM   15  C1  UNL     1      17.849 -16.488  25.743  1.00  0.00     0.309 C 
HETATM   16  C2  UNL     1      18.586 -17.032  23.543  1.00  0.00     0.309 C 
ENDBRANCH  13  14
ENDBRANCH  12  13
ENDBRANCH  11  12
ENDBRANCH   1  11
BRANCH   1  17
HETATM   17  C6  UNL     1      15.794 -15.935  21.095  1.00  0.00     0.193 C 
HETATM   18  O2  UNL     1      16.944 -15.703  20.648  1.00  0.00    -0.292 OA
BRANCH  17  19
HETATM   19  C7  UNL     1      15.182 -14.718  21.588  1.00  0.00     0.222 C 
BRANCH  19  20
HETATM   20  O3  UNL     1      15.922 -14.216  22.691  1.00  0.00    -0.385 OA
ATOM     21  H3  UNL     1      15.332 -13.839  23.333  1.00  0.00     0.210 HD
ENDBRANCH  19  20
BRANCH  19  22
HETATM   22  C8  UNL     1      15.130 -13.530  20.661  1.00  0.00     0.188 C 
HETATM   23  O4  UNL     1      14.865 -13.998  19.403  1.00  0.00    -0.367 OA
HETATM   24  C9  UNL     1      15.431 -13.353  18.341  1.00  0.00     0.083 C 
HETATM   25  C10 UNL     1      15.172 -14.229  17.101  1.00  0.00     0.048 C 
HETATM   26  C11 UNL     1      16.937 -13.245  18.418  1.00  0.00     0.048 C 
HETATM   27  C12 UNL     1      14.835 -12.014  18.210  1.00  0.00     0.185 A 
HETATM   28  O5  UNL     1      13.681 -11.647  17.636  1.00  0.00    -0.372 OA
HETATM   29  C13 UNL     1      13.438 -12.140  18.859  1.00  0.00     0.161 A 
HETATM   30  C14 UNL     1      13.625 -11.544  20.180  1.00  0.00     0.053 C 
HETATM   31  C15 UNL     1      12.268 -11.455  20.888  1.00  0.00     0.070 C 
HETATM   32  C17 UNL     1      14.498 -12.303  21.149  1.00  0.00     0.163 C 
HETATM   33  C16 UNL     1      12.784 -11.407  22.321  1.00  0.00     0.258 C 
HETATM   34  O7  UNL     1      13.810 -12.340  22.336  1.00  0.00    -0.353 OA
BRANCH  33  35
HETATM   35  O6  UNL     1      13.164 -10.141  22.695  1.00  0.00    -0.371 OA
ATOM     36  H6  UNL     1      14.080 -10.099  22.944  1.00  0.00     0.212 HD
ENDBRANCH  33  35
ENDBRANCH  19  22
ENDBRANCH  17  19
ENDBRANCH   1  17
BRANCH   8  37
HETATM   37  O9  UNL     1      12.794 -16.107  22.034  1.00  0.00    -0.395 OA
ATOM     38  H9  UNL     1      13.662 -15.844  22.314  1.00  0.00     0.210 HD
ENDBRANCH   8  37
BRANCH   6  39
HETATM   39  C23 UNL     1      10.297 -18.119  18.850  1.00  0.00     0.168 C 
BRANCH  39  40
HETATM   40  O8  UNL     1       9.541 -17.231  18.104  1.00  0.00    -0.400 OA
ATOM     41  H8  UNL     1       8.967 -17.755  17.558  1.00  0.00     0.209 HD
ENDBRANCH  39  40
ENDBRANCH   6  39
TORSDOF 12
ENDMDL
