MODEL 1
REMARK VINA RESULT: -4.458017109      0.000      0.000
REMARK  3 active torsions:
REMARK  status: ('A' for Active; 'I' for Inactive)
REMARK    1  A    between atoms: N1_1  and  N2_4 
REMARK    2  A    between atoms: N2_4  and  N3_5 
REMARK    3  A    between atoms: N3_5  and  N4_7 
ROOT
HETATM    1  N4  UNL     1      60.434  -3.581  -0.759  1.00  0.00    -0.237 N 
HETATM    2  C1  UNL     1      61.194  -4.441  -0.072  1.00  0.00     0.121 A 
HETATM    3  C2  UNL     1      61.191  -5.767  -0.396  1.00  0.00     0.036 A 
HETATM    4  C3  UNL     1      60.404  -6.222  -1.431  1.00  0.00     0.090 A 
HETATM    5  N5  UNL     1      59.664  -5.311  -2.083  1.00  0.00    -0.360 N 
ATOM      6  H5  UNL     1      59.076  -5.627  -2.853  1.00  0.00     0.166 HD
HETATM    7  C4  UNL     1      59.661  -4.005  -1.771  1.00  0.00     0.208 A 
ENDROOT
BRANCH   1   8
HETATM    8  N3  UNL     1      60.429  -2.225  -0.437  1.00  0.00    -0.149 N 
ATOM      9  H3  UNL     1      61.312  -1.750  -0.248  1.00  0.00     0.226 HD
BRANCH   8  10
HETATM   10  N2  UNL     1      59.389  -1.603  -0.379  1.00  0.00    -0.227 NA
BRANCH  10  11
HETATM   11  N1  UNL     1      58.478  -0.771  -0.418  1.00  0.00    -0.259 N 
ATOM     12  H12 UNL     1      59.140  -0.013  -0.254  1.00  0.00     0.193 HD
ATOM     13  H11 UNL     1      57.598  -0.259  -0.486  1.00  0.00     0.193 HD
ENDBRANCH  10  11
ENDBRANCH   8  10
ENDBRANCH   1   8
TORSDOF 3
ENDMDL
MODEL 2
REMARK VINA RESULT: -4.246666286      2.190      3.176
REMARK  3 active torsions:
REMARK  status: ('A' for Active; 'I' for Inactive)
REMARK    1  A    between atoms: N1_1  and  N2_4 
REMARK    2  A    between atoms: N2_4  and  N3_5 
REMARK    3  A    between atoms: N3_5  and  N4_7 
ROOT
HETATM    1  N4  UNL     1      59.542  -4.424  -1.990  1.00  0.00    -0.237 N 
HETATM    2  C1  UNL     1      59.706  -3.161  -1.581  1.00  0.00     0.121 A 
HETATM    3  C2  UNL     1      60.600  -2.872  -0.591  1.00  0.00     0.036 A 
HETATM    4  C3  UNL     1      61.335  -3.882  -0.009  1.00  0.00     0.090 A 
HETATM    5  N5  UNL     1      61.126  -5.128  -0.463  1.00  0.00    -0.360 N 
ATOM      6  H5  UNL     1      61.660  -5.891  -0.047  1.00  0.00     0.166 HD
HETATM    7  C4  UNL     1      60.249  -5.422  -1.436  1.00  0.00     0.208 A 
ENDROOT
BRANCH   1   8
HETATM    8  N3  UNL     1      58.633  -4.730  -3.001  1.00  0.00    -0.149 N 
ATOM      9  H3  UNL     1      58.946  -5.255  -3.817  1.00  0.00     0.226 HD
BRANCH   8  10
HETATM   10  N2  UNL     1      57.474  -4.380  -2.922  1.00  0.00    -0.227 NA
BRANCH  10  11
HETATM   11  N1  UNL     1      56.244  -4.284  -2.867  1.00  0.00    -0.259 N 
ATOM     12  H12 UNL     1      56.144  -5.294  -2.965  1.00  0.00     0.193 HD
ATOM     13  H11 UNL     1      55.269  -3.991  -2.802  1.00  0.00     0.193 HD
ENDBRANCH  10  11
ENDBRANCH   8  10
ENDBRANCH   1   8
TORSDOF 3
ENDMDL
MODEL 3
REMARK VINA RESULT: -4.229980160      1.807      3.190
REMARK  3 active torsions:
REMARK  status: ('A' for Active; 'I' for Inactive)
REMARK    1  A    between atoms: N1_1  and  N2_4 
REMARK    2  A    between atoms: N2_4  and  N3_5 
REMARK    3  A    between atoms: N3_5  and  N4_7 
ROOT
HETATM    1  N4  UNL     1      59.383  -4.303  -2.064  1.00  0.00    -0.237 N 
HETATM    2  C1  UNL     1      60.261  -5.104  -1.452  1.00  0.00     0.121 A 
HETATM    3  C2  UNL     1      61.130  -4.591  -0.532  1.00  0.00     0.036 A 
HETATM    4  C3  UNL     1      61.102  -3.246  -0.233  1.00  0.00     0.090 A 
HETATM    5  N5  UNL     1      60.198  -2.495  -0.880  1.00  0.00    -0.360 N 
ATOM      6  H5  UNL     1      60.160  -1.497  -0.672  1.00  0.00     0.166 HD
HETATM    7  C4  UNL     1      59.340  -2.990  -1.787  1.00  0.00     0.208 A 
ENDROOT
BRANCH   1   8
HETATM    8  N3  UNL     1      58.491  -4.816  -3.005  1.00  0.00    -0.149 N 
ATOM      9  H3  UNL     1      58.825  -5.478  -3.706  1.00  0.00     0.226 HD
BRANCH   8  10
HETATM   10  N2  UNL     1      57.324  -4.484  -3.002  1.00  0.00    -0.227 NA
BRANCH  10  11
HETATM   11  N1  UNL     1      56.092  -4.409  -2.989  1.00  0.00    -0.259 N 
ATOM     12  H12 UNL     1      56.019  -5.205  -3.622  1.00  0.00     0.193 HD
ATOM     13  H11 UNL     1      55.110  -4.178  -2.842  1.00  0.00     0.193 HD
ENDBRANCH  10  11
ENDBRANCH   8  10
ENDBRANCH   1   8
TORSDOF 3
ENDMDL
MODEL 4
REMARK VINA RESULT: -4.214911168      1.102      1.683
REMARK  3 active torsions:
REMARK  status: ('A' for Active; 'I' for Inactive)
REMARK    1  A    between atoms: N1_1  and  N2_4 
REMARK    2  A    between atoms: N2_4  and  N3_5 
REMARK    3  A    between atoms: N3_5  and  N4_7 
ROOT
HETATM    1  N4  UNL     1      60.613  -2.954  -0.511  1.00  0.00    -0.237 N 
HETATM    2  C1  UNL     1      60.215  -3.298  -1.741  1.00  0.00     0.121 A 
HETATM    3  C2  UNL     1      60.344  -4.589  -2.166  1.00  0.00     0.036 A 
HETATM    4  C3  UNL     1      60.886  -5.540  -1.328  1.00  0.00     0.090 A 
HETATM    5  N5  UNL     1      61.265  -5.133  -0.106  1.00  0.00    -0.360 N 
ATOM      6  H5  UNL     1      61.667  -5.820   0.530  1.00  0.00     0.166 HD
HETATM    7  C4  UNL     1      61.142  -3.865   0.320  1.00  0.00     0.208 A 
ENDROOT
BRANCH   1   8
HETATM    8  N3  UNL     1      60.485  -1.639  -0.067  1.00  0.00    -0.149 N 
ATOM      9  H3  UNL     1      61.309  -1.139   0.267  1.00  0.00     0.226 HD
BRANCH   8  10
HETATM   10  N2  UNL     1      59.408  -1.081  -0.073  1.00  0.00    -0.227 NA
BRANCH  10  11
HETATM   11  N1  UNL     1      58.318  -0.565  -0.339  1.00  0.00    -0.259 N 
ATOM     12  H12 UNL     1      58.777   0.155  -0.897  1.00  0.00     0.193 HD
ATOM     13  H11 UNL     1      57.338  -0.301  -0.436  1.00  0.00     0.193 HD
ENDBRANCH  10  11
ENDBRANCH   8  10
ENDBRANCH   1   8
TORSDOF 3
ENDMDL
MODEL 5
REMARK VINA RESULT: -4.081762444      1.404      1.429
REMARK  3 active torsions:
REMARK  status: ('A' for Active; 'I' for Inactive)
REMARK    1  A    between atoms: N1_1  and  N2_4 
REMARK    2  A    between atoms: N2_4  and  N3_5 
REMARK    3  A    between atoms: N3_5  and  N4_7 
ROOT
HETATM    1  N4  UNL     1      60.096  -3.203   0.085  1.00  0.00    -0.237 N 
HETATM    2  C1  UNL     1      61.189  -3.919  -0.201  1.00  0.00     0.121 A 
HETATM    3  C2  UNL     1      61.152  -5.282  -0.131  1.00  0.00     0.036 A 
HETATM    4  C3  UNL     1      59.989  -5.922   0.236  1.00  0.00     0.090 A 
HETATM    5  N5  UNL     1      58.926  -5.149   0.510  1.00  0.00    -0.360 N 
ATOM      6  H5  UNL     1      58.054  -5.603   0.782  1.00  0.00     0.166 HD
HETATM    7  C4  UNL     1      58.953  -3.808   0.444  1.00  0.00     0.208 A 
ENDROOT
BRANCH   1   8
HETATM    8  N3  UNL     1      60.122  -1.811   0.016  1.00  0.00    -0.149 N 
ATOM      9  H3  UNL     1      61.011  -1.319   0.107  1.00  0.00     0.226 HD
BRANCH   8  10
HETATM   10  N2  UNL     1      59.101  -1.177  -0.151  1.00  0.00    -0.227 NA
BRANCH  10  11
HETATM   11  N1  UNL     1      58.228  -0.341  -0.403  1.00  0.00    -0.259 N 
ATOM     12  H12 UNL     1      58.906   0.248  -0.884  1.00  0.00     0.193 HD
ATOM     13  H11 UNL     1      57.375   0.210  -0.504  1.00  0.00     0.193 HD
ENDBRANCH  10  11
ENDBRANCH   8  10
ENDBRANCH   1   8
TORSDOF 3
ENDMDL
