MODEL 1
REMARK VINA RESULT: -4.733275484      0.000      0.000
REMARK  2 active torsions:
REMARK  status: ('A' for Active; 'I' for Inactive)
REMARK    1  A    between atoms: C3_3  and  O1_4 
REMARK    2  A    between atoms: O1_4  and  C4_5 
ROOT
HETATM    1  O1  UNL     1      60.474  -3.775  -2.311  1.00  0.00    -0.376 OA
ENDROOT
BRANCH   1   2
HETATM    2  C3  UNL     1      60.228  -4.707  -1.305  1.00  0.00     0.122 C 
HETATM    3  C2  UNL     1      60.782  -6.092  -1.666  1.00  0.00     0.032 C 
HETATM    4  C1  UNL     1      61.129  -6.225  -0.181  1.00  0.00     0.005 C 
HETATM    5  C7  UNL     1      61.275  -4.698  -0.187  1.00  0.00     0.032 C 
ENDBRANCH   1   2
BRANCH   1   6
HETATM    6  C4  UNL     1      59.271  -3.235  -2.690  1.00  0.00     0.169 C 
HETATM    7  C5  UNL     1      58.257  -3.353  -1.546  1.00  0.00     0.201 C 
HETATM    8  O2  UNL     1      57.274  -3.493  -2.555  1.00  0.00    -0.386 OA
HETATM    9  C6  UNL     1      58.263  -4.191  -3.285  1.00  0.00     0.201 C 
ENDBRANCH   1   6
TORSDOF 2
ENDMDL
MODEL 2
REMARK VINA RESULT: -4.476409108      0.758      1.536
REMARK  2 active torsions:
REMARK  status: ('A' for Active; 'I' for Inactive)
REMARK    1  A    between atoms: C3_3  and  O1_4 
REMARK    2  A    between atoms: O1_4  and  C4_5 
ROOT
HETATM    1  O1  UNL     1      59.905  -3.450  -1.929  1.00  0.00    -0.376 OA
ENDROOT
BRANCH   1   2
HETATM    2  C3  UNL     1      60.876  -4.383  -1.569  1.00  0.00     0.122 C 
HETATM    3  C2  UNL     1      60.940  -4.580  -0.050  1.00  0.00     0.032 C 
HETATM    4  C1  UNL     1      61.217  -6.054  -0.357  1.00  0.00     0.005 C 
HETATM    5  C7  UNL     1      60.389  -5.834  -1.630  1.00  0.00     0.032 C 
ENDBRANCH   1   2
BRANCH   1   6
HETATM    6  C4  UNL     1      58.676  -4.037  -1.769  1.00  0.00     0.169 C 
HETATM    7  C5  UNL     1      57.795  -3.758  -2.992  1.00  0.00     0.201 C 
HETATM    8  O2  UNL     1      56.703  -3.761  -2.091  1.00  0.00    -0.386 OA
HETATM    9  C6  UNL     1      57.593  -3.175  -1.162  1.00  0.00     0.201 C 
ENDBRANCH   1   6
TORSDOF 2
ENDMDL
MODEL 3
REMARK VINA RESULT: -4.401014394      1.828      2.345
REMARK  2 active torsions:
REMARK  status: ('A' for Active; 'I' for Inactive)
REMARK    1  A    between atoms: C3_3  and  O1_4 
REMARK    2  A    between atoms: O1_4  and  C4_5 
ROOT
HETATM    1  O1  UNL     1      58.641  -4.271  -0.926  1.00  0.00    -0.376 OA
ENDROOT
BRANCH   1   2
HETATM    2  C3  UNL     1      59.947  -4.654  -0.629  1.00  0.00     0.122 C 
HETATM    3  C2  UNL     1      59.985  -5.848   0.334  1.00  0.00     0.032 C 
HETATM    4  C1  UNL     1      61.200  -6.322  -0.466  1.00  0.00     0.005 C 
HETATM    5  C7  UNL     1      60.559  -5.606  -1.662  1.00  0.00     0.032 C 
ENDBRANCH   1   2
BRANCH   1   6
HETATM    6  C4  UNL     1      58.639  -2.918  -1.156  1.00  0.00     0.169 C 
HETATM    7  C5  UNL     1      59.707  -2.236  -0.292  1.00  0.00     0.201 C 
HETATM    8  O2  UNL     1      58.827  -1.128  -0.244  1.00  0.00    -0.386 OA
HETATM    9  C6  UNL     1      57.783  -2.080  -0.234  1.00  0.00     0.201 C 
ENDBRANCH   1   6
TORSDOF 2
ENDMDL
MODEL 4
REMARK VINA RESULT: -4.383627162      2.073      2.577
REMARK  2 active torsions:
REMARK  status: ('A' for Active; 'I' for Inactive)
REMARK    1  A    between atoms: C3_3  and  O1_4 
REMARK    2  A    between atoms: O1_4  and  C4_5 
ROOT
HETATM    1  O1  UNL     1      60.592  -3.721   0.481  1.00  0.00    -0.376 OA
ENDROOT
BRANCH   1   2
HETATM    2  C3  UNL     1      61.197  -4.669  -0.343  1.00  0.00     0.122 C 
HETATM    3  C2  UNL     1      60.583  -6.061  -0.155  1.00  0.00     0.032 C 
HETATM    4  C1  UNL     1      60.786  -6.241  -1.661  1.00  0.00     0.005 C 
HETATM    5  C7  UNL     1      60.613  -4.719  -1.758  1.00  0.00     0.032 C 
ENDBRANCH   1   2
BRANCH   1   6
HETATM    6  C4  UNL     1      59.895  -2.851  -0.319  1.00  0.00     0.169 C 
HETATM    7  C5  UNL     1      60.015  -1.424   0.227  1.00  0.00     0.201 C 
HETATM    8  O2  UNL     1      58.707  -1.221  -0.275  1.00  0.00    -0.386 OA
HETATM    9  C6  UNL     1      58.466  -2.567   0.083  1.00  0.00     0.201 C 
ENDBRANCH   1   6
TORSDOF 2
ENDMDL
MODEL 5
REMARK VINA RESULT: -4.315594914      1.173      1.977
REMARK  2 active torsions:
REMARK  status: ('A' for Active; 'I' for Inactive)
REMARK    1  A    between atoms: C3_3  and  O1_4 
REMARK    2  A    between atoms: O1_4  and  C4_5 
ROOT
HETATM    1  O1  UNL     1      59.465  -2.884  -2.295  1.00  0.00    -0.376 OA
ENDROOT
BRANCH   1   2
HETATM    2  C3  UNL     1      60.631  -3.360  -1.699  1.00  0.00     0.122 C 
HETATM    3  C2  UNL     1      60.857  -2.738  -0.315  1.00  0.00     0.032 C 
HETATM    4  C1  UNL     1      61.401  -4.108   0.097  1.00  0.00     0.005 C 
HETATM    5  C7  UNL     1      60.445  -4.686  -0.955  1.00  0.00     0.032 C 
ENDBRANCH   1   2
BRANCH   1   6
HETATM    6  C4  UNL     1      58.434  -3.711  -1.926  1.00  0.00     0.169 C 
HETATM    7  C5  UNL     1      57.405  -3.807  -3.059  1.00  0.00     0.201 C 
HETATM    8  O2  UNL     1      56.432  -3.940  -2.039  1.00  0.00    -0.386 OA
HETATM    9  C6  UNL     1      57.233  -3.047  -1.292  1.00  0.00     0.201 C 
ENDBRANCH   1   6
TORSDOF 2
ENDMDL
