MODEL 1
REMARK VINA RESULT: -4.642192965      0.000      0.000
REMARK  3 active torsions:
REMARK  status: ('A' for Active; 'I' for Inactive)
REMARK    1  A    between atoms: C2_2  and  O1_3 
REMARK    2  A    between atoms: O1_3  and  C3_4 
REMARK    3  A    between atoms: N1_8  and  O2_9 
ROOT
HETATM    1  C3  UNL     1      60.518  -4.662  -1.764  1.00  0.00     0.278 A 
HETATM    2  C4  UNL     1      60.778  -3.213  -1.732  1.00  0.00     0.030 A 
HETATM    3  C5  UNL     1      61.054  -2.904  -0.484  1.00  0.00     0.020 A 
HETATM    4  C6  UNL     1      60.989  -4.119   0.348  1.00  0.00     0.120 A 
HETATM    5  N1  UNL     1      60.682  -5.126  -0.385  1.00  0.00    -0.238 N 
ENDROOT
BRANCH   1   6
HETATM    6  O1  UNL     1      59.199  -4.987  -2.138  1.00  0.00    -0.333 OA
BRANCH   6   7
HETATM    7  C2  UNL     1      58.577  -4.196  -3.085  1.00  0.00     0.127 C 
HETATM    8  C1  UNL     1      57.337  -3.808  -2.874  1.00  0.00     0.037 C 
ENDBRANCH   6   7
ENDBRANCH   1   6
BRANCH   5   9
HETATM    9  O2  UNL     1      60.530  -6.420   0.034  1.00  0.00    -0.285 OA
ATOM     10  H2  UNL     1      61.145  -6.893   0.581  1.00  0.00     0.245 HD
ENDBRANCH   5   9
TORSDOF 3
ENDMDL
MODEL 2
REMARK VINA RESULT: -4.511040407      1.964      2.983
REMARK  3 active torsions:
REMARK  status: ('A' for Active; 'I' for Inactive)
REMARK    1  A    between atoms: C2_2  and  O1_3 
REMARK    2  A    between atoms: O1_3  and  C3_4 
REMARK    3  A    between atoms: N1_8  and  O2_9 
ROOT
HETATM    1  C3  UNL     1      59.593  -4.278   0.505  1.00  0.00     0.278 A 
HETATM    2  C4  UNL     1      60.923  -3.652   0.422  1.00  0.00     0.030 A 
HETATM    3  C5  UNL     1      60.845  -2.713  -0.494  1.00  0.00     0.020 A 
HETATM    4  C6  UNL     1      59.479  -2.678  -1.046  1.00  0.00     0.120 A 
HETATM    5  N1  UNL     1      58.762  -3.575  -0.474  1.00  0.00    -0.238 N 
ENDROOT
BRANCH   1   6
HETATM    6  O1  UNL     1      59.587  -5.636   0.128  1.00  0.00    -0.333 OA
BRANCH   6   7
HETATM    7  C2  UNL     1      60.718  -6.147  -0.481  1.00  0.00     0.127 C 
HETATM    8  C1  UNL     1      60.709  -6.334  -1.784  1.00  0.00     0.037 C 
ENDBRANCH   6   7
ENDBRANCH   1   6
BRANCH   5   9
HETATM    9  O2  UNL     1      57.443  -3.842  -0.725  1.00  0.00    -0.285 OA
ATOM     10  H2  UNL     1      56.886  -3.344  -1.311  1.00  0.00     0.245 HD
ENDBRANCH   5   9
TORSDOF 3
ENDMDL
MODEL 3
REMARK VINA RESULT: -4.403902746      1.091      1.219
REMARK  3 active torsions:
REMARK  status: ('A' for Active; 'I' for Inactive)
REMARK    1  A    between atoms: C2_2  and  O1_3 
REMARK    2  A    between atoms: O1_3  and  C3_4 
REMARK    3  A    between atoms: N1_8  and  O2_9 
ROOT
HETATM    1  C3  UNL     1      59.896  -4.152  -1.928  1.00  0.00     0.278 A 
HETATM    2  C4  UNL     1      60.587  -3.195  -1.048  1.00  0.00     0.030 A 
HETATM    3  C5  UNL     1      61.257  -3.905  -0.167  1.00  0.00     0.020 A 
HETATM    4  C6  UNL     1      61.040  -5.340  -0.425  1.00  0.00     0.120 A 
HETATM    5  N1  UNL     1      60.260  -5.481  -1.434  1.00  0.00    -0.238 N 
ENDROOT
BRANCH   1   6
HETATM    6  O1  UNL     1      58.491  -4.072  -1.851  1.00  0.00    -0.333 OA
BRANCH   6   7
HETATM    7  C2  UNL     1      57.793  -3.757  -3.002  1.00  0.00     0.127 C 
HETATM    8  C1  UNL     1      56.485  -3.622  -2.935  1.00  0.00     0.037 C 
ENDBRANCH   6   7
ENDBRANCH   1   6
BRANCH   5   9
HETATM    9  O2  UNL     1      59.832  -6.666  -1.970  1.00  0.00    -0.285 OA
ATOM     10  H2  UNL     1      60.080  -7.528  -1.658  1.00  0.00     0.245 HD
ENDBRANCH   5   9
TORSDOF 3
ENDMDL
MODEL 4
REMARK VINA RESULT: -4.310797173      2.110      3.404
REMARK  3 active torsions:
REMARK  status: ('A' for Active; 'I' for Inactive)
REMARK    1  A    between atoms: C2_2  and  O1_3 
REMARK    2  A    between atoms: O1_3  and  C3_4 
REMARK    3  A    between atoms: N1_8  and  O2_9 
ROOT
HETATM    1  C3  UNL     1      61.185  -4.674   0.086  1.00  0.00     0.278 A 
HETATM    2  C4  UNL     1      61.075  -6.067  -0.378  1.00  0.00     0.030 A 
HETATM    3  C5  UNL     1      60.676  -6.020  -1.630  1.00  0.00     0.020 A 
HETATM    4  C6  UNL     1      60.509  -4.614  -2.039  1.00  0.00     0.120 A 
HETATM    5  N1  UNL     1      60.801  -3.843  -1.057  1.00  0.00    -0.238 N 
ENDROOT
BRANCH   1   6
HETATM    6  O1  UNL     1      60.289  -4.356   1.127  1.00  0.00    -0.333 OA
BRANCH   6   7
HETATM    7  C2  UNL     1      59.270  -5.248   1.403  1.00  0.00     0.127 C 
HETATM    8  C1  UNL     1      58.031  -4.806   1.442  1.00  0.00     0.037 C 
ENDBRANCH   6   7
ENDBRANCH   1   6
BRANCH   5   9
HETATM    9  O2  UNL     1      60.764  -2.475  -1.059  1.00  0.00    -0.285 OA
ATOM     10  H2  UNL     1      60.081  -1.946  -0.664  1.00  0.00     0.245 HD
ENDBRANCH   5   9
TORSDOF 3
ENDMDL
MODEL 5
REMARK VINA RESULT: -4.304321567      2.377      3.020
REMARK  3 active torsions:
REMARK  status: ('A' for Active; 'I' for Inactive)
REMARK    1  A    between atoms: C2_2  and  O1_3 
REMARK    2  A    between atoms: O1_3  and  C3_4 
REMARK    3  A    between atoms: N1_8  and  O2_9 
ROOT
HETATM    1  C3  UNL     1      60.720  -4.023   0.775  1.00  0.00     0.278 A 
HETATM    2  C4  UNL     1      60.870  -3.004  -0.277  1.00  0.00     0.030 A 
HETATM    3  C5  UNL     1      60.030  -2.034   0.011  1.00  0.00     0.020 A 
HETATM    4  C6  UNL     1      59.301  -2.368   1.249  1.00  0.00     0.120 A 
HETATM    5  N1  UNL     1      59.697  -3.507   1.686  1.00  0.00    -0.238 N 
ENDROOT
BRANCH   1   6
HETATM    6  O1  UNL     1      60.238  -5.257   0.295  1.00  0.00    -0.333 OA
BRANCH   6   7
HETATM    7  C2  UNL     1      61.069  -6.012  -0.512  1.00  0.00     0.127 C 
HETATM    8  C1  UNL     1      60.688  -6.280  -1.743  1.00  0.00     0.037 C 
ENDBRANCH   6   7
ENDBRANCH   1   6
BRANCH   5   9
HETATM    9  O2  UNL     1      59.249  -4.146   2.810  1.00  0.00    -0.285 OA
ATOM     10  H2  UNL     1      59.803  -4.559   3.462  1.00  0.00     0.245 HD
ENDBRANCH   5   9
TORSDOF 3
ENDMDL
