MODEL 1
REMARK VINA RESULT: -4.517218965      0.000      0.000
REMARK  1 active torsions:
REMARK  status: ('A' for Active; 'I' for Inactive)
REMARK    1  A    between atoms: C2_2  and  C3_3 
ROOT
HETATM    1  C3  UNL     1      59.842  -4.777  -2.130  1.00  0.00     0.061 A 
HETATM    2  C4  UNL     1      60.197  -3.441  -1.999  1.00  0.00     0.135 A 
HETATM    3  N1  UNL     1      59.199  -2.722  -2.536  1.00  0.00    -0.293 N 
ATOM      4  H1  UNL     1      59.174  -1.703  -2.586  1.00  0.00     0.183 HD
HETATM    5  N2  UNL     1      58.252  -3.526  -2.991  1.00  0.00    -0.023 NA
HETATM    6  N3  UNL     1      58.648  -4.777  -2.742  1.00  0.00    -0.283 N 
ATOM      7  H3  UNL     1      58.117  -5.614  -2.982  1.00  0.00     0.184 HD
ENDROOT
BRANCH   1   8
HETATM    8  C2  UNL     1      60.628  -5.933  -1.685  1.00  0.00     0.022 C 
HETATM    9  C1  UNL     1      61.075  -5.953  -0.456  1.00  0.00     0.013 C 
ENDBRANCH   1   8
TORSDOF 1
ENDMDL
MODEL 2
REMARK VINA RESULT: -4.201441346      1.308      1.756
REMARK  1 active torsions:
REMARK  status: ('A' for Active; 'I' for Inactive)
REMARK    1  A    between atoms: C2_2  and  C3_3 
ROOT
HETATM    1  C3  UNL     1      60.201  -4.151  -1.532  1.00  0.00     0.061 A 
HETATM    2  C4  UNL     1      59.278  -3.597  -2.409  1.00  0.00     0.135 A 
HETATM    3  N1  UNL     1      59.040  -2.348  -1.980  1.00  0.00    -0.293 N 
ATOM      4  H1  UNL     1      58.400  -1.689  -2.425  1.00  0.00     0.183 HD
HETATM    5  N2  UNL     1      59.754  -2.094  -0.896  1.00  0.00    -0.023 NA
HETATM    6  N3  UNL     1      60.461  -3.195  -0.627  1.00  0.00    -0.283 N 
ATOM      7  H3  UNL     1      61.106  -3.296   0.156  1.00  0.00     0.184 HD
ENDROOT
BRANCH   1   8
HETATM    8  C2  UNL     1      60.761  -5.504  -1.602  1.00  0.00     0.022 C 
HETATM    9  C1  UNL     1      61.073  -6.114  -0.488  1.00  0.00     0.013 C 
ENDBRANCH   1   8
TORSDOF 1
ENDMDL
MODEL 3
REMARK VINA RESULT: -4.199073970      1.084      1.982
REMARK  1 active torsions:
REMARK  status: ('A' for Active; 'I' for Inactive)
REMARK    1  A    between atoms: C2_2  and  C3_3 
ROOT
HETATM    1  C3  UNL     1      59.871  -3.437  -1.864  1.00  0.00     0.061 A 
HETATM    2  C4  UNL     1      59.538  -4.749  -2.174  1.00  0.00     0.135 A 
HETATM    3  N1  UNL     1      58.522  -4.693  -3.049  1.00  0.00    -0.293 N 
ATOM      4  H1  UNL     1      58.061  -5.505  -3.462  1.00  0.00     0.183 HD
HETATM    5  N2  UNL     1      58.204  -3.434  -3.300  1.00  0.00    -0.023 NA
HETATM    6  N3  UNL     1      59.028  -2.671  -2.575  1.00  0.00    -0.283 N 
ATOM      7  H3  UNL     1      59.019  -1.652  -2.565  1.00  0.00     0.184 HD
ENDROOT
BRANCH   1   8
HETATM    8  C2  UNL     1      60.927  -3.002  -0.945  1.00  0.00     0.022 C 
HETATM    9  C1  UNL     1      61.280  -3.800   0.030  1.00  0.00     0.013 C 
ENDBRANCH   1   8
TORSDOF 1
ENDMDL
MODEL 4
REMARK VINA RESULT: -4.183160870      1.011      1.140
REMARK  1 active torsions:
REMARK  status: ('A' for Active; 'I' for Inactive)
REMARK    1  A    between atoms: C2_2  and  C3_3 
ROOT
HETATM    1  C3  UNL     1      59.865  -4.502  -1.883  1.00  0.00     0.061 A 
HETATM    2  C4  UNL     1      59.618  -3.220  -2.356  1.00  0.00     0.135 A 
HETATM    3  N1  UNL     1      58.576  -3.313  -3.197  1.00  0.00    -0.293 N 
ATOM      4  H1  UNL     1      58.161  -2.530  -3.703  1.00  0.00     0.183 HD
HETATM    5  N2  UNL     1      58.164  -4.568  -3.275  1.00  0.00    -0.023 NA
HETATM    6  N3  UNL     1      58.952  -5.289  -2.473  1.00  0.00    -0.283 N 
ATOM      7  H3  UNL     1      58.871  -6.295  -2.328  1.00  0.00     0.184 HD
ENDROOT
BRANCH   1   8
HETATM    8  C2  UNL     1      60.914  -4.890  -0.934  1.00  0.00     0.022 C 
HETATM    9  C1  UNL     1      61.287  -4.030  -0.023  1.00  0.00     0.013 C 
ENDBRANCH   1   8
TORSDOF 1
ENDMDL
MODEL 5
REMARK VINA RESULT: -4.085558590      1.417      2.554
REMARK  1 active torsions:
REMARK  status: ('A' for Active; 'I' for Inactive)
REMARK    1  A    between atoms: C2_2  and  C3_3 
ROOT
HETATM    1  C3  UNL     1      60.327  -4.632  -1.218  1.00  0.00     0.061 A 
HETATM    2  C4  UNL     1      60.350  -6.020  -1.258  1.00  0.00     0.135 A 
HETATM    3  N1  UNL     1      59.411  -6.395  -2.142  1.00  0.00    -0.293 N 
ATOM      4  H1  UNL     1      59.194  -7.361  -2.387  1.00  0.00     0.183 HD
HETATM    5  N2  UNL     1      58.811  -5.331  -2.650  1.00  0.00    -0.023 NA
HETATM    6  N3  UNL     1      59.371  -4.259  -2.084  1.00  0.00    -0.283 N 
ATOM      7  H3  UNL     1      59.111  -3.293  -2.282  1.00  0.00     0.184 HD
ENDROOT
BRANCH   1   8
HETATM    8  C2  UNL     1      61.180  -3.773  -0.391  1.00  0.00     0.022 C 
HETATM    9  C1  UNL     1      61.073  -2.475  -0.513  1.00  0.00     0.013 C 
ENDBRANCH   1   8
TORSDOF 1
ENDMDL
