MODEL 1
REMARK VINA RESULT: -8.276806972      0.000      0.000
REMARK  9 active torsions:
REMARK  status: ('A' for Active; 'I' for Inactive)
REMARK    1  A    between atoms: C2_2  and  N1_3 
REMARK       I    between atoms: N1_3  and  C3_4 
REMARK       I    between atoms: N1_3  and  C16_29 
REMARK    2  A    between atoms: C3_4  and  C4_6 
REMARK    3  A    between atoms: C4_6  and  N2_7 
REMARK    4  A    between atoms: N4_18  and  C11_19 
REMARK    5  A    between atoms: C11_19  and  C12_20 
REMARK    6  A    between atoms: C11_19  and  C13_23 
REMARK    7  A    between atoms: C12_20  and  O4_21 
REMARK    8  A    between atoms: C16_29  and  O8_31 
REMARK    9  A    between atoms: O8_31  and  C17_32 
ROOT
HETATM    1  N2  UNL     1      15.513 -14.139  20.239  1.00  0.00    -0.197 N 
HETATM    2  N3  UNL     1      14.881 -14.717  19.240  1.00  0.00    -0.321 N 
ATOM      3  H3  UNL     1      14.148 -14.222  18.732  1.00  0.00     0.181 HD
HETATM    4  C5  UNL     1      15.243 -16.055  18.880  1.00  0.00     0.166 C 
HETATM    5  C6  UNL     1      14.027 -16.916  18.749  1.00  0.00     0.189 C 
HETATM    6  O2  UNL     1      13.961 -17.968  19.610  1.00  0.00    -0.387 OA
HETATM    7  C7  UNL     1      14.117 -17.711  20.930  1.00  0.00     0.193 C 
HETATM    8  C8  UNL     1      12.859 -17.278  21.641  1.00  0.00     0.193 C 
HETATM    9  O3  UNL     1      12.228 -16.214  21.062  1.00  0.00    -0.387 OA
HETATM   10  C9  UNL     1      12.571 -14.983  21.611  1.00  0.00     0.188 C 
HETATM   11  C10 UNL     1      12.347 -13.839  20.663  1.00  0.00     0.169 C 
HETATM   12  N4  UNL     1      13.174 -12.680  20.996  1.00  0.00    -0.261 N 
HETATM   13  S1  UNL     1      14.768 -12.902  21.138  1.00  0.00     0.341 S 
HETATM   14  O5  UNL     1      15.609 -11.716  20.788  1.00  0.00    -0.180 OA
HETATM   15  O6  UNL     1      15.130 -13.231  22.592  1.00  0.00    -0.180 OA
ENDROOT
BRANCH   1  16
HETATM   16  C4  UNL     1      16.925 -14.040  20.233  1.00  0.00     0.266 C 
BRANCH  16  17
HETATM   17  C3  UNL     1      17.580 -14.602  21.450  1.00  0.00     0.248 C 
HETATM   18  N1  UNL     1      18.623 -13.849  22.051  1.00  0.00    -0.263 N 
HETATM   19  C16 UNL     1      19.282 -14.343  23.218  1.00  0.00     0.369 C 
HETATM   20  O7  UNL     1      18.933 -15.459  23.718  1.00  0.00    -0.238 OA
HETATM   21  O1  UNL     1      17.221 -15.691  21.916  1.00  0.00    -0.271 OA
BRANCH  18  22
HETATM   22  C2  UNL     1      19.063 -12.571  21.528  1.00  0.00     0.133 C 
HETATM   23  C1  UNL     1      20.262 -12.860  20.635  1.00  0.00     0.027 C 
ENDBRANCH  18  22
BRANCH  19  24
HETATM   24  O8  UNL     1      20.296 -13.665  23.846  1.00  0.00    -0.299 OA
BRANCH  24  25
HETATM   25  C17 UNL     1      21.097 -14.185  24.866  1.00  0.00     0.125 C 
HETATM   26  C18 UNL     1      22.563 -14.271  24.482  1.00  0.00     0.040 C 
HETATM   27  C19 UNL     1      20.961 -13.391  26.157  1.00  0.00     0.040 C 
ENDBRANCH  24  25
ENDBRANCH  19  24
ENDBRANCH  16  17
ENDBRANCH   1  16
BRANCH  12  28
HETATM   28  C11 UNL     1      12.441 -11.505  21.196  1.00  0.00     0.029 C 
BRANCH  28  29
HETATM   29  C12 UNL     1      12.813 -10.295  20.371  1.00  0.00     0.217 C 
BRANCH  29  30
HETATM   30  O4  UNL     1      12.918 -10.461  19.027  1.00  0.00    -0.395 OA
ATOM     31  H4  UNL     1      12.188 -10.871  18.578  1.00  0.00     0.209 HD
ENDBRANCH  29  30
ENDBRANCH  28  29
BRANCH  28  32
HETATM   32  C13 UNL     1      11.963 -11.182  22.576  1.00  0.00     0.026 C 
HETATM   33  C14 UNL     1      13.046 -10.346  23.289  1.00  0.00     0.016 C 
HETATM   34  C15 UNL     1      11.605 -12.230  23.520  1.00  0.00     0.016 C 
ENDBRANCH  28  32
ENDBRANCH  12  28
TORSDOF 9
ENDMDL
MODEL 2
REMARK VINA RESULT: -7.820217421      1.246      1.356
REMARK  9 active torsions:
REMARK  status: ('A' for Active; 'I' for Inactive)
REMARK    1  A    between atoms: C2_2  and  N1_3 
REMARK       I    between atoms: N1_3  and  C3_4 
REMARK       I    between atoms: N1_3  and  C16_29 
REMARK    2  A    between atoms: C3_4  and  C4_6 
REMARK    3  A    between atoms: C4_6  and  N2_7 
REMARK    4  A    between atoms: N4_18  and  C11_19 
REMARK    5  A    between atoms: C11_19  and  C12_20 
REMARK    6  A    between atoms: C11_19  and  C13_23 
REMARK    7  A    between atoms: C12_20  and  O4_21 
REMARK    8  A    between atoms: C16_29  and  O8_31 
REMARK    9  A    between atoms: O8_31  and  C17_32 
ROOT
HETATM    1  N2  UNL     1      16.116 -15.130  20.722  1.00  0.00    -0.197 N 
HETATM    2  N3  UNL     1      15.666 -15.988  19.830  1.00  0.00    -0.321 N 
ATOM      3  H3  UNL     1      15.115 -15.668  19.033  1.00  0.00     0.181 HD
HETATM    4  C5  UNL     1      15.966 -17.377  20.001  1.00  0.00     0.166 C 
HETATM    5  C6  UNL     1      14.730 -18.207  19.855  1.00  0.00     0.189 C 
HETATM    6  O2  UNL     1      14.373 -18.922  20.958  1.00  0.00    -0.387 OA
HETATM    7  C7  UNL     1      14.259 -18.254  22.130  1.00  0.00     0.193 C 
HETATM    8  C8  UNL     1      12.924 -17.586  22.347  1.00  0.00     0.193 C 
HETATM    9  O3  UNL     1      12.543 -16.755  21.333  1.00  0.00    -0.387 OA
HETATM   10  C9  UNL     1      12.876 -15.419  21.539  1.00  0.00     0.188 C 
HETATM   11  C10 UNL     1      12.979 -14.640  20.258  1.00  0.00     0.169 C 
HETATM   12  N4  UNL     1      13.821 -13.455  20.403  1.00  0.00    -0.261 N 
HETATM   13  S1  UNL     1      15.316 -13.652  20.986  1.00  0.00     0.341 S 
HETATM   14  O5  UNL     1      16.325 -12.662  20.498  1.00  0.00    -0.180 OA
HETATM   15  O6  UNL     1      15.313 -13.500  22.512  1.00  0.00    -0.180 OA
ENDROOT
BRANCH   1  16
HETATM   16  C4  UNL     1      17.496 -15.069  21.025  1.00  0.00     0.266 C 
BRANCH  16  17
HETATM   17  C3  UNL     1      17.816 -15.313  22.462  1.00  0.00     0.248 C 
HETATM   18  N1  UNL     1      18.755 -14.452  23.089  1.00  0.00    -0.263 N 
HETATM   19  C16 UNL     1      19.095 -14.643  24.463  1.00  0.00     0.369 C 
HETATM   20  O7  UNL     1      18.556 -15.585  25.124  1.00  0.00    -0.238 OA
HETATM   21  O1  UNL     1      17.277 -16.238  23.081  1.00  0.00    -0.271 OA
BRANCH  18  22
HETATM   22  C2  UNL     1      19.401 -13.361  22.387  1.00  0.00     0.133 C 
HETATM   23  C1  UNL     1      20.711 -13.913  21.841  1.00  0.00     0.027 C 
ENDBRANCH  18  22
BRANCH  19  24
HETATM   24  O8  UNL     1      19.994 -13.847  25.127  1.00  0.00    -0.299 OA
BRANCH  24  25
HETATM   25  C17 UNL     1      21.033 -14.313  25.937  1.00  0.00     0.125 C 
HETATM   26  C18 UNL     1      22.407 -14.064  25.341  1.00  0.00     0.040 C 
HETATM   27  C19 UNL     1      20.975 -13.715  27.335  1.00  0.00     0.040 C 
ENDBRANCH  24  25
ENDBRANCH  19  24
ENDBRANCH  16  17
ENDBRANCH   1  16
BRANCH  12  28
HETATM   28  C11 UNL     1      13.180 -12.263  20.047  1.00  0.00     0.029 C 
BRANCH  28  29
HETATM   29  C12 UNL     1      13.612 -11.589  18.765  1.00  0.00     0.217 C 
BRANCH  29  30
HETATM   30  O4  UNL     1      12.845 -10.565  18.307  1.00  0.00    -0.395 OA
ATOM     31  H4  UNL     1      13.106 -10.153  17.492  1.00  0.00     0.209 HD
ENDBRANCH  29  30
ENDBRANCH  28  29
BRANCH  28  32
HETATM   32  C13 UNL     1      12.771 -11.315  21.129  1.00  0.00     0.026 C 
HETATM   33  C14 UNL     1      13.971 -10.406  21.467  1.00  0.00     0.016 C 
HETATM   34  C15 UNL     1      12.280 -11.794  22.413  1.00  0.00     0.016 C 
ENDBRANCH  28  32
ENDBRANCH  12  28
TORSDOF 9
ENDMDL
MODEL 3
REMARK VINA RESULT: -7.311769319      3.392      6.317
REMARK  9 active torsions:
REMARK  status: ('A' for Active; 'I' for Inactive)
REMARK    1  A    between atoms: C2_2  and  N1_3 
REMARK       I    between atoms: N1_3  and  C3_4 
REMARK       I    between atoms: N1_3  and  C16_29 
REMARK    2  A    between atoms: C3_4  and  C4_6 
REMARK    3  A    between atoms: C4_6  and  N2_7 
REMARK    4  A    between atoms: N4_18  and  C11_19 
REMARK    5  A    between atoms: C11_19  and  C12_20 
REMARK    6  A    between atoms: C11_19  and  C13_23 
REMARK    7  A    between atoms: C12_20  and  O4_21 
REMARK    8  A    between atoms: C16_29  and  O8_31 
REMARK    9  A    between atoms: O8_31  and  C17_32 
ROOT
HETATM    1  N2  UNL     1      15.348 -14.036  20.517  1.00  0.00    -0.197 N 
HETATM    2  N3  UNL     1      16.137 -15.070  20.720  1.00  0.00    -0.321 N 
ATOM      3  H3  UNL     1      16.946 -15.233  20.119  1.00  0.00     0.181 HD
HETATM    4  C5  UNL     1      15.838 -15.961  21.800  1.00  0.00     0.166 C 
HETATM    5  C6  UNL     1      15.864 -17.383  21.337  1.00  0.00     0.189 C 
HETATM    6  O2  UNL     1      14.686 -18.056  21.449  1.00  0.00    -0.387 OA
HETATM    7  C7  UNL     1      13.583 -17.489  20.906  1.00  0.00     0.193 C 
HETATM    8  C8  UNL     1      13.395 -17.760  19.434  1.00  0.00     0.193 C 
HETATM    9  O3  UNL     1      14.475 -17.439  18.663  1.00  0.00    -0.387 OA
HETATM   10  C9  UNL     1      14.413 -16.167  18.102  1.00  0.00     0.188 C 
HETATM   11  C10 UNL     1      15.768 -15.616  17.756  1.00  0.00     0.169 C 
HETATM   12  N4  UNL     1      15.766 -14.155  17.692  1.00  0.00    -0.261 N 
HETATM   13  S1  UNL     1      15.209 -13.340  18.972  1.00  0.00     0.341 S 
HETATM   14  O5  UNL     1      15.823 -11.992  19.183  1.00  0.00    -0.180 OA
HETATM   15  O6  UNL     1      13.707 -13.074  18.818  1.00  0.00    -0.180 OA
ENDROOT
BRANCH   1  16
HETATM   16  C4  UNL     1      15.093 -13.114  21.560  1.00  0.00     0.266 C 
BRANCH  16  17
HETATM   17  C3  UNL     1      13.679 -13.108  22.035  1.00  0.00     0.248 C 
HETATM   18  N1  UNL     1      13.112 -11.864  22.419  1.00  0.00    -0.263 N 
HETATM   19  C16 UNL     1      11.762 -11.804  22.881  1.00  0.00     0.369 C 
HETATM   20  O7  UNL     1      11.067 -12.867  22.947  1.00  0.00    -0.238 OA
HETATM   21  O1  UNL     1      13.026 -14.157  22.090  1.00  0.00    -0.271 OA
BRANCH  18  22
HETATM   22  C2  UNL     1      13.853 -10.620  22.365  1.00  0.00     0.133 C 
HETATM   23  C1  UNL     1      13.581 -10.014  20.994  1.00  0.00     0.027 C 
ENDBRANCH  18  22
BRANCH  19  24
HETATM   24  O8  UNL     1      11.156 -10.635  23.267  1.00  0.00    -0.299 OA
BRANCH  24  25
HETATM   25  C17 UNL     1      10.895 -10.267  24.589  1.00  0.00     0.125 C 
HETATM   26  C18 UNL     1      11.250 -11.354  25.588  1.00  0.00     0.040 C 
HETATM   27  C19 UNL     1      11.610  -8.979  24.972  1.00  0.00     0.040 C 
ENDBRANCH  24  25
ENDBRANCH  19  24
ENDBRANCH  16  17
ENDBRANCH   1  16
BRANCH  12  28
HETATM   28  C11 UNL     1      16.220 -13.646  16.470  1.00  0.00     0.029 C 
BRANCH  28  29
HETATM   29  C12 UNL     1      15.541 -12.409  15.929  1.00  0.00     0.217 C 
BRANCH  29  30
HETATM   30  O4  UNL     1      14.183 -12.399  15.905  1.00  0.00    -0.395 OA
ATOM     31  H4  UNL     1      13.761 -12.091  15.111  1.00  0.00     0.209 HD
ENDBRANCH  29  30
ENDBRANCH  28  29
BRANCH  28  32
HETATM   32  C13 UNL     1      16.677 -14.604  15.417  1.00  0.00     0.026 C 
HETATM   33  C14 UNL     1      17.968 -14.052  14.776  1.00  0.00     0.016 C 
HETATM   34  C15 UNL     1      15.820 -14.969  14.299  1.00  0.00     0.016 C 
ENDBRANCH  28  32
ENDBRANCH  12  28
TORSDOF 9
ENDMDL
MODEL 4
REMARK VINA RESULT: -7.175456002      2.518      3.648
REMARK  9 active torsions:
REMARK  status: ('A' for Active; 'I' for Inactive)
REMARK    1  A    between atoms: C2_2  and  N1_3 
REMARK       I    between atoms: N1_3  and  C3_4 
REMARK       I    between atoms: N1_3  and  C16_29 
REMARK    2  A    between atoms: C3_4  and  C4_6 
REMARK    3  A    between atoms: C4_6  and  N2_7 
REMARK    4  A    between atoms: N4_18  and  C11_19 
REMARK    5  A    between atoms: C11_19  and  C12_20 
REMARK    6  A    between atoms: C11_19  and  C13_23 
REMARK    7  A    between atoms: C12_20  and  O4_21 
REMARK    8  A    between atoms: C16_29  and  O8_31 
REMARK    9  A    between atoms: O8_31  and  C17_32 
ROOT
HETATM    1  N2  UNL     1      16.396 -14.415  21.533  1.00  0.00    -0.197 N 
HETATM    2  N3  UNL     1      16.563 -15.638  21.075  1.00  0.00    -0.321 N 
ATOM      3  H3  UNL     1      16.845 -15.797  20.108  1.00  0.00     0.181 HD
HETATM    4  C5  UNL     1      16.339 -16.740  21.962  1.00  0.00     0.166 C 
HETATM    5  C6  UNL     1      15.455 -17.763  21.323  1.00  0.00     0.189 C 
HETATM    6  O2  UNL     1      14.271 -17.988  21.955  1.00  0.00    -0.387 OA
HETATM    7  C7  UNL     1      13.491 -16.917  22.230  1.00  0.00     0.193 C 
HETATM    8  C8  UNL     1      12.600 -16.478  21.095  1.00  0.00     0.193 C 
HETATM    9  O3  UNL     1      13.260 -16.246  19.923  1.00  0.00    -0.387 OA
HETATM   10  C9  UNL     1      13.616 -14.915  19.726  1.00  0.00     0.188 C 
HETATM   11  C10 UNL     1      14.776 -14.755  18.784  1.00  0.00     0.169 C 
HETATM   12  N4  UNL     1      15.478 -13.489  18.989  1.00  0.00    -0.261 N 
HETATM   13  S1  UNL     1      15.996 -13.141  20.480  1.00  0.00     0.341 S 
HETATM   14  O5  UNL     1      17.223 -12.288  20.544  1.00  0.00    -0.180 OA
HETATM   15  O6  UNL     1      14.923 -12.353  21.242  1.00  0.00    -0.180 OA
ENDROOT
BRANCH   1  16
HETATM   16  C4  UNL     1      17.097 -13.978  22.683  1.00  0.00     0.266 C 
BRANCH  16  17
HETATM   17  C3  UNL     1      18.536 -14.373  22.705  1.00  0.00     0.248 C 
HETATM   18  N1  UNL     1      19.093 -14.783  23.945  1.00  0.00    -0.263 N 
HETATM   19  C16 UNL     1      20.466 -15.170  24.020  1.00  0.00     0.369 C 
HETATM   20  O7  UNL     1      21.189 -15.147  22.973  1.00  0.00    -0.238 OA
HETATM   21  O1  UNL     1      19.216 -14.340  21.673  1.00  0.00    -0.271 OA
BRANCH  18  22
HETATM   22  C2  UNL     1      18.320 -14.831  25.169  1.00  0.00     0.133 C 
HETATM   23  C1  UNL     1      17.951 -16.291  25.391  1.00  0.00     0.027 C 
ENDBRANCH  18  22
BRANCH  19  24
HETATM   24  O8  UNL     1      21.065 -15.576  25.186  1.00  0.00    -0.299 OA
BRANCH  24  25
HETATM   25  C17 UNL     1      21.880 -14.774  25.989  1.00  0.00     0.125 C 
HETATM   26  C18 UNL     1      23.017 -14.127  25.219  1.00  0.00     0.040 C 
HETATM   27  C19 UNL     1      21.083 -13.696  26.710  1.00  0.00     0.040 C 
ENDBRANCH  24  25
ENDBRANCH  19  24
ENDBRANCH  16  17
ENDBRANCH   1  16
BRANCH  12  28
HETATM   28  C11 UNL     1      15.570 -12.704  17.835  1.00  0.00     0.029 C 
BRANCH  28  29
HETATM   29  C12 UNL     1      14.284 -12.345  17.125  1.00  0.00     0.217 C 
BRANCH  29  30
HETATM   30  O4  UNL     1      13.527 -11.354  17.665  1.00  0.00    -0.395 OA
ATOM     31  H4  UNL     1      12.770 -11.611  18.179  1.00  0.00     0.209 HD
ENDBRANCH  29  30
ENDBRANCH  28  29
BRANCH  28  32
HETATM   32  C13 UNL     1      16.738 -12.901  16.922  1.00  0.00     0.026 C 
HETATM   33  C14 UNL     1      16.917 -11.626  16.070  1.00  0.00     0.016 C 
HETATM   34  C15 UNL     1      16.784 -14.004  15.974  1.00  0.00     0.016 C 
ENDBRANCH  28  32
ENDBRANCH  12  28
TORSDOF 9
ENDMDL
MODEL 5
REMARK VINA RESULT: -7.103339282      2.064      4.609
REMARK  9 active torsions:
REMARK  status: ('A' for Active; 'I' for Inactive)
REMARK    1  A    between atoms: C2_2  and  N1_3 
REMARK       I    between atoms: N1_3  and  C3_4 
REMARK       I    between atoms: N1_3  and  C16_29 
REMARK    2  A    between atoms: C3_4  and  C4_6 
REMARK    3  A    between atoms: C4_6  and  N2_7 
REMARK    4  A    between atoms: N4_18  and  C11_19 
REMARK    5  A    between atoms: C11_19  and  C12_20 
REMARK    6  A    between atoms: C11_19  and  C13_23 
REMARK    7  A    between atoms: C12_20  and  O4_21 
REMARK    8  A    between atoms: C16_29  and  O8_31 
REMARK    9  A    between atoms: O8_31  and  C17_32 
ROOT
HETATM    1  N2  UNL     1      15.856 -15.273  21.081  1.00  0.00    -0.197 N 
HETATM    2  N3  UNL     1      15.121 -14.659  21.985  1.00  0.00    -0.321 N 
ATOM      3  H3  UNL     1      14.336 -15.136  22.427  1.00  0.00     0.181 HD
HETATM    4  C5  UNL     1      15.448 -13.309  22.334  1.00  0.00     0.166 C 
HETATM    5  C6  UNL     1      14.228 -12.445  22.301  1.00  0.00     0.189 C 
HETATM    6  O2  UNL     1      14.260 -11.424  21.401  1.00  0.00    -0.387 OA
HETATM    7  C7  UNL     1      14.557 -11.727  20.116  1.00  0.00     0.193 C 
HETATM    8  C8  UNL     1      13.382 -12.186  19.288  1.00  0.00     0.193 C 
HETATM    9  O3  UNL     1      12.687 -13.229  19.833  1.00  0.00    -0.387 OA
HETATM   10  C9  UNL     1      13.083 -14.479  19.369  1.00  0.00     0.188 C 
HETATM   11  C10 UNL     1      12.753 -15.588  20.327  1.00  0.00     0.169 C 
HETATM   12  N4  UNL     1      13.607 -16.757  20.128  1.00  0.00    -0.261 N 
HETATM   13  S1  UNL     1      15.208 -16.542  20.151  1.00  0.00     0.341 S 
HETATM   14  O5  UNL     1      16.001 -17.714  20.633  1.00  0.00    -0.180 OA
HETATM   15  O6  UNL     1      15.726 -16.265  18.734  1.00  0.00    -0.180 OA
ENDROOT
BRANCH   1  16
HETATM   16  C4  UNL     1      17.258 -15.371  21.243  1.00  0.00     0.266 C 
BRANCH  16  17
HETATM   17  C3  UNL     1      17.698 -15.530  22.660  1.00  0.00     0.248 C 
HETATM   18  N1  UNL     1      18.687 -14.639  23.154  1.00  0.00    -0.263 N 
HETATM   19  C16 UNL     1      19.141 -14.749  24.503  1.00  0.00     0.369 C 
HETATM   20  O7  UNL     1      18.659 -15.648  25.263  1.00  0.00    -0.238 OA
HETATM   21  O1  UNL     1      17.212 -16.413  23.377  1.00  0.00    -0.271 OA
BRANCH  18  22
HETATM   22  C2  UNL     1      19.272 -13.595  22.336  1.00  0.00     0.133 C 
HETATM   23  C1  UNL     1      20.574 -14.159  21.782  1.00  0.00     0.027 C 
ENDBRANCH  18  22
BRANCH  19  24
HETATM   24  O8  UNL     1      20.094 -13.920  25.040  1.00  0.00    -0.299 OA
BRANCH  24  25
HETATM   25  C17 UNL     1      21.107 -14.324  25.914  1.00  0.00     0.125 C 
HETATM   26  C18 UNL     1      22.499 -14.044  25.376  1.00  0.00     0.040 C 
HETATM   27  C19 UNL     1      20.961 -13.685  27.287  1.00  0.00     0.040 C 
ENDBRANCH  24  25
ENDBRANCH  19  24
ENDBRANCH  16  17
ENDBRANCH   1  16
BRANCH  12  28
HETATM   28  C11 UNL     1      12.895 -17.939  19.891  1.00  0.00     0.029 C 
BRANCH  28  29
HETATM   29  C12 UNL     1      13.208 -18.707  18.628  1.00  0.00     0.217 C 
BRANCH  29  30
HETATM   30  O4  UNL     1      13.537 -17.988  17.523  1.00  0.00    -0.395 OA
ATOM     31  H4  UNL     1      13.792 -17.081  17.649  1.00  0.00     0.209 HD
ENDBRANCH  29  30
ENDBRANCH  28  29
BRANCH  28  32
HETATM   32  C13 UNL     1      11.462 -18.012  20.312  1.00  0.00     0.026 C 
HETATM   33  C14 UNL     1      11.319 -19.115  21.382  1.00  0.00     0.016 C 
HETATM   34  C15 UNL     1      10.400 -18.270  19.352  1.00  0.00     0.016 C 
ENDBRANCH  28  32
ENDBRANCH  12  28
TORSDOF 9
ENDMDL
