MODEL 1
REMARK VINA RESULT: -6.040452931      0.000      0.000
REMARK  15 active torsions:
REMARK  status: ('A' for Active; 'I' for Inactive)
REMARK    1  A    between atoms: O1_2  and  C2_3 
REMARK    2  A    between atoms: C2_3  and  O3_5 
REMARK    3  A    between atoms: O3_5  and  C3_6 
REMARK    4  A    between atoms: C3_6  and  C4_10 
REMARK    5  A    between atoms: C4_10  and  O4_11 
REMARK    6  A    between atoms: C4_10  and  C15_40 
REMARK    7  A    between atoms: O4_11  and  N2_12 
REMARK    8  A    between atoms: N2_12  and  C5_13 
REMARK    9  A    between atoms: C8_16  and  O5_17 
REMARK   10  A    between atoms: N4_21  and  C10_22 
REMARK   11  A    between atoms: C10_22  and  C11_23 
REMARK   12  A    between atoms: C11_23  and  N5_24 
REMARK   13  A    between atoms: C11_23  and  O6_28 
REMARK   14  A    between atoms: C14_35  and  O8_36 
REMARK   15  A    between atoms: C14_35  and  O9_38 
ROOT
HETATM    1  C5  UNL     1      38.597  29.273 -20.564  1.00  0.00     0.198 C 
HETATM    2  C6  UNL     1      38.312  30.561 -21.240  1.00  0.00     0.106 A 
HETATM    3  C7  UNL     1      39.090  30.921 -22.325  1.00  0.00     0.084 A 
HETATM    4  C8  UNL     1      38.829  32.116 -22.963  1.00  0.00     0.135 A 
HETATM    5  C9  UNL     1      37.790  32.910 -22.485  1.00  0.00     0.157 A 
HETATM    6  N3  UNL     1      37.592  34.130 -23.201  1.00  0.00    -0.079 NA
HETATM    7  N4  UNL     1      37.036  32.558 -21.431  1.00  0.00    -0.295 N 
HETATM    8  C12 UNL     1      37.290  31.394 -20.811  1.00  0.00     0.265 A 
HETATM    9  O7  UNL     1      36.620  31.014 -19.823  1.00  0.00    -0.267 OA
HETATM   10  N6  UNL     1      40.128  30.043 -22.743  1.00  0.00    -0.381 N 
ATOM     11  H6  UNL     1      40.734  30.338 -23.509  1.00  0.00     0.160 HD
HETATM   12  C13 UNL     1      40.363  28.761 -22.138  1.00  0.00     0.196 C 
HETATM   13  C14 UNL     1      40.034  28.833 -20.685  1.00  0.00     0.237 C 
ENDROOT
BRANCH   1  14
HETATM   14  N2  UNL     1      37.719  28.684 -19.995  1.00  0.00    -0.278 NA
BRANCH  14  15
HETATM   15  O4  UNL     1      36.805  28.071 -19.401  1.00  0.00    -0.184 OA
BRANCH  15  16
HETATM   16  C4  UNL     1      36.042  26.937 -19.580  1.00  0.00     0.342 C 
BRANCH  16  17
HETATM   17  C3  UNL     1      34.707  27.308 -20.202  1.00  0.00     0.167 C 
HETATM   18  N1  UNL     1      33.677  27.387 -19.529  1.00  0.00    -0.380 N 
ATOM     19  H12 UNL     1      32.781  27.636 -19.947  1.00  0.00     0.158 HD
ATOM     20  H11 UNL     1      33.668  27.207 -18.526  1.00  0.00     0.158 HD
BRANCH  17  21
HETATM   21  O3  UNL     1      34.719  27.553 -21.567  1.00  0.00    -0.239 OA
BRANCH  21  22
HETATM   22  C2  UNL     1      34.729  28.777 -22.173  1.00  0.00     0.412 C 
HETATM   23  O2  UNL     1      33.847  29.606 -21.896  1.00  0.00    -0.229 OA
BRANCH  22  24
HETATM   24  O1  UNL     1      35.694  29.146 -23.098  1.00  0.00    -0.303 OA
HETATM   25  C1  UNL     1      36.645  28.234 -23.617  1.00  0.00     0.215 C 
ENDBRANCH  22  24
ENDBRANCH  21  22
ENDBRANCH  17  21
ENDBRANCH  16  17
BRANCH  16  26
HETATM   26  C15 UNL     1      35.700  26.226 -18.336  1.00  0.00     0.215 C 
HETATM   27  O10 UNL     1      35.909  26.779 -17.237  1.00  0.00    -0.646 OA
HETATM   28  O11 UNL     1      35.153  24.961 -18.353  1.00  0.00    -0.646 OA
ENDBRANCH  16  26
ENDBRANCH  15  16
ENDBRANCH  14  15
ENDBRANCH   1  14
BRANCH  13  29
HETATM   29  O8  UNL     1      40.262  27.647 -20.007  1.00  0.00    -0.358 OA
ATOM     30  H8  UNL     1      41.130  27.306 -20.183  1.00  0.00     0.213 HD
ENDBRANCH  13  29
BRANCH  13  31
HETATM   31  O9  UNL     1      40.812  29.814 -20.089  1.00  0.00    -0.358 OA
ATOM     32  H9  UNL     1      41.678  29.445 -19.965  1.00  0.00     0.213 HD
ENDBRANCH  13  31
BRANCH   4  33
HETATM   33  O5  UNL     1      39.603  32.479 -24.044  1.00  0.00    -0.356 OA
ATOM     34  H5  UNL     1      39.954  33.361 -24.083  1.00  0.00     0.218 HD
ENDBRANCH   4  33
BRANCH   7  35
HETATM   35  C10 UNL     1      35.964  33.446 -21.000  1.00  0.00     0.194 C 
BRANCH  35  36
HETATM   36  C11 UNL     1      36.175  33.925 -19.566  1.00  0.00     0.334 C 
BRANCH  36  37
HETATM   37  N5  UNL     1      36.165  35.370 -19.592  1.00  0.00    -0.051 N 
ATOM     38  H53 UNL     1      36.406  35.754 -20.505  1.00  0.00     0.277 HD
ATOM     39  H52 UNL     1      35.226  35.764 -19.527  1.00  0.00     0.277 HD
ATOM     40  H51 UNL     1      36.784  35.690 -18.847  1.00  0.00     0.277 HD
ENDBRANCH  36  37
BRANCH  36  41
HETATM   41  O6  UNL     1      35.264  33.379 -18.696  1.00  0.00    -0.369 OA
ATOM     42  H6  UNL     1      34.953  32.529 -18.987  1.00  0.00     0.212 HD
ENDBRANCH  36  41
ENDBRANCH  35  36
ENDBRANCH   7  35
TORSDOF 15
ENDMDL
MODEL 2
REMARK VINA RESULT: -5.917838430      1.660      2.965
REMARK  15 active torsions:
REMARK  status: ('A' for Active; 'I' for Inactive)
REMARK    1  A    between atoms: O1_2  and  C2_3 
REMARK    2  A    between atoms: C2_3  and  O3_5 
REMARK    3  A    between atoms: O3_5  and  C3_6 
REMARK    4  A    between atoms: C3_6  and  C4_10 
REMARK    5  A    between atoms: C4_10  and  O4_11 
REMARK    6  A    between atoms: C4_10  and  C15_40 
REMARK    7  A    between atoms: O4_11  and  N2_12 
REMARK    8  A    between atoms: N2_12  and  C5_13 
REMARK    9  A    between atoms: C8_16  and  O5_17 
REMARK   10  A    between atoms: N4_21  and  C10_22 
REMARK   11  A    between atoms: C10_22  and  C11_23 
REMARK   12  A    between atoms: C11_23  and  N5_24 
REMARK   13  A    between atoms: C11_23  and  O6_28 
REMARK   14  A    between atoms: C14_35  and  O8_36 
REMARK   15  A    between atoms: C14_35  and  O9_38 
ROOT
HETATM    1  C5  UNL     1      38.324  30.145 -20.801  1.00  0.00     0.198 C 
HETATM    2  C6  UNL     1      38.367  31.449 -21.505  1.00  0.00     0.106 A 
HETATM    3  C7  UNL     1      39.279  31.613 -22.531  1.00  0.00     0.084 A 
HETATM    4  C8  UNL     1      39.324  32.822 -23.194  1.00  0.00     0.135 A 
HETATM    5  C9  UNL     1      38.447  33.828 -22.799  1.00  0.00     0.157 A 
HETATM    6  N3  UNL     1      38.563  35.046 -23.535  1.00  0.00    -0.079 NA
HETATM    7  N4  UNL     1      37.562  33.666 -21.801  1.00  0.00    -0.295 N 
HETATM    8  C12 UNL     1      37.518  32.489 -21.157  1.00  0.00     0.265 A 
HETATM    9  O7  UNL     1      36.715  32.280 -20.219  1.00  0.00    -0.267 OA
HETATM   10  N6  UNL     1      40.133  30.527 -22.866  1.00  0.00    -0.381 N 
ATOM     11  H6  UNL     1      40.841  30.670 -23.587  1.00  0.00     0.160 HD
HETATM   12  C13 UNL     1      40.048  29.237 -22.238  1.00  0.00     0.196 C 
HETATM   13  C14 UNL     1      39.639  29.409 -20.813  1.00  0.00     0.237 C 
ENDROOT
BRANCH   1  14
HETATM   14  N2  UNL     1      37.303  29.768 -20.295  1.00  0.00    -0.278 NA
BRANCH  14  15
HETATM   15  O4  UNL     1      36.240  29.373 -19.768  1.00  0.00    -0.184 OA
BRANCH  15  16
HETATM   16  C4  UNL     1      35.011  28.891 -20.165  1.00  0.00     0.342 C 
BRANCH  16  17
HETATM   17  C3  UNL     1      35.137  27.430 -20.565  1.00  0.00     0.167 C 
HETATM   18  N1  UNL     1      36.048  27.033 -21.293  1.00  0.00    -0.380 N 
ATOM     19  H12 UNL     1      36.133  26.053 -21.561  1.00  0.00     0.158 HD
ATOM     20  H11 UNL     1      36.761  27.661 -21.664  1.00  0.00     0.158 HD
BRANCH  17  21
HETATM   21  O3  UNL     1      34.168  26.577 -20.061  1.00  0.00    -0.239 OA
BRANCH  21  22
HETATM   22  C2  UNL     1      33.501  26.713 -18.876  1.00  0.00     0.412 C 
HETATM   23  O2  UNL     1      34.078  26.435 -17.812  1.00  0.00    -0.229 OA
BRANCH  22  24
HETATM   24  O1  UNL     1      32.190  27.155 -18.802  1.00  0.00    -0.303 OA
HETATM   25  C1  UNL     1      31.136  26.349 -18.306  1.00  0.00     0.215 C 
ENDBRANCH  22  24
ENDBRANCH  21  22
ENDBRANCH  17  21
ENDBRANCH  16  17
BRANCH  16  26
HETATM   26  C15 UNL     1      34.442  29.562 -21.346  1.00  0.00     0.215 C 
HETATM   27  O10 UNL     1      34.252  30.796 -21.318  1.00  0.00    -0.646 OA
HETATM   28  O11 UNL     1      34.110  28.862 -22.487  1.00  0.00    -0.646 OA
ENDBRANCH  16  26
ENDBRANCH  15  16
ENDBRANCH  14  15
ENDBRANCH   1  14
BRANCH  13  29
HETATM   29  O8  UNL     1      39.561  28.216 -20.113  1.00  0.00    -0.358 OA
ATOM     30  H8  UNL     1      38.679  27.863 -20.123  1.00  0.00     0.213 HD
ENDBRANCH  13  29
BRANCH  13  31
HETATM   31  O9  UNL     1      40.563  30.215 -20.168  1.00  0.00    -0.358 OA
ATOM     32  H9  UNL     1      41.279  29.654 -19.893  1.00  0.00     0.213 HD
ENDBRANCH  13  31
BRANCH   4  33
HETATM   33  O5  UNL     1      40.232  32.989 -24.217  1.00  0.00    -0.356 OA
ATOM     34  H5  UNL     1      40.955  33.594 -24.096  1.00  0.00     0.218 HD
ENDBRANCH   4  33
BRANCH   7  35
HETATM   35  C10 UNL     1      36.676  34.770 -21.455  1.00  0.00     0.194 C 
BRANCH  35  36
HETATM   36  C11 UNL     1      37.130  35.478 -20.181  1.00  0.00     0.334 C 
BRANCH  36  37
HETATM   37  N5  UNL     1      37.210  36.889 -20.480  1.00  0.00    -0.051 N 
ATOM     38  H53 UNL     1      36.938  37.110 -21.438  1.00  0.00     0.277 HD
ATOM     39  H52 UNL     1      36.490  37.438 -20.009  1.00  0.00     0.277 HD
ATOM     40  H51 UNL     1      38.156  37.193 -20.253  1.00  0.00     0.277 HD
ENDBRANCH  36  37
BRANCH  36  41
HETATM   41  O6  UNL     1      36.327  35.181 -19.107  1.00  0.00    -0.369 OA
ATOM     42  H6  UNL     1      36.820  34.821 -18.378  1.00  0.00     0.212 HD
ENDBRANCH  36  41
ENDBRANCH  35  36
ENDBRANCH   7  35
TORSDOF 15
ENDMDL
MODEL 3
REMARK VINA RESULT: -5.875031683      1.521      2.997
REMARK  15 active torsions:
REMARK  status: ('A' for Active; 'I' for Inactive)
REMARK    1  A    between atoms: O1_2  and  C2_3 
REMARK    2  A    between atoms: C2_3  and  O3_5 
REMARK    3  A    between atoms: O3_5  and  C3_6 
REMARK    4  A    between atoms: C3_6  and  C4_10 
REMARK    5  A    between atoms: C4_10  and  O4_11 
REMARK    6  A    between atoms: C4_10  and  C15_40 
REMARK    7  A    between atoms: O4_11  and  N2_12 
REMARK    8  A    between atoms: N2_12  and  C5_13 
REMARK    9  A    between atoms: C8_16  and  O5_17 
REMARK   10  A    between atoms: N4_21  and  C10_22 
REMARK   11  A    between atoms: C10_22  and  C11_23 
REMARK   12  A    between atoms: C11_23  and  N5_24 
REMARK   13  A    between atoms: C11_23  and  O6_28 
REMARK   14  A    between atoms: C14_35  and  O8_36 
REMARK   15  A    between atoms: C14_35  and  O9_38 
ROOT
HETATM    1  C5  UNL     1      38.335  29.362 -20.739  1.00  0.00     0.198 C 
HETATM    2  C6  UNL     1      38.199  30.713 -21.334  1.00  0.00     0.106 A 
HETATM    3  C7  UNL     1      39.084  31.087 -22.329  1.00  0.00     0.084 A 
HETATM    4  C8  UNL     1      38.962  32.341 -22.890  1.00  0.00     0.135 A 
HETATM    5  C9  UNL     1      37.950  33.179 -22.430  1.00  0.00     0.157 A 
HETATM    6  N3  UNL     1      37.898  34.458 -23.062  1.00  0.00    -0.079 NA
HETATM    7  N4  UNL     1      37.091  32.813 -21.464  1.00  0.00    -0.295 N 
HETATM    8  C12 UNL     1      37.210  31.592 -20.918  1.00  0.00     0.265 A 
HETATM    9  O7  UNL     1      36.439  31.196 -20.014  1.00  0.00    -0.267 OA
HETATM   10  N6  UNL     1      40.084  30.162 -22.736  1.00  0.00    -0.381 N 
ATOM     11  H6  UNL     1      40.769  30.462 -23.430  1.00  0.00     0.160 HD
HETATM   12  C13 UNL     1      40.177  28.825 -22.216  1.00  0.00     0.196 C 
HETATM   13  C14 UNL     1      39.741  28.820 -20.789  1.00  0.00     0.237 C 
ENDROOT
BRANCH   1  14
HETATM   14  N2  UNL     1      37.375  28.805 -20.283  1.00  0.00    -0.278 NA
BRANCH  14  15
HETATM   15  O4  UNL     1      36.374  28.226 -19.807  1.00  0.00    -0.184 OA
BRANCH  15  16
HETATM   16  C4  UNL     1      35.002  28.276 -19.928  1.00  0.00     0.342 C 
BRANCH  16  17
HETATM   17  C3  UNL     1      34.405  26.922 -19.581  1.00  0.00     0.167 C 
HETATM   18  N1  UNL     1      35.104  25.911 -19.486  1.00  0.00    -0.380 N 
ATOM     19  H12 UNL     1      34.704  25.002 -19.253  1.00  0.00     0.158 HD
ATOM     20  H11 UNL     1      36.112  25.931 -19.633  1.00  0.00     0.158 HD
BRANCH  17  21
HETATM   21  O3  UNL     1      33.034  26.895 -19.380  1.00  0.00    -0.239 OA
BRANCH  21  22
HETATM   22  C2  UNL     1      32.389  26.571 -18.220  1.00  0.00     0.412 C 
HETATM   23  O2  UNL     1      31.459  27.287 -17.815  1.00  0.00    -0.229 OA
BRANCH  22  24
HETATM   24  O1  UNL     1      32.728  25.462 -17.461  1.00  0.00    -0.303 OA
HETATM   25  C1  UNL     1      31.790  24.768 -16.658  1.00  0.00     0.215 C 
ENDBRANCH  22  24
ENDBRANCH  21  22
ENDBRANCH  17  21
ENDBRANCH  16  17
BRANCH  16  26
HETATM   26  C15 UNL     1      34.516  28.571 -21.287  1.00  0.00     0.215 C 
HETATM   27  O10 UNL     1      34.766  27.772 -22.214  1.00  0.00    -0.646 OA
HETATM   28  O11 UNL     1      33.790  29.709 -21.565  1.00  0.00    -0.646 OA
ENDBRANCH  16  26
ENDBRANCH  15  16
ENDBRANCH  14  15
ENDBRANCH   1  14
BRANCH  13  29
HETATM   29  O8  UNL     1      39.827  27.574 -20.190  1.00  0.00    -0.358 OA
ATOM     30  H8  UNL     1      40.729  27.291 -20.102  1.00  0.00     0.213 HD
ENDBRANCH  13  29
BRANCH  13  31
HETATM   31  O9  UNL     1      40.539  29.691 -20.065  1.00  0.00    -0.358 OA
ATOM     32  H9  UNL     1      40.116  29.824 -19.225  1.00  0.00     0.213 HD
ENDBRANCH  13  31
BRANCH   4  33
HETATM   33  O5  UNL     1      39.843  32.718 -23.880  1.00  0.00    -0.356 OA
ATOM     34  H5  UNL     1      40.050  32.099 -24.571  1.00  0.00     0.218 HD
ENDBRANCH   4  33
BRANCH   7  35
HETATM   35  C10 UNL     1      36.057  33.750 -21.044  1.00  0.00     0.194 C 
BRANCH  35  36
HETATM   36  C11 UNL     1      36.227  34.158 -19.584  1.00  0.00     0.334 C 
BRANCH  36  37
HETATM   37  N5  UNL     1      36.175  35.601 -19.533  1.00  0.00    -0.051 N 
ATOM     38  H53 UNL     1      36.125  36.031 -20.457  1.00  0.00     0.277 HD
ATOM     39  H52 UNL     1      35.289  35.956 -19.175  1.00  0.00     0.277 HD
ATOM     40  H51 UNL     1      36.979  35.914 -18.990  1.00  0.00     0.277 HD
ENDBRANCH  36  37
BRANCH  36  41
HETATM   41  O6  UNL     1      35.317  33.540 -18.761  1.00  0.00    -0.369 OA
ATOM     42  H6  UNL     1      35.730  32.920 -18.170  1.00  0.00     0.212 HD
ENDBRANCH  36  41
ENDBRANCH  35  36
ENDBRANCH   7  35
TORSDOF 15
ENDMDL
MODEL 4
REMARK VINA RESULT: -5.853136631      1.027      1.124
REMARK  15 active torsions:
REMARK  status: ('A' for Active; 'I' for Inactive)
REMARK    1  A    between atoms: O1_2  and  C2_3 
REMARK    2  A    between atoms: C2_3  and  O3_5 
REMARK    3  A    between atoms: O3_5  and  C3_6 
REMARK    4  A    between atoms: C3_6  and  C4_10 
REMARK    5  A    between atoms: C4_10  and  O4_11 
REMARK    6  A    between atoms: C4_10  and  C15_40 
REMARK    7  A    between atoms: O4_11  and  N2_12 
REMARK    8  A    between atoms: N2_12  and  C5_13 
REMARK    9  A    between atoms: C8_16  and  O5_17 
REMARK   10  A    between atoms: N4_21  and  C10_22 
REMARK   11  A    between atoms: C10_22  and  C11_23 
REMARK   12  A    between atoms: C11_23  and  N5_24 
REMARK   13  A    between atoms: C11_23  and  O6_28 
REMARK   14  A    between atoms: C14_35  and  O8_36 
REMARK   15  A    between atoms: C14_35  and  O9_38 
ROOT
HETATM    1  C5  UNL     1      38.542  29.252 -20.669  1.00  0.00     0.198 C 
HETATM    2  C6  UNL     1      38.275  30.573 -21.287  1.00  0.00     0.106 A 
HETATM    3  C7  UNL     1      39.083  30.986 -22.331  1.00  0.00     0.084 A 
HETATM    4  C8  UNL     1      38.840  32.212 -22.913  1.00  0.00     0.135 A 
HETATM    5  C9  UNL     1      37.789  32.984 -22.424  1.00  0.00     0.157 A 
HETATM    6  N3  UNL     1      37.611  34.239 -23.082  1.00  0.00    -0.079 NA
HETATM    7  N4  UNL     1      37.006  32.580 -21.410  1.00  0.00    -0.295 N 
HETATM    8  C12 UNL     1      37.243  31.385 -20.843  1.00  0.00     0.265 A 
HETATM    9  O7  UNL     1      36.546  30.957 -19.895  1.00  0.00    -0.267 OA
HETATM   10  N6  UNL     1      40.131  30.129 -22.764  1.00  0.00    -0.381 N 
ATOM     11  H6  UNL     1      40.757  30.461 -23.497  1.00  0.00     0.160 HD
HETATM   12  C13 UNL     1      40.349  28.817 -22.220  1.00  0.00     0.196 C 
HETATM   13  C14 UNL     1      39.981  28.816 -20.774  1.00  0.00     0.237 C 
ENDROOT
BRANCH   1  14
HETATM   14  N2  UNL     1      37.648  28.637 -20.155  1.00  0.00    -0.278 NA
BRANCH  14  15
HETATM   15  O4  UNL     1      36.717  27.997 -19.619  1.00  0.00    -0.184 OA
BRANCH  15  16
HETATM   16  C4  UNL     1      35.619  27.259 -20.007  1.00  0.00     0.342 C 
BRANCH  16  17
HETATM   17  C3  UNL     1      34.963  27.909 -21.214  1.00  0.00     0.167 C 
HETATM   18  N1  UNL     1      34.504  29.052 -21.166  1.00  0.00    -0.380 N 
ATOM     19  H12 UNL     1      34.065  29.488 -21.976  1.00  0.00     0.158 HD
ATOM     20  H11 UNL     1      34.541  29.618 -20.319  1.00  0.00     0.158 HD
BRANCH  17  21
HETATM   21  O3  UNL     1      34.914  27.141 -22.367  1.00  0.00    -0.239 OA
BRANCH  21  22
HETATM   22  C2  UNL     1      34.762  27.601 -23.645  1.00  0.00     0.412 C 
HETATM   23  O2  UNL     1      33.796  27.217 -24.324  1.00  0.00    -0.229 OA
BRANCH  22  24
HETATM   24  O1  UNL     1      35.649  28.491 -24.230  1.00  0.00    -0.303 OA
HETATM   25  C1  UNL     1      37.054  28.351 -24.126  1.00  0.00     0.215 C 
ENDBRANCH  22  24
ENDBRANCH  21  22
ENDBRANCH  17  21
ENDBRANCH  16  17
BRANCH  16  26
HETATM   26  C15 UNL     1      34.552  27.169 -18.996  1.00  0.00     0.215 C 
HETATM   27  O10 UNL     1      34.858  27.057 -17.791  1.00  0.00    -0.646 OA
HETATM   28  O11 UNL     1      33.219  27.204 -19.345  1.00  0.00    -0.646 OA
ENDBRANCH  16  26
ENDBRANCH  15  16
ENDBRANCH  14  15
ENDBRANCH   1  14
BRANCH  13  29
HETATM   29  O8  UNL     1      40.189  27.596 -20.151  1.00  0.00    -0.358 OA
ATOM     30  H8  UNL     1      39.944  26.871 -20.714  1.00  0.00     0.213 HD
ENDBRANCH  13  29
BRANCH  13  31
HETATM   31  O9  UNL     1      40.742  29.763 -20.108  1.00  0.00    -0.358 OA
ATOM     32  H9  UNL     1      41.313  30.165 -20.752  1.00  0.00     0.213 HD
ENDBRANCH  13  31
BRANCH   4  33
HETATM   33  O5  UNL     1      39.643  32.628 -23.953  1.00  0.00    -0.356 OA
ATOM     34  H5  UNL     1      40.125  33.442 -23.865  1.00  0.00     0.218 HD
ENDBRANCH   4  33
BRANCH   7  35
HETATM   35  C10 UNL     1      35.924  33.447 -20.963  1.00  0.00     0.194 C 
BRANCH  35  36
HETATM   36  C11 UNL     1      36.152  33.941 -19.537  1.00  0.00     0.334 C 
BRANCH  36  37
HETATM   37  N5  UNL     1      36.106  35.385 -19.571  1.00  0.00    -0.051 N 
ATOM     38  H53 UNL     1      36.325  35.812 -18.671  1.00  0.00     0.277 HD
ATOM     39  H52 UNL     1      36.873  35.796 -20.102  1.00  0.00     0.277 HD
ATOM     40  H51 UNL     1      35.188  35.649 -19.926  1.00  0.00     0.277 HD
ENDBRANCH  36  37
BRANCH  36  41
HETATM   41  O6  UNL     1      35.273  33.377 -18.645  1.00  0.00    -0.369 OA
ATOM     42  H6  UNL     1      34.514  33.929 -18.491  1.00  0.00     0.212 HD
ENDBRANCH  36  41
ENDBRANCH  35  36
ENDBRANCH   7  35
TORSDOF 15
ENDMDL
MODEL 5
REMARK VINA RESULT: -5.797489221      1.990      3.647
REMARK  15 active torsions:
REMARK  status: ('A' for Active; 'I' for Inactive)
REMARK    1  A    between atoms: O1_2  and  C2_3 
REMARK    2  A    between atoms: C2_3  and  O3_5 
REMARK    3  A    between atoms: O3_5  and  C3_6 
REMARK    4  A    between atoms: C3_6  and  C4_10 
REMARK    5  A    between atoms: C4_10  and  O4_11 
REMARK    6  A    between atoms: C4_10  and  C15_40 
REMARK    7  A    between atoms: O4_11  and  N2_12 
REMARK    8  A    between atoms: N2_12  and  C5_13 
REMARK    9  A    between atoms: C8_16  and  O5_17 
REMARK   10  A    between atoms: N4_21  and  C10_22 
REMARK   11  A    between atoms: C10_22  and  C11_23 
REMARK   12  A    between atoms: C11_23  and  N5_24 
REMARK   13  A    between atoms: C11_23  and  O6_28 
REMARK   14  A    between atoms: C14_35  and  O8_36 
REMARK   15  A    between atoms: C14_35  and  O9_38 
ROOT
HETATM    1  C5  UNL     1      36.915  28.593 -20.492  1.00  0.00     0.198 C 
HETATM    2  C6  UNL     1      37.118  29.929 -21.100  1.00  0.00     0.106 A 
HETATM    3  C7  UNL     1      38.085  30.066 -22.080  1.00  0.00     0.084 A 
HETATM    4  C8  UNL     1      38.278  31.305 -22.654  1.00  0.00     0.135 A 
HETATM    5  C9  UNL     1      37.489  32.368 -22.221  1.00  0.00     0.157 A 
HETATM    6  N3  UNL     1      37.757  33.614 -22.865  1.00  0.00    -0.079 NA
HETATM    7  N4  UNL     1      36.551  32.232 -21.270  1.00  0.00    -0.295 N 
HETATM    8  C12 UNL     1      36.363  31.025 -20.711  1.00  0.00     0.265 A 
HETATM    9  O7  UNL     1      35.503  30.838 -19.820  1.00  0.00    -0.267 OA
HETATM   10  N6  UNL     1      38.840  28.923 -22.459  1.00  0.00    -0.381 N 
ATOM     11  H6  UNL     1      39.588  29.041 -23.142  1.00  0.00     0.160 HD
HETATM   12  C13 UNL     1      38.599  27.610 -21.926  1.00  0.00     0.196 C 
HETATM   13  C14 UNL     1      38.150  27.728 -20.509  1.00  0.00     0.237 C 
ENDROOT
BRANCH   1  14
HETATM   14  N2  UNL     1      35.841  28.289 -20.050  1.00  0.00    -0.278 NA
BRANCH  14  15
HETATM   15  O4  UNL     1      34.722  27.972 -19.591  1.00  0.00    -0.184 OA
BRANCH  15  16
HETATM   16  C4  UNL     1      34.209  27.264 -18.525  1.00  0.00     0.342 C 
BRANCH  16  17
HETATM   17  C3  UNL     1      34.946  25.942 -18.386  1.00  0.00     0.167 C 
HETATM   18  N1  UNL     1      35.373  25.330 -19.367  1.00  0.00    -0.380 N 
ATOM     19  H12 UNL     1      35.867  24.443 -19.273  1.00  0.00     0.158 HD
ATOM     20  H11 UNL     1      35.254  25.677 -20.318  1.00  0.00     0.158 HD
BRANCH  17  21
HETATM   21  O3  UNL     1      35.107  25.469 -17.092  1.00  0.00    -0.239 OA
BRANCH  21  22
HETATM   22  C2  UNL     1      34.595  24.311 -16.580  1.00  0.00     0.412 C 
HETATM   23  O2  UNL     1      35.062  23.219 -16.945  1.00  0.00    -0.229 OA
BRANCH  22  24
HETATM   24  O1  UNL     1      33.561  24.294 -15.657  1.00  0.00    -0.303 OA
HETATM   25  C1  UNL     1      32.197  24.242 -16.036  1.00  0.00     0.215 C 
ENDBRANCH  22  24
ENDBRANCH  21  22
ENDBRANCH  17  21
ENDBRANCH  16  17
BRANCH  16  26
HETATM   26  C15 UNL     1      32.789  26.898 -18.658  1.00  0.00     0.215 C 
HETATM   27  O10 UNL     1      32.465  25.966 -19.424  1.00  0.00    -0.646 OA
HETATM   28  O11 UNL     1      31.803  27.559 -17.957  1.00  0.00    -0.646 OA
ENDBRANCH  16  26
ENDBRANCH  15  16
ENDBRANCH  14  15
ENDBRANCH   1  14
BRANCH  13  29
HETATM   29  O8  UNL     1      37.923  26.506 -19.897  1.00  0.00    -0.358 OA
ATOM     30  H8  UNL     1      38.093  26.546 -18.964  1.00  0.00     0.213 HD
ENDBRANCH  13  29
BRANCH  13  31
HETATM   31  O9  UNL     1      39.121  28.391 -19.776  1.00  0.00    -0.358 OA
ATOM     32  H9  UNL     1      39.695  27.729 -19.410  1.00  0.00     0.213 HD
ENDBRANCH  13  31
BRANCH   4  33
HETATM   33  O5  UNL     1      39.241  31.446 -23.630  1.00  0.00    -0.356 OA
ATOM     34  H5  UNL     1      39.098  32.073 -24.329  1.00  0.00     0.218 HD
ENDBRANCH   4  33
BRANCH   7  35
HETATM   35  C10 UNL     1      35.765  33.395 -20.879  1.00  0.00     0.194 C 
BRANCH  35  36
HETATM   36  C11 UNL     1      36.125  33.870 -19.474  1.00  0.00     0.334 C 
BRANCH  36  37
HETATM   37  N5  UNL     1      36.271  35.307 -19.532  1.00  0.00    -0.051 N 
ATOM     38  H53 UNL     1      36.959  35.610 -20.220  1.00  0.00     0.277 HD
ATOM     39  H52 UNL     1      35.461  35.774 -19.940  1.00  0.00     0.277 HD
ATOM     40  H51 UNL     1      36.482  35.627 -18.587  1.00  0.00     0.277 HD
ENDBRANCH  36  37
BRANCH  36  41
HETATM   41  O6  UNL     1      35.222  33.441 -18.532  1.00  0.00    -0.369 OA
ATOM     42  H6  UNL     1      34.500  34.050 -18.422  1.00  0.00     0.212 HD
ENDBRANCH  36  41
ENDBRANCH  35  36
ENDBRANCH   7  35
TORSDOF 15
ENDMDL
