MODEL 1
REMARK VINA RESULT: -7.552597092      0.000      0.000
REMARK  8 active torsions:
REMARK  status: ('A' for Active; 'I' for Inactive)
REMARK    1  A    between atoms: N3_5  and  C2_6 
REMARK    2  A    between atoms: C2_6  and  C3_7 
REMARK    3  A    between atoms: C3_7  and  O1_8 
REMARK    4  A    between atoms: C3_7  and  C4_10 
REMARK    5  A    between atoms: C4_10  and  O2_11 
REMARK    6  A    between atoms: C4_10  and  O3_13 
REMARK    7  A    between atoms: C7_19  and  C8_20 
REMARK    8  A    between atoms: C9_23  and  N5_24 
ROOT
HETATM    1  C8  UNL     1      35.128  27.480 -20.687  1.00  0.00     0.083 A 
HETATM    2  N4  UNL     1      34.264  27.214 -19.693  1.00  0.00    -0.186 N 
ATOM      3  H4  UNL     1      34.070  27.942 -19.006  1.00  0.00     0.184 HD
HETATM    4  C9  UNL     1      33.644  26.027 -19.566  1.00  0.00     0.722 A 
HETATM    5  N9  UNL     1      33.906  25.076 -20.479  1.00  0.00    -0.172 N 
ATOM      6  H9  UNL     1      33.436  24.176 -20.384  1.00  0.00     0.186 HD
HETATM    7  C11 UNL     1      34.755  25.244 -21.514  1.00  0.00     0.137 A 
HETATM    8  N10 UNL     1      35.187  24.500 -22.530  1.00  0.00    -0.326 N 
ATOM      9  H10 UNL     1      34.897  23.539 -22.712  1.00  0.00     0.169 HD
HETATM   10  C12 UNL     1      36.070  25.202 -23.293  1.00  0.00     0.132 A 
HETATM   11  C13 UNL     1      36.201  26.465 -22.720  1.00  0.00     0.090 A 
HETATM   12  C14 UNL     1      35.377  26.488 -21.607  1.00  0.00     0.067 A 
HETATM   13  N11 UNL     1      37.118  27.213 -23.501  1.00  0.00    -0.370 N 
ATOM     14  H11 UNL     1      37.307  28.211 -23.402  1.00  0.00     0.161 HD
HETATM   15  C15 UNL     1      37.742  26.331 -24.458  1.00  0.00     0.245 C 
HETATM   16  N12 UNL     1      36.910  25.171 -24.433  1.00  0.00    -0.358 N 
ATOM     17  H12 UNL     1      36.919  24.430 -25.132  1.00  0.00     0.162 HD
ENDROOT
BRANCH   1  18
HETATM   18  C7  UNL     1      35.760  28.802 -20.750  1.00  0.00     0.090 A 
HETATM   19  C1  UNL     1      35.023  29.871 -21.243  1.00  0.00     0.147 A 
HETATM   20  N1  UNL     1      33.682  29.672 -21.673  1.00  0.00    -0.080 NA
HETATM   21  N2  UNL     1      35.608  31.084 -21.300  1.00  0.00    -0.282 N 
HETATM   22  N3  UNL     1      36.844  31.281 -20.907  1.00  0.00    -0.250 N 
ATOM     23  H2  UNL     1      35.074  31.875 -21.660  1.00  0.00     0.188 HD
HETATM   24  C5  UNL     1      37.594  30.276 -20.423  1.00  0.00     0.313 A 
HETATM   25  O4  UNL     1      38.797  30.500 -20.047  1.00  0.00    -0.262 OA
HETATM   26  C6  UNL     1      37.046  29.022 -20.344  1.00  0.00     0.256 A 
HETATM   27  O5  UNL     1      37.731  28.069 -19.896  1.00  0.00    -0.281 OA
BRANCH  22  28
HETATM   28  C2  UNL     1      37.413  32.618 -20.996  1.00  0.00     0.189 C 
BRANCH  28  29
HETATM   29  C3  UNL     1      36.270  33.619 -20.888  1.00  0.00     0.192 C 
BRANCH  29  30
HETATM   30  O1  UNL     1      36.599  34.691 -21.714  1.00  0.00    -0.389 OA
ATOM     31  H1  UNL     1      36.753  35.437 -21.145  1.00  0.00     0.210 HD
ENDBRANCH  29  30
BRANCH  29  32
HETATM   32  C4  UNL     1      36.202  34.059 -19.440  1.00  0.00     0.284 C 
BRANCH  32  33
HETATM   33  O2  UNL     1      35.256  33.273 -18.775  1.00  0.00    -0.369 OA
ATOM     34  H2  UNL     1      35.446  32.358 -18.943  1.00  0.00     0.212 HD
ENDBRANCH  32  33
BRANCH  32  35
HETATM   35  O3  UNL     1      35.874  35.400 -19.355  1.00  0.00    -0.369 OA
ATOM     36  H3  UNL     1      35.219  35.541 -18.682  1.00  0.00     0.212 HD
ENDBRANCH  32  35
ENDBRANCH  29  32
ENDBRANCH  28  29
ENDBRANCH  22  28
ENDBRANCH   1  18
BRANCH   4  37
HETATM   37  N5  UNL     1      32.730  25.766 -18.502  1.00  0.00    -0.004 N 
HETATM   38  N6  UNL     1      31.642  26.491 -18.299  1.00  0.00    -0.258 N 
HETATM   39  C10 UNL     1      30.976  26.011 -17.225  1.00  0.00     0.218 A 
ATOM     40  H6  UNL     1      31.351  27.288 -18.864  1.00  0.00     0.190 HD
HETATM   41  N7  UNL     1      31.713  24.968 -16.795  1.00  0.00    -0.279 N 
HETATM   42  N8  UNL     1      32.765  24.836 -17.577  1.00  0.00    -0.205 N 
ATOM     43  H7  UNL     1      31.492  24.376 -15.994  1.00  0.00     0.189 HD
ATOM     44  H8  UNL     1      33.491  24.126 -17.480  1.00  0.00     0.211 HD
ENDBRANCH   4  37
TORSDOF 8
ENDMDL
MODEL 2
REMARK VINA RESULT: -6.931797808      1.317      1.528
REMARK  8 active torsions:
REMARK  status: ('A' for Active; 'I' for Inactive)
REMARK    1  A    between atoms: N3_5  and  C2_6 
REMARK    2  A    between atoms: C2_6  and  C3_7 
REMARK    3  A    between atoms: C3_7  and  O1_8 
REMARK    4  A    between atoms: C3_7  and  C4_10 
REMARK    5  A    between atoms: C4_10  and  O2_11 
REMARK    6  A    between atoms: C4_10  and  O3_13 
REMARK    7  A    between atoms: C7_19  and  C8_20 
REMARK    8  A    between atoms: C9_23  and  N5_24 
ROOT
HETATM    1  C8  UNL     1      35.348  27.610 -21.128  1.00  0.00     0.083 A 
HETATM    2  N4  UNL     1      34.948  26.936 -20.036  1.00  0.00    -0.186 N 
ATOM      3  H4  UNL     1      35.024  27.390 -19.126  1.00  0.00     0.184 HD
HETATM    4  C9  UNL     1      34.450  25.687 -20.094  1.00  0.00     0.722 A 
HETATM    5  N9  UNL     1      34.353  25.101 -21.299  1.00  0.00    -0.172 N 
ATOM      6  H9  UNL     1      33.976  24.154 -21.344  1.00  0.00     0.186 HD
HETATM    7  C11 UNL     1      34.726  25.692 -22.454  1.00  0.00     0.137 A 
HETATM    8  N10 UNL     1      34.740  25.356 -23.741  1.00  0.00    -0.326 N 
ATOM      9  H10 UNL     1      34.421  24.461 -24.113  1.00  0.00     0.169 HD
HETATM   10  C12 UNL     1      35.239  26.376 -24.493  1.00  0.00     0.132 A 
HETATM   11  C13 UNL     1      35.559  27.415 -23.624  1.00  0.00     0.090 A 
HETATM   12  C14 UNL     1      35.237  26.984 -22.348  1.00  0.00     0.067 A 
HETATM   13  N11 UNL     1      36.083  28.488 -24.390  1.00  0.00    -0.370 N 
ATOM     14  H11 UNL     1      36.275  29.428 -24.042  1.00  0.00     0.161 HD
HETATM   15  C15 UNL     1      36.299  28.033 -25.742  1.00  0.00     0.245 C 
HETATM   16  N12 UNL     1      35.566  26.809 -25.802  1.00  0.00    -0.358 N 
ATOM     17  H12 UNL     1      35.315  26.319 -26.660  1.00  0.00     0.162 HD
ENDROOT
BRANCH   1  18
HETATM   18  C7  UNL     1      35.879  28.968 -20.974  1.00  0.00     0.090 A 
HETATM   19  C1  UNL     1      35.022  30.045 -21.165  1.00  0.00     0.147 A 
HETATM   20  N1  UNL     1      33.658  29.817 -21.501  1.00  0.00    -0.080 NA
HETATM   21  N2  UNL     1      35.514  31.292 -21.024  1.00  0.00    -0.282 N 
HETATM   22  N3  UNL     1      36.769  31.515 -20.715  1.00  0.00    -0.250 N 
ATOM     23  H2  UNL     1      34.891  32.088 -21.162  1.00  0.00     0.188 HD
HETATM   24  C5  UNL     1      37.633  30.504 -20.521  1.00  0.00     0.313 A 
HETATM   25  O4  UNL     1      38.852  30.754 -20.219  1.00  0.00    -0.262 OA
HETATM   26  C6  UNL     1      37.183  29.216 -20.652  1.00  0.00     0.256 A 
HETATM   27  O5  UNL     1      37.976  28.257 -20.476  1.00  0.00    -0.281 OA
BRANCH  22  28
HETATM   28  C2  UNL     1      37.233  32.888 -20.578  1.00  0.00     0.189 C 
BRANCH  28  29
HETATM   29  C3  UNL     1      36.067  33.809 -20.911  1.00  0.00     0.192 C 
BRANCH  29  30
HETATM   30  O1  UNL     1      36.548  34.752 -21.816  1.00  0.00    -0.389 OA
ATOM     31  H1  UNL     1      36.151  35.583 -21.582  1.00  0.00     0.210 HD
ENDBRANCH  29  30
BRANCH  29  32
HETATM   32  C4  UNL     1      35.647  34.476 -19.616  1.00  0.00     0.284 C 
BRANCH  32  33
HETATM   33  O2  UNL     1      36.664  35.344 -19.207  1.00  0.00    -0.369 OA
ATOM     34  H2  UNL     1      37.056  35.002 -18.412  1.00  0.00     0.212 HD
ENDBRANCH  32  33
BRANCH  32  35
HETATM   35  O3  UNL     1      35.390  33.526 -18.642  1.00  0.00    -0.369 OA
ATOM     36  H3  UNL     1      36.185  33.312 -18.169  1.00  0.00     0.212 HD
ENDBRANCH  32  35
ENDBRANCH  29  32
ENDBRANCH  28  29
ENDBRANCH  22  28
ENDBRANCH   1  18
BRANCH   4  37
HETATM   37  N5  UNL     1      34.032  24.989 -18.921  1.00  0.00    -0.004 N 
HETATM   38  N6  UNL     1      34.748  24.966 -17.809  1.00  0.00    -0.258 N 
HETATM   39  C10 UNL     1      34.103  24.231 -16.876  1.00  0.00     0.218 A 
ATOM     40  H6  UNL     1      35.646  25.429 -17.677  1.00  0.00     0.190 HD
HETATM   41  N7  UNL     1      32.971  23.816 -17.478  1.00  0.00    -0.279 N 
HETATM   42  N8  UNL     1      32.947  24.284 -18.710  1.00  0.00    -0.205 N 
ATOM     43  H7  UNL     1      32.250  23.236 -17.050  1.00  0.00     0.189 HD
ATOM     44  H8  UNL     1      32.204  24.124 -19.390  1.00  0.00     0.211 HD
ENDBRANCH   4  37
TORSDOF 8
ENDMDL
MODEL 3
REMARK VINA RESULT: -6.913930717      2.933      6.823
REMARK  8 active torsions:
REMARK  status: ('A' for Active; 'I' for Inactive)
REMARK    1  A    between atoms: N3_5  and  C2_6 
REMARK    2  A    between atoms: C2_6  and  C3_7 
REMARK    3  A    between atoms: C3_7  and  O1_8 
REMARK    4  A    between atoms: C3_7  and  C4_10 
REMARK    5  A    between atoms: C4_10  and  O2_11 
REMARK    6  A    between atoms: C4_10  and  O3_13 
REMARK    7  A    between atoms: C7_19  and  C8_20 
REMARK    8  A    between atoms: C9_23  and  N5_24 
ROOT
HETATM    1  C8  UNL     1      36.653  30.145 -21.340  1.00  0.00     0.083 A 
HETATM    2  N4  UNL     1      36.437  31.335 -20.753  1.00  0.00    -0.186 N 
ATOM      3  H4  UNL     1      35.867  31.367 -19.908  1.00  0.00     0.184 HD
HETATM    4  C9  UNL     1      36.942  32.485 -21.234  1.00  0.00     0.722 A 
HETATM    5  N9  UNL     1      37.693  32.430 -22.347  1.00  0.00    -0.172 N 
ATOM      6  H9  UNL     1      38.076  33.301 -22.712  1.00  0.00     0.186 HD
HETATM    7  C11 UNL     1      37.968  31.287 -23.010  1.00  0.00     0.137 A 
HETATM    8  N10 UNL     1      38.658  30.952 -24.098  1.00  0.00    -0.326 N 
ATOM      9  H10 UNL     1      39.164  31.610 -24.691  1.00  0.00     0.169 HD
HETATM   10  C12 UNL     1      38.593  29.608 -24.308  1.00  0.00     0.132 A 
HETATM   11  C13 UNL     1      37.814  29.066 -23.289  1.00  0.00     0.090 A 
HETATM   12  C14 UNL     1      37.425  30.119 -22.479  1.00  0.00     0.067 A 
HETATM   13  N11 UNL     1      37.735  27.664 -23.490  1.00  0.00    -0.370 N 
ATOM     14  H11 UNL     1      37.346  26.991 -22.830  1.00  0.00     0.161 HD
HETATM   15  C15 UNL     1      38.294  27.348 -24.783  1.00  0.00     0.245 C 
HETATM   16  N12 UNL     1      38.997  28.537 -25.141  1.00  0.00    -0.358 N 
ATOM     17  H12 UNL     1      39.688  28.605 -25.888  1.00  0.00     0.162 HD
ENDROOT
BRANCH   1  18
HETATM   18  C7  UNL     1      36.064  28.940 -20.749  1.00  0.00     0.090 A 
HETATM   19  C1  UNL     1      34.701  28.719 -20.903  1.00  0.00     0.147 A 
HETATM   20  N1  UNL     1      33.906  29.654 -21.622  1.00  0.00    -0.080 NA
HETATM   21  N2  UNL     1      34.163  27.609 -20.357  1.00  0.00    -0.282 N 
HETATM   22  N3  UNL     1      34.885  26.740 -19.691  1.00  0.00    -0.250 N 
ATOM     23  H2  UNL     1      33.163  27.440 -20.465  1.00  0.00     0.188 HD
HETATM   24  C5  UNL     1      36.206  26.913 -19.518  1.00  0.00     0.313 A 
HETATM   25  O4  UNL     1      36.884  26.046 -18.863  1.00  0.00    -0.262 OA
HETATM   26  C6  UNL     1      36.803  28.025 -20.052  1.00  0.00     0.256 A 
HETATM   27  O5  UNL     1      38.037  28.205 -19.901  1.00  0.00    -0.281 OA
BRANCH  22  28
HETATM   28  C2  UNL     1      34.238  25.564 -19.129  1.00  0.00     0.189 C 
BRANCH  28  29
HETATM   29  C3  UNL     1      33.467  26.002 -17.891  1.00  0.00     0.192 C 
BRANCH  29  30
HETATM   30  O1  UNL     1      33.708  25.043 -16.909  1.00  0.00    -0.389 OA
ATOM     31  H1  UNL     1      32.906  24.541 -16.815  1.00  0.00     0.210 HD
ENDBRANCH  29  30
BRANCH  29  32
HETATM   32  C4  UNL     1      31.999  26.023 -18.270  1.00  0.00     0.284 C 
BRANCH  32  33
HETATM   33  O2  UNL     1      31.846  25.399 -19.511  1.00  0.00    -0.369 OA
ATOM     34  H2  UNL     1      32.398  24.626 -19.535  1.00  0.00     0.212 HD
ENDBRANCH  32  33
BRANCH  32  35
HETATM   35  O3  UNL     1      31.529  27.324 -18.313  1.00  0.00    -0.369 OA
ATOM     36  H3  UNL     1      30.658  27.351 -18.692  1.00  0.00     0.212 HD
ENDBRANCH  32  35
ENDBRANCH  29  32
ENDBRANCH  28  29
ENDBRANCH  22  28
ENDBRANCH   1  18
BRANCH   4  37
HETATM   37  N5  UNL     1      36.700  33.738 -20.595  1.00  0.00    -0.004 N 
HETATM   38  N6  UNL     1      37.136  34.887 -21.086  1.00  0.00    -0.258 N 
HETATM   39  C10 UNL     1      36.757  35.896 -20.269  1.00  0.00     0.218 A 
ATOM     40  H6  UNL     1      37.674  34.995 -21.945  1.00  0.00     0.190 HD
HETATM   41  N7  UNL     1      36.077  35.301 -19.270  1.00  0.00    -0.279 N 
HETATM   42  N8  UNL     1      36.054  34.001 -19.485  1.00  0.00    -0.205 N 
ATOM     43  H7  UNL     1      35.650  35.778 -18.477  1.00  0.00     0.189 HD
ATOM     44  H8  UNL     1      35.605  33.309 -18.885  1.00  0.00     0.211 HD
ENDBRANCH   4  37
TORSDOF 8
ENDMDL
MODEL 4
REMARK VINA RESULT: -6.878173272      2.072      4.371
REMARK  8 active torsions:
REMARK  status: ('A' for Active; 'I' for Inactive)
REMARK    1  A    between atoms: N3_5  and  C2_6 
REMARK    2  A    between atoms: C2_6  and  C3_7 
REMARK    3  A    between atoms: C3_7  and  O1_8 
REMARK    4  A    between atoms: C3_7  and  C4_10 
REMARK    5  A    between atoms: C4_10  and  O2_11 
REMARK    6  A    between atoms: C4_10  and  O3_13 
REMARK    7  A    between atoms: C7_19  and  C8_20 
REMARK    8  A    between atoms: C9_23  and  N5_24 
ROOT
HETATM    1  C8  UNL     1      35.379  27.609 -22.306  1.00  0.00     0.083 A 
HETATM    2  N4  UNL     1      34.963  27.420 -23.569  1.00  0.00    -0.186 N 
ATOM      3  H4  UNL     1      35.066  28.184 -24.238  1.00  0.00     0.184 HD
HETATM    4  C9  UNL     1      34.417  26.265 -23.990  1.00  0.00     0.722 A 
HETATM    5  N9  UNL     1      34.288  25.266 -23.101  1.00  0.00    -0.172 N 
ATOM      6  H9  UNL     1      33.874  24.390 -23.419  1.00  0.00     0.186 HD
HETATM    7  C11 UNL     1      34.674  25.355 -21.811  1.00  0.00     0.137 A 
HETATM    8  N10 UNL     1      34.665  24.552 -20.750  1.00  0.00    -0.326 N 
ATOM      9  H10 UNL     1      34.309  23.596 -20.747  1.00  0.00     0.169 HD
HETATM   10  C12 UNL     1      35.197  25.186 -19.669  1.00  0.00     0.132 A 
HETATM   11  C13 UNL     1      35.563  26.467 -20.076  1.00  0.00     0.090 A 
HETATM   12  C14 UNL     1      35.234  26.569 -21.417  1.00  0.00     0.067 A 
HETATM   13  N11 UNL     1      36.119  27.144 -18.961  1.00  0.00    -0.370 N 
ATOM     14  H11 UNL     1      36.596  28.045 -18.992  1.00  0.00     0.161 HD
HETATM   15  C15 UNL     1      35.900  26.349 -17.777  1.00  0.00     0.245 C 
HETATM   16  N12 UNL     1      35.531  25.073 -18.297  1.00  0.00    -0.358 N 
ATOM     17  H12 UNL     1      35.510  24.206 -17.759  1.00  0.00     0.162 HD
ENDROOT
BRANCH   1  18
HETATM   18  C7  UNL     1      35.963  28.901 -21.931  1.00  0.00     0.090 A 
HETATM   19  C1  UNL     1      35.119  29.912 -21.490  1.00  0.00     0.147 A 
HETATM   20  N1  UNL     1      33.717  29.683 -21.408  1.00  0.00    -0.080 NA
HETATM   21  N2  UNL     1      35.659  31.099 -21.148  1.00  0.00    -0.282 N 
HETATM   22  N3  UNL     1      36.950  31.323 -21.219  1.00  0.00    -0.250 N 
ATOM     23  H2  UNL     1      35.046  31.846 -20.823  1.00  0.00     0.188 HD
HETATM   24  C5  UNL     1      37.804  30.375 -21.640  1.00  0.00     0.313 A 
HETATM   25  O4  UNL     1      39.058  30.624 -21.698  1.00  0.00    -0.262 OA
HETATM   26  C6  UNL     1      37.305  29.150 -22.000  1.00  0.00     0.256 A 
HETATM   27  O5  UNL     1      38.087  28.250 -22.396  1.00  0.00    -0.281 OA
BRANCH  22  28
HETATM   28  C2  UNL     1      37.465  32.628 -20.832  1.00  0.00     0.189 C 
BRANCH  28  29
HETATM   29  C3  UNL     1      36.294  33.601 -20.798  1.00  0.00     0.192 C 
BRANCH  29  30
HETATM   30  O1  UNL     1      36.618  34.647 -21.660  1.00  0.00    -0.389 OA
ATOM     31  H1  UNL     1      37.394  34.377 -22.137  1.00  0.00     0.210 HD
ENDBRANCH  29  30
BRANCH  29  32
HETATM   32  C4  UNL     1      36.175  34.099 -19.371  1.00  0.00     0.284 C 
BRANCH  32  33
HETATM   33  O2  UNL     1      35.166  33.377 -18.726  1.00  0.00    -0.369 OA
ATOM     34  H2  UNL     1      35.495  33.075 -17.888  1.00  0.00     0.212 HD
ENDBRANCH  32  33
BRANCH  32  35
HETATM   35  O3  UNL     1      35.897  35.455 -19.353  1.00  0.00    -0.369 OA
ATOM     36  H3  UNL     1      36.672  35.956 -19.578  1.00  0.00     0.212 HD
ENDBRANCH  32  35
ENDBRANCH  29  32
ENDBRANCH  28  29
ENDBRANCH  22  28
ENDBRANCH   1  18
BRANCH   4  37
HETATM   37  N5  UNL     1      33.982  26.085 -25.338  1.00  0.00    -0.004 N 
HETATM   38  N6  UNL     1      33.960  24.903 -25.930  1.00  0.00    -0.258 N 
HETATM   39  C10 UNL     1      33.505  25.044 -27.196  1.00  0.00     0.218 A 
ATOM     40  H6  UNL     1      34.243  24.023 -25.500  1.00  0.00     0.190 HD
HETATM   41  N7  UNL     1      33.255  26.360 -27.333  1.00  0.00    -0.279 N 
HETATM   42  N8  UNL     1      33.549  26.971 -26.202  1.00  0.00    -0.205 N 
ATOM     43  H7  UNL     1      32.897  26.811 -28.174  1.00  0.00     0.189 HD
ATOM     44  H8  UNL     1      33.455  27.971 -26.028  1.00  0.00     0.211 HD
ENDBRANCH   4  37
TORSDOF 8
ENDMDL
MODEL 5
REMARK VINA RESULT: -6.831974330      5.970      9.349
REMARK  8 active torsions:
REMARK  status: ('A' for Active; 'I' for Inactive)
REMARK    1  A    between atoms: N3_5  and  C2_6 
REMARK    2  A    between atoms: C2_6  and  C3_7 
REMARK    3  A    between atoms: C3_7  and  O1_8 
REMARK    4  A    between atoms: C3_7  and  C4_10 
REMARK    5  A    between atoms: C4_10  and  O2_11 
REMARK    6  A    between atoms: C4_10  and  O3_13 
REMARK    7  A    between atoms: C7_19  and  C8_20 
REMARK    8  A    between atoms: C9_23  and  N5_24 
ROOT
HETATM    1  C8  UNL     1      33.011  21.998 -14.036  1.00  0.00     0.083 A 
HETATM    2  N4  UNL     1      32.048  21.149 -13.639  1.00  0.00    -0.186 N 
ATOM      3  H4  UNL     1      31.177  21.117 -14.169  1.00  0.00     0.184 HD
HETATM    4  C9  UNL     1      32.183  20.341 -12.573  1.00  0.00     0.722 A 
HETATM    5  N9  UNL     1      33.336  20.392 -11.884  1.00  0.00    -0.172 N 
ATOM      6  H9  UNL     1      33.440  19.779 -11.075  1.00  0.00     0.186 HD
HETATM    7  C11 UNL     1      34.364  21.207 -12.200  1.00  0.00     0.137 A 
HETATM    8  N10 UNL     1      35.576  21.455 -11.710  1.00  0.00    -0.326 N 
ATOM      9  H10 UNL     1      35.978  20.996 -10.893  1.00  0.00     0.169 HD
HETATM   10  C12 UNL     1      36.204  22.408 -12.453  1.00  0.00     0.132 A 
HETATM   11  C13 UNL     1      35.331  22.782 -13.472  1.00  0.00     0.090 A 
HETATM   12  C14 UNL     1      34.181  22.029 -13.311  1.00  0.00     0.067 A 
HETATM   13  N11 UNL     1      35.968  23.776 -14.258  1.00  0.00    -0.370 N 
ATOM     14  H11 UNL     1      35.626  24.138 -15.149  1.00  0.00     0.161 HD
HETATM   15  C15 UNL     1      37.178  24.191 -13.592  1.00  0.00     0.245 C 
HETATM   16  N12 UNL     1      37.384  23.175 -12.612  1.00  0.00    -0.358 N 
ATOM     17  H12 UNL     1      38.253  23.022 -12.100  1.00  0.00     0.162 HD
ENDROOT
BRANCH   1  18
HETATM   18  C7  UNL     1      32.780  22.844 -15.210  1.00  0.00     0.090 A 
HETATM   19  C1  UNL     1      31.768  23.794 -15.159  1.00  0.00     0.147 A 
HETATM   20  N1  UNL     1      30.980  23.931 -13.982  1.00  0.00    -0.080 NA
HETATM   21  N2  UNL     1      31.558  24.571 -16.241  1.00  0.00    -0.282 N 
HETATM   22  N3  UNL     1      32.277  24.455 -17.332  1.00  0.00    -0.250 N 
ATOM     23  H2  UNL     1      30.817  25.271 -16.211  1.00  0.00     0.188 HD
HETATM   24  C5  UNL     1      33.266  23.550 -17.426  1.00  0.00     0.313 A 
HETATM   25  O4  UNL     1      33.950  23.461 -18.504  1.00  0.00    -0.262 OA
HETATM   26  C6  UNL     1      33.521  22.735 -16.354  1.00  0.00     0.256 A 
HETATM   27  O5  UNL     1      34.441  21.883 -16.422  1.00  0.00    -0.281 OA
BRANCH  22  28
HETATM   28  C2  UNL     1      31.995  25.326 -18.463  1.00  0.00     0.189 C 
BRANCH  28  29
HETATM   29  C3  UNL     1      32.235  26.762 -18.016  1.00  0.00     0.192 C 
BRANCH  29  30
HETATM   30  O1  UNL     1      31.111  27.492 -18.397  1.00  0.00    -0.389 OA
ATOM     31  H1  UNL     1      30.391  27.185 -17.858  1.00  0.00     0.210 HD
ENDBRANCH  29  30
BRANCH  29  32
HETATM   32  C4  UNL     1      33.467  27.254 -18.749  1.00  0.00     0.284 C 
BRANCH  32  33
HETATM   33  O2  UNL     1      33.787  26.337 -19.755  1.00  0.00    -0.369 OA
ATOM     34  H2  UNL     1      33.427  26.649 -20.578  1.00  0.00     0.212 HD
ENDBRANCH  32  33
BRANCH  32  35
HETATM   35  O3  UNL     1      34.525  27.408 -17.870  1.00  0.00    -0.369 OA
ATOM     36  H3  UNL     1      35.311  27.005 -18.221  1.00  0.00     0.212 HD
ENDBRANCH  32  35
ENDBRANCH  29  32
ENDBRANCH  28  29
ENDBRANCH  22  28
ENDBRANCH   1  18
BRANCH   4  37
HETATM   37  N5  UNL     1      31.146  19.448 -12.169  1.00  0.00    -0.004 N 
HETATM   38  N6  UNL     1      30.289  18.914 -13.024  1.00  0.00    -0.258 N 
HETATM   39  C10 UNL     1      29.427  18.115 -12.356  1.00  0.00     0.218 A 
ATOM     40  H6  UNL     1      30.280  19.080 -14.030  1.00  0.00     0.190 HD
HETATM   41  N7  UNL     1      29.806  18.195 -11.065  1.00  0.00    -0.279 N 
HETATM   42  N8  UNL     1      30.843  19.002 -10.974  1.00  0.00    -0.205 N 
ATOM     43  H7  UNL     1      29.362  17.709 -10.286  1.00  0.00     0.189 HD
ATOM     44  H8  UNL     1      31.332  19.242 -10.112  1.00  0.00     0.211 HD
ENDBRANCH   4  37
TORSDOF 8
ENDMDL
