MODEL 1
REMARK VINA RESULT: -7.080030687      0.000      0.000
REMARK  9 active torsions:
REMARK  status: ('A' for Active; 'I' for Inactive)
REMARK    1  A    between atoms: C2_2  and  N1_3 
REMARK    2  A    between atoms: C2_2  and  C3_7 
REMARK    3  A    between atoms: C2_2  and  N11_35 
REMARK    4  A    between atoms: C3_7  and  N2_8 
REMARK    5  A    between atoms: C3_7  and  C5_16 
REMARK    6  A    between atoms: N2_8  and  O1_10 
REMARK    7  A    between atoms: O1_10  and  C4_11 
REMARK    8  A    between atoms: C4_11  and  N3_12 
REMARK    9  A    between atoms: C7_21  and  N6_22 
REMARK       I    between atoms: N6_22  and  C8_24 
ROOT
HETATM    1  C3  UNL     1      24.108 -42.962   5.112  1.00  0.00     0.122 C 
ENDROOT
BRANCH   1   2
HETATM    2  C2  UNL     1      23.248 -41.960   4.521  1.00  0.00     0.273 C 
HETATM    3  C1  UNL     1      24.152 -40.976   3.749  1.00  0.00     0.081 C 
BRANCH   2   4
HETATM    4  N1  UNL     1      22.405 -42.557   3.505  1.00  0.00    -0.044 N 
ATOM      5  H13 UNL     1      22.706 -42.364   2.549  1.00  0.00     0.278 HD
ATOM      6  H12 UNL     1      22.482 -43.573   3.446  1.00  0.00     0.278 HD
ATOM      7  H11 UNL     1      21.466 -42.223   3.720  1.00  0.00     0.278 HD
ENDBRANCH   2   4
BRANCH   2   8
HETATM    8  N11 UNL     1      22.461 -41.186   5.474  1.00  0.00    -0.157 N 
HETATM    9  N12 UNL     1      22.504 -40.022   6.069  1.00  0.00    -0.212 N 
HETATM   10  N13 UNL     1      21.373 -40.317   6.657  1.00  0.00    -0.209 N 
ATOM     11  H12 UNL     1      23.143 -39.227   6.073  1.00  0.00     0.211 HD
HETATM   12  N14 UNL     1      21.318 -41.496   6.062  1.00  0.00     0.017 NA
ATOM     13  H13 UNL     1      20.769 -39.829   7.317  1.00  0.00     0.207 HD
ENDBRANCH   2   8
ENDBRANCH   1   2
BRANCH   1  14
HETATM   14  N2  UNL     1      25.133 -43.357   4.440  1.00  0.00    -0.255 N 
ATOM     15  H2  UNL     1      25.962 -42.764   4.444  1.00  0.00     0.195 HD
BRANCH  14  16
HETATM   16  O1  UNL     1      25.183 -44.519   3.721  1.00  0.00    -0.204 OA
BRANCH  16  17
HETATM   17  C4  UNL     1      25.552 -44.440   2.384  1.00  0.00     0.249 C 
HETATM   18  N4  UNL     1      24.664 -43.945   1.379  1.00  0.00    -0.055 NA
BRANCH  17  19
HETATM   19  N3  UNL     1      26.720 -44.809   1.980  1.00  0.00    -0.366 N 
ATOM     20  H32 UNL     1      27.114 -45.633   2.435  1.00  0.00     0.159 HD
ATOM     21  H31 UNL     1      27.218 -44.303   1.248  1.00  0.00     0.159 HD
ENDBRANCH  17  19
ENDBRANCH  16  17
ENDBRANCH  14  16
ENDBRANCH   1  14
BRANCH   1  22
HETATM   22  C5  UNL     1      23.910 -43.531   6.420  1.00  0.00     0.113 A 
HETATM   23  N5  UNL     1      23.846 -42.832   7.598  1.00  0.00    -0.256 N 
HETATM   24  O2  UNL     1      23.653 -43.636   8.580  1.00  0.00    -0.231 OA
ATOM     25  H5  UNL     1      23.937 -41.820   7.682  1.00  0.00     0.195 HD
HETATM   26  C6  UNL     1      23.577 -44.875   8.167  1.00  0.00     0.172 A 
HETATM   27  C7  UNL     1      23.380 -46.081   8.849  1.00  0.00     0.147 A 
HETATM   28  C10 UNL     1      23.737 -44.847   6.795  1.00  0.00     0.104 A 
HETATM   29  N9  UNL     1      23.344 -47.238   8.175  1.00  0.00    -0.336 N 
HETATM   30  C9  UNL     1      23.503 -47.179   6.836  1.00  0.00     0.182 A 
ATOM     31  H9  UNL     1      23.201 -48.127   8.654  1.00  0.00     0.168 HD
HETATM   32  N10 UNL     1      23.691 -46.024   6.184  1.00  0.00    -0.348 N 
ATOM     33  H10 UNL     1      23.804 -46.051   5.171  1.00  0.00     0.167 HD
BRANCH  27  34
HETATM   34  N6  UNL     1      23.238 -46.029  10.133  1.00  0.00    -0.315 N 
HETATM   35  C8  UNL     1      22.904 -47.223  10.815  1.00  0.00     0.187 C 
HETATM   36  N7  UNL     1      21.672 -47.440  11.103  1.00  0.00    -0.373 N 
HETATM   37  N8  UNL     1      23.902 -48.157  11.169  1.00  0.00    -0.064 NA
ATOM     38  H72 UNL     1      20.951 -46.765  10.848  1.00  0.00     0.158 HD
ATOM     39  H71 UNL     1      21.431 -48.301  11.595  1.00  0.00     0.158 HD
ATOM     40  H6  UNL     1      23.364 -45.153  10.641  1.00  0.00     0.170 HD
ENDBRANCH  27  34
ENDBRANCH   1  22
TORSDOF 9
ENDMDL
MODEL 2
REMARK VINA RESULT: -6.924331805      2.240      4.886
REMARK  9 active torsions:
REMARK  status: ('A' for Active; 'I' for Inactive)
REMARK    1  A    between atoms: C2_2  and  N1_3 
REMARK    2  A    between atoms: C2_2  and  C3_7 
REMARK    3  A    between atoms: C2_2  and  N11_35 
REMARK    4  A    between atoms: C3_7  and  N2_8 
REMARK    5  A    between atoms: C3_7  and  C5_16 
REMARK    6  A    between atoms: N2_8  and  O1_10 
REMARK    7  A    between atoms: O1_10  and  C4_11 
REMARK    8  A    between atoms: C4_11  and  N3_12 
REMARK    9  A    between atoms: C7_21  and  N6_22 
REMARK       I    between atoms: N6_22  and  C8_24 
ROOT
HETATM    1  C3  UNL     1      23.348 -43.634   6.601  1.00  0.00     0.122 C 
ENDROOT
BRANCH   1   2
HETATM    2  C2  UNL     1      22.471 -42.624   6.048  1.00  0.00     0.273 C 
HETATM    3  C1  UNL     1      22.391 -42.868   4.526  1.00  0.00     0.081 C 
BRANCH   2   4
HETATM    4  N1  UNL     1      21.116 -42.822   6.522  1.00  0.00    -0.044 N 
ATOM      5  H13 UNL     1      20.724 -43.735   6.291  1.00  0.00     0.278 HD
ATOM      6  H12 UNL     1      21.040 -42.917   7.535  1.00  0.00     0.278 HD
ATOM      7  H11 UNL     1      20.591 -42.036   6.137  1.00  0.00     0.278 HD
ENDBRANCH   2   4
BRANCH   2   8
HETATM    8  N11 UNL     1      22.909 -41.249   6.255  1.00  0.00    -0.157 N 
HETATM    9  N12 UNL     1      22.464 -40.034   6.057  1.00  0.00    -0.212 N 
HETATM   10  N13 UNL     1      23.571 -39.578   6.586  1.00  0.00    -0.209 N 
ATOM     11  H12 UNL     1      21.620 -39.622   5.661  1.00  0.00     0.211 HD
HETATM   12  N14 UNL     1      24.031 -40.800   6.791  1.00  0.00     0.017 NA
ATOM     13  H13 UNL     1      23.936 -38.644   6.770  1.00  0.00     0.207 HD
ENDBRANCH   2   8
ENDBRANCH   1   2
BRANCH   1  14
HETATM   14  N2  UNL     1      23.539 -43.642   7.873  1.00  0.00    -0.255 N 
ATOM     15  H2  UNL     1      24.260 -43.028   8.250  1.00  0.00     0.195 HD
BRANCH  14  16
HETATM   16  O1  UNL     1      22.840 -44.420   8.754  1.00  0.00    -0.204 OA
BRANCH  16  17
HETATM   17  C4  UNL     1      23.473 -45.544   9.271  1.00  0.00     0.249 C 
HETATM   18  N4  UNL     1      22.744 -46.693   9.708  1.00  0.00    -0.055 NA
BRANCH  17  19
HETATM   19  N3  UNL     1      24.757 -45.609   9.380  1.00  0.00    -0.366 N 
ATOM     20  H32 UNL     1      25.153 -45.249  10.249  1.00  0.00     0.159 HD
ATOM     21  H31 UNL     1      25.339 -45.999   8.639  1.00  0.00     0.159 HD
ENDBRANCH  17  19
ENDBRANCH  16  17
ENDBRANCH  14  16
ENDBRANCH   1  14
BRANCH   1  22
HETATM   22  C5  UNL     1      24.002 -44.653   5.822  1.00  0.00     0.113 A 
HETATM   23  N5  UNL     1      25.025 -44.451   4.931  1.00  0.00    -0.256 N 
HETATM   24  O2  UNL     1      25.387 -45.567   4.411  1.00  0.00    -0.231 OA
ATOM     25  H5  UNL     1      25.438 -43.544   4.713  1.00  0.00     0.195 HD
HETATM   26  C6  UNL     1      24.676 -46.560   4.883  1.00  0.00     0.172 A 
HETATM   27  C7  UNL     1      24.697 -47.934   4.625  1.00  0.00     0.147 A 
HETATM   28  C10 UNL     1      23.783 -46.014   5.785  1.00  0.00     0.104 A 
HETATM   29  N9  UNL     1      23.843 -48.751   5.254  1.00  0.00    -0.336 N 
HETATM   30  C9  UNL     1      22.982 -48.190   6.129  1.00  0.00     0.182 A 
ATOM     31  H9  UNL     1      23.843 -49.756   5.080  1.00  0.00     0.168 HD
HETATM   32  N10 UNL     1      22.963 -46.874   6.376  1.00  0.00    -0.348 N 
ATOM     33  H10 UNL     1      22.286 -46.516   7.050  1.00  0.00     0.167 HD
BRANCH  27  34
HETATM   34  N6  UNL     1      25.562 -48.372   3.768  1.00  0.00    -0.315 N 
HETATM   35  C8  UNL     1      26.822 -48.797   4.252  1.00  0.00     0.187 C 
HETATM   36  N7  UNL     1      27.807 -47.975   4.203  1.00  0.00    -0.373 N 
HETATM   37  N8  UNL     1      26.993 -50.095   4.780  1.00  0.00    -0.064 NA
ATOM     38  H72 UNL     1      27.683 -47.037   3.821  1.00  0.00     0.158 HD
ATOM     39  H71 UNL     1      28.715 -48.281   4.551  1.00  0.00     0.158 HD
ATOM     40  H6  UNL     1      25.342 -48.410   2.773  1.00  0.00     0.170 HD
ENDBRANCH  27  34
ENDBRANCH   1  22
TORSDOF 9
ENDMDL
MODEL 3
REMARK VINA RESULT: -6.849339317      2.565      6.463
REMARK  9 active torsions:
REMARK  status: ('A' for Active; 'I' for Inactive)
REMARK    1  A    between atoms: C2_2  and  N1_3 
REMARK    2  A    between atoms: C2_2  and  C3_7 
REMARK    3  A    between atoms: C2_2  and  N11_35 
REMARK    4  A    between atoms: C3_7  and  N2_8 
REMARK    5  A    between atoms: C3_7  and  C5_16 
REMARK    6  A    between atoms: N2_8  and  O1_10 
REMARK    7  A    between atoms: O1_10  and  C4_11 
REMARK    8  A    between atoms: C4_11  and  N3_12 
REMARK    9  A    between atoms: C7_21  and  N6_22 
REMARK       I    between atoms: N6_22  and  C8_24 
ROOT
HETATM    1  C3  UNL     1      23.225 -44.778   5.106  1.00  0.00     0.122 C 
ENDROOT
BRANCH   1   2
HETATM    2  C2  UNL     1      23.215 -43.990   6.319  1.00  0.00     0.273 C 
HETATM    3  C1  UNL     1      24.195 -42.815   6.114  1.00  0.00     0.081 C 
BRANCH   2   4
HETATM    4  N1  UNL     1      21.922 -43.360   6.498  1.00  0.00    -0.044 N 
ATOM      5  H13 UNL     1      21.493 -43.541   7.406  1.00  0.00     0.278 HD
ATOM      6  H12 UNL     1      21.964 -42.345   6.591  1.00  0.00     0.278 HD
ATOM      7  H11 UNL     1      21.367 -43.682   5.705  1.00  0.00     0.278 HD
ENDBRANCH   2   4
BRANCH   2   8
HETATM    8  N11 UNL     1      23.626 -44.705   7.522  1.00  0.00    -0.157 N 
HETATM    9  N12 UNL     1      24.127 -45.868   7.852  1.00  0.00    -0.212 N 
HETATM   10  N13 UNL     1      24.119 -45.479   9.101  1.00  0.00    -0.209 N 
ATOM     11  H12 UNL     1      24.403 -46.713   7.351  1.00  0.00     0.211 HD
HETATM   12  N14 UNL     1      23.614 -44.302   8.780  1.00  0.00     0.017 NA
ATOM     13  H13 UNL     1      24.397 -45.915   9.981  1.00  0.00     0.207 HD
ENDBRANCH   2   8
ENDBRANCH   1   2
BRANCH   1  14
HETATM   14  N2  UNL     1      22.198 -45.509   4.847  1.00  0.00    -0.255 N 
ATOM     15  H2  UNL     1      21.654 -45.286   4.014  1.00  0.00     0.195 HD
BRANCH  14  16
HETATM   16  O1  UNL     1      21.789 -46.565   5.613  1.00  0.00    -0.204 OA
BRANCH  16  17
HETATM   17  C4  UNL     1      22.366 -47.804   5.372  1.00  0.00     0.249 C 
HETATM   18  N4  UNL     1      23.633 -48.174   5.921  1.00  0.00    -0.055 NA
BRANCH  17  19
HETATM   19  N3  UNL     1      21.785 -48.691   4.637  1.00  0.00    -0.366 N 
ATOM     20  H32 UNL     1      22.005 -48.665   3.641  1.00  0.00     0.159 HD
ATOM     21  H31 UNL     1      21.143 -49.378   5.032  1.00  0.00     0.159 HD
ENDBRANCH  17  19
ENDBRANCH  16  17
ENDBRANCH  14  16
ENDBRANCH   1  14
BRANCH   1  22
HETATM   22  C5  UNL     1      24.302 -44.778   4.149  1.00  0.00     0.113 A 
HETATM   23  N5  UNL     1      24.433 -43.920   3.088  1.00  0.00    -0.256 N 
HETATM   24  O2  UNL     1      25.507 -44.182   2.436  1.00  0.00    -0.231 OA
ATOM     25  H5  UNL     1      23.772 -43.181   2.850  1.00  0.00     0.195 HD
HETATM   26  C6  UNL     1      26.154 -45.183   2.976  1.00  0.00     0.172 A 
HETATM   27  C7  UNL     1      27.349 -45.823   2.632  1.00  0.00     0.147 A 
HETATM   28  C10 UNL     1      25.414 -45.589   4.071  1.00  0.00     0.104 A 
HETATM   29  N9  UNL     1      27.800 -46.848   3.366  1.00  0.00    -0.336 N 
HETATM   30  C9  UNL     1      27.057 -47.222   4.429  1.00  0.00     0.182 A 
ATOM     31  H9  UNL     1      28.670 -47.327   3.132  1.00  0.00     0.168 HD
HETATM   32  N10 UNL     1      25.913 -46.610   4.757  1.00  0.00    -0.348 N 
ATOM     33  H10 UNL     1      25.400 -46.943   5.574  1.00  0.00     0.167 HD
BRANCH  27  34
HETATM   34  N6  UNL     1      27.987 -45.388   1.594  1.00  0.00    -0.315 N 
HETATM   35  C8  UNL     1      27.690 -45.967   0.339  1.00  0.00     0.187 C 
HETATM   36  N7  UNL     1      28.451 -46.903  -0.101  1.00  0.00    -0.373 N 
HETATM   37  N8  UNL     1      26.578 -45.530  -0.414  1.00  0.00    -0.064 NA
ATOM     38  H72 UNL     1      29.254 -47.219   0.443  1.00  0.00     0.158 HD
ATOM     39  H71 UNL     1      28.237 -47.320  -1.006  1.00  0.00     0.158 HD
ATOM     40  H6  UNL     1      28.684 -44.647   1.679  1.00  0.00     0.170 HD
ENDBRANCH  27  34
ENDBRANCH   1  22
TORSDOF 9
ENDMDL
MODEL 4
REMARK VINA RESULT: -6.679674075      2.088      6.579
REMARK  9 active torsions:
REMARK  status: ('A' for Active; 'I' for Inactive)
REMARK    1  A    between atoms: C2_2  and  N1_3 
REMARK    2  A    between atoms: C2_2  and  C3_7 
REMARK    3  A    between atoms: C2_2  and  N11_35 
REMARK    4  A    between atoms: C3_7  and  N2_8 
REMARK    5  A    between atoms: C3_7  and  C5_16 
REMARK    6  A    between atoms: N2_8  and  O1_10 
REMARK    7  A    between atoms: O1_10  and  C4_11 
REMARK    8  A    between atoms: C4_11  and  N3_12 
REMARK    9  A    between atoms: C7_21  and  N6_22 
REMARK       I    between atoms: N6_22  and  C8_24 
ROOT
HETATM    1  C3  UNL     1      24.505 -46.203   5.486  1.00  0.00     0.122 C 
ENDROOT
BRANCH   1   2
HETATM    2  C2  UNL     1      25.096 -46.940   4.391  1.00  0.00     0.273 C 
HETATM    3  C1  UNL     1      25.089 -48.433   4.784  1.00  0.00     0.081 C 
BRANCH   2   4
HETATM    4  N1  UNL     1      24.247 -46.866   3.219  1.00  0.00    -0.044 N 
ATOM      5  H13 UNL     1      24.731 -47.061   2.342  1.00  0.00     0.278 HD
ATOM      6  H12 UNL     1      23.571 -47.627   3.148  1.00  0.00     0.278 HD
ATOM      7  H11 UNL     1      23.826 -45.938   3.264  1.00  0.00     0.278 HD
ENDBRANCH   2   4
BRANCH   2   8
HETATM    8  N11 UNL     1      26.471 -46.573   4.073  1.00  0.00    -0.157 N 
HETATM    9  N12 UNL     1      27.686 -46.968   4.356  1.00  0.00    -0.212 N 
HETATM   10  N13 UNL     1      28.140 -46.018   3.578  1.00  0.00    -0.209 N 
ATOM     11  H12 UNL     1      28.100 -47.699   4.934  1.00  0.00     0.211 HD
HETATM   12  N14 UNL     1      26.919 -45.610   3.285  1.00  0.00     0.017 NA
ATOM     13  H13 UNL     1      29.074 -45.713   3.304  1.00  0.00     0.207 HD
ENDBRANCH   2   8
ENDBRANCH   1   2
BRANCH   1  14
HETATM   14  N2  UNL     1      24.693 -46.637   6.683  1.00  0.00    -0.255 N 
ATOM     15  H2  UNL     1      25.603 -47.039   6.906  1.00  0.00     0.195 HD
BRANCH  14  16
HETATM   16  O1  UNL     1      23.754 -46.595   7.676  1.00  0.00    -0.204 OA
BRANCH  16  17
HETATM   17  C4  UNL     1      23.994 -45.763   8.762  1.00  0.00     0.249 C 
HETATM   18  N4  UNL     1      23.546 -44.406   8.793  1.00  0.00    -0.055 NA
BRANCH  17  19
HETATM   19  N3  UNL     1      24.635 -46.175   9.803  1.00  0.00    -0.366 N 
ATOM     20  H32 UNL     1      24.063 -46.482  10.591  1.00  0.00     0.159 HD
ATOM     21  H31 UNL     1      25.654 -46.192   9.833  1.00  0.00     0.159 HD
ENDBRANCH  17  19
ENDBRANCH  16  17
ENDBRANCH  14  16
ENDBRANCH   1  14
BRANCH   1  22
HETATM   22  C5  UNL     1      23.739 -44.993   5.329  1.00  0.00     0.113 A 
HETATM   23  N5  UNL     1      22.433 -44.815   5.708  1.00  0.00    -0.256 N 
HETATM   24  O2  UNL     1      22.052 -43.620   5.435  1.00  0.00    -0.231 OA
ATOM     25  H5  UNL     1      21.849 -45.529   6.143  1.00  0.00     0.195 HD
HETATM   26  C6  UNL     1      23.018 -42.932   4.881  1.00  0.00     0.172 A 
HETATM   27  C7  UNL     1      23.084 -41.614   4.415  1.00  0.00     0.147 A 
HETATM   28  C10 UNL     1      24.109 -43.776   4.797  1.00  0.00     0.104 A 
HETATM   29  N9  UNL     1      24.217 -41.146   3.876  1.00  0.00    -0.336 N 
HETATM   30  C9  UNL     1      25.265 -41.993   3.807  1.00  0.00     0.182 A 
ATOM     31  H9  UNL     1      24.284 -40.188   3.532  1.00  0.00     0.168 HD
HETATM   32  N10 UNL     1      25.201 -43.254   4.253  1.00  0.00    -0.348 N 
ATOM     33  H10 UNL     1      26.031 -43.842   4.171  1.00  0.00     0.167 HD
BRANCH  27  34
HETATM   34  N6  UNL     1      22.023 -40.883   4.528  1.00  0.00    -0.315 N 
HETATM   35  C8  UNL     1      21.975 -39.936   5.577  1.00  0.00     0.187 C 
HETATM   36  N7  UNL     1      21.369 -40.253   6.663  1.00  0.00    -0.373 N 
HETATM   37  N8  UNL     1      22.584 -38.669   5.436  1.00  0.00    -0.064 NA
ATOM     38  H72 UNL     1      20.929 -41.168   6.765  1.00  0.00     0.158 HD
ATOM     39  H71 UNL     1      21.334 -39.570   7.419  1.00  0.00     0.158 HD
ATOM     40  H6  UNL     1      21.242 -40.987   3.879  1.00  0.00     0.170 HD
ENDBRANCH  27  34
ENDBRANCH   1  22
TORSDOF 9
ENDMDL
MODEL 5
REMARK VINA RESULT: -6.617949545      1.672      3.890
REMARK  9 active torsions:
REMARK  status: ('A' for Active; 'I' for Inactive)
REMARK    1  A    between atoms: C2_2  and  N1_3 
REMARK    2  A    between atoms: C2_2  and  C3_7 
REMARK    3  A    between atoms: C2_2  and  N11_35 
REMARK    4  A    between atoms: C3_7  and  N2_8 
REMARK    5  A    between atoms: C3_7  and  C5_16 
REMARK    6  A    between atoms: N2_8  and  O1_10 
REMARK    7  A    between atoms: O1_10  and  C4_11 
REMARK    8  A    between atoms: C4_11  and  N3_12 
REMARK    9  A    between atoms: C7_21  and  N6_22 
REMARK       I    between atoms: N6_22  and  C8_24 
ROOT
HETATM    1  C3  UNL     1      22.714 -42.147   5.189  1.00  0.00     0.122 C 
ENDROOT
BRANCH   1   2
HETATM    2  C2  UNL     1      23.531 -41.837   4.036  1.00  0.00     0.273 C 
HETATM    3  C1  UNL     1      22.590 -41.754   2.814  1.00  0.00     0.081 C 
BRANCH   2   4
HETATM    4  N1  UNL     1      24.089 -40.506   4.159  1.00  0.00    -0.044 N 
ATOM      5  H13 UNL     1      23.617 -39.919   4.846  1.00  0.00     0.278 HD
ATOM      6  H12 UNL     1      25.009 -40.480   4.599  1.00  0.00     0.278 HD
ATOM      7  H11 UNL     1      24.071 -40.131   3.210  1.00  0.00     0.278 HD
ENDBRANCH   2   4
BRANCH   2   8
HETATM    8  N11 UNL     1      24.565 -42.819   3.732  1.00  0.00    -0.157 N 
HETATM    9  N12 UNL     1      25.844 -42.998   3.942  1.00  0.00    -0.212 N 
HETATM   10  N13 UNL     1      25.757 -44.135   3.301  1.00  0.00    -0.209 N 
ATOM     11  H12 UNL     1      26.588 -42.475   4.405  1.00  0.00     0.211 HD
HETATM   12  N14 UNL     1      24.465 -43.966   3.083  1.00  0.00     0.017 NA
ATOM     13  H13 UNL     1      26.426 -44.867   3.062  1.00  0.00     0.207 HD
ENDBRANCH   2   8
ENDBRANCH   1   2
BRANCH   1  14
HETATM   14  N2  UNL     1      21.520 -41.670   5.234  1.00  0.00    -0.255 N 
ATOM     15  H2  UNL     1      20.943 -41.752   4.397  1.00  0.00     0.195 HD
BRANCH  14  16
HETATM   16  O1  UNL     1      20.972 -41.061   6.329  1.00  0.00    -0.204 OA
BRANCH  16  17
HETATM   17  C4  UNL     1      21.416 -39.786   6.652  1.00  0.00     0.249 C 
HETATM   18  N4  UNL     1      22.385 -39.554   7.677  1.00  0.00    -0.055 NA
BRANCH  17  19
HETATM   19  N3  UNL     1      20.975 -38.739   6.039  1.00  0.00    -0.366 N 
ATOM     20  H32 UNL     1      20.138 -38.307   6.432  1.00  0.00     0.159 HD
ATOM     21  H31 UNL     1      21.440 -38.368   5.211  1.00  0.00     0.159 HD
ENDBRANCH  17  19
ENDBRANCH  16  17
ENDBRANCH  14  16
ENDBRANCH   1  14
BRANCH   1  22
HETATM   22  C5  UNL     1      23.140 -42.982   6.283  1.00  0.00     0.113 A 
HETATM   23  N5  UNL     1      23.581 -42.541   7.504  1.00  0.00    -0.256 N 
HETATM   24  O2  UNL     1      23.875 -43.540   8.256  1.00  0.00    -0.231 OA
ATOM     25  H5  UNL     1      23.664 -41.562   7.776  1.00  0.00     0.195 HD
HETATM   26  C6  UNL     1      23.667 -44.673   7.636  1.00  0.00     0.172 A 
HETATM   27  C7  UNL     1      23.838 -46.004   8.032  1.00  0.00     0.147 A 
HETATM   28  C10 UNL     1      23.198 -44.356   6.375  1.00  0.00     0.104 A 
HETATM   29  N9  UNL     1      23.547 -47.001   7.187  1.00  0.00    -0.336 N 
HETATM   30  C9  UNL     1      23.091 -46.662   5.963  1.00  0.00     0.182 A 
ATOM     31  H9  UNL     1      23.664 -47.978   7.458  1.00  0.00     0.168 HD
HETATM   32  N10 UNL     1      22.928 -45.387   5.585  1.00  0.00    -0.348 N 
ATOM     33  H10 UNL     1      22.579 -45.200   4.644  1.00  0.00     0.167 HD
BRANCH  27  34
HETATM   34  N6  UNL     1      24.280 -46.223   9.228  1.00  0.00    -0.315 N 
HETATM   35  C8  UNL     1      23.403 -46.821  10.163  1.00  0.00     0.187 C 
HETATM   36  N7  UNL     1      22.770 -46.062  10.983  1.00  0.00    -0.373 N 
HETATM   37  N8  UNL     1      23.223 -48.221  10.194  1.00  0.00    -0.064 NA
ATOM     38  H72 UNL     1      22.901 -45.050  10.961  1.00  0.00     0.158 HD
ATOM     39  H71 UNL     1      22.138 -46.492  11.657  1.00  0.00     0.158 HD
ATOM     40  H6  UNL     1      25.234 -45.973   9.489  1.00  0.00     0.170 HD
ENDBRANCH  27  34
ENDBRANCH   1  22
TORSDOF 9
ENDMDL
