MODEL 1
REMARK VINA RESULT: -6.346675459      0.000      0.000
REMARK  8 active torsions:
REMARK  status: ('A' for Active; 'I' for Inactive)
REMARK    1  A    between atoms: C2_2  and  C3_3 
REMARK    2  A    between atoms: C3_3  and  N1_4 
REMARK    3  A    between atoms: N1_4  and  C4_6 
REMARK    4  A    between atoms: C4_6  and  N2_8 
REMARK    5  A    between atoms: N2_8  and  N3_10 
REMARK    6  A    between atoms: N3_10  and  C5_11 
REMARK    7  A    between atoms: C5_11  and  C6_12 
REMARK    8  A    between atoms: C5_11  and  C7_14 
ROOT
HETATM    1  N2  UNL     1      28.356  13.414  12.983  1.00  0.00    -0.279 N 
ATOM      2  H2  UNL     1      27.777  14.017  13.567  1.00  0.00     0.184 HD
ENDROOT
BRANCH   1   3
HETATM    3  C4  UNL     1      27.808  12.247  12.389  1.00  0.00     0.183 C 
HETATM    4  S1  UNL     1      28.489  10.793  12.659  1.00  0.00    -0.040 SA
BRANCH   3   5
HETATM    5  N1  UNL     1      26.668  12.320  11.555  1.00  0.00    -0.363 N 
ATOM      6  H1  UNL     1      25.820  11.824  11.830  1.00  0.00     0.162 HD
BRANCH   5   7
HETATM    7  C3  UNL     1      26.670  13.077  10.324  1.00  0.00     0.148 C 
BRANCH   7   8
HETATM    8  C2  UNL     1      27.728  12.632   9.392  1.00  0.00    -0.018 C 
HETATM    9  C1  UNL     1      28.920  13.183   9.312  1.00  0.00     0.008 C 
ENDBRANCH   7   8
ENDBRANCH   5   7
ENDBRANCH   3   5
ENDBRANCH   1   3
BRANCH   1  10
HETATM   10  N3  UNL     1      29.695  13.724  12.758  1.00  0.00    -0.120 NA
BRANCH  10  11
HETATM   11  C5  UNL     1      29.765  15.119  12.385  1.00  0.00     0.217 C 
BRANCH  11  12
HETATM   12  C6  UNL     1      28.393  15.663  12.184  1.00  0.00     0.261 C 
HETATM   13  O1  UNL     1      27.970  16.015  11.096  1.00  0.00    -0.305 OA
ENDBRANCH  11  12
BRANCH  11  14
HETATM   14  C7  UNL     1      30.502  15.918  13.425  1.00  0.00     0.080 A 
HETATM   15  C8  UNL     1      30.946  15.467  14.651  1.00  0.00     0.037 A 
HETATM   16  C9  UNL     1      31.578  16.511  15.311  1.00  0.00     0.027 A 
HETATM   17  C10 UNL     1      31.480  17.576  14.414  1.00  0.00     0.142 A 
HETATM   18  O2  UNL     1      30.850  17.180  13.343  1.00  0.00    -0.325 OA
ENDBRANCH  11  14
ENDBRANCH  10  11
ENDBRANCH   1  10
TORSDOF 8
ENDMDL
MODEL 2
REMARK VINA RESULT: -6.275979848      2.421      3.661
REMARK  8 active torsions:
REMARK  status: ('A' for Active; 'I' for Inactive)
REMARK    1  A    between atoms: C2_2  and  C3_3 
REMARK    2  A    between atoms: C3_3  and  N1_4 
REMARK    3  A    between atoms: N1_4  and  C4_6 
REMARK    4  A    between atoms: C4_6  and  N2_8 
REMARK    5  A    between atoms: N2_8  and  N3_10 
REMARK    6  A    between atoms: N3_10  and  C5_11 
REMARK    7  A    between atoms: C5_11  and  C6_12 
REMARK    8  A    between atoms: C5_11  and  C7_14 
ROOT
HETATM    1  N2  UNL     1      30.566  16.108  12.672  1.00  0.00    -0.279 N 
ATOM      2  H2  UNL     1      31.531  15.905  12.413  1.00  0.00     0.184 HD
ENDROOT
BRANCH   1   3
HETATM    3  C4  UNL     1      29.516  15.242  12.267  1.00  0.00     0.183 C 
HETATM    4  S1  UNL     1      29.725  13.628  12.304  1.00  0.00    -0.040 SA
BRANCH   3   5
HETATM    5  N1  UNL     1      28.274  15.758  11.826  1.00  0.00    -0.363 N 
ATOM      6  H1  UNL     1      27.679  16.252  12.490  1.00  0.00     0.162 HD
BRANCH   5   7
HETATM    7  C3  UNL     1      27.826  15.603  10.461  1.00  0.00     0.148 C 
BRANCH   7   8
HETATM    8  C2  UNL     1      26.638  14.730  10.355  1.00  0.00    -0.018 C 
HETATM    9  C1  UNL     1      26.693  13.419  10.256  1.00  0.00     0.008 C 
ENDBRANCH   7   8
ENDBRANCH   5   7
ENDBRANCH   3   5
ENDBRANCH   1   3
BRANCH   1  10
HETATM   10  N3  UNL     1      30.260  17.238  13.425  1.00  0.00    -0.120 NA
BRANCH  10  11
HETATM   11  C5  UNL     1      31.411  17.543  14.245  1.00  0.00     0.217 C 
BRANCH  11  12
HETATM   12  C6  UNL     1      31.770  16.363  15.079  1.00  0.00     0.261 C 
HETATM   13  O1  UNL     1      30.974  15.487  15.370  1.00  0.00    -0.305 OA
ENDBRANCH  11  12
BRANCH  11  14
HETATM   14  C7  UNL     1      32.580  17.965  13.398  1.00  0.00     0.080 A 
HETATM   15  C8  UNL     1      32.870  19.245  12.971  1.00  0.00     0.037 A 
HETATM   16  C9  UNL     1      34.032  19.212  12.212  1.00  0.00     0.027 A 
HETATM   17  C10 UNL     1      34.395  17.865  12.223  1.00  0.00     0.142 A 
HETATM   18  O2  UNL     1      33.524  17.189  12.920  1.00  0.00    -0.325 OA
ENDBRANCH  11  14
ENDBRANCH  10  11
ENDBRANCH   1  10
TORSDOF 8
ENDMDL
MODEL 3
REMARK VINA RESULT: -6.229839785      2.447      3.589
REMARK  8 active torsions:
REMARK  status: ('A' for Active; 'I' for Inactive)
REMARK    1  A    between atoms: C2_2  and  C3_3 
REMARK    2  A    between atoms: C3_3  and  N1_4 
REMARK    3  A    between atoms: N1_4  and  C4_6 
REMARK    4  A    between atoms: C4_6  and  N2_8 
REMARK    5  A    between atoms: N2_8  and  N3_10 
REMARK    6  A    between atoms: N3_10  and  C5_11 
REMARK    7  A    between atoms: C5_11  and  C6_12 
REMARK    8  A    between atoms: C5_11  and  C7_14 
ROOT
HETATM    1  N2  UNL     1      30.409  15.742  12.456  1.00  0.00    -0.279 N 
ATOM      2  H2  UNL     1      31.383  15.563  12.211  1.00  0.00     0.184 HD
ENDROOT
BRANCH   1   3
HETATM    3  C4  UNL     1      29.386  14.852  12.036  1.00  0.00     0.183 C 
HETATM    4  S1  UNL     1      28.596  15.114  10.637  1.00  0.00    -0.040 SA
BRANCH   3   5
HETATM    5  N1  UNL     1      29.032  13.727  12.816  1.00  0.00    -0.363 N 
ATOM      6  H1  UNL     1      29.749  13.271  13.381  1.00  0.00     0.162 HD
BRANCH   5   7
HETATM    7  C3  UNL     1      27.684  13.205  12.837  1.00  0.00     0.148 C 
BRANCH   7   8
HETATM    8  C2  UNL     1      27.599  11.847  12.260  1.00  0.00    -0.018 C 
HETATM    9  C1  UNL     1      28.492  10.901  12.465  1.00  0.00     0.008 C 
ENDBRANCH   7   8
ENDBRANCH   5   7
ENDBRANCH   3   5
ENDBRANCH   1   3
BRANCH   1  10
HETATM   10  N3  UNL     1      30.066  16.864  13.206  1.00  0.00    -0.120 NA
BRANCH  10  11
HETATM   11  C5  UNL     1      31.151  17.125  14.125  1.00  0.00     0.217 C 
BRANCH  11  12
HETATM   12  C6  UNL     1      31.523  15.876  14.845  1.00  0.00     0.261 C 
HETATM   13  O1  UNL     1      30.714  15.016  15.147  1.00  0.00    -0.305 OA
ENDBRANCH  11  12
BRANCH  11  14
HETATM   14  C7  UNL     1      32.342  17.694  13.403  1.00  0.00     0.080 A 
HETATM   15  C8  UNL     1      32.626  19.030  13.205  1.00  0.00     0.037 A 
HETATM   16  C9  UNL     1      33.814  19.134  12.495  1.00  0.00     0.027 A 
HETATM   17  C10 UNL     1      34.199  17.808  12.298  1.00  0.00     0.142 A 
HETATM   18  O2  UNL     1      33.315  17.018  12.841  1.00  0.00    -0.325 OA
ENDBRANCH  11  14
ENDBRANCH  10  11
ENDBRANCH   1  10
TORSDOF 8
ENDMDL
MODEL 4
REMARK VINA RESULT: -6.177496821      2.647      5.958
REMARK  8 active torsions:
REMARK  status: ('A' for Active; 'I' for Inactive)
REMARK    1  A    between atoms: C2_2  and  C3_3 
REMARK    2  A    between atoms: C3_3  and  N1_4 
REMARK    3  A    between atoms: N1_4  and  C4_6 
REMARK    4  A    between atoms: C4_6  and  N2_8 
REMARK    5  A    between atoms: N2_8  and  N3_10 
REMARK    6  A    between atoms: N3_10  and  C5_11 
REMARK    7  A    between atoms: C5_11  and  C6_12 
REMARK    8  A    between atoms: C5_11  and  C7_14 
ROOT
HETATM    1  N2  UNL     1      29.731  16.309  12.757  1.00  0.00    -0.279 N 
ATOM      2  H2  UNL     1      29.014  16.980  12.481  1.00  0.00     0.184 HD
ENDROOT
BRANCH   1   3
HETATM    3  C4  UNL     1      30.700  16.652  13.736  1.00  0.00     0.183 C 
HETATM    4  S1  UNL     1      31.225  15.534  14.797  1.00  0.00    -0.040 SA
BRANCH   3   5
HETATM    5  N1  UNL     1      31.226  17.963  13.813  1.00  0.00    -0.363 N 
ATOM      6  H1  UNL     1      30.712  18.729  13.380  1.00  0.00     0.162 HD
BRANCH   5   7
HETATM    7  C3  UNL     1      32.472  18.246  14.489  1.00  0.00     0.148 C 
BRANCH   7   8
HETATM    8  C2  UNL     1      33.435  18.953  13.619  1.00  0.00    -0.018 C 
HETATM    9  C1  UNL     1      33.090  19.793  12.665  1.00  0.00     0.008 C 
ENDBRANCH   7   8
ENDBRANCH   5   7
ENDBRANCH   3   5
ENDBRANCH   1   3
BRANCH   1  10
HETATM   10  N3  UNL     1      29.771  15.043  12.178  1.00  0.00    -0.120 NA
BRANCH  10  11
HETATM   11  C5  UNL     1      28.409  14.638  11.915  1.00  0.00     0.217 C 
BRANCH  11  12
HETATM   12  C6  UNL     1      27.991  15.099  10.562  1.00  0.00     0.261 C 
HETATM   13  O1  UNL     1      27.614  16.236  10.334  1.00  0.00    -0.305 OA
ENDBRANCH  11  12
BRANCH  11  14
HETATM   14  C7  UNL     1      28.259  13.146  12.033  1.00  0.00     0.080 A 
HETATM   15  C8  UNL     1      27.216  12.381  11.553  1.00  0.00     0.037 A 
HETATM   16  C9  UNL     1      27.455  11.050  11.868  1.00  0.00     0.027 A 
HETATM   17  C10 UNL     1      28.675  11.084  12.544  1.00  0.00     0.142 A 
HETATM   18  O2  UNL     1      29.094  12.317  12.613  1.00  0.00    -0.325 OA
ENDBRANCH  11  14
ENDBRANCH  10  11
ENDBRANCH   1  10
TORSDOF 8
ENDMDL
MODEL 5
REMARK VINA RESULT: -6.151253148      1.945      2.722
REMARK  8 active torsions:
REMARK  status: ('A' for Active; 'I' for Inactive)
REMARK    1  A    between atoms: C2_2  and  C3_3 
REMARK    2  A    between atoms: C3_3  and  N1_4 
REMARK    3  A    between atoms: N1_4  and  C4_6 
REMARK    4  A    between atoms: C4_6  and  N2_8 
REMARK    5  A    between atoms: N2_8  and  N3_10 
REMARK    6  A    between atoms: N3_10  and  C5_11 
REMARK    7  A    between atoms: C5_11  and  C6_12 
REMARK    8  A    between atoms: C5_11  and  C7_14 
ROOT
HETATM    1  N2  UNL     1      30.112  13.911  12.849  1.00  0.00    -0.279 N 
ATOM      2  H2  UNL     1      30.431  13.596  13.765  1.00  0.00     0.184 HD
ENDROOT
BRANCH   1   3
HETATM    3  C4  UNL     1      29.300  13.070  12.042  1.00  0.00     0.183 C 
HETATM    4  S1  UNL     1      28.488  11.828  12.712  1.00  0.00    -0.040 SA
BRANCH   3   5
HETATM    5  N1  UNL     1      29.180  13.290  10.650  1.00  0.00    -0.363 N 
ATOM      6  H1  UNL     1      30.027  13.396  10.091  1.00  0.00     0.162 HD
BRANCH   5   7
HETATM    7  C3  UNL     1      27.893  13.369   9.998  1.00  0.00     0.148 C 
BRANCH   7   8
HETATM    8  C2  UNL     1      27.144  14.585  10.377  1.00  0.00    -0.018 C 
HETATM    9  C1  UNL     1      27.634  15.805  10.305  1.00  0.00     0.008 C 
ENDBRANCH   7   8
ENDBRANCH   5   7
ENDBRANCH   3   5
ENDBRANCH   1   3
BRANCH   1  10
HETATM   10  N3  UNL     1      30.465  15.171  12.374  1.00  0.00    -0.120 NA
BRANCH  10  11
HETATM   11  C5  UNL     1      30.565  16.057  13.512  1.00  0.00     0.217 C 
BRANCH  11  12
HETATM   12  C6  UNL     1      30.795  15.268  14.754  1.00  0.00     0.261 C 
HETATM   13  O1  UNL     1      31.890  15.154  15.276  1.00  0.00    -0.305 OA
ENDBRANCH  11  12
BRANCH  11  14
HETATM   14  C7  UNL     1      31.663  17.064  13.315  1.00  0.00     0.080 A 
HETATM   15  C8  UNL     1      31.725  18.334  13.853  1.00  0.00     0.037 A 
HETATM   16  C9  UNL     1      32.899  18.943  13.432  1.00  0.00     0.027 A 
HETATM   17  C10 UNL     1      33.507  17.973  12.634  1.00  0.00     0.142 A 
HETATM   18  O2  UNL     1      32.752  16.909  12.600  1.00  0.00    -0.325 OA
ENDBRANCH  11  14
ENDBRANCH  10  11
ENDBRANCH   1  10
TORSDOF 8
ENDMDL
