MODEL 1
REMARK VINA RESULT: -6.508421432      0.000      0.000
REMARK  7 active torsions:
REMARK  status: ('A' for Active; 'I' for Inactive)
REMARK    1  A    between atoms: C2_4  and  O1_5 
REMARK    2  A    between atoms: C2_4  and  C4_7 
REMARK    3  A    between atoms: C5_8  and  O2_9 
REMARK    4  A    between atoms: C8_15  and  C9_16 
REMARK    5  A    between atoms: C9_16  and  O3_17 
REMARK    6  A    between atoms: C9_16  and  N4_19 
REMARK    7  A    between atoms: C11_23  and  N6_24 
ROOT
HETATM    1  N4  UNL     1       0.723  10.199  11.895  1.00  0.00    -0.273 N 
ATOM      2  H4  UNL     1      -0.201  10.629  11.907  1.00  0.00     0.180 HD
HETATM    3  C10 UNL     1       1.750  10.731  11.061  1.00  0.00     0.183 C 
HETATM    4  N5  UNL     1       2.591  11.148  10.394  1.00  0.00    -0.172 NA
ENDROOT
BRANCH   1   5
HETATM    5  C9  UNL     1       0.985   9.094  12.690  1.00  0.00     0.165 C 
BRANCH   5   6
HETATM    6  C8  UNL     1       1.544   9.006  14.028  1.00  0.00     0.084 A 
HETATM    7  C7  UNL     1       0.689   9.141  15.127  1.00  0.00     0.137 A 
HETATM    8  N2  UNL     1       1.192   9.062  16.354  1.00  0.00    -0.319 N 
HETATM    9  N3  UNL     1      -0.694   9.360  14.928  1.00  0.00    -0.081 NA
HETATM   10  C5  UNL     1       2.495   8.855  16.575  1.00  0.00     0.160 A 
HETATM   11  C6  UNL     1       0.324   9.199  17.516  1.00  0.00     0.159 C 
HETATM   12  C4  UNL     1       3.402   8.712  15.548  1.00  0.00     0.093 A 
HETATM   13  C11 UNL     1       2.917   8.789  14.250  1.00  0.00     0.062 A 
BRANCH  10  14
HETATM   14  O2  UNL     1       2.997   8.776  17.882  1.00  0.00    -0.345 OA
ATOM     15  H2  UNL     1       2.368   8.618  18.576  1.00  0.00     0.219 HD
ENDBRANCH  10  14
BRANCH  12  16
HETATM   16  C2  UNL     1       4.836   8.487  15.863  1.00  0.00     0.154 C 
HETATM   17  N1  UNL     1       5.227   7.567  16.599  1.00  0.00    -0.374 N 
HETATM   18  C1  UNL     1       6.427   7.069  17.097  1.00  0.00     0.148 C 
ATOM     19  H1  UNL     1       4.438   7.016  16.939  1.00  0.00     0.161 HD
BRANCH  16  20
HETATM   20  O1  UNL     1       5.762   9.347  15.301  1.00  0.00    -0.340 OA
HETATM   21  C3  UNL     1       6.002  10.681  15.629  1.00  0.00     0.211 C 
ENDBRANCH  16  20
ENDBRANCH  12  16
BRANCH  13  22
HETATM   22  N6  UNL     1       3.681   8.667  13.297  1.00  0.00    -0.397 N 
ATOM     23  H62 UNL     1       4.002   7.741  13.014  1.00  0.00     0.156 HD
ATOM     24  H61 UNL     1       3.998   9.491  12.785  1.00  0.00     0.156 HD
ENDBRANCH  13  22
ENDBRANCH   5   6
BRANCH   5  25
HETATM   25  O3  UNL     1       0.667   7.954  12.122  1.00  0.00    -0.345 OA
ATOM     26  H3  UNL     1       1.058   7.789  11.272  1.00  0.00     0.219 HD
ENDBRANCH   5  25
ENDBRANCH   1   5
TORSDOF 7
ENDMDL
MODEL 2
REMARK VINA RESULT: -6.362383149      4.731      6.663
REMARK  7 active torsions:
REMARK  status: ('A' for Active; 'I' for Inactive)
REMARK    1  A    between atoms: C2_4  and  O1_5 
REMARK    2  A    between atoms: C2_4  and  C4_7 
REMARK    3  A    between atoms: C5_8  and  O2_9 
REMARK    4  A    between atoms: C8_15  and  C9_16 
REMARK    5  A    between atoms: C9_16  and  O3_17 
REMARK    6  A    between atoms: C9_16  and  N4_19 
REMARK    7  A    between atoms: C11_23  and  N6_24 
ROOT
HETATM    1  N4  UNL     1      -2.931   7.332  19.357  1.00  0.00    -0.273 N 
ATOM      2  H4  UNL     1      -2.944   7.433  20.372  1.00  0.00     0.180 HD
HETATM    3  C10 UNL     1      -3.088   6.045  18.764  1.00  0.00     0.183 C 
HETATM    4  N5  UNL     1      -3.216   5.013  18.268  1.00  0.00    -0.172 NA
ENDROOT
BRANCH   1   5
HETATM    5  C9  UNL     1      -2.759   8.446  18.551  1.00  0.00     0.165 C 
BRANCH   5   6
HETATM    6  C8  UNL     1      -2.046   9.688  18.797  1.00  0.00     0.084 A 
HETATM    7  C7  UNL     1      -2.598  10.617  19.685  1.00  0.00     0.137 A 
HETATM    8  N2  UNL     1      -1.954  11.756  19.916  1.00  0.00    -0.319 N 
HETATM    9  N3  UNL     1      -3.829  10.343  20.326  1.00  0.00    -0.081 NA
HETATM   10  C5  UNL     1      -0.789  12.046  19.325  1.00  0.00     0.160 A 
HETATM   11  C6  UNL     1      -2.507  12.742  20.836  1.00  0.00     0.159 C 
HETATM   12  C4  UNL     1      -0.180  11.184  18.439  1.00  0.00     0.093 A 
HETATM   13  C11 UNL     1      -0.821   9.982  18.170  1.00  0.00     0.062 A 
BRANCH  10  14
HETATM   14  O2  UNL     1      -0.132  13.255  19.588  1.00  0.00    -0.345 OA
ATOM     15  H2  UNL     1       0.441  13.591  18.909  1.00  0.00     0.219 HD
ENDBRANCH  10  14
BRANCH  12  16
HETATM   16  C2  UNL     1       1.113  11.567  17.816  1.00  0.00     0.154 C 
HETATM   17  N1  UNL     1       2.169  11.660  18.463  1.00  0.00    -0.374 N 
HETATM   18  C1  UNL     1       3.506  11.975  18.235  1.00  0.00     0.148 C 
ATOM     19  H1  UNL     1       2.012  11.441  19.446  1.00  0.00     0.161 HD
BRANCH  16  20
HETATM   20  O1  UNL     1       1.124  11.825  16.458  1.00  0.00    -0.340 OA
HETATM   21  C3  UNL     1       0.303  12.699  15.746  1.00  0.00     0.211 C 
ENDBRANCH  16  20
ENDBRANCH  12  16
BRANCH  13  22
HETATM   22  N6  UNL     1      -0.322   9.178  17.388  1.00  0.00    -0.397 N 
ATOM     23  H62 UNL     1       0.257   9.508  16.616  1.00  0.00     0.156 HD
ATOM     24  H61 UNL     1      -0.485   8.178  17.508  1.00  0.00     0.156 HD
ENDBRANCH  13  22
ENDBRANCH   5   6
BRANCH   5  25
HETATM   25  O3  UNL     1      -3.343   8.340  17.380  1.00  0.00    -0.345 OA
ATOM     26  H3  UNL     1      -4.215   8.711  17.314  1.00  0.00     0.219 HD
ENDBRANCH   5  25
ENDBRANCH   1   5
TORSDOF 7
ENDMDL
MODEL 3
REMARK VINA RESULT: -6.291571098      2.394      4.714
REMARK  7 active torsions:
REMARK  status: ('A' for Active; 'I' for Inactive)
REMARK    1  A    between atoms: C2_4  and  O1_5 
REMARK    2  A    between atoms: C2_4  and  C4_7 
REMARK    3  A    between atoms: C5_8  and  O2_9 
REMARK    4  A    between atoms: C8_15  and  C9_16 
REMARK    5  A    between atoms: C9_16  and  O3_17 
REMARK    6  A    between atoms: C9_16  and  N4_19 
REMARK    7  A    between atoms: C11_23  and  N6_24 
ROOT
HETATM    1  N4  UNL     1       1.996   9.536  11.525  1.00  0.00    -0.273 N 
ATOM      2  H4  UNL     1       1.922  10.553  11.507  1.00  0.00     0.180 HD
HETATM    3  C10 UNL     1       2.907   8.869  10.654  1.00  0.00     0.183 C 
HETATM    4  N5  UNL     1       3.638   8.314   9.958  1.00  0.00    -0.172 NA
ENDROOT
BRANCH   1   5
HETATM    5  C9  UNL     1       1.211   8.799  12.397  1.00  0.00     0.165 C 
BRANCH   5   6
HETATM    6  C8  UNL     1       0.967   8.968  13.819  1.00  0.00     0.084 A 
HETATM    7  C7  UNL     1       1.967   8.594  14.724  1.00  0.00     0.137 A 
HETATM    8  N2  UNL     1       1.753   8.744  16.026  1.00  0.00    -0.319 N 
HETATM    9  N3  UNL     1       3.190   8.063  14.252  1.00  0.00    -0.081 NA
HETATM   10  C5  UNL     1       0.607   9.243  16.505  1.00  0.00     0.160 A 
HETATM   11  C6  UNL     1       2.777   8.363  16.990  1.00  0.00     0.159 C 
HETATM   12  C4  UNL     1      -0.425   9.633  15.681  1.00  0.00     0.093 A 
HETATM   13  C11 UNL     1      -0.241   9.493  14.312  1.00  0.00     0.062 A 
BRANCH  10  14
HETATM   14  O2  UNL     1       0.410   9.389  17.885  1.00  0.00    -0.345 OA
ATOM     15  H2  UNL     1       0.135  10.245  18.192  1.00  0.00     0.219 HD
ENDBRANCH  10  14
BRANCH  12  16
HETATM   16  C2  UNL     1      -1.672  10.179  16.277  1.00  0.00     0.154 C 
HETATM   17  N1  UNL     1      -2.403   9.515  17.030  1.00  0.00    -0.374 N 
HETATM   18  C1  UNL     1      -3.588   9.679  17.742  1.00  0.00     0.148 C 
ATOM     19  H1  UNL     1      -2.025   8.578  17.168  1.00  0.00     0.161 HD
BRANCH  16  20
HETATM   20  O1  UNL     1      -2.018  11.482  15.970  1.00  0.00    -0.340 OA
HETATM   21  C3  UNL     1      -1.345  12.652  16.320  1.00  0.00     0.211 C 
ENDBRANCH  16  20
ENDBRANCH  12  16
BRANCH  13  22
HETATM   22  N6  UNL     1      -1.130   9.827  13.532  1.00  0.00    -0.397 N 
ATOM     23  H62 UNL     1      -1.845  10.491  13.828  1.00  0.00     0.156 HD
ATOM     24  H61 UNL     1      -1.155   9.441  12.589  1.00  0.00     0.156 HD
ENDBRANCH  13  22
ENDBRANCH   5   6
BRANCH   5  25
HETATM   25  O3  UNL     1       0.598   7.789  11.823  1.00  0.00    -0.345 OA
ATOM     26  H3  UNL     1       0.633   7.765  10.875  1.00  0.00     0.219 HD
ENDBRANCH   5  25
ENDBRANCH   1   5
TORSDOF 7
ENDMDL
MODEL 4
REMARK VINA RESULT: -6.179244918      5.338      7.240
REMARK  7 active torsions:
REMARK  status: ('A' for Active; 'I' for Inactive)
REMARK    1  A    between atoms: C2_4  and  O1_5 
REMARK    2  A    between atoms: C2_4  and  C4_7 
REMARK    3  A    between atoms: C5_8  and  O2_9 
REMARK    4  A    between atoms: C8_15  and  C9_16 
REMARK    5  A    between atoms: C9_16  and  O3_17 
REMARK    6  A    between atoms: C9_16  and  N4_19 
REMARK    7  A    between atoms: C11_23  and  N6_24 
ROOT
HETATM    1  N4  UNL     1      -2.664   7.718  19.194  1.00  0.00    -0.273 N 
ATOM      2  H4  UNL     1      -2.281   7.983  20.102  1.00  0.00     0.180 HD
HETATM    3  C10 UNL     1      -2.933   6.348  18.904  1.00  0.00     0.183 C 
HETATM    4  N5  UNL     1      -3.159   5.246  18.653  1.00  0.00    -0.172 NA
ENDROOT
BRANCH   1   5
HETATM    5  C9  UNL     1      -2.921   8.688  18.239  1.00  0.00     0.165 C 
BRANCH   5   6
HETATM    6  C8  UNL     1      -2.518  10.083  18.178  1.00  0.00     0.084 A 
HETATM    7  C7  UNL     1      -2.851  10.928  19.242  1.00  0.00     0.137 A 
HETATM    8  N2  UNL     1      -2.487  12.205  19.195  1.00  0.00    -0.319 N 
HETATM    9  N3  UNL     1      -3.567  10.424  20.353  1.00  0.00    -0.081 NA
HETATM   10  C5  UNL     1      -1.809  12.712  18.159  1.00  0.00     0.160 A 
HETATM   11  C6  UNL     1      -2.820  13.107  20.289  1.00  0.00     0.159 C 
HETATM   12  C4  UNL     1      -1.444  11.947  17.074  1.00  0.00     0.093 A 
HETATM   13  C11 UNL     1      -1.806  10.606  17.084  1.00  0.00     0.062 A 
BRANCH  10  14
HETATM   14  O2  UNL     1      -1.438  14.063  18.137  1.00  0.00    -0.345 OA
ATOM     15  H2  UNL     1      -0.510  14.255  18.065  1.00  0.00     0.219 HD
ENDBRANCH  10  14
BRANCH  12  16
HETATM   16  C2  UNL     1      -0.693  12.572  15.954  1.00  0.00     0.154 C 
HETATM   17  N1  UNL     1       0.367  13.196  16.122  1.00  0.00    -0.374 N 
HETATM   18  C1  UNL     1       1.304  13.882  15.356  1.00  0.00     0.148 C 
ATOM     19  H1  UNL     1       0.627  13.209  17.108  1.00  0.00     0.161 HD
BRANCH  16  20
HETATM   20  O1  UNL     1      -1.211  12.443  14.679  1.00  0.00    -0.340 OA
HETATM   21  C3  UNL     1      -0.698  11.698  13.617  1.00  0.00     0.211 C 
ENDBRANCH  16  20
ENDBRANCH  12  16
BRANCH  13  22
HETATM   22  N6  UNL     1      -1.505   9.878  16.141  1.00  0.00    -0.397 N 
ATOM     23  H62 UNL     1      -0.623  10.019  15.649  1.00  0.00     0.156 HD
ATOM     24  H61 UNL     1      -2.136   9.132  15.848  1.00  0.00     0.156 HD
ENDBRANCH  13  22
ENDBRANCH   5   6
BRANCH   5  25
HETATM   25  O3  UNL     1      -3.650   8.255  17.236  1.00  0.00    -0.345 OA
ATOM     26  H3  UNL     1      -4.584   8.198  17.394  1.00  0.00     0.219 HD
ENDBRANCH   5  25
ENDBRANCH   1   5
TORSDOF 7
ENDMDL
MODEL 5
REMARK VINA RESULT: -6.081741343      2.310      4.166
REMARK  7 active torsions:
REMARK  status: ('A' for Active; 'I' for Inactive)
REMARK    1  A    between atoms: C2_4  and  O1_5 
REMARK    2  A    between atoms: C2_4  and  C4_7 
REMARK    3  A    between atoms: C5_8  and  O2_9 
REMARK    4  A    between atoms: C8_15  and  C9_16 
REMARK    5  A    between atoms: C9_16  and  O3_17 
REMARK    6  A    between atoms: C9_16  and  N4_19 
REMARK    7  A    between atoms: C11_23  and  N6_24 
ROOT
HETATM    1  N4  UNL     1      -1.621  10.753  14.878  1.00  0.00    -0.273 N 
ATOM      2  H4  UNL     1      -2.489  10.384  15.266  1.00  0.00     0.180 HD
HETATM    3  C10 UNL     1      -1.145  12.035  15.281  1.00  0.00     0.183 C 
HETATM    4  N5  UNL     1      -0.743  13.068  15.596  1.00  0.00    -0.172 NA
ENDROOT
BRANCH   1   5
HETATM    5  C9  UNL     1      -0.903  10.008  13.956  1.00  0.00     0.165 C 
BRANCH   5   6
HETATM    6  C8  UNL     1       0.510   9.669  13.913  1.00  0.00     0.084 A 
HETATM    7  C7  UNL     1       1.118   9.167  15.068  1.00  0.00     0.137 A 
HETATM    8  N2  UNL     1       2.409   8.854  15.039  1.00  0.00    -0.319 N 
HETATM    9  N3  UNL     1       0.363   8.997  16.253  1.00  0.00    -0.081 NA
HETATM   10  C5  UNL     1       3.150   9.003  13.935  1.00  0.00     0.160 A 
HETATM   11  C6  UNL     1       3.068   8.330  16.227  1.00  0.00     0.159 C 
HETATM   12  C4  UNL     1       2.627   9.490  12.758  1.00  0.00     0.093 A 
HETATM   13  C11 UNL     1       1.280   9.830  12.747  1.00  0.00     0.062 A 
BRANCH  10  14
HETATM   14  O2  UNL     1       4.510   8.664  13.933  1.00  0.00    -0.345 OA
ATOM     15  H2  UNL     1       4.875   8.341  14.749  1.00  0.00     0.219 HD
ENDBRANCH  10  14
BRANCH  12  16
HETATM   16  C2  UNL     1       3.505   9.633  11.568  1.00  0.00     0.154 C 
HETATM   17  N1  UNL     1       3.976   8.659  10.959  1.00  0.00    -0.374 N 
HETATM   18  C1  UNL     1       4.794   8.413   9.861  1.00  0.00     0.148 C 
ATOM     19  H1  UNL     1       3.676   7.784  11.390  1.00  0.00     0.161 HD
BRANCH  16  20
HETATM   20  O1  UNL     1       3.799  10.912  11.133  1.00  0.00    -0.340 OA
HETATM   21  C3  UNL     1       3.517  11.480   9.890  1.00  0.00     0.211 C 
ENDBRANCH  16  20
ENDBRANCH  12  16
BRANCH  13  22
HETATM   22  N6  UNL     1       0.762  10.268  11.724  1.00  0.00    -0.397 N 
ATOM     23  H62 UNL     1       1.083  11.152  11.328  1.00  0.00     0.156 HD
ATOM     24  H61 UNL     1       0.010   9.752  11.267  1.00  0.00     0.156 HD
ENDBRANCH  13  22
ENDBRANCH   5   6
BRANCH   5  25
HETATM   25  O3  UNL     1      -1.637   9.545  12.971  1.00  0.00    -0.345 OA
ATOM     26  H3  UNL     1      -1.847  10.163  12.282  1.00  0.00     0.219 HD
ENDBRANCH   5  25
ENDBRANCH   1   5
TORSDOF 7
ENDMDL
