MODEL 1
REMARK VINA RESULT: -7.832720183      0.000      0.000
REMARK  16 active torsions:
REMARK  status: ('A' for Active; 'I' for Inactive)
REMARK    1  A    between atoms: C2_2  and  O1_3 
REMARK    2  A    between atoms: O1_3  and  C3_4 
REMARK    3  A    between atoms: C5_7  and  O3_8 
REMARK    4  A    between atoms: C6_10  and  O4_11 
REMARK    5  A    between atoms: C7_13  and  O5_14 
REMARK    6  A    between atoms: C10_18  and  C11_19 
REMARK    7  A    between atoms: C13_22  and  O7_23 
REMARK    8  A    between atoms: C14_25  and  C15_26 
REMARK    9  A    between atoms: C15_26  and  C16_27 
REMARK   10  A    between atoms: C16_27  and  C17_28 
REMARK   11  A    between atoms: C17_28  and  C18_29 
REMARK   12  A    between atoms: C18_29  and  N1_30 
REMARK   13  A    between atoms: N1_30  and  N2_32 
REMARK   14  A    between atoms: N2_32  and  N3_33 
REMARK   15  A    between atoms: C19_37  and  C20_38 
REMARK   16  A    between atoms: C20_38  and  O9_39 
ROOT
HETATM    1  C1  UNL     1      23.755  65.898  43.477  1.00  0.00     0.049 C 
HETATM    2  C2  UNL     1      23.867  65.014  44.695  1.00  0.00     0.088 C 
HETATM    3  C8  UNL     1      22.679  64.015  44.508  1.00  0.00     0.043 C 
HETATM    4  C9  UNL     1      21.362  64.664  44.725  1.00  0.00     0.037 C 
HETATM    5  C10 UNL     1      21.327  65.471  46.025  1.00  0.00     0.151 C 
HETATM    6  O8  UNL     1      22.332  66.397  45.912  1.00  0.00    -0.373 OA
HETATM    7  C19 UNL     1      23.612  65.798  45.937  1.00  0.00     0.179 C 
ENDROOT
BRANCH   5   8
HETATM    8  C11 UNL     1      20.008  66.235  45.997  1.00  0.00     0.157 C 
HETATM    9  O6  UNL     1      20.305  67.579  46.187  1.00  0.00    -0.380 OA
HETATM   10  C12 UNL     1      20.070  67.904  47.497  1.00  0.00     0.200 C 
HETATM   11  C13 UNL     1      18.935  67.047  47.957  1.00  0.00     0.148 C 
HETATM   12  C14 UNL     1      19.073  65.820  47.081  1.00  0.00     0.048 C 
BRANCH  11  13
HETATM   13  O7  UNL     1      19.030  66.723  49.311  1.00  0.00    -0.393 OA
ATOM     14  H7  UNL     1      19.397  65.859  49.450  1.00  0.00     0.210 HD
ENDBRANCH  11  13
BRANCH  12  15
HETATM   15  C15 UNL     1      17.698  65.467  46.586  1.00  0.00     0.010 C 
BRANCH  15  16
HETATM   16  C16 UNL     1      17.617  65.127  45.141  1.00  0.00     0.002 C 
BRANCH  16  17
HETATM   17  C17 UNL     1      16.238  65.028  44.590  1.00  0.00     0.022 C 
BRANCH  17  18
HETATM   18  C18 UNL     1      15.219  65.823  45.373  1.00  0.00     0.155 C 
BRANCH  18  19
HETATM   19  N1  UNL     1      14.213  65.003  45.969  1.00  0.00    -0.253 N 
ATOM     20  H1  UNL     1      13.564  64.528  45.342  1.00  0.00     0.196 HD
BRANCH  19  21
HETATM   21  N2  UNL     1      14.064  64.824  47.162  1.00  0.00    -0.249 NA
BRANCH  21  22
HETATM   22  N3  UNL     1      13.705  64.923  48.337  1.00  0.00    -0.261 N 
ATOM     23  H32 UNL     1      12.909  64.294  48.227  1.00  0.00     0.193 HD
ATOM     24  H31 UNL     1      13.638  65.182  49.322  1.00  0.00     0.193 HD
ENDBRANCH  21  22
ENDBRANCH  19  21
ENDBRANCH  18  19
ENDBRANCH  17  18
ENDBRANCH  16  17
ENDBRANCH  15  16
ENDBRANCH  12  15
ENDBRANCH   5   8
BRANCH   7  25
HETATM   25  C20 UNL     1      24.557  66.918  46.194  1.00  0.00     0.199 C 
BRANCH  25  26
HETATM   26  O9  UNL     1      25.732  66.526  46.820  1.00  0.00    -0.398 OA
ATOM     27  H9  UNL     1      26.401  66.218  46.220  1.00  0.00     0.209 HD
ENDBRANCH  25  26
ENDBRANCH   7  25
BRANCH   2  28
HETATM   28  O1  UNL     1      24.944  64.225  44.748  1.00  0.00    -0.345 OA
BRANCH  28  29
HETATM   29  C3  UNL     1      24.907  62.907  44.984  1.00  0.00     0.292 C 
HETATM   30  O2  UNL     1      25.559  62.246  43.912  1.00  0.00    -0.356 OA
HETATM   31  C4  UNL     1      26.729  62.956  43.609  1.00  0.00     0.205 C 
HETATM   32  C5  UNL     1      27.698  62.925  44.772  1.00  0.00     0.173 C 
HETATM   33  C6  UNL     1      27.115  62.008  45.823  1.00  0.00     0.182 C 
HETATM   34  C7  UNL     1      25.741  62.504  46.215  1.00  0.00     0.204 C 
BRANCH  32  35
HETATM   35  O3  UNL     1      28.939  62.434  44.353  1.00  0.00    -0.391 OA
ATOM     36  H3  UNL     1      28.962  61.488  44.438  1.00  0.00     0.210 HD
ENDBRANCH  32  35
BRANCH  33  37
HETATM   37  O4  UNL     1      27.069  60.723  45.276  1.00  0.00    -0.390 OA
ATOM     38  H4  UNL     1      26.892  60.118  45.987  1.00  0.00     0.210 HD
ENDBRANCH  33  37
BRANCH  34  39
HETATM   39  O5  UNL     1      25.927  63.610  47.038  1.00  0.00    -0.388 OA
ATOM     40  H5  UNL     1      25.170  64.181  46.983  1.00  0.00     0.210 HD
ENDBRANCH  34  39
ENDBRANCH  28  29
ENDBRANCH   2  28
TORSDOF 16
ENDMDL
MODEL 2
REMARK VINA RESULT: -7.759733301      2.485      3.422
REMARK  16 active torsions:
REMARK  status: ('A' for Active; 'I' for Inactive)
REMARK    1  A    between atoms: C2_2  and  O1_3 
REMARK    2  A    between atoms: O1_3  and  C3_4 
REMARK    3  A    between atoms: C5_7  and  O3_8 
REMARK    4  A    between atoms: C6_10  and  O4_11 
REMARK    5  A    between atoms: C7_13  and  O5_14 
REMARK    6  A    between atoms: C10_18  and  C11_19 
REMARK    7  A    between atoms: C13_22  and  O7_23 
REMARK    8  A    between atoms: C14_25  and  C15_26 
REMARK    9  A    between atoms: C15_26  and  C16_27 
REMARK   10  A    between atoms: C16_27  and  C17_28 
REMARK   11  A    between atoms: C17_28  and  C18_29 
REMARK   12  A    between atoms: C18_29  and  N1_30 
REMARK   13  A    between atoms: N1_30  and  N2_32 
REMARK   14  A    between atoms: N2_32  and  N3_33 
REMARK   15  A    between atoms: C19_37  and  C20_38 
REMARK   16  A    between atoms: C20_38  and  O9_39 
ROOT
HETATM    1  C1  UNL     1      23.959  67.691  45.112  1.00  0.00     0.049 C 
HETATM    2  C2  UNL     1      23.784  66.225  44.801  1.00  0.00     0.088 C 
HETATM    3  C8  UNL     1      22.238  66.095  44.604  1.00  0.00     0.043 C 
HETATM    4  C9  UNL     1      21.497  66.224  45.884  1.00  0.00     0.037 C 
HETATM    5  C10 UNL     1      22.084  65.331  46.980  1.00  0.00     0.151 C 
HETATM    6  O8  UNL     1      23.392  65.723  47.113  1.00  0.00    -0.373 OA
HETATM    7  C19 UNL     1      24.165  65.391  45.977  1.00  0.00     0.179 C 
ENDROOT
BRANCH   5   8
HETATM    8  C11 UNL     1      21.363  65.731  48.262  1.00  0.00     0.157 C 
HETATM    9  O6  UNL     1      22.216  65.445  49.321  1.00  0.00    -0.380 OA
HETATM   10  C12 UNL     1      21.839  64.256  49.886  1.00  0.00     0.200 C 
HETATM   11  C13 UNL     1      20.356  64.156  49.731  1.00  0.00     0.148 C 
HETATM   12  C14 UNL     1      20.101  64.970  48.479  1.00  0.00     0.048 C 
BRANCH  11  13
HETATM   13  O7  UNL     1      19.927  62.836  49.580  1.00  0.00    -0.393 OA
ATOM     14  H7  UNL     1      19.562  62.672  48.718  1.00  0.00     0.210 HD
ENDBRANCH  11  13
BRANCH  12  15
HETATM   15  C15 UNL     1      18.910  65.846  48.752  1.00  0.00     0.010 C 
BRANCH  15  16
HETATM   16  C16 UNL     1      18.133  66.244  47.549  1.00  0.00     0.002 C 
BRANCH  16  17
HETATM   17  C17 UNL     1      16.687  65.893  47.585  1.00  0.00     0.022 C 
BRANCH  17  18
HETATM   18  C18 UNL     1      16.127  65.513  46.235  1.00  0.00     0.155 C 
BRANCH  18  19
HETATM   19  N1  UNL     1      14.809  64.967  46.313  1.00  0.00    -0.253 N 
ATOM     20  H1  UNL     1      14.350  64.726  45.434  1.00  0.00     0.196 HD
BRANCH  19  21
HETATM   21  N2  UNL     1      14.188  64.765  47.338  1.00  0.00    -0.249 NA
BRANCH  21  22
HETATM   22  N3  UNL     1      13.612  64.906  48.419  1.00  0.00    -0.261 N 
ATOM     23  H32 UNL     1      13.902  63.996  48.779  1.00  0.00     0.193 HD
ATOM     24  H31 UNL     1      13.062  65.277  49.193  1.00  0.00     0.193 HD
ENDBRANCH  21  22
ENDBRANCH  19  21
ENDBRANCH  18  19
ENDBRANCH  17  18
ENDBRANCH  16  17
ENDBRANCH  15  16
ENDBRANCH  12  15
ENDBRANCH   5   8
BRANCH   7  25
HETATM   25  C20 UNL     1      25.579  65.518  46.422  1.00  0.00     0.199 C 
BRANCH  25  26
HETATM   26  O9  UNL     1      26.485  64.868  45.597  1.00  0.00    -0.398 OA
ATOM     27  H9  UNL     1      26.308  63.941  45.490  1.00  0.00     0.209 HD
ENDBRANCH  25  26
ENDBRANCH   7  25
BRANCH   2  28
HETATM   28  O1  UNL     1      24.292  65.809  43.637  1.00  0.00    -0.345 OA
BRANCH  28  29
HETATM   29  C3  UNL     1      23.670  64.974  42.795  1.00  0.00     0.292 C 
HETATM   30  O2  UNL     1      23.366  65.689  41.608  1.00  0.00    -0.356 OA
HETATM   31  C4  UNL     1      24.485  66.461  41.265  1.00  0.00     0.205 C 
HETATM   32  C5  UNL     1      25.670  65.579  40.931  1.00  0.00     0.173 C 
HETATM   33  C6  UNL     1      25.187  64.146  40.951  1.00  0.00     0.182 C 
HETATM   34  C7  UNL     1      24.587  63.838  42.305  1.00  0.00     0.204 C 
BRANCH  32  35
HETATM   35  O3  UNL     1      26.163  65.893  39.661  1.00  0.00    -0.391 OA
ATOM     36  H3  UNL     1      27.111  65.938  39.679  1.00  0.00     0.210 HD
ENDBRANCH  32  35
BRANCH  33  37
HETATM   37  O4  UNL     1      24.253  64.006  39.922  1.00  0.00    -0.390 OA
ATOM     38  H4  UNL     1      24.601  63.370  39.308  1.00  0.00     0.210 HD
ENDBRANCH  33  37
BRANCH  34  39
HETATM   39  O5  UNL     1      25.645  63.673  43.193  1.00  0.00    -0.388 OA
ATOM     40  H5  UNL     1      25.720  62.759  43.436  1.00  0.00     0.210 HD
ENDBRANCH  34  39
ENDBRANCH  28  29
ENDBRANCH   2  28
TORSDOF 16
ENDMDL
MODEL 3
REMARK VINA RESULT: -7.671812489      4.651      6.404
REMARK  16 active torsions:
REMARK  status: ('A' for Active; 'I' for Inactive)
REMARK    1  A    between atoms: C2_2  and  O1_3 
REMARK    2  A    between atoms: O1_3  and  C3_4 
REMARK    3  A    between atoms: C5_7  and  O3_8 
REMARK    4  A    between atoms: C6_10  and  O4_11 
REMARK    5  A    between atoms: C7_13  and  O5_14 
REMARK    6  A    between atoms: C10_18  and  C11_19 
REMARK    7  A    between atoms: C13_22  and  O7_23 
REMARK    8  A    between atoms: C14_25  and  C15_26 
REMARK    9  A    between atoms: C15_26  and  C16_27 
REMARK   10  A    between atoms: C16_27  and  C17_28 
REMARK   11  A    between atoms: C17_28  and  C18_29 
REMARK   12  A    between atoms: C18_29  and  N1_30 
REMARK   13  A    between atoms: N1_30  and  N2_32 
REMARK   14  A    between atoms: N2_32  and  N3_33 
REMARK   15  A    between atoms: C19_37  and  C20_38 
REMARK   16  A    between atoms: C20_38  and  O9_39 
ROOT
HETATM    1  C1  UNL     1      22.900  64.728  41.984  1.00  0.00     0.049 C 
HETATM    2  C2  UNL     1      21.927  64.553  40.844  1.00  0.00     0.088 C 
HETATM    3  C8  UNL     1      20.814  65.600  41.176  1.00  0.00     0.043 C 
HETATM    4  C9  UNL     1      19.991  65.193  42.342  1.00  0.00     0.037 C 
HETATM    5  C10 UNL     1      19.501  63.749  42.222  1.00  0.00     0.151 C 
HETATM    6  O8  UNL     1      20.633  62.983  42.114  1.00  0.00    -0.373 OA
HETATM    7  C19 UNL     1      21.305  63.199  40.889  1.00  0.00     0.179 C 
ENDROOT
BRANCH   5   8
HETATM    8  C11 UNL     1      18.865  63.420  43.568  1.00  0.00     0.157 C 
HETATM    9  O6  UNL     1      17.982  62.368  43.362  1.00  0.00    -0.380 OA
HETATM   10  C12 UNL     1      16.709  62.868  43.271  1.00  0.00     0.200 C 
HETATM   11  C13 UNL     1      16.655  64.071  44.156  1.00  0.00     0.148 C 
HETATM   12  C14 UNL     1      18.089  64.558  44.137  1.00  0.00     0.048 C 
BRANCH  11  13
HETATM   13  O7  UNL     1      15.778  65.044  43.674  1.00  0.00    -0.393 OA
ATOM     14  H7  UNL     1      16.216  65.869  43.498  1.00  0.00     0.210 HD
ENDBRANCH  11  13
BRANCH  12  15
HETATM   15  C15 UNL     1      18.465  64.892  45.554  1.00  0.00     0.010 C 
BRANCH  15  16
HETATM   16  C16 UNL     1      17.791  66.091  46.118  1.00  0.00     0.002 C 
BRANCH  16  17
HETATM   17  C17 UNL     1      17.513  66.032  47.579  1.00  0.00     0.022 C 
BRANCH  17  18
HETATM   18  C18 UNL     1      16.042  66.113  47.915  1.00  0.00     0.155 C 
BRANCH  18  19
HETATM   19  N1  UNL     1      15.272  65.081  47.299  1.00  0.00    -0.253 N 
ATOM     20  H1  UNL     1      15.495  64.117  47.549  1.00  0.00     0.196 HD
BRANCH  19  21
HETATM   21  N2  UNL     1      14.372  65.253  46.500  1.00  0.00    -0.249 NA
BRANCH  21  22
HETATM   22  N3  UNL     1      13.320  65.155  45.865  1.00  0.00    -0.261 N 
ATOM     23  H32 UNL     1      12.746  65.557  46.606  1.00  0.00     0.193 HD
ATOM     24  H31 UNL     1      12.629  64.962  45.139  1.00  0.00     0.193 HD
ENDBRANCH  21  22
ENDBRANCH  19  21
ENDBRANCH  18  19
ENDBRANCH  17  18
ENDBRANCH  16  17
ENDBRANCH  15  16
ENDBRANCH  12  15
ENDBRANCH   5   8
BRANCH   7  25
HETATM   25  C20 UNL     1      22.249  62.056  40.759  1.00  0.00     0.199 C 
BRANCH  25  26
HETATM   26  O9  UNL     1      21.944  61.194  39.716  1.00  0.00    -0.398 OA
ATOM     27  H9  UNL     1      22.340  60.335  39.801  1.00  0.00     0.209 HD
ENDBRANCH  25  26
ENDBRANCH   7  25
BRANCH   2  28
HETATM   28  O1  UNL     1      22.366  64.923  39.638  1.00  0.00    -0.345 OA
BRANCH  28  29
HETATM   29  C3  UNL     1      22.166  66.131  39.097  1.00  0.00     0.292 C 
HETATM   30  O2  UNL     1      23.381  66.859  39.175  1.00  0.00    -0.356 OA
HETATM   31  C4  UNL     1      24.428  66.000  38.812  1.00  0.00     0.205 C 
HETATM   32  C5  UNL     1      24.294  65.562  37.369  1.00  0.00     0.173 C 
HETATM   33  C6  UNL     1      23.134  66.326  36.770  1.00  0.00     0.182 C 
HETATM   34  C7  UNL     1      21.886  66.062  37.583  1.00  0.00     0.204 C 
BRANCH  32  35
HETATM   35  O3  UNL     1      25.466  65.857  36.664  1.00  0.00    -0.391 OA
ATOM     36  H3  UNL     1      25.258  66.323  35.863  1.00  0.00     0.210 HD
ENDBRANCH  32  35
BRANCH  33  37
HETATM   37  O4  UNL     1      23.480  67.680  36.771  1.00  0.00    -0.390 OA
ATOM     38  H4  UNL     1      24.344  67.752  36.383  1.00  0.00     0.210 HD
ENDBRANCH  33  37
BRANCH  34  39
HETATM   39  O5  UNL     1      21.443  64.787  37.247  1.00  0.00    -0.388 OA
ATOM     40  H5  UNL     1      21.726  64.572  36.366  1.00  0.00     0.210 HD
ENDBRANCH  34  39
ENDBRANCH  28  29
ENDBRANCH   2  28
TORSDOF 16
ENDMDL
MODEL 4
REMARK VINA RESULT: -7.658315899      1.155      1.587
REMARK  16 active torsions:
REMARK  status: ('A' for Active; 'I' for Inactive)
REMARK    1  A    between atoms: C2_2  and  O1_3 
REMARK    2  A    between atoms: O1_3  and  C3_4 
REMARK    3  A    between atoms: C5_7  and  O3_8 
REMARK    4  A    between atoms: C6_10  and  O4_11 
REMARK    5  A    between atoms: C7_13  and  O5_14 
REMARK    6  A    between atoms: C10_18  and  C11_19 
REMARK    7  A    between atoms: C13_22  and  O7_23 
REMARK    8  A    between atoms: C14_25  and  C15_26 
REMARK    9  A    between atoms: C15_26  and  C16_27 
REMARK   10  A    between atoms: C16_27  and  C17_28 
REMARK   11  A    between atoms: C17_28  and  C18_29 
REMARK   12  A    between atoms: C18_29  and  N1_30 
REMARK   13  A    between atoms: N1_30  and  N2_32 
REMARK   14  A    between atoms: N2_32  and  N3_33 
REMARK   15  A    between atoms: C19_37  and  C20_38 
REMARK   16  A    between atoms: C20_38  and  O9_39 
ROOT
HETATM    1  C1  UNL     1      22.685  63.294  44.282  1.00  0.00     0.049 C 
HETATM    2  C2  UNL     1      23.581  64.214  45.075  1.00  0.00     0.088 C 
HETATM    3  C8  UNL     1      22.954  64.160  46.506  1.00  0.00     0.043 C 
HETATM    4  C9  UNL     1      21.653  64.870  46.575  1.00  0.00     0.037 C 
HETATM    5  C10 UNL     1      21.728  66.269  45.959  1.00  0.00     0.151 C 
HETATM    6  O8  UNL     1      22.129  66.078  44.661  1.00  0.00    -0.373 OA
HETATM    7  C19 UNL     1      23.462  65.615  44.579  1.00  0.00     0.179 C 
ENDROOT
BRANCH   5   8
HETATM    8  C11 UNL     1      20.291  66.775  45.914  1.00  0.00     0.157 C 
HETATM    9  O6  UNL     1      20.318  68.123  46.245  1.00  0.00    -0.380 OA
HETATM   10  C12 UNL     1      19.963  68.264  47.561  1.00  0.00     0.200 C 
HETATM   11  C13 UNL     1      18.992  67.170  47.866  1.00  0.00     0.148 C 
HETATM   12  C14 UNL     1      19.403  66.085  46.892  1.00  0.00     0.048 C 
BRANCH  11  13
HETATM   13  O7  UNL     1      19.083  66.733  49.188  1.00  0.00    -0.393 OA
ATOM     14  H7  UNL     1      18.434  66.071  49.394  1.00  0.00     0.210 HD
ENDBRANCH  11  13
BRANCH  12  15
HETATM   15  C15 UNL     1      18.145  65.537  46.278  1.00  0.00     0.010 C 
BRANCH  15  16
HETATM   16  C16 UNL     1      17.550  66.376  45.205  1.00  0.00     0.002 C 
BRANCH  16  17
HETATM   17  C17 UNL     1      16.266  65.873  44.647  1.00  0.00     0.022 C 
BRANCH  17  18
HETATM   18  C18 UNL     1      15.654  64.755  45.459  1.00  0.00     0.155 C 
BRANCH  18  19
HETATM   19  N1  UNL     1      14.395  65.109  46.034  1.00  0.00    -0.253 N 
ATOM     20  H1  UNL     1      13.730  65.601  45.437  1.00  0.00     0.196 HD
BRANCH  19  21
HETATM   21  N2  UNL     1      14.050  64.874  47.175  1.00  0.00    -0.249 NA
BRANCH  21  22
HETATM   22  N3  UNL     1      13.647  64.984  48.335  1.00  0.00    -0.261 N 
ATOM     23  H32 UNL     1      14.584  65.027  48.737  1.00  0.00     0.193 HD
ATOM     24  H31 UNL     1      13.055  65.060  49.163  1.00  0.00     0.193 HD
ENDBRANCH  21  22
ENDBRANCH  19  21
ENDBRANCH  18  19
ENDBRANCH  17  18
ENDBRANCH  16  17
ENDBRANCH  15  16
ENDBRANCH  12  15
ENDBRANCH   5   8
BRANCH   7  25
HETATM   25  C20 UNL     1      23.859  65.829  43.161  1.00  0.00     0.199 C 
BRANCH  25  26
HETATM   26  O9  UNL     1      25.132  65.369  42.860  1.00  0.00    -0.398 OA
ATOM     27  H9  UNL     1      25.798  65.654  43.475  1.00  0.00     0.209 HD
ENDBRANCH  25  26
ENDBRANCH   7  25
BRANCH   2  28
HETATM   28  O1  UNL     1      24.836  63.794  45.258  1.00  0.00    -0.345 OA
BRANCH  28  29
HETATM   29  C3  UNL     1      25.291  63.237  46.387  1.00  0.00     0.292 C 
HETATM   30  O2  UNL     1      25.709  61.914  46.091  1.00  0.00    -0.356 OA
HETATM   31  C4  UNL     1      26.425  61.942  44.886  1.00  0.00     0.205 C 
HETATM   32  C5  UNL     1      27.691  62.761  45.027  1.00  0.00     0.173 C 
HETATM   33  C6  UNL     1      27.815  63.155  46.482  1.00  0.00     0.182 C 
HETATM   34  C7  UNL     1      26.575  63.913  46.903  1.00  0.00     0.204 C 
BRANCH  32  35
HETATM   35  O3  UNL     1      28.802  62.000  44.649  1.00  0.00    -0.391 OA
ATOM     36  H3  UNL     1      29.342  61.809  45.407  1.00  0.00     0.210 HD
ENDBRANCH  32  35
BRANCH  33  37
HETATM   37  O4  UNL     1      27.986  61.982  47.220  1.00  0.00    -0.390 OA
ATOM     38  H4  UNL     1      28.741  61.530  46.864  1.00  0.00     0.210 HD
ENDBRANCH  33  37
BRANCH  34  39
HETATM   39  O5  UNL     1      26.678  65.193  46.370  1.00  0.00    -0.388 OA
ATOM     40  H5  UNL     1      27.593  65.416  46.249  1.00  0.00     0.210 HD
ENDBRANCH  34  39
ENDBRANCH  28  29
ENDBRANCH   2  28
TORSDOF 16
ENDMDL
MODEL 5
REMARK VINA RESULT: -7.626292217      3.638      5.965
REMARK  16 active torsions:
REMARK  status: ('A' for Active; 'I' for Inactive)
REMARK    1  A    between atoms: C2_2  and  O1_3 
REMARK    2  A    between atoms: O1_3  and  C3_4 
REMARK    3  A    between atoms: C5_7  and  O3_8 
REMARK    4  A    between atoms: C6_10  and  O4_11 
REMARK    5  A    between atoms: C7_13  and  O5_14 
REMARK    6  A    between atoms: C10_18  and  C11_19 
REMARK    7  A    between atoms: C13_22  and  O7_23 
REMARK    8  A    between atoms: C14_25  and  C15_26 
REMARK    9  A    between atoms: C15_26  and  C16_27 
REMARK   10  A    between atoms: C16_27  and  C17_28 
REMARK   11  A    between atoms: C17_28  and  C18_29 
REMARK   12  A    between atoms: C18_29  and  N1_30 
REMARK   13  A    between atoms: N1_30  and  N2_32 
REMARK   14  A    between atoms: N2_32  and  N3_33 
REMARK   15  A    between atoms: C19_37  and  C20_38 
REMARK   16  A    between atoms: C20_38  and  O9_39 
ROOT
HETATM    1  C1  UNL     1      21.318  62.549  45.928  1.00  0.00     0.049 C 
HETATM    2  C2  UNL     1      21.978  63.458  44.921  1.00  0.00     0.088 C 
HETATM    3  C8  UNL     1      23.491  63.091  45.063  1.00  0.00     0.043 C 
HETATM    4  C9  UNL     1      24.069  63.582  46.339  1.00  0.00     0.037 C 
HETATM    5  C10 UNL     1      23.737  65.054  46.591  1.00  0.00     0.151 C 
HETATM    6  O8  UNL     1      22.368  65.128  46.597  1.00  0.00    -0.373 OA
HETATM    7  C19 UNL     1      21.816  64.885  45.318  1.00  0.00     0.179 C 
ENDROOT
BRANCH   5   8
HETATM    8  C11 UNL     1      24.208  65.343  48.012  1.00  0.00     0.157 C 
HETATM    9  O6  UNL     1      25.306  66.188  47.919  1.00  0.00    -0.380 OA
HETATM   10  C12 UNL     1      26.450  65.447  48.058  1.00  0.00     0.200 C 
HETATM   11  C13 UNL     1      26.121  64.317  48.980  1.00  0.00     0.148 C 
HETATM   12  C14 UNL     1      24.639  64.117  48.740  1.00  0.00     0.048 C 
BRANCH  11  13
HETATM   13  O7  UNL     1      26.848  63.163  48.685  1.00  0.00    -0.393 OA
ATOM     14  H7  UNL     1      26.291  62.400  48.591  1.00  0.00     0.210 HD
ENDBRANCH  11  13
BRANCH  12  15
HETATM   15  C15 UNL     1      23.987  63.957  50.085  1.00  0.00     0.010 C 
BRANCH  15  16
HETATM   16  C16 UNL     1      22.641  64.575  50.210  1.00  0.00     0.002 C 
BRANCH  16  17
HETATM   17  C17 UNL     1      21.498  63.628  50.101  1.00  0.00     0.022 C 
BRANCH  17  18
HETATM   18  C18 UNL     1      20.402  64.112  49.179  1.00  0.00     0.155 C 
BRANCH  18  19
HETATM   19  N1  UNL     1      20.347  65.536  49.079  1.00  0.00    -0.253 N 
ATOM     20  H1  UNL     1      21.233  66.033  48.986  1.00  0.00     0.196 HD
BRANCH  19  21
HETATM   21  N2  UNL     1      19.333  66.205  49.096  1.00  0.00    -0.249 NA
BRANCH  21  22
HETATM   22  N3  UNL     1      18.538  67.146  49.142  1.00  0.00    -0.261 N 
ATOM     23  H32 UNL     1      18.039  66.867  48.298  1.00  0.00     0.193 HD
ATOM     24  H31 UNL     1      18.034  67.989  49.419  1.00  0.00     0.193 HD
ENDBRANCH  21  22
ENDBRANCH  19  21
ENDBRANCH  18  19
ENDBRANCH  17  18
ENDBRANCH  16  17
ENDBRANCH  15  16
ENDBRANCH  12  15
ENDBRANCH   5   8
BRANCH   7  25
HETATM   25  C20 UNL     1      20.413  65.372  45.404  1.00  0.00     0.199 C 
BRANCH  25  26
HETATM   26  O9  UNL     1      20.230  66.393  46.324  1.00  0.00    -0.398 OA
ATOM     27  H9  UNL     1      19.904  66.097  47.166  1.00  0.00     0.209 HD
ENDBRANCH  25  26
ENDBRANCH   7  25
BRANCH   2  28
HETATM   28  O1  UNL     1      21.706  63.204  43.637  1.00  0.00    -0.345 OA
BRANCH  28  29
HETATM   29  C3  UNL     1      21.674  64.132  42.672  1.00  0.00     0.292 C 
HETATM   30  O2  UNL     1      22.786  63.921  41.818  1.00  0.00    -0.356 OA
HETATM   31  C4  UNL     1      22.898  62.544  41.579  1.00  0.00     0.205 C 
HETATM   32  C5  UNL     1      21.689  62.025  40.829  1.00  0.00     0.173 C 
HETATM   33  C6  UNL     1      20.831  63.218  40.473  1.00  0.00     0.182 C 
HETATM   34  C7  UNL     1      20.463  63.967  41.734  1.00  0.00     0.204 C 
BRANCH  32  35
HETATM   35  O3  UNL     1      22.090  61.367  39.662  1.00  0.00    -0.391 OA
ATOM     36  H3  UNL     1      21.373  61.336  39.040  1.00  0.00     0.210 HD
ENDBRANCH  32  35
BRANCH  33  37
HETATM   37  O4  UNL     1      21.566  64.012  39.589  1.00  0.00    -0.390 OA
ATOM     38  H4  UNL     1      22.474  63.738  39.650  1.00  0.00     0.210 HD
ENDBRANCH  33  37
BRANCH  34  39
HETATM   39  O5  UNL     1      19.472  63.229  42.373  1.00  0.00    -0.388 OA
ATOM     40  H5  UNL     1      18.729  63.122  41.792  1.00  0.00     0.210 HD
ENDBRANCH  34  39
ENDBRANCH  28  29
ENDBRANCH   2  28
TORSDOF 16
ENDMDL
