MODEL 1
REMARK VINA RESULT: -8.556031661      0.000      0.000
REMARK  13 active torsions:
REMARK  status: ('A' for Active; 'I' for Inactive)
REMARK    1  A    between atoms: C4_4  and  O1_5 
REMARK    2  A    between atoms: C8_10  and  C9_11 
REMARK    3  A    between atoms: C9_11  and  C10_12 
REMARK    4  A    between atoms: C10_12  and  N1_13 
REMARK    5  A    between atoms: C10_12  and  C23_35 
REMARK       I    between atoms: N1_13  and  C11_15 
REMARK    6  A    between atoms: C11_15  and  C12_17 
REMARK    7  A    between atoms: C12_17  and  N2_18 
REMARK    8  A    between atoms: C12_17  and  C18_27 
REMARK       I    between atoms: N2_18  and  C13_20 
REMARK    9  A    between atoms: C13_20  and  O4_22 
REMARK   10  A    between atoms: O4_22  and  C14_23 
REMARK   11  A    between atoms: C18_27  and  O5_28 
REMARK   12  A    between atoms: C18_27  and  N3_30 
REMARK       I    between atoms: C23_35  and  N4_37 
REMARK   13  A    between atoms: N4_37  and  C24_39 
ROOT
HETATM    1  C10 UNL     1      -8.087  16.981  28.796  1.00  0.00     0.180 C 
ENDROOT
BRANCH   1   2
HETATM    2  C9  UNL     1      -8.552  17.721  29.966  1.00  0.00     0.074 C 
BRANCH   2   3
HETATM    3  C8  UNL     1      -9.308  17.054  31.008  1.00  0.00    -0.044 A 
HETATM    4  C2  UNL     1      -8.654  16.660  32.160  1.00  0.00    -0.052 A 
HETATM    5  C1  UNL     1      -7.222  16.824  32.411  1.00  0.00     0.049 C 
HETATM    6  C3  UNL     1      -9.419  16.067  33.146  1.00  0.00     0.043 A 
HETATM    7  C4  UNL     1     -10.776  15.861  33.024  1.00  0.00     0.066 A 
HETATM    8  C5  UNL     1     -11.400  16.264  31.868  1.00  0.00     0.043 A 
HETATM    9  C6  UNL     1     -10.673  16.868  30.839  1.00  0.00    -0.052 A 
HETATM   10  C7  UNL     1     -11.417  17.293  29.626  1.00  0.00     0.049 C 
BRANCH   7  11
HETATM   11  O1  UNL     1     -11.560  15.271  33.998  1.00  0.00    -0.361 OA
ATOM     12  H1  UNL     1     -12.436  15.562  34.223  1.00  0.00     0.217 HD
ENDBRANCH   7  11
ENDBRANCH   2   3
ENDBRANCH   1   2
BRANCH   1  13
HETATM   13  N1  UNL     1      -9.017  16.465  27.861  1.00  0.00    -0.345 N 
HETATM   14  C11 UNL     1      -9.097  15.137  27.398  1.00  0.00     0.249 C 
HETATM   15  O2  UNL     1      -8.308  14.211  27.789  1.00  0.00    -0.271 OA
ATOM     16  H1  UNL     1      -9.700  17.123  27.484  1.00  0.00     0.163 HD
BRANCH  14  17
HETATM   17  C12 UNL     1     -10.106  14.695  26.400  1.00  0.00     0.253 C 
BRANCH  17  18
HETATM   18  N2  UNL     1     -11.402  14.689  27.135  1.00  0.00    -0.316 N 
HETATM   19  C13 UNL     1     -12.049  13.495  27.516  1.00  0.00     0.362 C 
HETATM   20  O3  UNL     1     -11.608  12.346  27.281  1.00  0.00    -0.238 OA
ATOM     21  H2  UNL     1     -11.836  15.581  27.372  1.00  0.00     0.166 HD
BRANCH  19  22
HETATM   22  O4  UNL     1     -13.276  13.542  28.208  1.00  0.00    -0.294 OA
BRANCH  22  23
HETATM   23  C14 UNL     1     -13.361  13.468  29.609  1.00  0.00     0.061 C 
HETATM   24  C15 UNL     1     -14.098  14.684  30.112  1.00  0.00     0.046 C 
HETATM   25  C16 UNL     1     -11.987  13.433  30.260  1.00  0.00     0.046 C 
HETATM   26  C17 UNL     1     -14.166  12.253  30.042  1.00  0.00     0.046 C 
ENDBRANCH  22  23
ENDBRANCH  19  22
ENDBRANCH  17  18
BRANCH  17  27
HETATM   27  C18 UNL     1     -10.241  15.669  25.293  1.00  0.00     0.146 C 
BRANCH  27  28
HETATM   28  O5  UNL     1     -11.115  16.612  25.561  1.00  0.00    -0.347 OA
ATOM     29  H5  UNL     1     -11.928  16.500  25.081  1.00  0.00     0.219 HD
ENDBRANCH  27  28
BRANCH  27  30
HETATM   30  N3  UNL     1      -9.604  15.723  24.061  1.00  0.00    -0.363 N 
HETATM   31  C19 UNL     1     -10.307  16.170  22.826  1.00  0.00     0.124 C 
HETATM   32  C20 UNL     1      -9.259  16.852  22.017  1.00  0.00     0.021 C 
HETATM   33  C21 UNL     1      -7.980  16.624  22.733  1.00  0.00     0.021 C 
HETATM   34  C22 UNL     1      -8.279  15.416  23.629  1.00  0.00     0.124 C 
ENDBRANCH  27  30
ENDBRANCH  17  27
ENDBRANCH  14  17
ENDBRANCH   1  13
BRANCH   1  35
HETATM   35  C23 UNL     1      -7.192  17.929  28.018  1.00  0.00     0.241 C 
HETATM   36  O6  UNL     1      -7.355  19.152  28.202  1.00  0.00    -0.271 OA
HETATM   37  N4  UNL     1      -6.202  17.495  27.113  1.00  0.00    -0.355 N 
ATOM     38  H4  UNL     1      -6.060  16.498  26.955  1.00  0.00     0.162 HD
BRANCH  37  39
HETATM   39  C24 UNL     1      -5.378  18.472  26.399  1.00  0.00     0.084 C 
HETATM   40  C25 UNL     1      -5.931  18.760  25.035  1.00  0.00     0.025 C 
HETATM   41  C26 UNL     1      -4.785  18.980  24.076  1.00  0.00     0.002 C 
HETATM   42  C27 UNL     1      -3.996  17.724  23.919  1.00  0.00     0.000 C 
HETATM   43  C28 UNL     1      -3.592  17.129  25.229  1.00  0.00     0.002 C 
HETATM   44  C29 UNL     1      -3.961  17.982  26.410  1.00  0.00     0.025 C 
ENDBRANCH  37  39
ENDBRANCH   1  35
TORSDOF 13
ENDMDL
MODEL 2
REMARK VINA RESULT: -8.517222989      0.099      1.382
REMARK  13 active torsions:
REMARK  status: ('A' for Active; 'I' for Inactive)
REMARK    1  A    between atoms: C4_4  and  O1_5 
REMARK    2  A    between atoms: C8_10  and  C9_11 
REMARK    3  A    between atoms: C9_11  and  C10_12 
REMARK    4  A    between atoms: C10_12  and  N1_13 
REMARK    5  A    between atoms: C10_12  and  C23_35 
REMARK       I    between atoms: N1_13  and  C11_15 
REMARK    6  A    between atoms: C11_15  and  C12_17 
REMARK    7  A    between atoms: C12_17  and  N2_18 
REMARK    8  A    between atoms: C12_17  and  C18_27 
REMARK       I    between atoms: N2_18  and  C13_20 
REMARK    9  A    between atoms: C13_20  and  O4_22 
REMARK   10  A    between atoms: O4_22  and  C14_23 
REMARK   11  A    between atoms: C18_27  and  O5_28 
REMARK   12  A    between atoms: C18_27  and  N3_30 
REMARK       I    between atoms: C23_35  and  N4_37 
REMARK   13  A    between atoms: N4_37  and  C24_39 
ROOT
HETATM    1  C10 UNL     1      -8.081  17.027  28.739  1.00  0.00     0.180 C 
ENDROOT
BRANCH   1   2
HETATM    2  C9  UNL     1      -8.552  17.786  29.895  1.00  0.00     0.074 C 
BRANCH   2   3
HETATM    3  C8  UNL     1      -9.337  17.142  30.931  1.00  0.00    -0.044 A 
HETATM    4  C2  UNL     1     -10.688  16.943  30.719  1.00  0.00    -0.052 A 
HETATM    5  C1  UNL     1     -11.424  17.371  29.529  1.00  0.00     0.049 C 
HETATM    6  C3  UNL     1     -11.391  16.288  31.712  1.00  0.00     0.043 A 
HETATM    7  C4  UNL     1     -10.806  15.838  32.876  1.00  0.00     0.066 A 
HETATM    8  C5  UNL     1      -9.460  16.049  33.059  1.00  0.00     0.043 A 
HETATM    9  C6  UNL     1      -8.703  16.706  32.086  1.00  0.00    -0.052 A 
HETATM   10  C7  UNL     1      -7.252  16.884  32.345  1.00  0.00     0.049 C 
BRANCH   7  11
HETATM   11  O1  UNL     1     -11.490  15.180  33.881  1.00  0.00    -0.361 OA
ATOM     12  H1  UNL     1     -12.066  14.439  33.734  1.00  0.00     0.217 HD
ENDBRANCH   7  11
ENDBRANCH   2   3
ENDBRANCH   1   2
BRANCH   1  13
HETATM   13  N1  UNL     1      -9.006  16.503  27.803  1.00  0.00    -0.345 N 
HETATM   14  C11 UNL     1      -9.166  15.150  27.445  1.00  0.00     0.249 C 
HETATM   15  O2  UNL     1      -8.469  14.206  27.950  1.00  0.00    -0.271 OA
ATOM     16  H1  UNL     1      -9.618  17.175  27.340  1.00  0.00     0.163 HD
BRANCH  14  17
HETATM   17  C12 UNL     1     -10.161  14.701  26.436  1.00  0.00     0.253 C 
BRANCH  17  18
HETATM   18  N2  UNL     1     -11.463  14.674  27.160  1.00  0.00    -0.316 N 
HETATM   19  C13 UNL     1     -12.092  13.470  27.539  1.00  0.00     0.362 C 
HETATM   20  O3  UNL     1     -11.629  12.328  27.311  1.00  0.00    -0.238 OA
ATOM     21  H2  UNL     1     -11.915  15.559  27.390  1.00  0.00     0.166 HD
BRANCH  19  22
HETATM   22  O4  UNL     1     -13.326  13.497  28.219  1.00  0.00    -0.294 OA
BRANCH  22  23
HETATM   23  C14 UNL     1     -13.420  13.455  29.621  1.00  0.00     0.061 C 
HETATM   24  C15 UNL     1     -14.152  14.688  30.093  1.00  0.00     0.046 C 
HETATM   25  C16 UNL     1     -12.052  13.425  30.282  1.00  0.00     0.046 C 
HETATM   26  C17 UNL     1     -14.238  12.256  30.076  1.00  0.00     0.046 C 
ENDBRANCH  22  23
ENDBRANCH  19  22
ENDBRANCH  17  18
BRANCH  17  27
HETATM   27  C18 UNL     1     -10.299  15.678  25.333  1.00  0.00     0.146 C 
BRANCH  27  28
HETATM   28  O5  UNL     1     -11.160  16.630  25.613  1.00  0.00    -0.347 OA
ATOM     29  H5  UNL     1     -12.013  16.287  25.853  1.00  0.00     0.219 HD
ENDBRANCH  27  28
BRANCH  27  30
HETATM   30  N3  UNL     1      -9.675  15.730  24.095  1.00  0.00    -0.363 N 
HETATM   31  C19 UNL     1     -10.397  16.153  22.862  1.00  0.00     0.124 C 
HETATM   32  C20 UNL     1      -9.368  16.843  22.035  1.00  0.00     0.021 C 
HETATM   33  C21 UNL     1      -8.078  16.641  22.741  1.00  0.00     0.021 C 
HETATM   34  C22 UNL     1      -8.350  15.438  23.652  1.00  0.00     0.124 C 
ENDBRANCH  27  30
ENDBRANCH  17  27
ENDBRANCH  14  17
ENDBRANCH   1  13
BRANCH   1  35
HETATM   35  C23 UNL     1      -7.173  17.959  27.957  1.00  0.00     0.241 C 
HETATM   36  O6  UNL     1      -7.310  19.184  28.147  1.00  0.00    -0.271 OA
HETATM   37  N4  UNL     1      -6.200  17.508  27.043  1.00  0.00    -0.355 N 
ATOM     38  H4  UNL     1      -6.080  16.509  26.880  1.00  0.00     0.162 HD
BRANCH  37  39
HETATM   39  C24 UNL     1      -5.362  18.470  26.325  1.00  0.00     0.084 C 
HETATM   40  C25 UNL     1      -5.889  18.730  24.945  1.00  0.00     0.025 C 
HETATM   41  C26 UNL     1      -4.725  18.931  24.003  1.00  0.00     0.002 C 
HETATM   42  C27 UNL     1      -3.933  17.671  23.887  1.00  0.00     0.000 C 
HETATM   43  C28 UNL     1      -3.554  17.103  25.216  1.00  0.00     0.002 C 
HETATM   44  C29 UNL     1      -3.945  17.980  26.373  1.00  0.00     0.025 C 
ENDBRANCH  37  39
ENDBRANCH   1  35
TORSDOF 13
ENDMDL
MODEL 3
REMARK VINA RESULT: -8.416685161      1.860      5.949
REMARK  13 active torsions:
REMARK  status: ('A' for Active; 'I' for Inactive)
REMARK    1  A    between atoms: C4_4  and  O1_5 
REMARK    2  A    between atoms: C8_10  and  C9_11 
REMARK    3  A    between atoms: C9_11  and  C10_12 
REMARK    4  A    between atoms: C10_12  and  N1_13 
REMARK    5  A    between atoms: C10_12  and  C23_35 
REMARK       I    between atoms: N1_13  and  C11_15 
REMARK    6  A    between atoms: C11_15  and  C12_17 
REMARK    7  A    between atoms: C12_17  and  N2_18 
REMARK    8  A    between atoms: C12_17  and  C18_27 
REMARK       I    between atoms: N2_18  and  C13_20 
REMARK    9  A    between atoms: C13_20  and  O4_22 
REMARK   10  A    between atoms: O4_22  and  C14_23 
REMARK   11  A    between atoms: C18_27  and  O5_28 
REMARK   12  A    between atoms: C18_27  and  N3_30 
REMARK       I    between atoms: C23_35  and  N4_37 
REMARK   13  A    between atoms: N4_37  and  C24_39 
ROOT
HETATM    1  C10 UNL     1      -8.418  16.142  29.309  1.00  0.00     0.180 C 
ENDROOT
BRANCH   1   2
HETATM    2  C9  UNL     1      -8.516  15.219  30.436  1.00  0.00     0.074 C 
BRANCH   2   3
HETATM    3  C8  UNL     1      -9.268  15.580  31.623  1.00  0.00    -0.044 A 
HETATM    4  C2  UNL     1     -10.485  14.969  31.854  1.00  0.00    -0.052 A 
HETATM    5  C1  UNL     1     -11.117  13.993  30.967  1.00  0.00     0.049 C 
HETATM    6  C3  UNL     1     -11.149  15.310  33.017  1.00  0.00     0.043 A 
HETATM    7  C4  UNL     1     -10.651  16.215  33.930  1.00  0.00     0.066 A 
HETATM    8  C5  UNL     1      -9.438  16.807  33.674  1.00  0.00     0.043 A 
HETATM    9  C6  UNL     1      -8.726  16.498  32.513  1.00  0.00    -0.052 A 
HETATM   10  C7  UNL     1      -7.414  17.164  32.310  1.00  0.00     0.049 C 
BRANCH   7  11
HETATM   11  O1  UNL     1     -11.299  16.569  35.099  1.00  0.00    -0.361 OA
ATOM     12  H1  UNL     1     -11.079  17.335  35.617  1.00  0.00     0.217 HD
ENDBRANCH   7  11
ENDBRANCH   2   3
ENDBRANCH   1   2
BRANCH   1  13
HETATM   13  N1  UNL     1      -7.503  15.891  28.257  1.00  0.00    -0.345 N 
HETATM   14  C11 UNL     1      -6.997  16.831  27.339  1.00  0.00     0.249 C 
HETATM   15  O2  UNL     1      -7.317  18.068  27.356  1.00  0.00    -0.271 OA
ATOM     16  H1  UNL     1      -7.178  14.929  28.153  1.00  0.00     0.163 HD
BRANCH  14  17
HETATM   17  C12 UNL     1      -6.047  16.463  26.256  1.00  0.00     0.253 C 
BRANCH  17  18
HETATM   18  N2  UNL     1      -6.880  16.367  25.025  1.00  0.00    -0.316 N 
HETATM   19  C13 UNL     1      -7.964  15.472  24.914  1.00  0.00     0.362 C 
HETATM   20  O3  UNL     1      -8.327  14.685  25.819  1.00  0.00    -0.238 OA
ATOM     21  H2  UNL     1      -6.659  16.972  24.234  1.00  0.00     0.166 HD
BRANCH  19  22
HETATM   22  O4  UNL     1      -8.720  15.416  23.725  1.00  0.00    -0.294 OA
BRANCH  22  23
HETATM   23  C14 UNL     1      -9.615  16.432  23.347  1.00  0.00     0.061 C 
HETATM   24  C15 UNL     1      -8.908  17.367  22.397  1.00  0.00     0.046 C 
HETATM   25  C16 UNL     1     -10.100  17.236  24.543  1.00  0.00     0.046 C 
HETATM   26  C17 UNL     1     -10.806  15.856  22.597  1.00  0.00     0.046 C 
ENDBRANCH  22  23
ENDBRANCH  19  22
ENDBRANCH  17  18
BRANCH  17  27
HETATM   27  C18 UNL     1      -5.048  17.530  26.021  1.00  0.00     0.146 C 
BRANCH  27  28
HETATM   28  O5  UNL     1      -4.178  17.625  27.001  1.00  0.00    -0.347 OA
ATOM     29  H5  UNL     1      -3.282  17.658  26.686  1.00  0.00     0.219 HD
ENDBRANCH  27  28
BRANCH  27  30
HETATM   30  N3  UNL     1      -4.907  18.410  24.958  1.00  0.00    -0.363 N 
HETATM   31  C19 UNL     1      -3.807  18.278  23.962  1.00  0.00     0.124 C 
HETATM   32  C20 UNL     1      -4.394  18.754  22.679  1.00  0.00     0.021 C 
HETATM   33  C21 UNL     1      -5.734  19.293  23.021  1.00  0.00     0.021 C 
HETATM   34  C22 UNL     1      -5.643  19.555  24.529  1.00  0.00     0.124 C 
ENDBRANCH  27  30
ENDBRANCH  17  27
ENDBRANCH  14  17
ENDBRANCH   1  13
BRANCH   1  35
HETATM   35  C23 UNL     1      -9.794  16.182  28.668  1.00  0.00     0.241 C 
HETATM   36  O6  UNL     1     -10.389  17.279  28.660  1.00  0.00    -0.271 OA
HETATM   37  N4  UNL     1     -10.416  15.056  28.094  1.00  0.00    -0.355 N 
ATOM     38  H4  UNL     1      -9.939  14.156  28.096  1.00  0.00     0.162 HD
BRANCH  37  39
HETATM   39  C24 UNL     1     -11.747  15.175  27.495  1.00  0.00     0.084 C 
HETATM   40  C25 UNL     1     -12.747  15.691  28.486  1.00  0.00     0.025 C 
HETATM   41  C26 UNL     1     -14.079  15.025  28.234  1.00  0.00     0.002 C 
HETATM   42  C27 UNL     1     -13.983  13.561  28.504  1.00  0.00     0.000 C 
HETATM   43  C28 UNL     1     -12.833  12.918  27.798  1.00  0.00     0.002 C 
HETATM   44  C29 UNL     1     -12.100  13.854  26.879  1.00  0.00     0.025 C 
ENDBRANCH  37  39
ENDBRANCH   1  35
TORSDOF 13
ENDMDL
MODEL 4
REMARK VINA RESULT: -8.373654389      1.856      5.861
REMARK  13 active torsions:
REMARK  status: ('A' for Active; 'I' for Inactive)
REMARK    1  A    between atoms: C4_4  and  O1_5 
REMARK    2  A    between atoms: C8_10  and  C9_11 
REMARK    3  A    between atoms: C9_11  and  C10_12 
REMARK    4  A    between atoms: C10_12  and  N1_13 
REMARK    5  A    between atoms: C10_12  and  C23_35 
REMARK       I    between atoms: N1_13  and  C11_15 
REMARK    6  A    between atoms: C11_15  and  C12_17 
REMARK    7  A    between atoms: C12_17  and  N2_18 
REMARK    8  A    between atoms: C12_17  and  C18_27 
REMARK       I    between atoms: N2_18  and  C13_20 
REMARK    9  A    between atoms: C13_20  and  O4_22 
REMARK   10  A    between atoms: O4_22  and  C14_23 
REMARK   11  A    between atoms: C18_27  and  O5_28 
REMARK   12  A    between atoms: C18_27  and  N3_30 
REMARK       I    between atoms: C23_35  and  N4_37 
REMARK   13  A    between atoms: N4_37  and  C24_39 
ROOT
HETATM    1  C10 UNL     1      -8.428  16.091  29.301  1.00  0.00     0.180 C 
ENDROOT
BRANCH   1   2
HETATM    2  C9  UNL     1      -8.508  15.165  30.428  1.00  0.00     0.074 C 
BRANCH   2   3
HETATM    3  C8  UNL     1      -9.184  15.549  31.652  1.00  0.00    -0.044 A 
HETATM    4  C2  UNL     1      -8.593  16.488  32.475  1.00  0.00    -0.052 A 
HETATM    5  C1  UNL     1      -7.293  17.116  32.236  1.00  0.00     0.049 C 
HETATM    6  C3  UNL     1      -9.289  16.858  33.610  1.00  0.00     0.043 A 
HETATM    7  C4  UNL     1     -10.522  16.336  33.939  1.00  0.00     0.066 A 
HETATM    8  C5  UNL     1     -11.086  15.405  33.101  1.00  0.00     0.043 A 
HETATM    9  C6  UNL     1     -10.424  14.996  31.941  1.00  0.00    -0.052 A 
HETATM   10  C7  UNL     1     -11.101  13.998  31.075  1.00  0.00     0.049 C 
BRANCH   7  11
HETATM   11  O1  UNL     1     -11.236  16.693  35.068  1.00  0.00    -0.361 OA
ATOM     12  H1  UNL     1     -12.084  16.330  35.296  1.00  0.00     0.217 HD
ENDBRANCH   7  11
ENDBRANCH   2   3
ENDBRANCH   1   2
BRANCH   1  13
HETATM   13  N1  UNL     1      -7.501  15.864  28.254  1.00  0.00    -0.345 N 
HETATM   14  C11 UNL     1      -7.014  16.818  27.339  1.00  0.00     0.249 C 
HETATM   15  O2  UNL     1      -7.367  18.046  27.356  1.00  0.00    -0.271 OA
ATOM     16  H1  UNL     1      -7.150  14.912  28.152  1.00  0.00     0.163 HD
BRANCH  14  17
HETATM   17  C12 UNL     1      -6.049  16.476  26.262  1.00  0.00     0.253 C 
BRANCH  17  18
HETATM   18  N2  UNL     1      -6.870  16.381  25.022  1.00  0.00    -0.316 N 
HETATM   19  C13 UNL     1      -7.946  15.479  24.894  1.00  0.00     0.362 C 
HETATM   20  O3  UNL     1      -8.313  14.684  25.792  1.00  0.00    -0.238 OA
ATOM     21  H2  UNL     1      -6.645  16.991  24.236  1.00  0.00     0.166 HD
BRANCH  19  22
HETATM   22  O4  UNL     1      -8.690  15.424  23.698  1.00  0.00    -0.294 OA
BRANCH  22  23
HETATM   23  C14 UNL     1      -9.606  16.425  23.329  1.00  0.00     0.061 C 
HETATM   24  C15 UNL     1      -8.936  17.351  22.344  1.00  0.00     0.046 C 
HETATM   25  C16 UNL     1     -10.066  17.244  24.524  1.00  0.00     0.046 C 
HETATM   26  C17 UNL     1     -10.811  15.824  22.621  1.00  0.00     0.046 C 
ENDBRANCH  22  23
ENDBRANCH  19  22
ENDBRANCH  17  18
BRANCH  17  27
HETATM   27  C18 UNL     1      -5.064  17.559  26.048  1.00  0.00     0.146 C 
BRANCH  27  28
HETATM   28  O5  UNL     1      -4.229  17.681  27.054  1.00  0.00    -0.347 OA
ATOM     29  H5  UNL     1      -3.640  16.938  27.129  1.00  0.00     0.219 HD
ENDBRANCH  27  28
BRANCH  27  30
HETATM   30  N3  UNL     1      -4.905  18.430  24.979  1.00  0.00    -0.363 N 
HETATM   31  C19 UNL     1      -3.807  18.270  23.984  1.00  0.00     0.124 C 
HETATM   32  C20 UNL     1      -4.385  18.752  22.699  1.00  0.00     0.021 C 
HETATM   33  C21 UNL     1      -5.713  19.319  23.038  1.00  0.00     0.021 C 
HETATM   34  C22 UNL     1      -5.617  19.588  24.545  1.00  0.00     0.124 C 
ENDBRANCH  27  30
ENDBRANCH  17  27
ENDBRANCH  14  17
ENDBRANCH   1  13
BRANCH   1  35
HETATM   35  C23 UNL     1      -9.801  16.095  28.653  1.00  0.00     0.241 C 
HETATM   36  O6  UNL     1     -10.402  17.187  28.592  1.00  0.00    -0.271 OA
HETATM   37  N4  UNL     1     -10.415  14.942  28.127  1.00  0.00    -0.355 N 
ATOM     38  H4  UNL     1      -9.932  14.044  28.171  1.00  0.00     0.162 HD
BRANCH  37  39
HETATM   39  C24 UNL     1     -11.743  15.026  27.517  1.00  0.00     0.084 C 
HETATM   40  C25 UNL     1     -12.760  15.539  28.493  1.00  0.00     0.025 C 
HETATM   41  C26 UNL     1     -14.077  14.845  28.242  1.00  0.00     0.002 C 
HETATM   42  C27 UNL     1     -13.956  13.387  28.535  1.00  0.00     0.000 C 
HETATM   43  C28 UNL     1     -12.790  12.755  27.847  1.00  0.00     0.002 C 
HETATM   44  C29 UNL     1     -12.067  13.690  26.919  1.00  0.00     0.025 C 
ENDBRANCH  37  39
ENDBRANCH   1  35
TORSDOF 13
ENDMDL
MODEL 5
REMARK VINA RESULT: -8.198412148      2.163      6.328
REMARK  13 active torsions:
REMARK  status: ('A' for Active; 'I' for Inactive)
REMARK    1  A    between atoms: C4_4  and  O1_5 
REMARK    2  A    between atoms: C8_10  and  C9_11 
REMARK    3  A    between atoms: C9_11  and  C10_12 
REMARK    4  A    between atoms: C10_12  and  N1_13 
REMARK    5  A    between atoms: C10_12  and  C23_35 
REMARK       I    between atoms: N1_13  and  C11_15 
REMARK    6  A    between atoms: C11_15  and  C12_17 
REMARK    7  A    between atoms: C12_17  and  N2_18 
REMARK    8  A    between atoms: C12_17  and  C18_27 
REMARK       I    between atoms: N2_18  and  C13_20 
REMARK    9  A    between atoms: C13_20  and  O4_22 
REMARK   10  A    between atoms: O4_22  and  C14_23 
REMARK   11  A    between atoms: C18_27  and  O5_28 
REMARK   12  A    between atoms: C18_27  and  N3_30 
REMARK       I    between atoms: C23_35  and  N4_37 
REMARK   13  A    between atoms: N4_37  and  C24_39 
ROOT
HETATM    1  C10 UNL     1      -6.633  17.786  25.119  1.00  0.00     0.180 C 
ENDROOT
BRANCH   1   2
HETATM    2  C9  UNL     1      -6.827  16.722  24.137  1.00  0.00     0.074 C 
BRANCH   2   3
HETATM    3  C8  UNL     1      -8.084  16.597  23.424  1.00  0.00    -0.044 A 
HETATM    4  C2  UNL     1      -9.089  15.824  23.972  1.00  0.00    -0.052 A 
HETATM    5  C1  UNL     1      -8.981  15.068  25.221  1.00  0.00     0.049 C 
HETATM    6  C3  UNL     1     -10.285  15.765  23.284  1.00  0.00     0.043 A 
HETATM    7  C4  UNL     1     -10.505  16.435  22.099  1.00  0.00     0.066 A 
HETATM    8  C5  UNL     1      -9.487  17.197  21.577  1.00  0.00     0.043 A 
HETATM    9  C6  UNL     1      -8.258  17.290  22.234  1.00  0.00    -0.052 A 
HETATM   10  C7  UNL     1      -7.211  18.146  21.620  1.00  0.00     0.049 C 
BRANCH   7  11
HETATM   11  O1  UNL     1     -11.694  16.391  21.395  1.00  0.00    -0.361 OA
ATOM     12  H1  UNL     1     -11.814  15.906  20.586  1.00  0.00     0.217 HD
ENDBRANCH   7  11
ENDBRANCH   2   3
ENDBRANCH   1   2
BRANCH   1  13
HETATM   13  N1  UNL     1      -7.304  17.739  26.365  1.00  0.00    -0.345 N 
HETATM   14  C11 UNL     1      -8.619  18.168  26.629  1.00  0.00     0.249 C 
HETATM   15  O2  UNL     1      -9.386  18.664  25.735  1.00  0.00    -0.271 OA
ATOM     16  H1  UNL     1      -6.781  17.354  27.153  1.00  0.00     0.163 HD
BRANCH  14  17
HETATM   17  C12 UNL     1      -9.232  18.089  27.982  1.00  0.00     0.253 C 
BRANCH  17  18
HETATM   18  N2  UNL     1     -10.456  17.257  27.805  1.00  0.00    -0.316 N 
HETATM   19  C13 UNL     1     -11.637  17.483  28.541  1.00  0.00     0.362 C 
HETATM   20  O3  UNL     1     -11.773  18.387  29.399  1.00  0.00    -0.238 OA
ATOM     21  H2  UNL     1     -10.438  16.496  27.126  1.00  0.00     0.166 HD
BRANCH  19  22
HETATM   22  O4  UNL     1     -12.767  16.666  28.341  1.00  0.00    -0.294 OA
BRANCH  22  23
HETATM   23  C14 UNL     1     -12.800  15.312  28.716  1.00  0.00     0.061 C 
HETATM   24  C15 UNL     1     -14.198  14.786  28.503  1.00  0.00     0.046 C 
HETATM   25  C16 UNL     1     -12.431  15.118  30.178  1.00  0.00     0.046 C 
HETATM   26  C17 UNL     1     -11.877  14.481  27.838  1.00  0.00     0.046 C 
ENDBRANCH  22  23
ENDBRANCH  19  22
ENDBRANCH  17  18
BRANCH  17  27
HETATM   27  C18 UNL     1      -8.356  17.373  28.936  1.00  0.00     0.146 C 
BRANCH  27  28
HETATM   28  O5  UNL     1      -7.150  17.174  28.456  1.00  0.00    -0.347 OA
ATOM     29  H5  UNL     1      -6.502  17.059  29.142  1.00  0.00     0.219 HD
ENDBRANCH  27  28
BRANCH  27  30
HETATM   30  N3  UNL     1      -8.618  16.900  30.215  1.00  0.00    -0.363 N 
HETATM   31  C19 UNL     1      -8.843  15.454  30.492  1.00  0.00     0.124 C 
HETATM   32  C20 UNL     1      -8.287  15.236  31.856  1.00  0.00     0.021 C 
HETATM   33  C21 UNL     1      -7.925  16.581  32.367  1.00  0.00     0.021 C 
HETATM   34  C22 UNL     1      -8.744  17.533  31.487  1.00  0.00     0.124 C 
ENDBRANCH  27  30
ENDBRANCH  17  27
ENDBRANCH  14  17
ENDBRANCH   1  13
BRANCH   1  35
HETATM   35  C23 UNL     1      -5.149  17.803  25.442  1.00  0.00     0.241 C 
HETATM   36  O6  UNL     1      -4.825  17.792  26.647  1.00  0.00    -0.271 OA
HETATM   37  N4  UNL     1      -4.141  17.831  24.458  1.00  0.00    -0.355 N 
ATOM     38  H4  UNL     1      -4.394  17.840  23.471  1.00  0.00     0.162 HD
BRANCH  37  39
HETATM   39  C24 UNL     1      -2.730  17.847  24.849  1.00  0.00     0.084 C 
HETATM   40  C25 UNL     1      -2.108  19.188  24.593  1.00  0.00     0.025 C 
HETATM   41  C26 UNL     1      -0.677  18.990  24.154  1.00  0.00     0.002 C 
HETATM   42  C27 UNL     1      -0.634  18.283  22.840  1.00  0.00     0.000 C 
HETATM   43  C28 UNL     1      -1.455  17.035  22.830  1.00  0.00     0.002 C 
HETATM   44  C29 UNL     1      -2.045  16.699  24.171  1.00  0.00     0.025 C 
ENDBRANCH  37  39
ENDBRANCH   1  35
TORSDOF 13
ENDMDL
