MODEL 1
REMARK VINA RESULT: -8.140570588      0.000      0.000
REMARK  8 active torsions:
REMARK  status: ('A' for Active; 'I' for Inactive)
REMARK    1  A    between atoms: N1_2  and  N2_4 
REMARK    2  A    between atoms: N2_4  and  C2_6 
REMARK    3  A    between atoms: C3_10  and  O2_11 
REMARK    4  A    between atoms: C4_13  and  C5_14 
REMARK    5  A    between atoms: N4_15  and  N5_17 
REMARK    6  A    between atoms: N5_17  and  C6_19 
REMARK    7  A    between atoms: C7_22  and  N7_23 
REMARK    8  A    between atoms: C8_28  and  N9_29 
REMARK       I    between atoms: N9_29  and  C9_31 
REMARK       I    between atoms: C9_31  and  N12_36 
ROOT
HETATM    1  N9  UNL     1      19.514   6.238  51.049  1.00  0.00    -0.021 N 
ATOM      2  H9  UNL     1      20.294   5.790  51.532  1.00  0.00     0.203 HD
HETATM    3  C9  UNL     1      18.579   5.423  50.345  1.00  0.00     0.701 C 
HETATM    4  N10 UNL     1      18.528   5.390  49.060  1.00  0.00    -0.126 N 
ATOM      5  H10 UNL     1      19.167   5.958  48.503  1.00  0.00     0.197 HD
HETATM    6  C10 UNL     1      17.589   4.571  48.437  1.00  0.00     0.196 C 
HETATM    7  N11 UNL     1      16.815   3.875  47.903  1.00  0.00    -0.171 NA
HETATM    8  N12 UNL     1      17.671   4.619  51.084  1.00  0.00    -0.229 N 
ATOM      9  H12 UNL     1      16.785   5.007  51.406  1.00  0.00     0.177 HD
HETATM   10  C11 UNL     1      18.016   3.238  51.378  1.00  0.00     0.165 C 
ENDROOT
BRANCH   1  11
HETATM   11  C8  UNL     1      19.409   7.519  51.097  1.00  0.00     0.726 A 
HETATM   12  N8  UNL     1      19.095   8.163  52.233  1.00  0.00    -0.021 N 
HETATM   13  C7  UNL     1      18.989   9.514  52.260  1.00  0.00     0.705 A 
ATOM     14  H8  UNL     1      18.935   7.629  53.087  1.00  0.00     0.203 HD
HETATM   15  N6  UNL     1      19.211  10.166  51.104  1.00  0.00    -0.020 N 
HETATM   16  C6  UNL     1      19.526   9.561  49.948  1.00  0.00     0.726 A 
ATOM     17  H6  UNL     1      19.135  11.184  51.107  1.00  0.00     0.203 HD
HETATM   18  N13 UNL     1      19.622   8.209  49.965  1.00  0.00    -0.019 N 
ATOM     19  H13 UNL     1      19.859   7.710  49.107  1.00  0.00     0.203 HD
BRANCH  13  20
HETATM   20  N7  UNL     1      18.691  10.167  53.333  1.00  0.00    -0.234 N 
ATOM     21  H72 UNL     1      19.393  10.460  54.013  1.00  0.00     0.174 HD
ATOM     22  H71 UNL     1      17.723  10.416  53.533  1.00  0.00     0.174 HD
ENDBRANCH  13  20
BRANCH  16  23
HETATM   23  N5  UNL     1      19.735  10.229  48.846  1.00  0.00    -0.131 N 
ATOM     24  H5  UNL     1      18.992  10.817  48.470  1.00  0.00     0.205 HD
BRANCH  23  25
HETATM   25  N4  UNL     1      20.937  10.153  48.181  1.00  0.00    -0.297 N 
HETATM   26  C5  UNL     1      22.077  10.331  48.688  1.00  0.00     0.128 C 
ATOM     27  H4  UNL     1      20.903   9.933  47.186  1.00  0.00     0.186 HD
BRANCH  26  28
HETATM   28  C4  UNL     1      23.349  10.259  48.016  1.00  0.00     0.088 A 
HETATM   29  C2  UNL     1      24.469   9.542  48.384  1.00  0.00     0.156 A 
HETATM   30  N3  UNL     1      25.394   9.842  47.379  1.00  0.00    -0.240 N 
HETATM   31  O1  UNL     1      24.868  10.635  46.537  1.00  0.00    -0.210 OA
ATOM     32  H3  UNL     1      26.346   9.480  47.329  1.00  0.00     0.196 HD
HETATM   33  C3  UNL     1      23.660  10.947  46.816  1.00  0.00     0.220 A 
BRANCH  29  34
HETATM   34  N2  UNL     1      24.753   8.778  49.332  1.00  0.00    -0.288 N 
ATOM     35  H2  UNL     1      23.932   8.215  49.551  1.00  0.00     0.188 HD
BRANCH  34  36
HETATM   36  N1  UNL     1      25.729   8.434  50.153  1.00  0.00    -0.339 N 
HETATM   37  C1  UNL     1      26.516   9.376  50.982  1.00  0.00     0.167 C 
ATOM     38  H1  UNL     1      25.959   7.443  50.222  1.00  0.00     0.179 HD
ENDBRANCH  34  36
ENDBRANCH  29  34
BRANCH  33  39
HETATM   39  O2  UNL     1      22.771  11.774  46.147  1.00  0.00    -0.339 OA
ATOM     40  H2  UNL     1      22.917  12.597  45.697  1.00  0.00     0.220 HD
ENDBRANCH  33  39
ENDBRANCH  26  28
ENDBRANCH  23  25
ENDBRANCH  16  23
ENDBRANCH   1  11
TORSDOF 8
ENDMDL
MODEL 2
REMARK VINA RESULT: -8.090185441      2.959      6.470
REMARK  8 active torsions:
REMARK  status: ('A' for Active; 'I' for Inactive)
REMARK    1  A    between atoms: N1_2  and  N2_4 
REMARK    2  A    between atoms: N2_4  and  C2_6 
REMARK    3  A    between atoms: C3_10  and  O2_11 
REMARK    4  A    between atoms: C4_13  and  C5_14 
REMARK    5  A    between atoms: N4_15  and  N5_17 
REMARK    6  A    between atoms: N5_17  and  C6_19 
REMARK    7  A    between atoms: C7_22  and  N7_23 
REMARK    8  A    between atoms: C8_28  and  N9_29 
REMARK       I    between atoms: N9_29  and  C9_31 
REMARK       I    between atoms: C9_31  and  N12_36 
ROOT
HETATM    1  N9  UNL     1      21.051  10.832  50.635  1.00  0.00    -0.021 N 
ATOM      2  H9  UNL     1      21.100  11.816  50.904  1.00  0.00     0.203 HD
HETATM    3  C9  UNL     1      20.380   9.915  51.498  1.00  0.00     0.701 C 
HETATM    4  N10 UNL     1      21.013   9.037  52.192  1.00  0.00    -0.126 N 
ATOM      5  H10 UNL     1      22.029   8.974  52.142  1.00  0.00     0.197 HD
HETATM    6  C10 UNL     1      20.293   8.172  53.015  1.00  0.00     0.196 C 
HETATM    7  N11 UNL     1      19.702   7.451  53.720  1.00  0.00    -0.171 NA
HETATM    8  N12 UNL     1      18.964   9.969  51.594  1.00  0.00    -0.229 N 
ATOM      9  H12 UNL     1      18.383   9.458  50.929  1.00  0.00     0.177 HD
HETATM   10  C11 UNL     1      18.350  10.760  52.647  1.00  0.00     0.165 C 
ENDROOT
BRANCH   1  11
HETATM   11  C8  UNL     1      21.596  10.462  49.531  1.00  0.00     0.726 A 
HETATM   12  N8  UNL     1      22.874  10.756  49.237  1.00  0.00    -0.021 N 
HETATM   13  C7  UNL     1      23.428  10.356  48.067  1.00  0.00     0.705 A 
ATOM     14  H8  UNL     1      23.434  11.287  49.903  1.00  0.00     0.203 HD
HETATM   15  N6  UNL     1      22.641   9.659  47.226  1.00  0.00    -0.020 N 
HETATM   16  C6  UNL     1      21.361   9.345  47.481  1.00  0.00     0.726 A 
ATOM     17  H6  UNL     1      23.043   9.350  46.341  1.00  0.00     0.203 HD
HETATM   18  N13 UNL     1      20.846   9.764  48.663  1.00  0.00    -0.019 N 
ATOM     19  H13 UNL     1      19.877   9.547  48.896  1.00  0.00     0.203 HD
BRANCH  13  20
HETATM   20  N7  UNL     1      24.652  10.618  47.750  1.00  0.00    -0.234 N 
ATOM     21  H72 UNL     1      25.344   9.889  47.576  1.00  0.00     0.174 HD
ATOM     22  H71 UNL     1      24.966  11.584  47.663  1.00  0.00     0.174 HD
ENDBRANCH  13  20
BRANCH  16  23
HETATM   23  N5  UNL     1      20.629   8.666  46.640  1.00  0.00    -0.131 N 
ATOM     24  H5  UNL     1      19.878   9.139  46.137  1.00  0.00     0.205 HD
BRANCH  23  25
HETATM   25  N4  UNL     1      20.850   7.326  46.420  1.00  0.00    -0.297 N 
HETATM   26  C5  UNL     1      20.497   6.382  47.177  1.00  0.00     0.128 C 
ATOM     27  H4  UNL     1      21.344   7.073  45.565  1.00  0.00     0.186 HD
BRANCH  26  28
HETATM   28  C4  UNL     1      20.717   4.973  46.970  1.00  0.00     0.088 A 
HETATM   29  C2  UNL     1      19.774   3.972  46.851  1.00  0.00     0.156 A 
HETATM   30  N3  UNL     1      20.545   2.819  46.668  1.00  0.00    -0.240 N 
HETATM   31  O1  UNL     1      21.778   3.123  46.681  1.00  0.00    -0.210 OA
ATOM     32  H3  UNL     1      20.173   1.878  46.544  1.00  0.00     0.196 HD
HETATM   33  C3  UNL     1      21.994   4.371  46.853  1.00  0.00     0.220 A 
BRANCH  29  34
HETATM   34  N2  UNL     1      18.525   3.931  46.877  1.00  0.00    -0.288 N 
ATOM     35  H2  UNL     1      18.185   3.823  45.921  1.00  0.00     0.188 HD
BRANCH  34  36
HETATM   36  N1  UNL     1      17.485   3.976  47.690  1.00  0.00    -0.339 N 
HETATM   37  C1  UNL     1      17.514   4.483  49.081  1.00  0.00     0.167 C 
ATOM     38  H1  UNL     1      16.593   3.636  47.332  1.00  0.00     0.179 HD
ENDBRANCH  34  36
ENDBRANCH  29  34
BRANCH  33  39
HETATM   39  O2  UNL     1      23.188   5.072  46.923  1.00  0.00    -0.339 OA
ATOM     40  H2  UNL     1      23.588   5.667  46.301  1.00  0.00     0.220 HD
ENDBRANCH  33  39
ENDBRANCH  26  28
ENDBRANCH  23  25
ENDBRANCH  16  23
ENDBRANCH   1  11
TORSDOF 8
ENDMDL
MODEL 3
REMARK VINA RESULT: -8.068898346      1.161      1.785
REMARK  8 active torsions:
REMARK  status: ('A' for Active; 'I' for Inactive)
REMARK    1  A    between atoms: N1_2  and  N2_4 
REMARK    2  A    between atoms: N2_4  and  C2_6 
REMARK    3  A    between atoms: C3_10  and  O2_11 
REMARK    4  A    between atoms: C4_13  and  C5_14 
REMARK    5  A    between atoms: N4_15  and  N5_17 
REMARK    6  A    between atoms: N5_17  and  C6_19 
REMARK    7  A    between atoms: C7_22  and  N7_23 
REMARK    8  A    between atoms: C8_28  and  N9_29 
REMARK       I    between atoms: N9_29  and  C9_31 
REMARK       I    between atoms: C9_31  and  N12_36 
ROOT
HETATM    1  N9  UNL     1      17.839   6.802  49.862  1.00  0.00    -0.021 N 
ATOM      2  H9  UNL     1      17.138   7.176  49.221  1.00  0.00     0.203 HD
HETATM    3  C9  UNL     1      17.949   5.387  50.014  1.00  0.00     0.701 C 
HETATM    4  N10 UNL     1      17.569   4.780  51.082  1.00  0.00    -0.126 N 
ATOM      5  H10 UNL     1      17.173   5.305  51.861  1.00  0.00     0.197 HD
HETATM    6  C10 UNL     1      17.706   3.395  51.162  1.00  0.00     0.196 C 
HETATM    7  N11 UNL     1      17.801   2.232  51.235  1.00  0.00    -0.171 NA
HETATM    8  N12 UNL     1      18.497   4.620  48.951  1.00  0.00    -0.229 N 
ATOM      9  H12 UNL     1      19.506   4.489  48.878  1.00  0.00     0.177 HD
HETATM   10  C11 UNL     1      17.608   4.025  47.968  1.00  0.00     0.165 C 
ENDROOT
BRANCH   1  11
HETATM   11  C8  UNL     1      18.593   7.622  50.505  1.00  0.00     0.726 A 
HETATM   12  N8  UNL     1      18.900   7.437  51.800  1.00  0.00    -0.021 N 
HETATM   13  C7  UNL     1      19.697   8.313  52.458  1.00  0.00     0.705 A 
ATOM     14  H8  UNL     1      18.529   6.626  52.294  1.00  0.00     0.203 HD
HETATM   15  N6  UNL     1      20.157   9.365  51.755  1.00  0.00    -0.020 N 
HETATM   16  C6  UNL     1      19.874   9.587  50.462  1.00  0.00     0.726 A 
ATOM     17  H6  UNL     1      20.758  10.035  52.236  1.00  0.00     0.203 HD
HETATM   18  N13 UNL     1      19.074   8.685  49.842  1.00  0.00    -0.019 N 
ATOM     19  H13 UNL     1      18.834   8.817  48.858  1.00  0.00     0.203 HD
BRANCH  13  20
HETATM   20  N7  UNL     1      20.015   8.168  53.700  1.00  0.00    -0.234 N 
ATOM     21  H72 UNL     1      20.019   7.261  54.165  1.00  0.00     0.174 HD
ATOM     22  H71 UNL     1      20.277   8.977  54.263  1.00  0.00     0.174 HD
ENDBRANCH  13  20
BRANCH  16  23
HETATM   23  N5  UNL     1      20.340  10.620  49.813  1.00  0.00    -0.131 N 
ATOM     24  H5  UNL     1      19.928  11.538  49.974  1.00  0.00     0.205 HD
BRANCH  23  25
HETATM   25  N4  UNL     1      21.375  10.492  48.916  1.00  0.00    -0.297 N 
HETATM   26  C5  UNL     1      22.602  10.454  49.201  1.00  0.00     0.128 C 
ATOM     27  H4  UNL     1      21.127  10.423  47.930  1.00  0.00     0.186 HD
BRANCH  26  28
HETATM   28  C4  UNL     1      23.705  10.323  48.282  1.00  0.00     0.088 A 
HETATM   29  C2  UNL     1      24.883   9.625  48.458  1.00  0.00     0.156 A 
HETATM   30  N3  UNL     1      25.573   9.844  47.261  1.00  0.00    -0.240 N 
HETATM   31  O1  UNL     1      24.875  10.577  46.494  1.00  0.00    -0.210 OA
ATOM     32  H3  UNL     1      26.495   9.471  47.039  1.00  0.00     0.196 HD
HETATM   33  C3  UNL     1      23.751  10.918  46.997  1.00  0.00     0.220 A 
BRANCH  29  34
HETATM   34  N2  UNL     1      25.366   8.931  49.378  1.00  0.00    -0.288 N 
ATOM     35  H2  UNL     1      25.706   9.554  50.110  1.00  0.00     0.188 HD
BRANCH  34  36
HETATM   36  N1  UNL     1      25.595   7.683  49.749  1.00  0.00    -0.339 N 
HETATM   37  C1  UNL     1      24.902   6.493  49.205  1.00  0.00     0.167 C 
ATOM     38  H1  UNL     1      26.304   7.529  50.465  1.00  0.00     0.179 HD
ENDBRANCH  34  36
ENDBRANCH  29  34
BRANCH  33  39
HETATM   39  O2  UNL     1      22.734  11.701  46.472  1.00  0.00    -0.339 OA
ATOM     40  H2  UNL     1      21.803  11.528  46.395  1.00  0.00     0.220 HD
ENDBRANCH  33  39
ENDBRANCH  26  28
ENDBRANCH  23  25
ENDBRANCH  16  23
ENDBRANCH   1  11
TORSDOF 8
ENDMDL
MODEL 4
REMARK VINA RESULT: -7.995802281      1.586      2.126
REMARK  8 active torsions:
REMARK  status: ('A' for Active; 'I' for Inactive)
REMARK    1  A    between atoms: N1_2  and  N2_4 
REMARK    2  A    between atoms: N2_4  and  C2_6 
REMARK    3  A    between atoms: C3_10  and  O2_11 
REMARK    4  A    between atoms: C4_13  and  C5_14 
REMARK    5  A    between atoms: N4_15  and  N5_17 
REMARK    6  A    between atoms: N5_17  and  C6_19 
REMARK    7  A    between atoms: C7_22  and  N7_23 
REMARK    8  A    between atoms: C8_28  and  N9_29 
REMARK       I    between atoms: N9_29  and  C9_31 
REMARK       I    between atoms: C9_31  and  N12_36 
ROOT
HETATM    1  N9  UNL     1      18.727   6.151  49.729  1.00  0.00    -0.021 N 
ATOM      2  H9  UNL     1      17.787   5.761  49.808  1.00  0.00     0.203 HD
HETATM    3  C9  UNL     1      19.750   5.370  49.113  1.00  0.00     0.701 C 
HETATM    4  N10 UNL     1      20.712   4.845  49.787  1.00  0.00    -0.126 N 
ATOM      5  H10 UNL     1      20.768   4.978  50.796  1.00  0.00     0.197 HD
HETATM    6  C10 UNL     1      21.677   4.093  49.120  1.00  0.00     0.196 C 
HETATM    7  N11 UNL     1      22.484   3.447  48.574  1.00  0.00    -0.171 NA
HETATM    8  N12 UNL     1      19.707   5.162  47.709  1.00  0.00    -0.229 N 
ATOM      9  H12 UNL     1      20.125   5.844  47.075  1.00  0.00     0.177 HD
HETATM   10  C11 UNL     1      19.062   3.971  47.183  1.00  0.00     0.165 C 
ENDROOT
BRANCH   1  11
HETATM   11  C8  UNL     1      18.948   7.332  50.188  1.00  0.00     0.726 A 
HETATM   12  N8  UNL     1      18.878   7.608  51.501  1.00  0.00    -0.021 N 
HETATM   13  C7  UNL     1      19.115   8.860  51.962  1.00  0.00     0.705 A 
ATOM     14  H8  UNL     1      18.643   6.866  52.159  1.00  0.00     0.203 HD
HETATM   15  N6  UNL     1      19.420   9.799  51.048  1.00  0.00    -0.020 N 
HETATM   16  C6  UNL     1      19.501   9.566  49.728  1.00  0.00     0.726 A 
ATOM     17  H6  UNL     1      19.602  10.747  51.378  1.00  0.00     0.203 HD
HETATM   18  N13 UNL     1      19.256   8.300  49.309  1.00  0.00    -0.019 N 
ATOM     19  H13 UNL     1      19.306   8.080  48.314  1.00  0.00     0.203 HD
BRANCH  13  20
HETATM   20  N7  UNL     1      19.058   9.163  53.216  1.00  0.00    -0.234 N 
ATOM     21  H72 UNL     1      18.720  10.066  53.549  1.00  0.00     0.174 HD
ATOM     22  H71 UNL     1      19.357   8.492  53.923  1.00  0.00     0.174 HD
ENDBRANCH  13  20
BRANCH  16  23
HETATM   23  N5  UNL     1      19.800  10.504  48.871  1.00  0.00    -0.131 N 
ATOM     24  H5  UNL     1      19.138  11.261  48.708  1.00  0.00     0.205 HD
BRANCH  23  25
HETATM   25  N4  UNL     1      20.992  10.489  48.183  1.00  0.00    -0.297 N 
HETATM   26  C5  UNL     1      22.132  10.286  48.679  1.00  0.00     0.128 C 
ATOM     27  H4  UNL     1      20.948  10.659  47.179  1.00  0.00     0.186 HD
BRANCH  26  28
HETATM   28  C4  UNL     1      23.393  10.267  47.983  1.00  0.00     0.088 A 
HETATM   29  C2  UNL     1      24.549   9.598  48.330  1.00  0.00     0.156 A 
HETATM   30  N3  UNL     1      25.442   9.935  47.308  1.00  0.00    -0.240 N 
HETATM   31  O1  UNL     1      24.867  10.704  46.476  1.00  0.00    -0.210 OA
ATOM     32  H3  UNL     1      26.407   9.614  47.240  1.00  0.00     0.196 HD
HETATM   33  C3  UNL     1      23.653  10.965  46.777  1.00  0.00     0.220 A 
BRANCH  29  34
HETATM   34  N2  UNL     1      24.883   8.848  49.273  1.00  0.00    -0.288 N 
ATOM     35  H2  UNL     1      24.729   9.344  50.151  1.00  0.00     0.188 HD
BRANCH  34  36
HETATM   36  N1  UNL     1      25.361   7.647  49.547  1.00  0.00    -0.339 N 
HETATM   37  C1  UNL     1      24.728   6.368  49.152  1.00  0.00     0.167 C 
ATOM     38  H1  UNL     1      26.235   7.598  50.072  1.00  0.00     0.179 HD
ENDBRANCH  34  36
ENDBRANCH  29  34
BRANCH  33  39
HETATM   39  O2  UNL     1      22.716  11.753  46.125  1.00  0.00    -0.339 OA
ATOM     40  H2  UNL     1      21.783  11.849  46.274  1.00  0.00     0.220 HD
ENDBRANCH  33  39
ENDBRANCH  26  28
ENDBRANCH  23  25
ENDBRANCH  16  23
ENDBRANCH   1  11
TORSDOF 8
ENDMDL
MODEL 5
REMARK VINA RESULT: -7.993848045      1.778      2.184
REMARK  8 active torsions:
REMARK  status: ('A' for Active; 'I' for Inactive)
REMARK    1  A    between atoms: N1_2  and  N2_4 
REMARK    2  A    between atoms: N2_4  and  C2_6 
REMARK    3  A    between atoms: C3_10  and  O2_11 
REMARK    4  A    between atoms: C4_13  and  C5_14 
REMARK    5  A    between atoms: N4_15  and  N5_17 
REMARK    6  A    between atoms: N5_17  and  C6_19 
REMARK    7  A    between atoms: C7_22  and  N7_23 
REMARK    8  A    between atoms: C8_28  and  N9_29 
REMARK       I    between atoms: N9_29  and  C9_31 
REMARK       I    between atoms: C9_31  and  N12_36 
ROOT
HETATM    1  N9  UNL     1      19.276   7.753  51.933  1.00  0.00    -0.021 N 
ATOM      2  H9  UNL     1      19.150   7.103  52.710  1.00  0.00     0.203 HD
HETATM    3  C9  UNL     1      19.235   7.249  50.598  1.00  0.00     0.701 C 
HETATM    4  N10 UNL     1      20.288   7.162  49.865  1.00  0.00    -0.126 N 
ATOM      5  H10 UNL     1      21.195   7.457  50.226  1.00  0.00     0.197 HD
HETATM    6  C10 UNL     1      20.174   6.660  48.570  1.00  0.00     0.196 C 
HETATM    7  N11 UNL     1      20.095   6.226  47.487  1.00  0.00    -0.171 NA
HETATM    8  N12 UNL     1      17.990   6.830  50.058  1.00  0.00    -0.229 N 
ATOM      9  H12 UNL     1      17.371   7.504  49.609  1.00  0.00     0.177 HD
HETATM   10  C11 UNL     1      17.607   5.431  50.152  1.00  0.00     0.165 C 
ENDROOT
BRANCH   1  11
HETATM   11  C8  UNL     1      19.467   8.999  52.190  1.00  0.00     0.726 A 
HETATM   12  N8  UNL     1      18.586   9.718  52.905  1.00  0.00    -0.021 N 
HETATM   13  C7  UNL     1      18.807  11.030  53.165  1.00  0.00     0.705 A 
ATOM     14  H8  UNL     1      17.740   9.272  53.257  1.00  0.00     0.203 HD
HETATM   15  N6  UNL     1      19.940  11.566  52.674  1.00  0.00    -0.020 N 
HETATM   16  C6  UNL     1      20.845  10.883  51.956  1.00  0.00     0.726 A 
ATOM     17  H6  UNL     1      20.122  12.552  52.860  1.00  0.00     0.203 HD
HETATM   18  N13 UNL     1      20.585   9.573  51.719  1.00  0.00    -0.019 N 
ATOM     19  H13 UNL     1      21.247   9.018  51.177  1.00  0.00     0.203 HD
BRANCH  13  20
HETATM   20  N7  UNL     1      17.985  11.753  53.848  1.00  0.00    -0.234 N 
ATOM     21  H72 UNL     1      17.722  12.699  53.572  1.00  0.00     0.174 HD
ATOM     22  H71 UNL     1      17.565  11.389  54.703  1.00  0.00     0.174 HD
ENDBRANCH  13  20
BRANCH  16  23
HETATM   23  N5  UNL     1      21.934  11.438  51.496  1.00  0.00    -0.131 N 
ATOM     24  H5  UNL     1      22.236  12.334  51.877  1.00  0.00     0.205 HD
BRANCH  23  25
HETATM   25  N4  UNL     1      22.681  10.837  50.509  1.00  0.00    -0.297 N 
HETATM   26  C5  UNL     1      23.390  11.429  49.652  1.00  0.00     0.128 C 
ATOM     27  H4  UNL     1      22.658   9.819  50.468  1.00  0.00     0.186 HD
BRANCH  26  28
HETATM   28  C4  UNL     1      24.180  10.825  48.609  1.00  0.00     0.088 A 
HETATM   29  C2  UNL     1      25.284  10.006  48.741  1.00  0.00     0.156 A 
HETATM   30  N3  UNL     1      25.638   9.722  47.418  1.00  0.00    -0.240 N 
HETATM   31  O1  UNL     1      24.835  10.305  46.626  1.00  0.00    -0.210 OA
ATOM     32  H3  UNL     1      26.422   9.135  47.133  1.00  0.00     0.196 HD
HETATM   33  C3  UNL     1      23.932  10.985  47.223  1.00  0.00     0.220 A 
BRANCH  29  34
HETATM   34  N2  UNL     1      25.927   9.545  49.708  1.00  0.00    -0.288 N 
ATOM     35  H2  UNL     1      25.445   8.714  50.050  1.00  0.00     0.188 HD
BRANCH  34  36
HETATM   36  N1  UNL     1      27.004   9.742  50.448  1.00  0.00    -0.339 N 
HETATM   37  C1  UNL     1      27.607  11.062  50.739  1.00  0.00     0.167 C 
ATOM     38  H1  UNL     1      27.454   8.919  50.851  1.00  0.00     0.179 HD
ENDBRANCH  34  36
ENDBRANCH  29  34
BRANCH  33  39
HETATM   39  O2  UNL     1      22.895  11.747  46.707  1.00  0.00    -0.339 OA
ATOM     40  H2  UNL     1      22.068  12.002  47.097  1.00  0.00     0.220 HD
ENDBRANCH  33  39
ENDBRANCH  26  28
ENDBRANCH  23  25
ENDBRANCH  16  23
ENDBRANCH   1  11
TORSDOF 8
ENDMDL
