MODEL 1
REMARK VINA RESULT: -7.555219358      0.000      0.000
REMARK  8 active torsions:
REMARK  status: ('A' for Active; 'I' for Inactive)
REMARK    1  A    between atoms: C3_5  and  C4_6 
REMARK    2  A    between atoms: C4_6  and  C5_7 
REMARK    3  A    between atoms: C4_6  and  N5_13 
REMARK    4  A    between atoms: C5_7  and  N2_8 
REMARK    5  A    between atoms: N5_13  and  C7_15 
REMARK       I    between atoms: N8_20  and  C9_21 
REMARK    6  A    between atoms: C10_27  and  O2_28 
REMARK    7  A    between atoms: C10_27  and  C11_30 
REMARK    8  A    between atoms: C11_30  and  O3_32 
ROOT
HETATM    1  C4  UNL     1      20.853   8.345  47.725  1.00  0.00     0.152 C 
ENDROOT
BRANCH   1   2
HETATM    2  C3  UNL     1      21.231   8.122  49.138  1.00  0.00     0.201 C 
HETATM    3  C2  UNL     1      20.240   7.687  50.133  1.00  0.00     0.078 C 
HETATM    4  N1  UNL     1      19.711   6.710  50.732  1.00  0.00    -0.394 N 
HETATM    5  C10 UNL     1      19.963   9.151  50.353  1.00  0.00     0.232 C 
HETATM    6  C1  UNL     1      19.966   5.331  50.615  1.00  0.00     0.146 C 
ATOM      7  H1  UNL     1      18.985   6.958  51.405  1.00  0.00     0.158 HD
HETATM    8  O1  UNL     1      21.188   9.392  49.800  1.00  0.00    -0.335 OA
BRANCH   5   9
HETATM    9  O2  UNL     1      18.824   9.575  49.747  1.00  0.00    -0.359 OA
ATOM     10  H2  UNL     1      18.985  10.155  49.012  1.00  0.00     0.213 HD
ENDBRANCH   5   9
BRANCH   5  11
HETATM   11  C11 UNL     1      19.965   9.547  51.814  1.00  0.00     0.182 C 
HETATM   12  C12 UNL     1      18.669  10.265  52.172  1.00  0.00     0.045 C 
BRANCH  11  13
HETATM   13  O3  UNL     1      21.002  10.397  52.142  1.00  0.00    -0.390 OA
ATOM     14  H3  UNL     1      20.784  10.994  52.848  1.00  0.00     0.210 HD
ENDBRANCH  11  13
ENDBRANCH   5  11
ENDBRANCH   1   2
BRANCH   1  15
HETATM   15  C5  UNL     1      21.428   9.697  47.260  1.00  0.00     0.150 C 
BRANCH  15  16
HETATM   16  N2  UNL     1      22.861   9.585  47.232  1.00  0.00    -0.365 N 
HETATM   17  C6  UNL     1      23.674  10.521  46.943  1.00  0.00     0.197 C 
HETATM   18  N3  UNL     1      23.295  11.844  46.598  1.00  0.00    -0.067 NA
HETATM   19  N4  UNL     1      25.064  10.230  46.966  1.00  0.00    -0.067 NA
ATOM     20  H2  UNL     1      23.262   8.676  47.464  1.00  0.00     0.161 HD
ENDBRANCH  15  16
ENDBRANCH   1  15
BRANCH   1  21
HETATM   21  N5  UNL     1      21.214   7.365  46.759  1.00  0.00    -0.216 N 
ATOM     22  H5  UNL     1      21.672   7.712  45.917  1.00  0.00     0.178 HD
BRANCH  21  23
HETATM   23  C7  UNL     1      21.013   5.963  46.828  1.00  0.00     0.696 C 
HETATM   24  N6  UNL     1      19.853   5.421  46.790  1.00  0.00    -0.135 N 
HETATM   25  N7  UNL     1      19.911   4.050  46.873  1.00  0.00    -0.105 NA
ATOM     26  H6  UNL     1      18.984   5.949  46.708  1.00  0.00     0.201 HD
HETATM   27  C8  UNL     1      21.291   3.681  46.701  1.00  0.00     0.286 C 
HETATM   28  N8  UNL     1      21.983   4.928  46.951  1.00  0.00    -0.139 N 
HETATM   29  C9  UNL     1      23.368   5.113  47.265  1.00  0.00     0.204 C 
HETATM   30  N9  UNL     1      23.797   5.813  48.255  1.00  0.00    -0.373 N 
HETATM   31  N10 UNL     1      24.316   4.476  46.425  1.00  0.00    -0.063 NA
ATOM     32  H92 UNL     1      23.115   6.272  48.859  1.00  0.00     0.158 HD
ATOM     33  H91 UNL     1      24.783   5.944  48.478  1.00  0.00     0.158 HD
ENDBRANCH  21  23
ENDBRANCH   1  21
TORSDOF 8
ENDMDL
MODEL 2
REMARK VINA RESULT: -7.467142450      1.043      2.137
REMARK  8 active torsions:
REMARK  status: ('A' for Active; 'I' for Inactive)
REMARK    1  A    between atoms: C3_5  and  C4_6 
REMARK    2  A    between atoms: C4_6  and  C5_7 
REMARK    3  A    between atoms: C4_6  and  N5_13 
REMARK    4  A    between atoms: C5_7  and  N2_8 
REMARK    5  A    between atoms: N5_13  and  C7_15 
REMARK       I    between atoms: N8_20  and  C9_21 
REMARK    6  A    between atoms: C10_27  and  O2_28 
REMARK    7  A    between atoms: C10_27  and  C11_30 
REMARK    8  A    between atoms: C11_30  and  O3_32 
ROOT
HETATM    1  C4  UNL     1      20.875   8.271  47.772  1.00  0.00     0.152 C 
ENDROOT
BRANCH   1   2
HETATM    2  C3  UNL     1      21.371   8.417  49.159  1.00  0.00     0.201 C 
HETATM    3  C2  UNL     1      20.508   8.122  50.312  1.00  0.00     0.078 C 
HETATM    4  N1  UNL     1      20.141   7.259  51.157  1.00  0.00    -0.394 N 
HETATM    5  C10 UNL     1      20.072   9.562  50.229  1.00  0.00     0.232 C 
HETATM    6  C1  UNL     1      20.552   5.923  51.323  1.00  0.00     0.146 C 
ATOM      7  H1  UNL     1      19.437   7.579  51.823  1.00  0.00     0.158 HD
HETATM    8  O1  UNL     1      21.220   9.793  49.528  1.00  0.00    -0.335 OA
BRANCH   5   9
HETATM    9  O2  UNL     1      18.852   9.717  49.653  1.00  0.00    -0.359 OA
ATOM     10  H2  UNL     1      18.362  10.450  50.008  1.00  0.00     0.213 HD
ENDBRANCH   5   9
BRANCH   5  11
HETATM   11  C11 UNL     1      20.124  10.279  51.561  1.00  0.00     0.182 C 
HETATM   12  C12 UNL     1      18.728  10.381  52.165  1.00  0.00     0.045 C 
BRANCH  11  13
HETATM   13  O3  UNL     1      20.617  11.565  51.463  1.00  0.00    -0.390 OA
ATOM     14  H3  UNL     1      20.810  11.822  50.569  1.00  0.00     0.210 HD
ENDBRANCH  11  13
ENDBRANCH   5  11
ENDBRANCH   1   2
BRANCH   1  15
HETATM   15  C5  UNL     1      21.268   9.524  46.966  1.00  0.00     0.150 C 
BRANCH  15  16
HETATM   16  N2  UNL     1      22.697   9.667  47.034  1.00  0.00    -0.365 N 
HETATM   17  C6  UNL     1      23.367  10.653  46.587  1.00  0.00     0.197 C 
HETATM   18  N3  UNL     1      22.806  11.786  45.941  1.00  0.00    -0.067 NA
HETATM   19  N4  UNL     1      24.778  10.627  46.741  1.00  0.00    -0.067 NA
ATOM     20  H2  UNL     1      23.220   8.913  47.479  1.00  0.00     0.161 HD
ENDBRANCH  15  16
ENDBRANCH   1  15
BRANCH   1  21
HETATM   21  N5  UNL     1      21.273   7.130  47.022  1.00  0.00    -0.216 N 
ATOM     22  H5  UNL     1      21.202   7.212  46.008  1.00  0.00     0.178 HD
BRANCH  21  23
HETATM   23  C7  UNL     1      21.757   5.892  47.515  1.00  0.00     0.696 C 
HETATM   24  N6  UNL     1      23.002   5.648  47.688  1.00  0.00    -0.135 N 
HETATM   25  N7  UNL     1      23.228   4.382  48.174  1.00  0.00    -0.105 NA
ATOM     26  H6  UNL     1      23.745   6.319  47.487  1.00  0.00     0.201 HD
HETATM   27  C8  UNL     1      21.950   3.859  48.578  1.00  0.00     0.286 C 
HETATM   28  N8  UNL     1      21.021   4.733  47.892  1.00  0.00    -0.139 N 
HETATM   29  C9  UNL     1      19.633   4.501  47.629  1.00  0.00     0.204 C 
HETATM   30  N9  UNL     1      19.085   4.635  46.473  1.00  0.00    -0.373 N 
HETATM   31  N10 UNL     1      18.822   4.098  48.720  1.00  0.00    -0.063 NA
ATOM     32  H92 UNL     1      19.668   4.925  45.688  1.00  0.00     0.158 HD
ATOM     33  H91 UNL     1      18.096   4.470  46.286  1.00  0.00     0.158 HD
ENDBRANCH  21  23
ENDBRANCH   1  21
TORSDOF 8
ENDMDL
MODEL 3
REMARK VINA RESULT: -7.434140813      2.827      6.946
REMARK  8 active torsions:
REMARK  status: ('A' for Active; 'I' for Inactive)
REMARK    1  A    between atoms: C3_5  and  C4_6 
REMARK    2  A    between atoms: C4_6  and  C5_7 
REMARK    3  A    between atoms: C4_6  and  N5_13 
REMARK    4  A    between atoms: C5_7  and  N2_8 
REMARK    5  A    between atoms: N5_13  and  C7_15 
REMARK       I    between atoms: N8_20  and  C9_21 
REMARK    6  A    between atoms: C10_27  and  O2_28 
REMARK    7  A    between atoms: C10_27  and  C11_30 
REMARK    8  A    between atoms: C11_30  and  O3_32 
ROOT
HETATM    1  C4  UNL     1      19.135   7.499  50.221  1.00  0.00     0.152 C 
ENDROOT
BRANCH   1   2
HETATM    2  C3  UNL     1      20.053   7.094  49.133  1.00  0.00     0.201 C 
HETATM    3  C2  UNL     1      21.338   7.778  48.927  1.00  0.00     0.078 C 
HETATM    4  N1  UNL     1      22.577   7.786  49.174  1.00  0.00    -0.394 N 
HETATM    5  C10 UNL     1      20.578   8.732  48.043  1.00  0.00     0.232 C 
HETATM    6  C1  UNL     1      23.352   6.895  49.938  1.00  0.00     0.146 C 
ATOM      7  H1  UNL     1      23.095   8.559  48.755  1.00  0.00     0.158 HD
HETATM    8  O1  UNL     1      19.624   7.761  47.939  1.00  0.00    -0.335 OA
BRANCH   5   9
HETATM    9  O2  UNL     1      20.310   9.919  48.646  1.00  0.00    -0.359 OA
ATOM     10  H2  UNL     1      19.540  10.350  48.295  1.00  0.00     0.213 HD
ENDBRANCH   5   9
BRANCH   5  11
HETATM   11  C11 UNL     1      21.238   8.957  46.699  1.00  0.00     0.182 C 
HETATM   12  C12 UNL     1      21.900  10.330  46.655  1.00  0.00     0.045 C 
BRANCH  11  13
HETATM   13  O3  UNL     1      20.349   8.902  45.645  1.00  0.00    -0.390 OA
ATOM     14  H3  UNL     1      19.710   9.606  45.661  1.00  0.00     0.210 HD
ENDBRANCH  11  13
ENDBRANCH   5  11
ENDBRANCH   1   2
BRANCH   1  15
HETATM   15  C5  UNL     1      18.258   6.294  50.609  1.00  0.00     0.150 C 
BRANCH  15  16
HETATM   16  N2  UNL     1      17.632   5.795  49.414  1.00  0.00    -0.365 N 
HETATM   17  C6  UNL     1      17.472   4.568  49.116  1.00  0.00     0.197 C 
HETATM   18  N3  UNL     1      17.889   3.478  49.924  1.00  0.00    -0.067 NA
HETATM   19  N4  UNL     1      16.830   4.256  47.889  1.00  0.00    -0.067 NA
ATOM     20  H2  UNL     1      17.287   6.485  48.747  1.00  0.00     0.161 HD
ENDBRANCH  15  16
ENDBRANCH   1  15
BRANCH   1  21
HETATM   21  N5  UNL     1      19.690   8.034  51.417  1.00  0.00    -0.216 N 
ATOM     22  H5  UNL     1      20.444   7.494  51.843  1.00  0.00     0.178 HD
BRANCH  21  23
HETATM   23  C7  UNL     1      19.322   9.228  52.088  1.00  0.00     0.696 C 
HETATM   24  N6  UNL     1      19.565  10.394  51.620  1.00  0.00    -0.135 N 
HETATM   25  N7  UNL     1      19.115  11.396  52.446  1.00  0.00    -0.105 NA
ATOM     26  H6  UNL     1      20.040  10.562  50.732  1.00  0.00     0.201 HD
HETATM   27  C8  UNL     1      18.277  10.773  53.436  1.00  0.00     0.286 C 
HETATM   28  N8  UNL     1      18.658   9.379  53.338  1.00  0.00    -0.139 N 
HETATM   29  C9  UNL     1      18.426   8.339  54.294  1.00  0.00     0.204 C 
HETATM   30  N9  UNL     1      19.336   7.540  54.726  1.00  0.00    -0.373 N 
HETATM   31  N10 UNL     1      17.106   8.194  54.790  1.00  0.00    -0.063 NA
ATOM     32  H92 UNL     1      20.286   7.644  54.369  1.00  0.00     0.158 HD
ATOM     33  H91 UNL     1      19.170   6.799  55.406  1.00  0.00     0.158 HD
ENDBRANCH  21  23
ENDBRANCH   1  21
TORSDOF 8
ENDMDL
MODEL 4
REMARK VINA RESULT: -7.339677066      2.716      4.970
REMARK  8 active torsions:
REMARK  status: ('A' for Active; 'I' for Inactive)
REMARK    1  A    between atoms: C3_5  and  C4_6 
REMARK    2  A    between atoms: C4_6  and  C5_7 
REMARK    3  A    between atoms: C4_6  and  N5_13 
REMARK    4  A    between atoms: C5_7  and  N2_8 
REMARK    5  A    between atoms: N5_13  and  C7_15 
REMARK       I    between atoms: N8_20  and  C9_21 
REMARK    6  A    between atoms: C10_27  and  O2_28 
REMARK    7  A    between atoms: C10_27  and  C11_30 
REMARK    8  A    between atoms: C11_30  and  O3_32 
ROOT
HETATM    1  C4  UNL     1      21.846   8.838  48.429  1.00  0.00     0.152 C 
ENDROOT
BRANCH   1   2
HETATM    2  C3  UNL     1      20.695   7.914  48.533  1.00  0.00     0.201 C 
HETATM    3  C2  UNL     1      20.847   6.568  49.106  1.00  0.00     0.078 C 
HETATM    4  N1  UNL     1      20.765   5.852  50.143  1.00  0.00    -0.394 N 
HETATM    5  C10 UNL     1      21.188   6.118  47.710  1.00  0.00     0.232 C 
HETATM    6  C1  UNL     1      20.396   6.199  51.455  1.00  0.00     0.146 C 
ATOM      7  H1  UNL     1      21.003   4.869  50.008  1.00  0.00     0.158 HD
HETATM    8  O1  UNL     1      20.562   7.249  47.271  1.00  0.00    -0.335 OA
BRANCH   5   9
HETATM    9  O2  UNL     1      22.520   5.933  47.520  1.00  0.00    -0.359 OA
ATOM     10  H2  UNL     1      22.950   6.686  47.132  1.00  0.00     0.213 HD
ENDBRANCH   5   9
BRANCH   5  11
HETATM   11  C11 UNL     1      20.415   4.893  47.271  1.00  0.00     0.182 C 
HETATM   12  C12 UNL     1      21.333   3.916  46.545  1.00  0.00     0.045 C 
BRANCH  11  13
HETATM   13  O3  UNL     1      19.377   5.188  46.411  1.00  0.00    -0.390 OA
ATOM     14  H3  UNL     1      18.863   4.425  46.174  1.00  0.00     0.210 HD
ENDBRANCH  11  13
ENDBRANCH   5  11
ENDBRANCH   1   2
BRANCH   1  15
HETATM   15  C5  UNL     1      21.345  10.207  47.932  1.00  0.00     0.150 C 
BRANCH  15  16
HETATM   16  N2  UNL     1      21.609  10.293  46.522  1.00  0.00    -0.365 N 
HETATM   17  C6  UNL     1      22.539  10.972  45.979  1.00  0.00     0.197 C 
HETATM   18  N3  UNL     1      23.481  11.764  46.687  1.00  0.00    -0.067 NA
HETATM   19  N4  UNL     1      22.652  10.940  44.564  1.00  0.00    -0.067 NA
ATOM     20  H2  UNL     1      20.996   9.764  45.901  1.00  0.00     0.161 HD
ENDBRANCH  15  16
ENDBRANCH   1  15
BRANCH   1  21
HETATM   21  N5  UNL     1      22.647   9.061  49.584  1.00  0.00    -0.216 N 
ATOM     22  H5  UNL     1      22.245   8.764  50.473  1.00  0.00     0.178 HD
BRANCH  21  23
HETATM   23  C7  UNL     1      23.936   9.648  49.647  1.00  0.00     0.696 C 
HETATM   24  N6  UNL     1      24.129  10.913  49.621  1.00  0.00    -0.135 N 
HETATM   25  N7  UNL     1      25.462  11.243  49.694  1.00  0.00    -0.105 NA
ATOM     26  H6  UNL     1      23.378  11.600  49.553  1.00  0.00     0.201 HD
HETATM   27  C8  UNL     1      26.168  10.041  50.050  1.00  0.00     0.286 C 
HETATM   28  N8  UNL     1      25.204   9.006  49.740  1.00  0.00    -0.139 N 
HETATM   29  C9  UNL     1      25.449   7.607  49.555  1.00  0.00     0.204 C 
HETATM   30  N9  UNL     1      25.032   6.928  48.547  1.00  0.00    -0.373 N 
HETATM   31  N10 UNL     1      26.203   6.942  50.555  1.00  0.00    -0.063 NA
ATOM     32  H92 UNL     1      24.490   7.406  47.828  1.00  0.00     0.158 HD
ATOM     33  H91 UNL     1      25.207   5.932  48.416  1.00  0.00     0.158 HD
ENDBRANCH  21  23
ENDBRANCH   1  21
TORSDOF 8
ENDMDL
MODEL 5
REMARK VINA RESULT: -7.323379939      2.457      5.023
REMARK  8 active torsions:
REMARK  status: ('A' for Active; 'I' for Inactive)
REMARK    1  A    between atoms: C3_5  and  C4_6 
REMARK    2  A    between atoms: C4_6  and  C5_7 
REMARK    3  A    between atoms: C4_6  and  N5_13 
REMARK    4  A    between atoms: C5_7  and  N2_8 
REMARK    5  A    between atoms: N5_13  and  C7_15 
REMARK       I    between atoms: N8_20  and  C9_21 
REMARK    6  A    between atoms: C10_27  and  O2_28 
REMARK    7  A    between atoms: C10_27  and  C11_30 
REMARK    8  A    between atoms: C11_30  and  O3_32 
ROOT
HETATM    1  C4  UNL     1      21.008   6.936  48.469  1.00  0.00     0.152 C 
ENDROOT
BRANCH   1   2
HETATM    2  C3  UNL     1      21.678   8.244  48.646  1.00  0.00     0.201 C 
HETATM    3  C2  UNL     1      21.002   9.501  48.292  1.00  0.00     0.078 C 
HETATM    4  N1  UNL     1      20.299  10.467  48.699  1.00  0.00    -0.394 N 
HETATM    5  C10 UNL     1      21.570   9.303  46.910  1.00  0.00     0.232 C 
HETATM    6  C1  UNL     1      19.791  10.738  49.983  1.00  0.00     0.146 C 
ATOM      7  H1  UNL     1      20.062  11.159  47.987  1.00  0.00     0.158 HD
HETATM    8  O1  UNL     1      22.488   8.472  47.485  1.00  0.00    -0.335 OA
BRANCH   5   9
HETATM    9  O2  UNL     1      20.657   8.834  46.021  1.00  0.00    -0.359 OA
ATOM     10  H2  UNL     1      20.617   9.346  45.222  1.00  0.00     0.213 HD
ENDBRANCH   5   9
BRANCH   5  11
HETATM   11  C11 UNL     1      22.256  10.537  46.364  1.00  0.00     0.182 C 
HETATM   12  C12 UNL     1      21.879  10.752  44.903  1.00  0.00     0.045 C 
BRANCH  11  13
HETATM   13  O3  UNL     1      23.633  10.458  46.419  1.00  0.00    -0.390 OA
ATOM     14  H3  UNL     1      24.064  11.108  45.877  1.00  0.00     0.210 HD
ENDBRANCH  11  13
ENDBRANCH   5  11
ENDBRANCH   1   2
BRANCH   1  15
HETATM   15  C5  UNL     1      21.934   5.825  48.998  1.00  0.00     0.150 C 
BRANCH  15  16
HETATM   16  N2  UNL     1      22.976   5.613  48.030  1.00  0.00    -0.365 N 
HETATM   17  C6  UNL     1      23.024   4.662  47.186  1.00  0.00     0.197 C 
HETATM   18  N3  UNL     1      22.045   3.642  47.059  1.00  0.00    -0.067 NA
HETATM   19  N4  UNL     1      24.133   4.609  46.301  1.00  0.00    -0.067 NA
ATOM     20  H2  UNL     1      23.744   6.285  48.019  1.00  0.00     0.161 HD
ENDBRANCH  15  16
ENDBRANCH   1  15
BRANCH   1  21
HETATM   21  N5  UNL     1      19.724   6.745  49.051  1.00  0.00    -0.216 N 
ATOM     22  H5  UNL     1      19.042   7.485  48.885  1.00  0.00     0.178 HD
BRANCH  21  23
HETATM   23  C7  UNL     1      19.279   5.649  49.833  1.00  0.00     0.696 C 
HETATM   24  N6  UNL     1      19.570   5.512  51.072  1.00  0.00    -0.135 N 
HETATM   25  N7  UNL     1      19.027   4.372  51.616  1.00  0.00    -0.105 NA
ATOM     26  H6  UNL     1      20.143   6.174  51.597  1.00  0.00     0.201 HD
HETATM   27  C8  UNL     1      18.083   3.863  50.657  1.00  0.00     0.286 C 
HETATM   28  N8  UNL     1      18.476   4.541  49.439  1.00  0.00    -0.139 N 
HETATM   29  C9  UNL     1      18.140   4.187  48.093  1.00  0.00     0.204 C 
HETATM   30  N9  UNL     1      18.997   4.073  47.141  1.00  0.00    -0.373 N 
HETATM   31  N10 UNL     1      16.772   3.949  47.805  1.00  0.00    -0.063 NA
ATOM     32  H92 UNL     1      19.981   4.244  47.348  1.00  0.00     0.158 HD
ATOM     33  H91 UNL     1      18.757   3.821  46.182  1.00  0.00     0.158 HD
ENDBRANCH  21  23
ENDBRANCH   1  21
TORSDOF 8
ENDMDL
