MODEL 1
REMARK VINA RESULT: -7.469273011      0.000      0.000
REMARK  8 active torsions:
REMARK  status: ('A' for Active; 'I' for Inactive)
REMARK    1  A    between atoms: N1_2  and  C2_4 
REMARK    2  A    between atoms: C2_4  and  N2_6 
REMARK    3  A    between atoms: N2_6  and  N3_8 
REMARK    4  A    between atoms: C3_9  and  C4_10 
REMARK       I    between atoms: C4_10  and  N4_12 
REMARK       I    between atoms: N4_12  and  C5_14 
REMARK    5  A    between atoms: N6_16  and  O2_18 
REMARK    6  A    between atoms: C6_23  and  O3_24 
REMARK    7  A    between atoms: C6_23  and  C7_26 
REMARK    8  A    between atoms: C8_29  and  C9_30 
ROOT
HETATM    1  N3  UNL     1      22.063   9.957  48.690  1.00  0.00    -0.170 NA
HETATM    2  C3  UNL     1      21.945  10.955  49.739  1.00  0.00     0.377 C 
HETATM    3  N7  UNL     1      23.181  10.715  50.506  1.00  0.00    -0.003 N 
ATOM      4  H71 UNL     1      23.206   9.857  51.058  1.00  0.00     0.284 HD
ATOM      5  H72 UNL     1      23.338  11.327  51.307  1.00  0.00     0.284 HD
HETATM    6  C6  UNL     1      24.151  10.810  49.433  1.00  0.00     0.343 C 
HETATM    7  C8  UNL     1      23.472  10.019  48.337  1.00  0.00     0.258 C 
ENDROOT
BRANCH   2   8
HETATM    8  C4  UNL     1      20.760  10.788  50.581  1.00  0.00     0.271 C 
HETATM    9  O1  UNL     1      19.926   9.895  50.281  1.00  0.00    -0.269 OA
HETATM   10  N4  UNL     1      20.549  11.603  51.705  1.00  0.00    -0.297 N 
HETATM   11  C5  UNL     1      19.406  11.453  52.532  1.00  0.00     0.214 C 
ATOM     12  H4  UNL     1      21.236  12.321  51.933  1.00  0.00     0.171 HD
HETATM   13  N5  UNL     1      18.426  10.464  52.249  1.00  0.00    -0.061 NA
HETATM   14  N6  UNL     1      19.207  12.203  53.570  1.00  0.00    -0.241 N 
ATOM     15  H6  UNL     1      19.896  12.920  53.798  1.00  0.00     0.197 HD
BRANCH  14  16
HETATM   16  O2  UNL     1      18.109  12.068  54.373  1.00  0.00    -0.287 OA
ATOM     17  H2  UNL     1      18.117  11.540  55.162  1.00  0.00     0.244 HD
ENDBRANCH  14  16
ENDBRANCH   2   8
BRANCH   1  18
HETATM   18  N2  UNL     1      21.828   8.670  49.194  1.00  0.00    -0.292 N 
ATOM     19  H2  UNL     1      21.447   8.567  50.134  1.00  0.00     0.183 HD
BRANCH  18  20
HETATM   20  C2  UNL     1      22.102   7.517  48.436  1.00  0.00     0.182 C 
HETATM   21  S1  UNL     1      23.130   6.392  49.001  1.00  0.00    -0.040 SA
BRANCH  20  22
HETATM   22  N1  UNL     1      21.503   7.312  47.188  1.00  0.00    -0.371 N 
HETATM   23  C1  UNL     1      21.098   5.983  46.811  1.00  0.00     0.148 C 
ATOM     24  H1  UNL     1      21.356   8.096  46.552  1.00  0.00     0.161 HD
ENDBRANCH  20  22
ENDBRANCH  18  20
ENDBRANCH   1  18
BRANCH   7  25
HETATM   25  C9  UNL     1      23.708  10.753  47.083  1.00  0.00     0.199 C 
HETATM   26  O6  UNL     1      24.782  10.549  46.466  1.00  0.00    -0.647 OA
HETATM   27  O7  UNL     1      22.760  11.643  46.612  1.00  0.00    -0.647 OA
ENDBRANCH   7  25
BRANCH   6  28
HETATM   28  O3  UNL     1      24.233  12.145  49.055  1.00  0.00    -0.355 OA
ATOM     29  H3  UNL     1      24.778  12.192  48.278  1.00  0.00     0.213 HD
ENDBRANCH   6  28
BRANCH   6  30
HETATM   30  C7  UNL     1      25.450  10.231  49.783  1.00  0.00     0.241 C 
HETATM   31  O4  UNL     1      25.484   9.115  50.349  1.00  0.00    -0.644 OA
HETATM   32  O5  UNL     1      26.613  10.905  49.492  1.00  0.00    -0.644 OA
ENDBRANCH   6  30
TORSDOF 8
ENDMDL
MODEL 2
REMARK VINA RESULT: -7.265518983      4.514      7.529
REMARK  8 active torsions:
REMARK  status: ('A' for Active; 'I' for Inactive)
REMARK    1  A    between atoms: N1_2  and  C2_4 
REMARK    2  A    between atoms: C2_4  and  N2_6 
REMARK    3  A    between atoms: N2_6  and  N3_8 
REMARK    4  A    between atoms: C3_9  and  C4_10 
REMARK       I    between atoms: C4_10  and  N4_12 
REMARK       I    between atoms: N4_12  and  C5_14 
REMARK    5  A    between atoms: N6_16  and  O2_18 
REMARK    6  A    between atoms: C6_23  and  O3_24 
REMARK    7  A    between atoms: C6_23  and  C7_26 
REMARK    8  A    between atoms: C8_29  and  C9_30 
ROOT
HETATM    1  N3  UNL     1      19.316   5.988  49.170  1.00  0.00    -0.170 NA
HETATM    2  C3  UNL     1      20.458   5.254  49.688  1.00  0.00     0.377 C 
HETATM    3  N7  UNL     1      19.867   4.599  50.870  1.00  0.00    -0.003 N 
ATOM      4  H71 UNL     1      19.656   5.209  51.659  1.00  0.00     0.284 HD
ATOM      5  H72 UNL     1      20.489   3.993  51.404  1.00  0.00     0.284 HD
HETATM    6  C6  UNL     1      18.731   3.952  50.243  1.00  0.00     0.343 C 
HETATM    7  C8  UNL     1      18.220   5.047  49.333  1.00  0.00     0.258 C 
ENDROOT
BRANCH   2   8
HETATM    8  C4  UNL     1      21.586   6.105  50.064  1.00  0.00     0.271 C 
HETATM    9  O1  UNL     1      21.687   6.480  51.261  1.00  0.00    -0.269 OA
HETATM   10  N4  UNL     1      22.542   6.502  49.116  1.00  0.00    -0.297 N 
HETATM   11  C5  UNL     1      23.642   7.328  49.466  1.00  0.00     0.214 C 
ATOM     12  H4  UNL     1      22.444   6.189  48.151  1.00  0.00     0.171 HD
HETATM   13  N5  UNL     1      23.816   7.785  50.799  1.00  0.00    -0.061 NA
HETATM   14  N6  UNL     1      24.527   7.697  48.594  1.00  0.00    -0.241 N 
ATOM     15  H6  UNL     1      24.428   7.382  47.629  1.00  0.00     0.197 HD
BRANCH  14  16
HETATM   16  O2  UNL     1      25.590   8.493  48.920  1.00  0.00    -0.287 OA
ATOM     17  H2  UNL     1      26.427   8.430  48.476  1.00  0.00     0.244 HD
ENDBRANCH  14  16
ENDBRANCH   2   8
BRANCH   1  18
HETATM   18  N2  UNL     1      19.024   7.095  49.979  1.00  0.00    -0.292 N 
ATOM     19  H2  UNL     1      18.649   6.941  50.914  1.00  0.00     0.183 HD
BRANCH  18  20
HETATM   20  C2  UNL     1      19.234   8.412  49.534  1.00  0.00     0.182 C 
HETATM   21  S1  UNL     1      19.173   9.651  50.585  1.00  0.00    -0.040 SA
BRANCH  20  22
HETATM   22  N1  UNL     1      19.497   8.689  48.187  1.00  0.00    -0.371 N 
HETATM   23  C1  UNL     1      20.802   9.169  47.808  1.00  0.00     0.148 C 
ATOM     24  H1  UNL     1      18.774   8.552  47.482  1.00  0.00     0.161 HD
ENDBRANCH  20  22
ENDBRANCH  18  20
ENDBRANCH   1  18
BRANCH   7  25
HETATM   25  C9  UNL     1      17.841   4.397  48.068  1.00  0.00     0.199 C 
HETATM   26  O6  UNL     1      16.727   3.823  48.004  1.00  0.00    -0.647 OA
HETATM   27  O7  UNL     1      18.703   4.426  46.988  1.00  0.00    -0.647 OA
ENDBRANCH   7  25
BRANCH   6  28
HETATM   28  O3  UNL     1      19.216   2.901  49.473  1.00  0.00    -0.355 OA
ATOM     29  H3  UNL     1      18.617   2.170  49.573  1.00  0.00     0.213 HD
ENDBRANCH   6  28
BRANCH   6  30
HETATM   30  C7  UNL     1      17.708   3.536  51.204  1.00  0.00     0.241 C 
HETATM   31  O4  UNL     1      17.367   2.333  51.244  1.00  0.00    -0.644 OA
HETATM   32  O5  UNL     1      17.132   4.456  52.049  1.00  0.00    -0.644 OA
ENDBRANCH   6  30
TORSDOF 8
ENDMDL
MODEL 3
REMARK VINA RESULT: -7.223866969      4.556      8.001
REMARK  8 active torsions:
REMARK  status: ('A' for Active; 'I' for Inactive)
REMARK    1  A    between atoms: N1_2  and  C2_4 
REMARK    2  A    between atoms: C2_4  and  N2_6 
REMARK    3  A    between atoms: N2_6  and  N3_8 
REMARK    4  A    between atoms: C3_9  and  C4_10 
REMARK       I    between atoms: C4_10  and  N4_12 
REMARK       I    between atoms: N4_12  and  C5_14 
REMARK    5  A    between atoms: N6_16  and  O2_18 
REMARK    6  A    between atoms: C6_23  and  O3_24 
REMARK    7  A    between atoms: C6_23  and  C7_26 
REMARK    8  A    between atoms: C8_29  and  C9_30 
ROOT
HETATM    1  N3  UNL     1      19.948   5.621  48.335  1.00  0.00    -0.170 NA
HETATM    2  C3  UNL     1      20.970   4.723  48.844  1.00  0.00     0.377 C 
HETATM    3  N7  UNL     1      20.464   4.452  50.203  1.00  0.00    -0.003 N 
ATOM      4  H71 UNL     1      20.535   5.222  50.868  1.00  0.00     0.284 HD
ATOM      5  H72 UNL     1      21.018   3.810  50.768  1.00  0.00     0.284 HD
HETATM    6  C6  UNL     1      19.120   4.015  49.876  1.00  0.00     0.343 C 
HETATM    7  C8  UNL     1      18.716   5.031  48.831  1.00  0.00     0.258 C 
ENDROOT
BRANCH   2   8
HETATM    8  C4  UNL     1      22.307   5.313  48.887  1.00  0.00     0.271 C 
HETATM    9  O1  UNL     1      22.654   5.951  49.915  1.00  0.00    -0.269 OA
HETATM   10  N4  UNL     1      23.194   5.177  47.808  1.00  0.00    -0.297 N 
HETATM   11  C5  UNL     1      24.495   5.744  47.834  1.00  0.00     0.214 C 
ATOM     12  H4  UNL     1      22.896   4.657  46.983  1.00  0.00     0.171 HD
HETATM   13  N5  UNL     1      24.949   6.475  48.964  1.00  0.00    -0.061 NA
HETATM   14  N6  UNL     1      25.317   5.620  46.839  1.00  0.00    -0.241 N 
ATOM     15  H6  UNL     1      25.017   5.098  46.016  1.00  0.00     0.197 HD
BRANCH  14  16
HETATM   16  O2  UNL     1      26.571   6.163  46.854  1.00  0.00    -0.287 OA
ATOM     17  H2  UNL     1      27.357   5.631  46.808  1.00  0.00     0.244 HD
ENDBRANCH  14  16
ENDBRANCH   2   8
BRANCH   1  18
HETATM   18  N2  UNL     1      20.055   6.889  48.925  1.00  0.00    -0.292 N 
ATOM     19  H2  UNL     1      20.237   6.956  49.926  1.00  0.00     0.183 HD
BRANCH  18  20
HETATM   20  C2  UNL     1      19.921   8.069  48.172  1.00  0.00     0.182 C 
HETATM   21  S1  UNL     1      20.949   8.384  46.954  1.00  0.00    -0.040 SA
BRANCH  20  22
HETATM   22  N1  UNL     1      18.908   8.994  48.451  1.00  0.00    -0.371 N 
HETATM   23  C1  UNL     1      18.793   9.533  49.782  1.00  0.00     0.148 C 
ATOM     24  H1  UNL     1      18.258   9.283  47.720  1.00  0.00     0.161 HD
ENDBRANCH  20  22
ENDBRANCH  18  20
ENDBRANCH   1  18
BRANCH   7  25
HETATM   25  C9  UNL     1      17.985   4.290  47.788  1.00  0.00     0.199 C 
HETATM   26  O6  UNL     1      18.580   4.031  46.714  1.00  0.00    -0.647 OA
HETATM   27  O7  UNL     1      16.678   3.897  48.005  1.00  0.00    -0.647 OA
ENDBRANCH   7  25
BRANCH   6  28
HETATM   28  O3  UNL     1      19.216   2.760  49.288  1.00  0.00    -0.355 OA
ATOM     29  H3  UNL     1      18.383   2.320  49.408  1.00  0.00     0.213 HD
ENDBRANCH   6  28
BRANCH   6  30
HETATM   30  C7  UNL     1      18.214   4.043  51.026  1.00  0.00     0.241 C 
HETATM   31  O4  UNL     1      18.174   5.069  51.742  1.00  0.00    -0.644 OA
HETATM   32  O5  UNL     1      17.420   2.957  51.312  1.00  0.00    -0.644 OA
ENDBRANCH   6  30
TORSDOF 8
ENDMDL
MODEL 4
REMARK VINA RESULT: -7.065360847      4.311      7.337
REMARK  8 active torsions:
REMARK  status: ('A' for Active; 'I' for Inactive)
REMARK    1  A    between atoms: N1_2  and  C2_4 
REMARK    2  A    between atoms: C2_4  and  N2_6 
REMARK    3  A    between atoms: N2_6  and  N3_8 
REMARK    4  A    between atoms: C3_9  and  C4_10 
REMARK       I    between atoms: C4_10  and  N4_12 
REMARK       I    between atoms: N4_12  and  C5_14 
REMARK    5  A    between atoms: N6_16  and  O2_18 
REMARK    6  A    between atoms: C6_23  and  O3_24 
REMARK    7  A    between atoms: C6_23  and  C7_26 
REMARK    8  A    between atoms: C8_29  and  C9_30 
ROOT
HETATM    1  N3  UNL     1      19.332   6.112  49.357  1.00  0.00    -0.170 NA
HETATM    2  C3  UNL     1      20.233   5.870  48.243  1.00  0.00     0.377 C 
HETATM    3  N7  UNL     1      21.205   4.946  48.855  1.00  0.00    -0.003 N 
ATOM      4  H71 UNL     1      21.845   5.356  49.535  1.00  0.00     0.284 HD
ATOM      5  H72 UNL     1      21.947   4.607  48.244  1.00  0.00     0.284 HD
HETATM    6  C6  UNL     1      20.293   3.941  49.365  1.00  0.00     0.343 C 
HETATM    7  C8  UNL     1      19.199   4.798  49.963  1.00  0.00     0.258 C 
ENDROOT
BRANCH   2   8
HETATM    8  C4  UNL     1      20.892   7.076  47.744  1.00  0.00     0.271 C 
HETATM    9  O1  UNL     1      21.876   7.534  48.382  1.00  0.00    -0.269 OA
HETATM   10  N4  UNL     1      20.446   7.717  46.578  1.00  0.00    -0.297 N 
HETATM   11  C5  UNL     1      21.075   8.888  46.082  1.00  0.00     0.214 C 
ATOM     12  H4  UNL     1      19.647   7.332  46.075  1.00  0.00     0.171 HD
HETATM   13  N5  UNL     1      22.190   9.457  46.753  1.00  0.00    -0.061 NA
HETATM   14  N6  UNL     1      20.666   9.483  45.006  1.00  0.00    -0.241 N 
ATOM     15  H6  UNL     1      19.867   9.095  44.503  1.00  0.00     0.197 HD
BRANCH  14  16
HETATM   16  O2  UNL     1      21.264  10.612  44.519  1.00  0.00    -0.287 OA
ATOM     17  H2  UNL     1      22.200  10.759  44.582  1.00  0.00     0.244 HD
ENDBRANCH  14  16
ENDBRANCH   2   8
BRANCH   1  18
HETATM   18  N2  UNL     1      19.932   6.941  50.316  1.00  0.00    -0.292 N 
ATOM     19  H2  UNL     1      20.854   6.696  50.676  1.00  0.00     0.183 HD
BRANCH  18  20
HETATM   20  C2  UNL     1      19.296   8.101  50.793  1.00  0.00     0.182 C 
HETATM   21  S1  UNL     1      19.121   8.339  52.392  1.00  0.00    -0.040 SA
BRANCH  20  22
HETATM   22  N1  UNL     1      18.800   9.070  49.913  1.00  0.00    -0.371 N 
HETATM   23  C1  UNL     1      19.676  10.117  49.453  1.00  0.00     0.148 C 
ATOM     24  H1  UNL     1      17.830   9.034  49.601  1.00  0.00     0.161 HD
ENDBRANCH  20  22
ENDBRANCH  18  20
ENDBRANCH   1  18
BRANCH   7  25
HETATM   25  C9  UNL     1      17.923   4.145  49.622  1.00  0.00     0.199 C 
HETATM   26  O6  UNL     1      17.533   3.190  50.335  1.00  0.00    -0.647 OA
HETATM   27  O7  UNL     1      17.187   4.587  48.538  1.00  0.00    -0.647 OA
ENDBRANCH   7  25
BRANCH   6  28
HETATM   28  O3  UNL     1      19.787   3.239  48.277  1.00  0.00    -0.355 OA
ATOM     29  H3  UNL     1      19.411   2.430  48.606  1.00  0.00     0.213 HD
ENDBRANCH   6  28
BRANCH   6  30
HETATM   30  C7  UNL     1      20.903   3.074  50.375  1.00  0.00     0.241 C 
HETATM   31  O4  UNL     1      21.218   3.562  51.483  1.00  0.00    -0.644 OA
HETATM   32  O5  UNL     1      21.124   1.743  50.107  1.00  0.00    -0.644 OA
ENDBRANCH   6  30
TORSDOF 8
ENDMDL
MODEL 5
REMARK VINA RESULT: -7.016207498      2.663      5.274
REMARK  8 active torsions:
REMARK  status: ('A' for Active; 'I' for Inactive)
REMARK    1  A    between atoms: N1_2  and  C2_4 
REMARK    2  A    between atoms: C2_4  and  N2_6 
REMARK    3  A    between atoms: N2_6  and  N3_8 
REMARK    4  A    between atoms: C3_9  and  C4_10 
REMARK       I    between atoms: C4_10  and  N4_12 
REMARK       I    between atoms: N4_12  and  C5_14 
REMARK    5  A    between atoms: N6_16  and  O2_18 
REMARK    6  A    between atoms: C6_23  and  O3_24 
REMARK    7  A    between atoms: C6_23  and  C7_26 
REMARK    8  A    between atoms: C8_29  and  C9_30 
ROOT
HETATM    1  N3  UNL     1      22.125   9.185  49.748  1.00  0.00    -0.170 NA
HETATM    2  C3  UNL     1      22.403   8.065  48.865  1.00  0.00     0.377 C 
HETATM    3  N7  UNL     1      22.369   8.723  47.546  1.00  0.00    -0.003 N 
ATOM      4  H71 UNL     1      21.448   9.009  47.213  1.00  0.00     0.284 HD
ATOM      5  H72 UNL     1      22.561   8.126  46.743  1.00  0.00     0.284 HD
HETATM    6  C6  UNL     1      23.318   9.792  47.787  1.00  0.00     0.343 C 
HETATM    7  C8  UNL     1      22.903  10.264  49.163  1.00  0.00     0.258 C 
ENDROOT
BRANCH   2   8
HETATM    8  C4  UNL     1      21.412   6.991  48.945  1.00  0.00     0.271 C 
HETATM    9  O1  UNL     1      21.077   6.562  50.080  1.00  0.00    -0.269 OA
HETATM   10  N4  UNL     1      20.841   6.444  47.786  1.00  0.00    -0.297 N 
HETATM   11  C5  UNL     1      19.879   5.403  47.847  1.00  0.00     0.214 C 
ATOM     12  H4  UNL     1      21.125   6.805  46.875  1.00  0.00     0.171 HD
HETATM   13  N5  UNL     1      19.456   4.873  49.095  1.00  0.00    -0.061 NA
HETATM   14  N6  UNL     1      19.349   4.895  46.778  1.00  0.00    -0.241 N 
ATOM     15  H6  UNL     1      19.633   5.258  45.869  1.00  0.00     0.197 HD
BRANCH  14  16
HETATM   16  O2  UNL     1      18.422   3.892  46.826  1.00  0.00    -0.287 OA
ATOM     17  H2  UNL     1      18.565   3.047  46.415  1.00  0.00     0.244 HD
ENDBRANCH  14  16
ENDBRANCH   2   8
BRANCH   1  18
HETATM   18  N2  UNL     1      20.779   9.566  49.667  1.00  0.00    -0.292 N 
ATOM     19  H2  UNL     1      20.362   9.722  48.749  1.00  0.00     0.183 HD
BRANCH  18  20
HETATM   20  C2  UNL     1      19.988   9.739  50.817  1.00  0.00     0.182 C 
HETATM   21  S1  UNL     1      20.142  11.082  51.721  1.00  0.00    -0.040 SA
BRANCH  20  22
HETATM   22  N1  UNL     1      19.058   8.770  51.209  1.00  0.00    -0.371 N 
HETATM   23  C1  UNL     1      19.115   8.240  52.547  1.00  0.00     0.148 C 
ATOM     24  H1  UNL     1      18.349   8.441  50.554  1.00  0.00     0.161 HD
ENDBRANCH  20  22
ENDBRANCH  18  20
ENDBRANCH   1  18
BRANCH   7  25
HETATM   25  C9  UNL     1      24.147  10.531  49.906  1.00  0.00     0.199 C 
HETATM   26  O6  UNL     1      24.509   9.705  50.777  1.00  0.00    -0.647 OA
HETATM   27  O7  UNL     1      24.882  11.671  49.637  1.00  0.00    -0.647 OA
ENDBRANCH   7  25
BRANCH   6  28
HETATM   28  O3  UNL     1      24.585   9.223  47.856  1.00  0.00    -0.355 OA
ATOM     29  H3  UNL     1      25.183   9.889  48.176  1.00  0.00     0.213 HD
ENDBRANCH   6  28
BRANCH   6  30
HETATM   30  C7  UNL     1      23.226  10.872  46.802  1.00  0.00     0.241 C 
HETATM   31  O4  UNL     1      24.279  11.406  46.388  1.00  0.00    -0.644 OA
HETATM   32  O5  UNL     1      22.000  11.290  46.341  1.00  0.00    -0.644 OA
ENDBRANCH   6  30
TORSDOF 8
ENDMDL
