MODEL 1
REMARK VINA RESULT: -6.709057205      0.000      0.000
REMARK  13 active torsions:
REMARK  status: ('A' for Active; 'I' for Inactive)
REMARK    1  A    between atoms: C2_2  and  O1_3 
REMARK    2  A    between atoms: C5_7  and  C6_8 
REMARK    3  A    between atoms: C6_8  and  O2_9 
REMARK    4  A    between atoms: C6_8  and  C7_11 
REMARK    5  A    between atoms: C7_11  and  N1_12 
REMARK    6  A    between atoms: C7_11  and  C8_16 
REMARK    7  A    between atoms: C8_16  and  O3_17 
REMARK    8  A    between atoms: C8_16  and  C9_19 
REMARK    9  A    between atoms: C9_19  and  O4_20 
REMARK   10  A    between atoms: C11_23  and  O5_25 
REMARK   11  A    between atoms: C13_27  and  O6_28 
REMARK   12  A    between atoms: C14_30  and  N2_31 
REMARK   13  A    between atoms: C15_35  and  O7_37 
ROOT
HETATM    1  C1  UNL     1      18.631   5.376  51.197  1.00  0.00     0.046 C 
HETATM    2  C2  UNL     1      18.780   6.072  49.909  1.00  0.00     0.062 C 
HETATM    3  C3  UNL     1      19.661   5.194  49.010  1.00  0.00     0.039 C 
HETATM    4  C4  UNL     1      20.304   6.190  48.130  1.00  0.00     0.019 C 
HETATM    5  C5  UNL     1      20.497   7.488  48.888  1.00  0.00     0.030 C 
HETATM    6  C10 UNL     1      19.303   7.446  49.835  1.00  0.00     0.070 C 
HETATM    7  C11 UNL     1      19.468   8.230  51.088  1.00  0.00     0.089 C 
HETATM    8  C12 UNL     1      19.066   9.712  50.912  1.00  0.00     0.049 C 
HETATM    9  C13 UNL     1      20.839   8.281  51.674  1.00  0.00     0.186 C 
HETATM   10  C14 UNL     1      21.875   8.603  50.597  1.00  0.00     0.249 C 
HETATM   11  C15 UNL     1      21.769   7.405  49.647  1.00  0.00     0.095 C 
HETATM   12  C16 UNL     1      23.032   7.314  48.920  1.00  0.00     0.049 C 
ENDROOT
BRANCH   5  13
HETATM   13  C6  UNL     1      20.312   8.608  47.960  1.00  0.00     0.163 C 
BRANCH  13  14
HETATM   14  O2  UNL     1      19.062   8.396  47.311  1.00  0.00    -0.392 OA
ATOM     15  H2  UNL     1      18.905   9.159  46.769  1.00  0.00     0.210 HD
ENDBRANCH  13  14
BRANCH  13  16
HETATM   16  C7  UNL     1      21.243   8.921  46.884  1.00  0.00     0.243 C 
BRANCH  16  17
HETATM   17  N1  UNL     1      20.845   8.598  45.548  1.00  0.00    -0.070 N 
ATOM     18  H13 UNL     1      19.834   8.469  45.520  1.00  0.00     0.274 HD
ATOM     19  H12 UNL     1      20.949   9.422  44.957  1.00  0.00     0.274 HD
ATOM     20  H11 UNL     1      21.299   7.802  45.099  1.00  0.00     0.274 HD
ENDBRANCH  16  17
BRANCH  16  21
HETATM   21  C8  UNL     1      21.522  10.436  46.990  1.00  0.00     0.174 C 
BRANCH  21  22
HETATM   22  O3  UNL     1      20.683  11.024  47.936  1.00  0.00    -0.391 OA
ATOM     23  H3  UNL     1      20.178  11.725  47.544  1.00  0.00     0.210 HD
ENDBRANCH  21  22
BRANCH  21  24
HETATM   24  C9  UNL     1      22.930  10.689  47.459  1.00  0.00     0.198 C 
BRANCH  24  25
HETATM   25  O4  UNL     1      23.453  11.814  46.825  1.00  0.00    -0.398 OA
ATOM     26  H4  UNL     1      23.690  11.603  45.929  1.00  0.00     0.209 HD
ENDBRANCH  24  25
ENDBRANCH  21  24
ENDBRANCH  16  21
ENDBRANCH  13  16
ENDBRANCH   5  13
BRANCH  11  27
HETATM   27  O7  UNL     1      21.696   6.289  50.487  1.00  0.00    -0.387 OA
ATOM     28  H7  UNL     1      22.505   6.244  50.984  1.00  0.00     0.210 HD
ENDBRANCH  11  27
BRANCH   2  29
HETATM   29  O1  UNL     1      17.478   5.942  49.332  1.00  0.00    -0.390 OA
ATOM     30  H1  UNL     1      17.662   5.534  48.494  1.00  0.00     0.210 HD
ENDBRANCH   2  29
BRANCH   7  31
HETATM   31  O5  UNL     1      18.618   7.768  52.085  1.00  0.00    -0.387 OA
ATOM     32  H5  UNL     1      19.029   7.821  52.940  1.00  0.00     0.210 HD
ENDBRANCH   7  31
BRANCH  10  33
HETATM   33  N2  UNL     1      23.185   8.631  51.181  1.00  0.00    -0.070 N 
ATOM     34  H23 UNL     1      23.198   9.127  52.072  1.00  0.00     0.275 HD
ATOM     35  H22 UNL     1      23.475   7.714  51.520  1.00  0.00     0.275 HD
ATOM     36  H21 UNL     1      23.850   9.022  50.513  1.00  0.00     0.275 HD
ENDBRANCH  10  33
BRANCH   9  37
HETATM   37  O6  UNL     1      20.877   9.310  52.616  1.00  0.00    -0.390 OA
ATOM     38  H6  UNL     1      21.629   9.860  52.428  1.00  0.00     0.210 HD
ENDBRANCH   9  37
TORSDOF 13
ENDMDL
MODEL 2
REMARK VINA RESULT: -6.505452275      2.080      4.965
REMARK  13 active torsions:
REMARK  status: ('A' for Active; 'I' for Inactive)
REMARK    1  A    between atoms: C2_2  and  O1_3 
REMARK    2  A    between atoms: C5_7  and  C6_8 
REMARK    3  A    between atoms: C6_8  and  O2_9 
REMARK    4  A    between atoms: C6_8  and  C7_11 
REMARK    5  A    between atoms: C7_11  and  N1_12 
REMARK    6  A    between atoms: C7_11  and  C8_16 
REMARK    7  A    between atoms: C8_16  and  O3_17 
REMARK    8  A    between atoms: C8_16  and  C9_19 
REMARK    9  A    between atoms: C9_19  and  O4_20 
REMARK   10  A    between atoms: C11_23  and  O5_25 
REMARK   11  A    between atoms: C13_27  and  O6_28 
REMARK   12  A    between atoms: C14_30  and  N2_31 
REMARK   13  A    between atoms: C15_35  and  O7_37 
ROOT
HETATM    1  C1  UNL     1      23.536   8.662  51.061  1.00  0.00     0.046 C 
HETATM    2  C2  UNL     1      22.584   7.547  51.195  1.00  0.00     0.062 C 
HETATM    3  C3  UNL     1      23.210   6.323  50.517  1.00  0.00     0.039 C 
HETATM    4  C4  UNL     1      22.022   5.560  50.084  1.00  0.00     0.019 C 
HETATM    5  C5  UNL     1      20.898   6.520  49.748  1.00  0.00     0.030 C 
HETATM    6  C10 UNL     1      21.197   7.661  50.713  1.00  0.00     0.070 C 
HETATM    7  C11 UNL     1      20.679   8.990  50.294  1.00  0.00     0.089 C 
HETATM    8  C12 UNL     1      19.217   9.218  50.738  1.00  0.00     0.049 C 
HETATM    9  C13 UNL     1      20.676   9.279  48.830  1.00  0.00     0.186 C 
HETATM   10  C14 UNL     1      20.085   8.106  48.049  1.00  0.00     0.249 C 
HETATM   11  C15 UNL     1      21.066   6.966  48.342  1.00  0.00     0.095 C 
HETATM   12  C16 UNL     1      20.938   5.993  47.261  1.00  0.00     0.049 C 
ENDROOT
BRANCH   5  13
HETATM   13  C6  UNL     1      19.624   5.908  50.136  1.00  0.00     0.163 C 
BRANCH  13  14
HETATM   14  O2  UNL     1      19.556   5.976  51.556  1.00  0.00    -0.392 OA
ATOM     15  H2  UNL     1      18.906   5.339  51.828  1.00  0.00     0.210 HD
ENDBRANCH  13  14
BRANCH  13  16
HETATM   16  C7  UNL     1      19.259   4.535  49.809  1.00  0.00     0.243 C 
BRANCH  16  17
HETATM   17  N1  UNL     1      19.382   3.553  50.844  1.00  0.00    -0.070 N 
ATOM     18  H13 UNL     1      20.114   3.839  51.493  1.00  0.00     0.274 HD
ATOM     19  H12 UNL     1      18.562   3.597  51.448  1.00  0.00     0.274 HD
ATOM     20  H11 UNL     1      19.540   2.586  50.560  1.00  0.00     0.274 HD
ENDBRANCH  16  17
BRANCH  16  21
HETATM   21  C8  UNL     1      17.798   4.588  49.315  1.00  0.00     0.174 C 
BRANCH  21  22
HETATM   22  O3  UNL     1      17.304   5.890  49.385  1.00  0.00    -0.391 OA
ATOM     23  H3  UNL     1      16.974   6.168  48.539  1.00  0.00     0.210 HD
ENDBRANCH  21  22
BRANCH  21  24
HETATM   24  C9  UNL     1      17.708   4.180  47.868  1.00  0.00     0.198 C 
BRANCH  24  25
HETATM   25  O4  UNL     1      16.425   4.418  47.382  1.00  0.00    -0.398 OA
ATOM     26  H4  UNL     1      16.466   4.708  46.477  1.00  0.00     0.209 HD
ENDBRANCH  24  25
ENDBRANCH  21  24
ENDBRANCH  16  21
ENDBRANCH  13  16
ENDBRANCH   5  13
BRANCH  11  27
HETATM   27  O7  UNL     1      22.333   7.548  48.225  1.00  0.00    -0.387 OA
ATOM     28  H7  UNL     1      22.496   7.708  47.303  1.00  0.00     0.210 HD
ENDBRANCH  11  27
BRANCH   2  29
HETATM   29  O1  UNL     1      22.662   7.236  52.589  1.00  0.00    -0.390 OA
ATOM     30  H1  UNL     1      22.012   6.549  52.685  1.00  0.00     0.210 HD
ENDBRANCH   2  29
BRANCH   7  31
HETATM   31  O5  UNL     1      21.381  10.020  50.909  1.00  0.00    -0.387 OA
ATOM     32  H5  UNL     1      21.585  10.713  50.292  1.00  0.00     0.210 HD
ENDBRANCH   7  31
BRANCH  10  33
HETATM   33  N2  UNL     1      20.106   8.401  46.645  1.00  0.00    -0.070 N 
ATOM     34  H23 UNL     1      19.588   9.251  46.423  1.00  0.00     0.275 HD
ATOM     35  H22 UNL     1      21.027   8.704  46.330  1.00  0.00     0.275 HD
ATOM     36  H21 UNL     1      19.766   7.595  46.120  1.00  0.00     0.275 HD
ENDBRANCH  10  33
BRANCH   9  37
HETATM   37  O6  UNL     1      19.861  10.389  48.603  1.00  0.00    -0.390 OA
ATOM     38  H6  UNL     1      20.257  11.143  49.023  1.00  0.00     0.210 HD
ENDBRANCH   9  37
TORSDOF 13
ENDMDL
MODEL 3
REMARK VINA RESULT: -6.459443749      1.950      3.897
REMARK  13 active torsions:
REMARK  status: ('A' for Active; 'I' for Inactive)
REMARK    1  A    between atoms: C2_2  and  O1_3 
REMARK    2  A    between atoms: C5_7  and  C6_8 
REMARK    3  A    between atoms: C6_8  and  O2_9 
REMARK    4  A    between atoms: C6_8  and  C7_11 
REMARK    5  A    between atoms: C7_11  and  N1_12 
REMARK    6  A    between atoms: C7_11  and  C8_16 
REMARK    7  A    between atoms: C8_16  and  O3_17 
REMARK    8  A    between atoms: C8_16  and  C9_19 
REMARK    9  A    between atoms: C9_19  and  O4_20 
REMARK   10  A    between atoms: C11_23  and  O5_25 
REMARK   11  A    between atoms: C13_27  and  O6_28 
REMARK   12  A    between atoms: C14_30  and  N2_31 
REMARK   13  A    between atoms: C15_35  and  O7_37 
ROOT
HETATM    1  C1  UNL     1      20.034   5.482  50.793  1.00  0.00     0.046 C 
HETATM    2  C2  UNL     1      21.384   5.993  50.508  1.00  0.00     0.062 C 
HETATM    3  C3  UNL     1      21.865   6.746  51.755  1.00  0.00     0.039 C 
HETATM    4  C4  UNL     1      22.791   7.745  51.183  1.00  0.00     0.019 C 
HETATM    5  C5  UNL     1      22.314   8.144  49.800  1.00  0.00     0.030 C 
HETATM    6  C10 UNL     1      21.650   6.852  49.342  1.00  0.00     0.070 C 
HETATM    7  C11 UNL     1      20.594   7.021  48.308  1.00  0.00     0.089 C 
HETATM    8  C12 UNL     1      21.172   7.038  46.875  1.00  0.00     0.049 C 
HETATM    9  C13 UNL     1      19.763   8.257  48.392  1.00  0.00     0.186 C 
HETATM   10  C14 UNL     1      20.646   9.489  48.588  1.00  0.00     0.249 C 
HETATM   11  C15 UNL     1      21.309   9.227  49.944  1.00  0.00     0.095 C 
HETATM   12  C16 UNL     1      21.721  10.520  50.485  1.00  0.00     0.049 C 
ENDROOT
BRANCH   5  13
HETATM   13  C6  UNL     1      23.484   8.389  48.951  1.00  0.00     0.163 C 
BRANCH  13  14
HETATM   14  O2  UNL     1      24.039   7.114  48.646  1.00  0.00    -0.392 OA
ATOM     15  H2  UNL     1      24.370   6.759  49.463  1.00  0.00     0.210 HD
ENDBRANCH  13  14
BRANCH  13  16
HETATM   16  C7  UNL     1      24.621   9.202  49.365  1.00  0.00     0.243 C 
BRANCH  16  17
HETATM   17  N1  UNL     1      25.757   8.524  49.911  1.00  0.00    -0.070 N 
ATOM     18  H13 UNL     1      25.438   7.751  50.496  1.00  0.00     0.274 HD
ATOM     19  H12 UNL     1      26.235   8.016  49.167  1.00  0.00     0.274 HD
ATOM     20  H11 UNL     1      26.436   9.081  50.429  1.00  0.00     0.274 HD
ENDBRANCH  16  17
BRANCH  16  21
HETATM   21  C8  UNL     1      25.047  10.006  48.118  1.00  0.00     0.174 C 
BRANCH  21  22
HETATM   22  O3  UNL     1      25.702   9.180  47.204  1.00  0.00    -0.391 OA
ATOM     23  H3  UNL     1      26.508   9.584  46.908  1.00  0.00     0.210 HD
ENDBRANCH  21  22
BRANCH  21  24
HETATM   24  C9  UNL     1      23.844  10.557  47.400  1.00  0.00     0.198 C 
BRANCH  24  25
HETATM   25  O4  UNL     1      24.228  11.135  46.193  1.00  0.00    -0.398 OA
ATOM     26  H4  UNL     1      25.175  11.113  46.107  1.00  0.00     0.209 HD
ENDBRANCH  24  25
ENDBRANCH  21  24
ENDBRANCH  16  21
ENDBRANCH  13  16
ENDBRANCH   5  13
BRANCH  11  27
HETATM   27  O7  UNL     1      20.278   8.749  50.759  1.00  0.00    -0.387 OA
ATOM     28  H7  UNL     1      19.530   8.563  50.203  1.00  0.00     0.210 HD
ENDBRANCH  11  27
BRANCH   2  29
HETATM   29  O1  UNL     1      22.176   4.802  50.510  1.00  0.00    -0.390 OA
ATOM     30  H1  UNL     1      22.953   5.070  50.986  1.00  0.00     0.210 HD
ENDBRANCH   2  29
BRANCH   7  31
HETATM   31  O5  UNL     1      19.718   5.943  48.303  1.00  0.00    -0.387 OA
ATOM     32  H5  UNL     1      20.028   5.250  47.732  1.00  0.00     0.210 HD
ENDBRANCH   7  31
BRANCH  10  33
HETATM   33  N2  UNL     1      19.825  10.662  48.680  1.00  0.00    -0.070 N 
ATOM     34  H23 UNL     1      20.017  11.327  47.931  1.00  0.00     0.275 HD
ATOM     35  H22 UNL     1      18.849  10.466  48.455  1.00  0.00     0.275 HD
ATOM     36  H21 UNL     1      19.929  11.082  49.604  1.00  0.00     0.275 HD
ENDBRANCH  10  33
BRANCH   9  37
HETATM   37  O6  UNL     1      19.085   8.414  47.182  1.00  0.00    -0.390 OA
ATOM     38  H6  UNL     1      19.128   9.329  46.931  1.00  0.00     0.210 HD
ENDBRANCH   9  37
TORSDOF 13
ENDMDL
MODEL 4
REMARK VINA RESULT: -6.432186651      2.245      5.285
REMARK  13 active torsions:
REMARK  status: ('A' for Active; 'I' for Inactive)
REMARK    1  A    between atoms: C2_2  and  O1_3 
REMARK    2  A    between atoms: C5_7  and  C6_8 
REMARK    3  A    between atoms: C6_8  and  O2_9 
REMARK    4  A    between atoms: C6_8  and  C7_11 
REMARK    5  A    between atoms: C7_11  and  N1_12 
REMARK    6  A    between atoms: C7_11  and  C8_16 
REMARK    7  A    between atoms: C8_16  and  O3_17 
REMARK    8  A    between atoms: C8_16  and  C9_19 
REMARK    9  A    between atoms: C9_19  and  O4_20 
REMARK   10  A    between atoms: C11_23  and  O5_25 
REMARK   11  A    between atoms: C13_27  and  O6_28 
REMARK   12  A    between atoms: C14_30  and  N2_31 
REMARK   13  A    between atoms: C15_35  and  O7_37 
ROOT
HETATM    1  C1  UNL     1      23.491   8.770  50.042  1.00  0.00     0.046 C 
HETATM    2  C2  UNL     1      22.487   7.866  50.627  1.00  0.00     0.062 C 
HETATM    3  C3  UNL     1      23.164   6.508  50.848  1.00  0.00     0.039 C 
HETATM    4  C4  UNL     1      22.029   5.569  50.738  1.00  0.00     0.019 C 
HETATM    5  C5  UNL     1      21.010   6.118  49.760  1.00  0.00     0.030 C 
HETATM    6  C10 UNL     1      21.198   7.616  49.961  1.00  0.00     0.070 C 
HETATM    7  C11 UNL     1      20.804   8.460  48.801  1.00  0.00     0.089 C 
HETATM    8  C12 UNL     1      19.300   8.814  48.817  1.00  0.00     0.049 C 
HETATM    9  C13 UNL     1      21.040   7.889  47.444  1.00  0.00     0.186 C 
HETATM   10  C14 UNL     1      20.533   6.449  47.367  1.00  0.00     0.249 C 
HETATM   11  C15 UNL     1      21.412   5.719  48.388  1.00  0.00     0.095 C 
HETATM   12  C16 UNL     1      21.417   4.304  48.026  1.00  0.00     0.049 C 
ENDROOT
BRANCH   5  13
HETATM   13  C6  UNL     1      19.668   5.754  50.224  1.00  0.00     0.163 C 
BRANCH  13  14
HETATM   14  O2  UNL     1      19.628   6.043  51.618  1.00  0.00    -0.392 OA
ATOM     15  H2  UNL     1      20.339   5.556  52.017  1.00  0.00     0.210 HD
ENDBRANCH  13  14
BRANCH  13  16
HETATM   16  C7  UNL     1      19.113   4.411  50.105  1.00  0.00     0.243 C 
BRANCH  16  17
HETATM   17  N1  UNL     1      19.017   3.626  51.298  1.00  0.00    -0.070 N 
ATOM     18  H13 UNL     1      19.552   4.075  52.041  1.00  0.00     0.274 HD
ATOM     19  H12 UNL     1      18.072   3.697  51.673  1.00  0.00     0.274 HD
ATOM     20  H11 UNL     1      19.284   2.642  51.238  1.00  0.00     0.274 HD
ENDBRANCH  16  17
BRANCH  16  21
HETATM   21  C8  UNL     1      17.710   4.584  49.485  1.00  0.00     0.174 C 
BRANCH  21  22
HETATM   22  O3  UNL     1      17.332   5.926  49.494  1.00  0.00    -0.391 OA
ATOM     23  H3  UNL     1      16.458   6.029  49.137  1.00  0.00     0.210 HD
ENDBRANCH  21  22
BRANCH  21  24
HETATM   24  C9  UNL     1      17.708   4.156  48.041  1.00  0.00     0.198 C 
BRANCH  24  25
HETATM   25  O4  UNL     1      16.464   4.409  47.467  1.00  0.00    -0.398 OA
ATOM     26  H4  UNL     1      16.117   5.233  47.789  1.00  0.00     0.209 HD
ENDBRANCH  24  25
ENDBRANCH  21  24
ENDBRANCH  16  21
ENDBRANCH  13  16
ENDBRANCH   5  13
BRANCH  11  27
HETATM   27  O7  UNL     1      22.703   6.207  48.161  1.00  0.00    -0.387 OA
ATOM     28  H7  UNL     1      22.739   6.534  47.270  1.00  0.00     0.210 HD
ENDBRANCH  11  27
BRANCH   2  29
HETATM   29  O1  UNL     1      22.335   8.384  51.952  1.00  0.00    -0.390 OA
ATOM     30  H1  UNL     1      23.218   8.656  52.171  1.00  0.00     0.210 HD
ENDBRANCH   2  29
BRANCH   7  31
HETATM   31  O5  UNL     1      21.440   9.694  48.838  1.00  0.00    -0.387 OA
ATOM     32  H5  UNL     1      20.921  10.362  48.404  1.00  0.00     0.210 HD
ENDBRANCH   7  31
BRANCH  10  33
HETATM   33  N2  UNL     1      20.785   5.917  46.058  1.00  0.00    -0.070 N 
ATOM     34  H23 UNL     1      21.472   5.164  46.075  1.00  0.00     0.275 HD
ATOM     35  H22 UNL     1      19.992   5.384  45.701  1.00  0.00     0.275 HD
ATOM     36  H21 UNL     1      21.057   6.672  45.428  1.00  0.00     0.275 HD
ENDBRANCH  10  33
BRANCH   9  37
HETATM   37  O6  UNL     1      20.314   8.640  46.518  1.00  0.00    -0.390 OA
ATOM     38  H6  UNL     1      20.044   9.450  46.935  1.00  0.00     0.210 HD
ENDBRANCH   9  37
TORSDOF 13
ENDMDL
MODEL 5
REMARK VINA RESULT: -6.361688942      1.282      1.796
REMARK  13 active torsions:
REMARK  status: ('A' for Active; 'I' for Inactive)
REMARK    1  A    between atoms: C2_2  and  O1_3 
REMARK    2  A    between atoms: C5_7  and  C6_8 
REMARK    3  A    between atoms: C6_8  and  O2_9 
REMARK    4  A    between atoms: C6_8  and  C7_11 
REMARK    5  A    between atoms: C7_11  and  N1_12 
REMARK    6  A    between atoms: C7_11  and  C8_16 
REMARK    7  A    between atoms: C8_16  and  O3_17 
REMARK    8  A    between atoms: C8_16  and  C9_19 
REMARK    9  A    between atoms: C9_19  and  O4_20 
REMARK   10  A    between atoms: C11_23  and  O5_25 
REMARK   11  A    between atoms: C13_27  and  O6_28 
REMARK   12  A    between atoms: C14_30  and  N2_31 
REMARK   13  A    between atoms: C15_35  and  O7_37 
ROOT
HETATM    1  C1  UNL     1      19.560   3.572  48.672  1.00  0.00     0.046 C 
HETATM    2  C2  UNL     1      19.691   4.821  47.904  1.00  0.00     0.062 C 
HETATM    3  C3  UNL     1      20.951   4.700  47.039  1.00  0.00     0.039 C 
HETATM    4  C4  UNL     1      21.373   6.108  46.896  1.00  0.00     0.019 C 
HETATM    5  C5  UNL     1      20.994   6.879  48.145  1.00  0.00     0.030 C 
HETATM    6  C10 UNL     1      19.737   6.132  48.573  1.00  0.00     0.070 C 
HETATM    7  C11 UNL     1      19.417   6.221  50.023  1.00  0.00     0.089 C 
HETATM    8  C12 UNL     1      18.587   7.478  50.366  1.00  0.00     0.049 C 
HETATM    9  C13 UNL     1      20.573   6.266  50.964  1.00  0.00     0.186 C 
HETATM   10  C14 UNL     1      21.614   7.282  50.493  1.00  0.00     0.249 C 
HETATM   11  C15 UNL     1      22.073   6.707  49.149  1.00  0.00     0.095 C 
HETATM   12  C16 UNL     1      23.401   7.249  48.874  1.00  0.00     0.049 C 
ENDROOT
BRANCH   5  13
HETATM   13  C6  UNL     1      20.614   8.242  47.760  1.00  0.00     0.163 C 
BRANCH  13  14
HETATM   14  O2  UNL     1      19.290   8.163  47.240  1.00  0.00    -0.392 OA
ATOM     15  H2  UNL     1      18.718   7.997  47.980  1.00  0.00     0.210 HD
ENDBRANCH  13  14
BRANCH  13  16
HETATM   16  C7  UNL     1      21.351   9.037  46.785  1.00  0.00     0.243 C 
BRANCH  16  17
HETATM   17  N1  UNL     1      20.752   9.232  45.500  1.00  0.00    -0.070 N 
ATOM     18  H13 UNL     1      20.258  10.125  45.491  1.00  0.00     0.274 HD
ATOM     19  H12 UNL     1      21.482   9.410  44.811  1.00  0.00     0.274 HD
ATOM     20  H11 UNL     1      20.131   8.500  45.152  1.00  0.00     0.274 HD
ENDBRANCH  16  17
BRANCH  16  21
HETATM   21  C8  UNL     1      21.601  10.406  47.454  1.00  0.00     0.174 C 
BRANCH  21  22
HETATM   22  O3  UNL     1      21.145  10.397  48.772  1.00  0.00    -0.391 OA
ATOM     23  H3  UNL     1      21.182   9.520  49.132  1.00  0.00     0.210 HD
ENDBRANCH  21  22
BRANCH  21  24
HETATM   24  C9  UNL     1      23.075  10.707  47.519  1.00  0.00     0.198 C 
BRANCH  24  25
HETATM   25  O4  UNL     1      23.367  11.840  46.764  1.00  0.00    -0.398 OA
ATOM     26  H4  UNL     1      22.570  12.323  46.578  1.00  0.00     0.209 HD
ENDBRANCH  24  25
ENDBRANCH  21  24
ENDBRANCH  16  21
ENDBRANCH  13  16
ENDBRANCH   5  13
BRANCH  11  27
HETATM   27  O7  UNL     1      22.228   5.336  49.381  1.00  0.00    -0.387 OA
ATOM     28  H7  UNL     1      22.365   5.212  50.313  1.00  0.00     0.210 HD
ENDBRANCH  11  27
BRANCH   2  29
HETATM   29  O1  UNL     1      18.623   4.719  46.958  1.00  0.00    -0.390 OA
ATOM     30  H1  UNL     1      19.002   4.180  46.274  1.00  0.00     0.210 HD
ENDBRANCH   2  29
BRANCH   7  31
HETATM   31  O5  UNL     1      18.608   5.165  50.424  1.00  0.00    -0.387 OA
ATOM     32  H5  UNL     1      18.354   5.254  51.335  1.00  0.00     0.210 HD
ENDBRANCH   7  31
BRANCH  10  33
HETATM   33  N2  UNL     1      22.721   7.296  51.406  1.00  0.00    -0.070 N 
ATOM     34  H23 UNL     1      22.668   8.075  52.062  1.00  0.00     0.275 HD
ATOM     35  H22 UNL     1      22.674   6.532  52.080  1.00  0.00     0.275 HD
ATOM     36  H21 UNL     1      23.597   7.293  50.883  1.00  0.00     0.275 HD
ENDBRANCH  10  33
BRANCH   9  37
HETATM   37  O6  UNL     1      20.108   6.688  52.211  1.00  0.00    -0.390 OA
ATOM     38  H6  UNL     1      19.183   6.482  52.271  1.00  0.00     0.210 HD
ENDBRANCH   9  37
TORSDOF 13
ENDMDL
