MODEL 1
REMARK VINA RESULT: -7.014849785      0.000      0.000
REMARK  10 active torsions:
REMARK  status: ('A' for Active; 'I' for Inactive)
REMARK    1  A    between atoms: C3_4  and  O2_5 
REMARK    2  A    between atoms: O2_5  and  C4_6 
REMARK    3  A    between atoms: C5_7  and  N1_8 
REMARK    4  A    between atoms: C7_13  and  N2_14 
REMARK    5  A    between atoms: C7_13  and  C8_18 
REMARK    6  A    between atoms: C8_18  and  O3_19 
REMARK    7  A    between atoms: C9_21  and  O4_22 
REMARK    8  A    between atoms: C10_24  and  N3_25 
REMARK       I    between atoms: N3_25  and  C11_27 
REMARK    9  A    between atoms: C12_30  and  N5_31 
REMARK   10  A    between atoms: C14_36  and  N6_37 
ROOT
HETATM    1  C4  UNL     1      21.009   8.546  48.219  1.00  0.00     0.180 C 
HETATM    2  C5  UNL     1      19.727   8.195  48.961  1.00  0.00     0.217 C 
HETATM    3  C6  UNL     1      20.071   8.044  50.402  1.00  0.00     0.079 C 
HETATM    4  C7  UNL     1      20.701   9.258  51.000  1.00  0.00     0.174 C 
HETATM    5  C9  UNL     1      21.612  10.041  50.156  1.00  0.00     0.181 C 
HETATM    6  C10 UNL     1      21.539   9.872  48.679  1.00  0.00     0.148 C 
ENDROOT
BRANCH   1   7
HETATM    7  O2  UNL     1      21.927   7.530  48.311  1.00  0.00    -0.350 OA
BRANCH   7   8
HETATM    8  C3  UNL     1      21.350   6.261  48.169  1.00  0.00     0.291 C 
HETATM    9  O1  UNL     1      21.184   6.027  46.831  1.00  0.00    -0.352 OA
HETATM   10  C2  UNL     1      20.734   4.766  46.509  1.00  0.00     0.151 C 
HETATM   11  C1  UNL     1      19.282   4.546  46.871  1.00  0.00     0.042 C 
HETATM   12  C14 UNL     1      21.550   3.662  47.102  1.00  0.00     0.214 C 
HETATM   13  C13 UNL     1      21.746   3.897  48.586  1.00  0.00     0.073 C 
HETATM   14  C12 UNL     1      22.401   5.279  48.701  1.00  0.00     0.240 C 
BRANCH  12  15
HETATM   15  N6  UNL     1      20.838   2.409  46.958  1.00  0.00    -0.072 N 
ATOM     16  H63 UNL     1      19.967   2.517  46.438  1.00  0.00     0.274 HD
ATOM     17  H62 UNL     1      21.310   1.768  46.320  1.00  0.00     0.274 HD
ATOM     18  H61 UNL     1      20.689   1.997  47.879  1.00  0.00     0.274 HD
ENDBRANCH  12  15
BRANCH  14  19
HETATM   19  N5  UNL     1      23.490   5.296  47.757  1.00  0.00    -0.070 N 
ATOM     20  H53 UNL     1      23.251   5.744  46.873  1.00  0.00     0.274 HD
ATOM     21  H52 UNL     1      24.243   5.931  48.021  1.00  0.00     0.274 HD
ATOM     22  H51 UNL     1      23.795   4.328  47.652  1.00  0.00     0.274 HD
ENDBRANCH  14  19
ENDBRANCH   7   8
ENDBRANCH   1   7
BRANCH   2  23
HETATM   23  N1  UNL     1      18.705   9.153  48.670  1.00  0.00    -0.072 N 
ATOM     24  H13 UNL     1      18.084   9.301  49.467  1.00  0.00     0.274 HD
ATOM     25  H12 UNL     1      19.081  10.098  48.595  1.00  0.00     0.274 HD
ATOM     26  H11 UNL     1      18.190   8.880  47.833  1.00  0.00     0.274 HD
ENDBRANCH   2  23
BRANCH   6  27
HETATM   27  N3  UNL     1      22.855  10.045  48.129  1.00  0.00    -0.336 N 
HETATM   28  C11 UNL     1      23.052  10.731  46.921  1.00  0.00     0.329 C 
HETATM   29  N4  UNL     1      24.332  10.934  46.326  1.00  0.00    -0.040 NA
HETATM   30  O5  UNL     1      22.072  11.224  46.272  1.00  0.00    -0.251 OA
ATOM     31  H3  UNL     1      23.659   9.662  48.625  1.00  0.00     0.164 HD
ENDBRANCH   6  27
BRANCH   5  32
HETATM   32  O4  UNL     1      21.412  11.402  50.417  1.00  0.00    -0.391 OA
ATOM     33  H4  UNL     1      20.726  11.725  49.844  1.00  0.00     0.210 HD
ENDBRANCH   5  32
BRANCH   4  34
HETATM   34  N2  UNL     1      21.411   8.761  52.198  1.00  0.00    -0.066 N 
ATOM     35  H23 UNL     1      21.164   9.247  53.060  1.00  0.00     0.275 HD
ATOM     36  H22 UNL     1      21.115   7.832  52.500  1.00  0.00     0.275 HD
ATOM     37  H21 UNL     1      22.400   8.823  51.956  1.00  0.00     0.275 HD
ENDBRANCH   4  34
BRANCH   4  38
HETATM   38  C8  UNL     1      19.576  10.114  51.582  1.00  0.00     0.205 C 
BRANCH  38  39
HETATM   39  O3  UNL     1      19.955  10.668  52.801  1.00  0.00    -0.398 OA
ATOM     40  H3  UNL     1      20.361  11.518  52.674  1.00  0.00     0.209 HD
ENDBRANCH  38  39
ENDBRANCH   4  38
TORSDOF 10
ENDMDL
MODEL 2
REMARK VINA RESULT: -6.944151117      4.048      5.870
REMARK  10 active torsions:
REMARK  status: ('A' for Active; 'I' for Inactive)
REMARK    1  A    between atoms: C3_4  and  O2_5 
REMARK    2  A    between atoms: O2_5  and  C4_6 
REMARK    3  A    between atoms: C5_7  and  N1_8 
REMARK    4  A    between atoms: C7_13  and  N2_14 
REMARK    5  A    between atoms: C7_13  and  C8_18 
REMARK    6  A    between atoms: C8_18  and  O3_19 
REMARK    7  A    between atoms: C9_21  and  O4_22 
REMARK    8  A    between atoms: C10_24  and  N3_25 
REMARK       I    between atoms: N3_25  and  C11_27 
REMARK    9  A    between atoms: C12_30  and  N5_31 
REMARK   10  A    between atoms: C14_36  and  N6_37 
ROOT
HETATM    1  C4  UNL     1      22.357  10.983  50.596  1.00  0.00     0.180 C 
HETATM    2  C5  UNL     1      23.191  11.197  51.852  1.00  0.00     0.217 C 
HETATM    3  C6  UNL     1      24.035   9.985  52.039  1.00  0.00     0.079 C 
HETATM    4  C7  UNL     1      24.919   9.682  50.875  1.00  0.00     0.174 C 
HETATM    5  C9  UNL     1      24.394   9.949  49.531  1.00  0.00     0.181 C 
HETATM    6  C10 UNL     1      23.241  10.879  49.388  1.00  0.00     0.148 C 
ENDROOT
BRANCH   1   7
HETATM    7  O2  UNL     1      21.506   9.917  50.743  1.00  0.00    -0.350 OA
BRANCH   7   8
HETATM    8  C3  UNL     1      20.692  10.024  51.879  1.00  0.00     0.291 C 
HETATM    9  O1  UNL     1      19.501  10.572  51.487  1.00  0.00    -0.352 OA
HETATM   10  C2  UNL     1      18.537  10.637  52.468  1.00  0.00     0.151 C 
HETATM   11  C1  UNL     1      18.832  11.683  53.520  1.00  0.00     0.042 C 
HETATM   12  C14 UNL     1      18.275   9.331  53.148  1.00  0.00     0.214 C 
HETATM   13  C13 UNL     1      19.581   8.705  53.594  1.00  0.00     0.073 C 
HETATM   14  C12 UNL     1      20.433   8.580  52.325  1.00  0.00     0.240 C 
BRANCH  12  15
HETATM   15  N6  UNL     1      17.482   9.560  54.338  1.00  0.00    -0.072 N 
ATOM     16  H63 UNL     1      18.059   9.763  55.154  1.00  0.00     0.274 HD
ATOM     17  H62 UNL     1      16.973  10.443  54.298  1.00  0.00     0.274 HD
ATOM     18  H61 UNL     1      16.863   8.764  54.490  1.00  0.00     0.274 HD
ENDBRANCH  12  15
BRANCH  14  19
HETATM   19  N5  UNL     1      19.587   7.988  51.320  1.00  0.00    -0.070 N 
ATOM     20  H53 UNL     1      18.635   7.816  51.645  1.00  0.00     0.274 HD
ATOM     21  H52 UNL     1      19.347   8.630  50.564  1.00  0.00     0.274 HD
ATOM     22  H51 UNL     1      20.064   7.146  51.000  1.00  0.00     0.274 HD
ENDBRANCH  14  19
ENDBRANCH   7   8
ENDBRANCH   1   7
BRANCH   2  23
HETATM   23  N1  UNL     1      23.903  12.436  51.772  1.00  0.00    -0.072 N 
ATOM     24  H13 UNL     1      23.494  13.066  51.083  1.00  0.00     0.274 HD
ATOM     25  H12 UNL     1      23.761  13.009  52.604  1.00  0.00     0.274 HD
ATOM     26  H11 UNL     1      24.893  12.266  51.592  1.00  0.00     0.274 HD
ENDBRANCH   2  23
BRANCH   6  27
HETATM   27  N3  UNL     1      22.435  10.448  48.278  1.00  0.00    -0.336 N 
HETATM   28  C11 UNL     1      22.612  10.993  46.997  1.00  0.00     0.329 C 
HETATM   29  N4  UNL     1      21.844  10.606  45.860  1.00  0.00    -0.040 NA
HETATM   30  O5  UNL     1      23.492  11.888  46.775  1.00  0.00    -0.251 OA
ATOM     31  H3  UNL     1      21.723   9.734  48.424  1.00  0.00     0.164 HD
ENDBRANCH   6  27
BRANCH   5  32
HETATM   32  O4  UNL     1      25.427  10.462  48.737  1.00  0.00    -0.391 OA
ATOM     33  H4  UNL     1      25.061  10.755  47.910  1.00  0.00     0.210 HD
ENDBRANCH   5  32
BRANCH   4  34
HETATM   34  N2  UNL     1      25.251   8.248  51.020  1.00  0.00    -0.066 N 
ATOM     35  H23 UNL     1      25.023   7.859  51.936  1.00  0.00     0.275 HD
ATOM     36  H22 UNL     1      24.650   7.625  50.478  1.00  0.00     0.275 HD
ATOM     37  H21 UNL     1      26.240   8.186  50.778  1.00  0.00     0.275 HD
ENDBRANCH   4  34
BRANCH   4  38
HETATM   38  C8  UNL     1      26.254  10.384  51.123  1.00  0.00     0.205 C 
BRANCH  38  39
HETATM   39  O3  UNL     1      27.316   9.600  50.680  1.00  0.00    -0.398 OA
ATOM     40  H3  UNL     1      27.766   9.195  51.412  1.00  0.00     0.209 HD
ENDBRANCH  38  39
ENDBRANCH   4  38
TORSDOF 10
ENDMDL
MODEL 3
REMARK VINA RESULT: -6.756742679      2.953      3.473
REMARK  10 active torsions:
REMARK  status: ('A' for Active; 'I' for Inactive)
REMARK    1  A    between atoms: C3_4  and  O2_5 
REMARK    2  A    between atoms: O2_5  and  C4_6 
REMARK    3  A    between atoms: C5_7  and  N1_8 
REMARK    4  A    between atoms: C7_13  and  N2_14 
REMARK    5  A    between atoms: C7_13  and  C8_18 
REMARK    6  A    between atoms: C8_18  and  O3_19 
REMARK    7  A    between atoms: C9_21  and  O4_22 
REMARK    8  A    between atoms: C10_24  and  N3_25 
REMARK       I    between atoms: N3_25  and  C11_27 
REMARK    9  A    between atoms: C12_30  and  N5_31 
REMARK   10  A    between atoms: C14_36  and  N6_37 
ROOT
HETATM    1  C4  UNL     1      23.334   7.739  49.508  1.00  0.00     0.180 C 
HETATM    2  C5  UNL     1      23.378   7.253  50.951  1.00  0.00     0.217 C 
HETATM    3  C6  UNL     1      24.799   6.960  51.281  1.00  0.00     0.079 C 
HETATM    4  C7  UNL     1      25.712   8.128  51.098  1.00  0.00     0.174 C 
HETATM    5  C9  UNL     1      25.442   9.037  49.979  1.00  0.00     0.181 C 
HETATM    6  C10 UNL     1      24.086   9.029  49.364  1.00  0.00     0.148 C 
ENDROOT
BRANCH   1   7
HETATM    7  O2  UNL     1      23.755   6.761  48.644  1.00  0.00    -0.350 OA
BRANCH   7   8
HETATM    8  C3  UNL     1      22.785   5.773  48.426  1.00  0.00     0.291 C 
HETATM    9  O1  UNL     1      22.072   6.128  47.313  1.00  0.00    -0.352 OA
HETATM   10  C2  UNL     1      21.150   5.198  46.888  1.00  0.00     0.151 C 
HETATM   11  C1  UNL     1      19.947   5.100  47.799  1.00  0.00     0.042 C 
HETATM   12  C14 UNL     1      21.717   3.829  46.690  1.00  0.00     0.214 C 
HETATM   13  C13 UNL     1      22.510   3.411  47.912  1.00  0.00     0.073 C 
HETATM   14  C12 UNL     1      23.575   4.498  48.104  1.00  0.00     0.240 C 
BRANCH  12  15
HETATM   15  N6  UNL     1      20.635   2.879  46.537  1.00  0.00    -0.072 N 
ATOM     16  H63 UNL     1      20.029   2.848  47.357  1.00  0.00     0.274 HD
ATOM     17  H62 UNL     1      19.942   3.190  45.856  1.00  0.00     0.274 HD
ATOM     18  H61 UNL     1      21.019   1.963  46.306  1.00  0.00     0.274 HD
ENDBRANCH  12  15
BRANCH  14  19
HETATM   19  N5  UNL     1      24.181   4.709  46.814  1.00  0.00    -0.070 N 
ATOM     20  H53 UNL     1      23.628   4.337  46.042  1.00  0.00     0.274 HD
ATOM     21  H52 UNL     1      24.172   5.685  46.518  1.00  0.00     0.274 HD
ATOM     22  H51 UNL     1      25.119   4.311  46.868  1.00  0.00     0.274 HD
ENDBRANCH  14  19
ENDBRANCH   7   8
ENDBRANCH   1   7
BRANCH   2  23
HETATM   23  N1  UNL     1      22.727   8.192  51.813  1.00  0.00    -0.072 N 
ATOM     24  H13 UNL     1      22.848   9.152  51.490  1.00  0.00     0.274 HD
ATOM     25  H12 UNL     1      21.712   8.135  51.739  1.00  0.00     0.274 HD
ATOM     26  H11 UNL     1      23.046   8.071  52.774  1.00  0.00     0.274 HD
ENDBRANCH   2  23
BRANCH   6  27
HETATM   27  N3  UNL     1      24.214   9.318  47.962  1.00  0.00    -0.336 N 
HETATM   28  C11 UNL     1      24.068  10.626  47.474  1.00  0.00     0.329 C 
HETATM   29  N4  UNL     1      24.183  10.975  46.097  1.00  0.00    -0.040 NA
HETATM   30  O5  UNL     1      23.817  11.600  48.257  1.00  0.00    -0.251 OA
ATOM     31  H3  UNL     1      24.415   8.561  47.310  1.00  0.00     0.164 HD
ENDBRANCH   6  27
BRANCH   5  32
HETATM   32  O4  UNL     1      25.687  10.351  50.395  1.00  0.00    -0.391 OA
ATOM     33  H4  UNL     1      24.947  10.894  50.148  1.00  0.00     0.210 HD
ENDBRANCH   5  32
BRANCH   4  34
HETATM   34  N2  UNL     1      27.059   7.533  50.963  1.00  0.00    -0.066 N 
ATOM     35  H23 UNL     1      27.822   8.190  51.130  1.00  0.00     0.275 HD
ATOM     36  H22 UNL     1      27.303   6.882  51.710  1.00  0.00     0.275 HD
ATOM     37  H21 UNL     1      27.065   7.118  50.031  1.00  0.00     0.275 HD
ENDBRANCH   4  34
BRANCH   4  38
HETATM   38  C8  UNL     1      25.780   8.864  52.436  1.00  0.00     0.205 C 
BRANCH  38  39
HETATM   39  O3  UNL     1      27.090   9.228  52.735  1.00  0.00    -0.398 OA
ATOM     40  H3  UNL     1      27.694   8.876  52.091  1.00  0.00     0.209 HD
ENDBRANCH  38  39
ENDBRANCH   4  38
TORSDOF 10
ENDMDL
MODEL 4
REMARK VINA RESULT: -6.618385936      2.706      6.965
REMARK  10 active torsions:
REMARK  status: ('A' for Active; 'I' for Inactive)
REMARK    1  A    between atoms: C3_4  and  O2_5 
REMARK    2  A    between atoms: O2_5  and  C4_6 
REMARK    3  A    between atoms: C5_7  and  N1_8 
REMARK    4  A    between atoms: C7_13  and  N2_14 
REMARK    5  A    between atoms: C7_13  and  C8_18 
REMARK    6  A    between atoms: C8_18  and  O3_19 
REMARK    7  A    between atoms: C9_21  and  O4_22 
REMARK    8  A    between atoms: C10_24  and  N3_25 
REMARK       I    between atoms: N3_25  and  C11_27 
REMARK    9  A    between atoms: C12_30  and  N5_31 
REMARK   10  A    between atoms: C14_36  and  N6_37 
ROOT
HETATM    1  C4  UNL     1      20.293   6.629  49.230  1.00  0.00     0.180 C 
HETATM    2  C5  UNL     1      21.202   6.828  48.024  1.00  0.00     0.217 C 
HETATM    3  C6  UNL     1      22.436   6.030  48.259  1.00  0.00     0.079 C 
HETATM    4  C7  UNL     1      22.180   4.576  48.481  1.00  0.00     0.174 C 
HETATM    5  C9  UNL     1      20.971   4.201  49.224  1.00  0.00     0.181 C 
HETATM    6  C10 UNL     1      19.867   5.194  49.338  1.00  0.00     0.148 C 
ENDROOT
BRANCH   1   7
HETATM    7  O2  UNL     1      20.875   7.113  50.373  1.00  0.00    -0.350 OA
BRANCH   7   8
HETATM    8  C3  UNL     1      20.371   8.366  50.751  1.00  0.00     0.291 C 
HETATM    9  O1  UNL     1      20.459   8.456  52.114  1.00  0.00    -0.352 OA
HETATM   10  C2  UNL     1      20.113   9.679  52.642  1.00  0.00     0.151 C 
HETATM   11  C1  UNL     1      18.627   9.951  52.581  1.00  0.00     0.042 C 
HETATM   12  C14 UNL     1      20.840  10.832  52.027  1.00  0.00     0.214 C 
HETATM   13  C13 UNL     1      20.755  10.757  50.517  1.00  0.00     0.073 C 
HETATM   14  C12 UNL     1      21.336   9.388  50.139  1.00  0.00     0.240 C 
BRANCH  12  15
HETATM   15  N6  UNL     1      20.204  12.070  52.430  1.00  0.00    -0.072 N 
ATOM     16  H63 UNL     1      20.845  12.691  52.923  1.00  0.00     0.274 HD
ATOM     17  H62 UNL     1      19.997  12.674  51.635  1.00  0.00     0.274 HD
ATOM     18  H61 UNL     1      19.372  11.858  52.981  1.00  0.00     0.274 HD
ENDBRANCH  12  15
BRANCH  14  19
HETATM   19  N5  UNL     1      22.578   9.259  50.858  1.00  0.00    -0.070 N 
ATOM     20  H53 UNL     1      22.455   8.967  51.827  1.00  0.00     0.274 HD
ATOM     21  H52 UNL     1      23.139   8.463  50.556  1.00  0.00     0.274 HD
ATOM     22  H51 UNL     1      23.060  10.152  50.763  1.00  0.00     0.274 HD
ENDBRANCH  14  19
ENDBRANCH   7   8
ENDBRANCH   1   7
BRANCH   2  23
HETATM   23  N1  UNL     1      20.498   6.530  46.815  1.00  0.00    -0.072 N 
ATOM     24  H13 UNL     1      20.560   5.541  46.573  1.00  0.00     0.274 HD
ATOM     25  H12 UNL     1      19.487   6.592  46.938  1.00  0.00     0.274 HD
ATOM     26  H11 UNL     1      20.826   7.128  46.056  1.00  0.00     0.274 HD
ENDBRANCH   2  23
BRANCH   6  27
HETATM   27  N3  UNL     1      19.214   5.014  50.605  1.00  0.00    -0.336 N 
HETATM   28  C11 UNL     1      18.093   4.180  50.733  1.00  0.00     0.329 C 
HETATM   29  N4  UNL     1      17.404   3.963  51.962  1.00  0.00    -0.040 NA
HETATM   30  O5  UNL     1      17.616   3.554  49.729  1.00  0.00    -0.251 OA
ATOM     31  H3  UNL     1      19.572   5.501  51.427  1.00  0.00     0.164 HD
ENDBRANCH   6  27
BRANCH   5  32
HETATM   32  O4  UNL     1      20.421   3.053  48.642  1.00  0.00    -0.391 OA
ATOM     33  H4  UNL     1      19.579   2.878  49.046  1.00  0.00     0.210 HD
ENDBRANCH   5  32
BRANCH   4  34
HETATM   34  N2  UNL     1      23.386   4.086  49.183  1.00  0.00    -0.066 N 
ATOM     35  H23 UNL     1      24.245   4.570  48.921  1.00  0.00     0.275 HD
ATOM     36  H22 UNL     1      23.416   4.326  50.174  1.00  0.00     0.275 HD
ATOM     37  H21 UNL     1      23.402   3.083  48.997  1.00  0.00     0.275 HD
ENDBRANCH   4  34
BRANCH   4  38
HETATM   38  C8  UNL     1      22.256   3.888  47.118  1.00  0.00     0.205 C 
BRANCH  38  39
HETATM   39  O3  UNL     1      23.085   4.595  46.252  1.00  0.00    -0.398 OA
ATOM     40  H3  UNL     1      23.083   4.203  45.386  1.00  0.00     0.209 HD
ENDBRANCH  38  39
ENDBRANCH   4  38
TORSDOF 10
ENDMDL
MODEL 5
REMARK VINA RESULT: -6.586948812      3.106      6.314
REMARK  10 active torsions:
REMARK  status: ('A' for Active; 'I' for Inactive)
REMARK    1  A    between atoms: C3_4  and  O2_5 
REMARK    2  A    between atoms: O2_5  and  C4_6 
REMARK    3  A    between atoms: C5_7  and  N1_8 
REMARK    4  A    between atoms: C7_13  and  N2_14 
REMARK    5  A    between atoms: C7_13  and  C8_18 
REMARK    6  A    between atoms: C8_18  and  O3_19 
REMARK    7  A    between atoms: C9_21  and  O4_22 
REMARK    8  A    between atoms: C10_24  and  N3_25 
REMARK       I    between atoms: N3_25  and  C11_27 
REMARK    9  A    between atoms: C12_30  and  N5_31 
REMARK   10  A    between atoms: C14_36  and  N6_37 
ROOT
HETATM    1  C4  UNL     1      22.043   9.024  49.535  1.00  0.00     0.180 C 
HETATM    2  C5  UNL     1      22.101  10.060  48.421  1.00  0.00     0.217 C 
HETATM    3  C6  UNL     1      23.337  10.865  48.622  1.00  0.00     0.079 C 
HETATM    4  C7  UNL     1      24.589  10.051  48.641  1.00  0.00     0.174 C 
HETATM    5  C9  UNL     1      24.530   8.721  49.258  1.00  0.00     0.181 C 
HETATM    6  C10 UNL     1      23.200   8.074  49.434  1.00  0.00     0.148 C 
ENDROOT
BRANCH   1   7
HETATM    7  O2  UNL     1      21.937   9.625  50.764  1.00  0.00    -0.350 OA
BRANCH   7   8
HETATM    8  C3  UNL     1      20.661   9.488  51.327  1.00  0.00     0.291 C 
HETATM    9  O1  UNL     1      20.818   9.052  52.615  1.00  0.00    -0.352 OA
HETATM   10  C2  UNL     1      19.659   8.979  53.353  1.00  0.00     0.151 C 
HETATM   11  C1  UNL     1      18.759   7.840  52.930  1.00  0.00     0.042 C 
HETATM   12  C14 UNL     1      18.863  10.245  53.359  1.00  0.00     0.214 C 
HETATM   13  C13 UNL     1      18.672  10.747  51.943  1.00  0.00     0.073 C 
HETATM   14  C12 UNL     1      20.085  10.909  51.369  1.00  0.00     0.240 C 
BRANCH  12  15
HETATM   15  N6  UNL     1      17.546   9.981  53.901  1.00  0.00    -0.072 N 
ATOM     16  H63 UNL     1      17.129  10.810  54.324  1.00  0.00     0.274 HD
ATOM     17  H62 UNL     1      16.852   9.825  53.170  1.00  0.00     0.274 HD
ATOM     18  H61 UNL     1      17.601   9.200  54.555  1.00  0.00     0.274 HD
ENDBRANCH  12  15
BRANCH  14  19
HETATM   19  N5  UNL     1      20.848  11.630  52.356  1.00  0.00    -0.070 N 
ATOM     20  H53 UNL     1      20.377  12.468  52.697  1.00  0.00     0.274 HD
ATOM     21  H52 UNL     1      20.908  11.146  53.253  1.00  0.00     0.274 HD
ATOM     22  H51 UNL     1      21.758  11.818  51.937  1.00  0.00     0.274 HD
ENDBRANCH  14  19
ENDBRANCH   7   8
ENDBRANCH   1   7
BRANCH   2  23
HETATM   23  N1  UNL     1      21.984   9.425  47.144  1.00  0.00    -0.072 N 
ATOM     24  H13 UNL     1      21.148   9.729  46.643  1.00  0.00     0.274 HD
ATOM     25  H12 UNL     1      22.685   9.762  46.486  1.00  0.00     0.274 HD
ATOM     26  H11 UNL     1      22.016   8.410  47.247  1.00  0.00     0.274 HD
ENDBRANCH   2  23
BRANCH   6  27
HETATM   27  N3  UNL     1      23.230   7.275  50.627  1.00  0.00    -0.336 N 
HETATM   28  C11 UNL     1      23.509   5.900  50.573  1.00  0.00     0.329 C 
HETATM   29  N4  UNL     1      23.553   5.056  51.722  1.00  0.00    -0.040 NA
HETATM   30  O5  UNL     1      23.745   5.315  49.465  1.00  0.00    -0.251 OA
ATOM     31  H3  UNL     1      23.046   7.713  51.529  1.00  0.00     0.164 HD
ENDBRANCH   6  27
BRANCH   5  32
HETATM   32  O4  UNL     1      25.310   7.838  48.502  1.00  0.00    -0.391 OA
ATOM     33  H4  UNL     1      25.391   8.179  47.619  1.00  0.00     0.210 HD
ENDBRANCH   5  32
BRANCH   4  34
HETATM   34  N2  UNL     1      25.577  10.899  49.343  1.00  0.00    -0.066 N 
ATOM     35  H23 UNL     1      25.802  11.766  48.854  1.00  0.00     0.275 HD
ATOM     36  H22 UNL     1      25.219  11.335  50.193  1.00  0.00     0.275 HD
ATOM     37  H21 UNL     1      26.379  10.288  49.496  1.00  0.00     0.275 HD
ENDBRANCH   4  34
BRANCH   4  38
HETATM   38  C8  UNL     1      25.118   9.999  47.208  1.00  0.00     0.205 C 
BRANCH  38  39
HETATM   39  O3  UNL     1      24.602  11.048  46.451  1.00  0.00    -0.398 OA
ATOM     40  H3  UNL     1      25.024  11.091  45.601  1.00  0.00     0.209 HD
ENDBRANCH  38  39
ENDBRANCH   4  38
TORSDOF 10
ENDMDL
