MODEL 1
REMARK VINA RESULT: -5.225547337      0.000      0.000
REMARK  0 active torsions:
REMARK  status: ('A' for Active; 'I' for Inactive)
REMARK       I    between atoms: N1_1  and  C1_4 
ROOT
HETATM    1  N1  UNL     1      56.117  37.926  42.261  1.00  0.00    -0.234 N 
ATOM      2  H11 UNL     1      55.687  37.067  41.918  1.00  0.00     0.174 HD
ATOM      3  H12 UNL     1      56.627  38.617  41.709  1.00  0.00     0.174 HD
HETATM    4  C1  UNL     1      56.021  38.193  43.520  1.00  0.00     0.679 C 
HETATM    5  N2  UNL     1      56.588  39.326  43.973  1.00  0.00    -0.197 N 
ATOM      6  H2  UNL     1      57.219  39.800  43.327  1.00  0.00     0.183 HD
HETATM    7  C2  UNL     1      56.422  39.916  45.186  1.00  0.00     0.180 C 
HETATM    8  C3  UNL     1      55.692  39.459  46.265  1.00  0.00     0.265 C 
HETATM    9  O1  UNL     1      55.672  40.282  47.217  1.00  0.00    -0.267 OA
HETATM   10  N3  UNL     1      55.033  38.315  46.434  1.00  0.00    -0.274 N 
ATOM     11  H3  UNL     1      54.687  38.119  47.373  1.00  0.00     0.173 HD
HETATM   12  C4  UNL     1      54.777  37.383  45.483  1.00  0.00     0.341 C 
HETATM   13  O2  UNL     1      53.926  36.512  45.744  1.00  0.00    -0.246 OA
HETATM   14  N4  UNL     1      55.348  37.281  44.249  1.00  0.00    -0.141 N 
ATOM     15  H4  UNL     1      55.250  36.368  43.806  1.00  0.00     0.189 HD
ENDROOT
TORSDOF 0
ENDMDL
MODEL 2
REMARK VINA RESULT: -4.835649564      0.969      2.807
REMARK  0 active torsions:
REMARK  status: ('A' for Active; 'I' for Inactive)
REMARK       I    between atoms: N1_1  and  C1_4 
ROOT
HETATM    1  N1  UNL     1      57.042  38.992  42.007  1.00  0.00    -0.234 N 
ATOM      2  H11 UNL     1      57.568  39.862  42.083  1.00  0.00     0.174 HD
ATOM      3  H12 UNL     1      57.034  38.350  41.214  1.00  0.00     0.174 HD
HETATM    4  C1  UNL     1      56.301  38.640  43.004  1.00  0.00     0.679 C 
HETATM    5  N2  UNL     1      55.607  37.492  42.903  1.00  0.00    -0.197 N 
ATOM      6  H2  UNL     1      55.563  37.076  41.973  1.00  0.00     0.183 HD
HETATM    7  C2  UNL     1      54.957  36.820  43.890  1.00  0.00     0.180 C 
HETATM    8  C3  UNL     1      54.794  37.188  45.210  1.00  0.00     0.265 C 
HETATM    9  O1  UNL     1      54.211  36.304  45.889  1.00  0.00    -0.267 OA
HETATM   10  N3  UNL     1      55.152  38.305  45.841  1.00  0.00    -0.274 N 
ATOM     11  H3  UNL     1      54.797  38.430  46.788  1.00  0.00     0.173 HD
HETATM   12  C4  UNL     1      55.942  39.292  45.349  1.00  0.00     0.341 C 
HETATM   13  O2  UNL     1      56.392  40.125  46.158  1.00  0.00    -0.246 OA
HETATM   14  N4  UNL     1      56.311  39.487  44.052  1.00  0.00    -0.141 N 
ATOM     15  H4  UNL     1      56.649  40.425  43.839  1.00  0.00     0.189 HD
ENDROOT
TORSDOF 0
ENDMDL
MODEL 3
REMARK VINA RESULT: -4.680745986      1.823      4.007
REMARK  0 active torsions:
REMARK  status: ('A' for Active; 'I' for Inactive)
REMARK       I    between atoms: N1_1  and  C1_4 
ROOT
HETATM    1  N1  UNL     1      55.777  40.602  47.967  1.00  0.00    -0.234 N 
ATOM      2  H11 UNL     1      56.305  41.470  47.879  1.00  0.00     0.174 HD
ATOM      3  H12 UNL     1      55.220  40.305  48.768  1.00  0.00     0.174 HD
HETATM    4  C1  UNL     1      55.798  39.774  46.976  1.00  0.00     0.679 C 
HETATM    5  N2  UNL     1      55.101  38.629  47.093  1.00  0.00    -0.197 N 
ATOM      6  H2  UNL     1      54.762  38.405  48.028  1.00  0.00     0.183 HD
HETATM    7  C2  UNL     1      54.796  37.735  46.115  1.00  0.00     0.180 C 
HETATM    8  C3  UNL     1      55.186  37.751  44.792  1.00  0.00     0.265 C 
HETATM    9  O1  UNL     1      54.665  36.820  44.124  1.00  0.00    -0.267 OA
HETATM   10  N3  UNL     1      56.004  38.579  44.146  1.00  0.00    -0.274 N 
ATOM     11  H3  UNL     1      56.270  38.315  43.198  1.00  0.00     0.173 HD
HETATM   12  C4  UNL     1      56.519  39.739  44.624  1.00  0.00     0.341 C 
HETATM   13  O2  UNL     1      57.042  40.517  43.805  1.00  0.00    -0.246 OA
HETATM   14  N4  UNL     1      56.535  40.167  45.918  1.00  0.00    -0.141 N 
ATOM     15  H4  UNL     1      57.213  40.901  46.118  1.00  0.00     0.189 HD
ENDROOT
TORSDOF 0
ENDMDL
MODEL 4
REMARK VINA RESULT: -4.660628658      6.388      7.410
REMARK  0 active torsions:
REMARK  status: ('A' for Active; 'I' for Inactive)
REMARK       I    between atoms: N1_1  and  C1_4 
ROOT
HETATM    1  N1  UNL     1      50.273  32.994  42.314  1.00  0.00    -0.234 N 
ATOM      2  H11 UNL     1      49.689  32.199  42.059  1.00  0.00     0.174 HD
ATOM      3  H12 UNL     1      51.011  33.416  41.751  1.00  0.00     0.174 HD
HETATM    4  C1  UNL     1      50.079  33.546  43.466  1.00  0.00     0.679 C 
HETATM    5  N2  UNL     1      50.850  34.596  43.803  1.00  0.00    -0.197 N 
ATOM      6  H2  UNL     1      51.662  34.763  43.210  1.00  0.00     0.183 HD
HETATM    7  C2  UNL     1      50.678  35.459  44.839  1.00  0.00     0.180 C 
HETATM    8  C3  UNL     1      49.717  35.424  45.829  1.00  0.00     0.265 C 
HETATM    9  O1  UNL     1      49.779  36.419  46.598  1.00  0.00    -0.267 OA
HETATM   10  N3  UNL     1      48.772  34.520  46.078  1.00  0.00    -0.274 N 
ATOM     11  H3  UNL     1      48.264  34.617  46.956  1.00  0.00     0.173 HD
HETATM   12  C4  UNL     1      48.417  33.483  45.279  1.00  0.00     0.341 C 
HETATM   13  O2  UNL     1      47.345  32.902  45.533  1.00  0.00    -0.246 OA
HETATM   14  N4  UNL     1      49.104  32.989  44.210  1.00  0.00    -0.141 N 
ATOM     15  H4  UNL     1      48.837  32.046  43.929  1.00  0.00     0.189 HD
ENDROOT
TORSDOF 0
ENDMDL
MODEL 5
REMARK VINA RESULT: -4.597873491      1.887      3.129
REMARK  0 active torsions:
REMARK  status: ('A' for Active; 'I' for Inactive)
REMARK       I    between atoms: N1_1  and  C1_4 
ROOT
HETATM    1  N1  UNL     1      55.596  39.866  48.125  1.00  0.00    -0.234 N 
ATOM      2  H11 UNL     1      54.981  39.336  48.742  1.00  0.00     0.174 HD
ATOM      3  H12 UNL     1      56.207  40.639  48.388  1.00  0.00     0.174 HD
HETATM    4  C1  UNL     1      55.625  39.546  46.874  1.00  0.00     0.679 C 
HETATM    5  N2  UNL     1      56.435  40.246  46.060  1.00  0.00    -0.197 N 
ATOM      6  H2  UNL     1      56.827  41.104  46.448  1.00  0.00     0.183 HD
HETATM    7  C2  UNL     1      56.795  39.948  44.783  1.00  0.00     0.180 C 
HETATM    8  C3  UNL     1      56.362  38.901  43.996  1.00  0.00     0.265 C 
HETATM    9  O1  UNL     1      56.951  38.857  42.884  1.00  0.00    -0.267 OA
HETATM   10  N3  UNL     1      55.444  37.967  44.237  1.00  0.00    -0.274 N 
ATOM     11  H3  UNL     1      55.173  37.376  43.451  1.00  0.00     0.173 HD
HETATM   12  C4  UNL     1      54.832  37.724  45.422  1.00  0.00     0.341 C 
HETATM   13  O2  UNL     1      54.206  36.654  45.538  1.00  0.00    -0.246 OA
HETATM   14  N4  UNL     1      54.817  38.525  46.525  1.00  0.00    -0.141 N 
ATOM     15  H4  UNL     1      54.076  38.318  47.195  1.00  0.00     0.189 HD
ENDROOT
TORSDOF 0
ENDMDL
