MODEL 1
REMARK VINA RESULT: -7.518043338      0.000      0.000
REMARK  23 active torsions:
REMARK  status: ('A' for Active; 'I' for Inactive)
REMARK    1  A    between atoms: C2_2  and  O1_3 
REMARK    2  A    between atoms: O1_3  and  C3_4 
REMARK    3  A    between atoms: C3_4  and  C4_6 
REMARK    4  A    between atoms: C4_6  and  O3_7 
REMARK    5  A    between atoms: C4_6  and  C27_53 
REMARK    6  A    between atoms: O3_7  and  C5_8 
REMARK    7  A    between atoms: C5_8  and  O4_9 
REMARK    8  A    between atoms: O4_9  and  C6_10 
REMARK    9  A    between atoms: C6_10  and  C7_12 
REMARK   10  A    between atoms: C7_12  and  O6_13 
REMARK   11  A    between atoms: C7_12  and  C16_31 
REMARK   12  A    between atoms: O6_13  and  C8_14 
REMARK   13  A    between atoms: C8_14  and  C9_16 
REMARK   14  A    between atoms: C9_16  and  C10_17 
REMARK   15  A    between atoms: C11_18  and  O8_19 
REMARK   16  A    between atoms: C13_21  and  O9_22 
REMARK   17  A    between atoms: C17_32  and  O12_33 
REMARK   18  A    between atoms: C19_36  and  O13_37 
REMARK   19  A    between atoms: C23_43  and  O15_44 
REMARK   20  A    between atoms: C24_46  and  O16_47 
REMARK   21  A    between atoms: C25_49  and  O17_50 
REMARK   22  A    between atoms: C27_53  and  O18_54 
REMARK   23  A    between atoms: C27_53  and  O19_56 
ROOT
HETATM    1  C7  UNL     1       9.772  29.255  27.005  1.00  0.00     0.271 C 
ENDROOT
BRANCH   1   2
HETATM    2  C6  UNL     1      10.836  30.102  26.401  1.00  0.00     0.295 C 
HETATM    3  O5  UNL     1      11.457  31.000  26.987  1.00  0.00    -0.262 OA
BRANCH   2   4
HETATM    4  O4  UNL     1      11.208  29.908  25.049  1.00  0.00    -0.293 OA
BRANCH   4   5
HETATM    5  C5  UNL     1      10.839  30.843  24.055  1.00  0.00     0.349 C 
BRANCH   5   6
HETATM    6  O3  UNL     1       9.573  30.521  23.611  1.00  0.00    -0.346 OA
BRANCH   6   7
HETATM    7  C4  UNL     1       9.473  30.101  22.316  1.00  0.00     0.278 C 
BRANCH   7   8
HETATM    8  C3  UNL     1       8.119  30.239  21.719  1.00  0.00     0.293 C 
HETATM    9  O2  UNL     1       7.161  29.569  22.242  1.00  0.00    -0.262 OA
BRANCH   8  10
HETATM   10  O1  UNL     1       7.816  31.028  20.653  1.00  0.00    -0.320 OA
BRANCH  10  11
HETATM   11  C2  UNL     1       7.478  30.475  19.416  1.00  0.00     0.174 C 
HETATM   12  C1  UNL     1       8.587  30.561  18.401  1.00  0.00     0.034 C 
ENDBRANCH  10  11
ENDBRANCH   8  10
ENDBRANCH   7   8
BRANCH   7  13
HETATM   13  C27 UNL     1      10.032  28.705  22.101  1.00  0.00     0.292 C 
BRANCH  13  14
HETATM   14  O18 UNL     1       9.646  27.846  23.138  1.00  0.00    -0.368 OA
ATOM     15  H18 UNL     1       8.735  27.984  23.372  1.00  0.00     0.212 HD
ENDBRANCH  13  14
BRANCH  13  16
HETATM   16  O19 UNL     1       9.511  28.155  20.928  1.00  0.00    -0.368 OA
ATOM     17  H19 UNL     1      10.172  28.156  20.246  1.00  0.00     0.212 HD
ENDBRANCH  13  16
ENDBRANCH   7  13
ENDBRANCH   6   7
ENDBRANCH   5   6
ENDBRANCH   4   5
ENDBRANCH   2   4
ENDBRANCH   1   2
BRANCH   1  18
HETATM   18  O6  UNL     1       9.206  28.379  26.086  1.00  0.00    -0.300 OA
BRANCH  18  19
HETATM   19  C8  UNL     1       8.892  27.040  26.390  1.00  0.00     0.265 C 
HETATM   20  O7  UNL     1       9.803  26.372  26.900  1.00  0.00    -0.265 OA
BRANCH  19  21
HETATM   21  C9  UNL     1       7.549  26.504  26.103  1.00  0.00     0.173 C 
BRANCH  21  22
HETATM   22  C10 UNL     1       6.492  27.361  26.675  1.00  0.00     0.082 A 
HETATM   23  C11 UNL     1       6.012  27.316  27.978  1.00  0.00     0.129 A 
HETATM   24  C13 UNL     1       5.008  28.282  28.110  1.00  0.00     0.136 A 
HETATM   25  C14 UNL     1       4.914  28.880  26.874  1.00  0.00     0.171 A 
HETATM   26  C15 UNL     1       4.239  29.855  26.170  1.00  0.00     0.338 A 
HETATM   27  N2  UNL     1       5.791  28.336  26.030  1.00  0.00    -0.228 N 
HETATM   28  O10 UNL     1       3.323  30.617  26.580  1.00  0.00    -0.255 OA
HETATM   29  O11 UNL     1       4.723  29.859  24.960  1.00  0.00    -0.177 OA
HETATM   30  N1  UNL     1       5.635  28.962  24.888  1.00  0.00    -0.191 N 
ATOM     31  H1  UNL     1       6.174  28.759  24.046  1.00  0.00     0.217 HD
BRANCH  23  32
HETATM   32  O8  UNL     1       6.375  26.517  29.039  1.00  0.00    -0.351 OA
HETATM   33  C12 UNL     1       5.810  25.278  29.377  1.00  0.00     0.210 C 
ENDBRANCH  23  32
BRANCH  24  34
HETATM   34  O9  UNL     1       4.268  28.574  29.229  1.00  0.00    -0.356 OA
ATOM     35  H9  UNL     1       3.456  29.065  29.275  1.00  0.00     0.218 HD
ENDBRANCH  24  34
ENDBRANCH  21  22
ENDBRANCH  19  21
ENDBRANCH  18  19
ENDBRANCH   1  18
BRANCH   1  36
HETATM   36  C16 UNL     1       8.860  30.056  27.791  1.00  0.00     0.065 C 
HETATM   37  C17 UNL     1       8.020  30.907  27.100  1.00  0.00     0.081 C 
HETATM   38  C18 UNL     1       7.428  32.074  27.581  1.00  0.00     0.074 C 
HETATM   39  C19 UNL     1       7.442  32.606  28.839  1.00  0.00     0.075 C 
HETATM   40  C20 UNL     1       7.974  32.058  30.006  1.00  0.00    -0.009 C 
HETATM   41  C21 UNL     1       8.662  30.869  30.120  1.00  0.00     0.033 C 
HETATM   42  C26 UNL     1       7.693  32.948  31.141  1.00  0.00     0.076 C 
HETATM   43  C22 UNL     1       8.844  29.903  29.169  1.00  0.00     0.193 C 
HETATM   44  C23 UNL     1       9.309  30.523  31.410  1.00  0.00     0.187 C 
HETATM   45  O14 UNL     1       9.014  28.740  29.612  1.00  0.00    -0.287 OA
HETATM   46  C24 UNL     1       8.344  30.988  32.501  1.00  0.00     0.180 C 
HETATM   47  C25 UNL     1       8.304  32.498  32.431  1.00  0.00     0.154 C 
BRANCH  37  48
HETATM   48  O12 UNL     1       7.714  30.606  25.799  1.00  0.00    -0.360 OA
ATOM     49  H12 UNL     1       6.961  30.052  25.629  1.00  0.00     0.217 HD
ENDBRANCH  37  48
BRANCH  39  50
HETATM   50  O13 UNL     1       6.846  33.862  28.961  1.00  0.00    -0.360 OA
ATOM     51  H13 UNL     1       7.037  34.324  29.769  1.00  0.00     0.217 HD
ENDBRANCH  39  50
BRANCH  44  52
HETATM   52  O15 UNL     1      10.472  31.304  31.609  1.00  0.00    -0.388 OA
ATOM     53  H15 UNL     1      11.170  30.776  31.980  1.00  0.00     0.210 HD
ENDBRANCH  44  52
BRANCH  46  54
HETATM   54  O16 UNL     1       8.782  30.540  33.739  1.00  0.00    -0.390 OA
ATOM     55  H16 UNL     1       8.150  29.932  34.104  1.00  0.00     0.210 HD
ENDBRANCH  46  54
BRANCH  47  56
HETATM   56  O17 UNL     1       7.554  33.030  33.499  1.00  0.00    -0.393 OA
ATOM     57  H17 UNL     1       7.908  33.866  33.778  1.00  0.00     0.210 HD
ENDBRANCH  47  56
ENDBRANCH   1  36
TORSDOF 23
ENDMDL
MODEL 2
REMARK VINA RESULT: -7.397956560      1.993      7.964
REMARK  23 active torsions:
REMARK  status: ('A' for Active; 'I' for Inactive)
REMARK    1  A    between atoms: C2_2  and  O1_3 
REMARK    2  A    between atoms: O1_3  and  C3_4 
REMARK    3  A    between atoms: C3_4  and  C4_6 
REMARK    4  A    between atoms: C4_6  and  O3_7 
REMARK    5  A    between atoms: C4_6  and  C27_53 
REMARK    6  A    between atoms: O3_7  and  C5_8 
REMARK    7  A    between atoms: C5_8  and  O4_9 
REMARK    8  A    between atoms: O4_9  and  C6_10 
REMARK    9  A    between atoms: C6_10  and  C7_12 
REMARK   10  A    between atoms: C7_12  and  O6_13 
REMARK   11  A    between atoms: C7_12  and  C16_31 
REMARK   12  A    between atoms: O6_13  and  C8_14 
REMARK   13  A    between atoms: C8_14  and  C9_16 
REMARK   14  A    between atoms: C9_16  and  C10_17 
REMARK   15  A    between atoms: C11_18  and  O8_19 
REMARK   16  A    between atoms: C13_21  and  O9_22 
REMARK   17  A    between atoms: C17_32  and  O12_33 
REMARK   18  A    between atoms: C19_36  and  O13_37 
REMARK   19  A    between atoms: C23_43  and  O15_44 
REMARK   20  A    between atoms: C24_46  and  O16_47 
REMARK   21  A    between atoms: C25_49  and  O17_50 
REMARK   22  A    between atoms: C27_53  and  O18_54 
REMARK   23  A    between atoms: C27_53  and  O19_56 
ROOT
HETATM    1  C7  UNL     1       8.092  30.027  26.533  1.00  0.00     0.271 C 
ENDROOT
BRANCH   1   2
HETATM    2  C6  UNL     1       8.778  31.303  26.870  1.00  0.00     0.295 C 
HETATM    3  O5  UNL     1       8.553  32.399  26.340  1.00  0.00    -0.262 OA
BRANCH   2   4
HETATM    4  O4  UNL     1       9.778  31.322  27.873  1.00  0.00    -0.293 OA
BRANCH   4   5
HETATM    5  C5  UNL     1       9.957  32.458  28.695  1.00  0.00     0.349 C 
BRANCH   5   6
HETATM    6  O3  UNL     1       9.940  32.043  30.011  1.00  0.00    -0.346 OA
BRANCH   6   7
HETATM    7  C4  UNL     1       8.816  32.339  30.726  1.00  0.00     0.278 C 
BRANCH   7   8
HETATM    8  C3  UNL     1       9.064  32.735  32.138  1.00  0.00     0.293 C 
HETATM    9  O2  UNL     1       9.818  31.984  32.849  1.00  0.00    -0.262 OA
BRANCH   8  10
HETATM   10  O1  UNL     1       8.546  33.842  32.737  1.00  0.00    -0.320 OA
BRANCH  10  11
HETATM   11  C2  UNL     1       9.252  34.522  33.731  1.00  0.00     0.174 C 
HETATM   12  C1  UNL     1       9.152  36.021  33.615  1.00  0.00     0.034 C 
ENDBRANCH  10  11
ENDBRANCH   8  10
ENDBRANCH   7   8
BRANCH   7  13
HETATM   13  C27 UNL     1       7.752  31.260  30.633  1.00  0.00     0.292 C 
BRANCH  13  14
HETATM   14  O18 UNL     1       8.317  30.031  30.269  1.00  0.00    -0.368 OA
ATOM     15  H18 UNL     1       7.646  29.364  30.173  1.00  0.00     0.212 HD
ENDBRANCH  13  14
BRANCH  13  16
HETATM   16  O19 UNL     1       7.162  31.060  31.883  1.00  0.00    -0.368 OA
ATOM     17  H19 UNL     1       6.931  30.144  31.991  1.00  0.00     0.212 HD
ENDBRANCH  13  16
ENDBRANCH   7  13
ENDBRANCH   6   7
ENDBRANCH   5   6
ENDBRANCH   4   5
ENDBRANCH   2   4
ENDBRANCH   1   2
BRANCH   1  18
HETATM   18  O6  UNL     1       7.746  29.296  27.664  1.00  0.00    -0.300 OA
BRANCH  18  19
HETATM   19  C8  UNL     1       6.625  28.445  27.719  1.00  0.00     0.265 C 
HETATM   20  O7  UNL     1       6.792  27.299  27.278  1.00  0.00    -0.265 OA
BRANCH  19  21
HETATM   21  C9  UNL     1       5.348  28.926  28.276  1.00  0.00     0.173 C 
BRANCH  21  22
HETATM   22  C10 UNL     1       4.442  29.407  27.214  1.00  0.00     0.082 A 
HETATM   23  C11 UNL     1       4.415  30.685  26.671  1.00  0.00     0.129 A 
HETATM   24  C13 UNL     1       3.405  30.731  25.704  1.00  0.00     0.136 A 
HETATM   25  C14 UNL     1       2.852  29.471  25.696  1.00  0.00     0.171 A 
HETATM   26  C15 UNL     1       1.880  28.698  25.096  1.00  0.00     0.338 A 
HETATM   27  N2  UNL     1       3.466  28.692  26.587  1.00  0.00    -0.228 N 
HETATM   28  O10 UNL     1       1.066  29.034  24.196  1.00  0.00    -0.255 OA
HETATM   29  O11 UNL     1       1.945  27.513  25.636  1.00  0.00    -0.177 OA
HETATM   30  N1  UNL     1       2.881  27.520  26.512  1.00  0.00    -0.191 N 
ATOM     31  H1  UNL     1       3.139  26.714  27.080  1.00  0.00     0.217 HD
BRANCH  23  32
HETATM   32  O8  UNL     1       5.189  31.791  26.947  1.00  0.00    -0.351 OA
HETATM   33  C12 UNL     1       5.222  32.501  28.157  1.00  0.00     0.210 C 
ENDBRANCH  23  32
BRANCH  24  34
HETATM   34  O9  UNL     1       3.037  31.802  24.927  1.00  0.00    -0.356 OA
ATOM     35  H9  UNL     1       2.254  31.891  24.398  1.00  0.00     0.218 HD
ENDBRANCH  24  34
ENDBRANCH  21  22
ENDBRANCH  19  21
ENDBRANCH  18  19
ENDBRANCH   1  18
BRANCH   1  36
HETATM   36  C16 UNL     1       8.802  29.320  25.491  1.00  0.00     0.065 C 
HETATM   37  C17 UNL     1      10.022  28.766  25.830  1.00  0.00     0.081 C 
HETATM   38  C18 UNL     1      11.081  28.478  24.969  1.00  0.00     0.074 C 
HETATM   39  C19 UNL     1      11.149  28.571  23.609  1.00  0.00     0.075 C 
HETATM   40  C20 UNL     1      10.131  28.884  22.708  1.00  0.00    -0.009 C 
HETATM   41  C21 UNL     1       8.833  29.230  23.019  1.00  0.00     0.033 C 
HETATM   42  C26 UNL     1      10.642  28.792  21.334  1.00  0.00     0.076 C 
HETATM   43  C22 UNL     1       8.219  29.198  24.240  1.00  0.00     0.193 C 
HETATM   44  C23 UNL     1       7.928  29.700  21.941  1.00  0.00     0.187 C 
HETATM   45  O14 UNL     1       6.974  29.036  24.209  1.00  0.00    -0.287 OA
HETATM   46  C24 UNL     1       8.248  28.840  20.718  1.00  0.00     0.180 C 
HETATM   47  C25 UNL     1       9.652  29.200  20.289  1.00  0.00     0.154 C 
BRANCH  37  48
HETATM   48  O12 UNL     1      10.253  28.455  27.144  1.00  0.00    -0.360 OA
ATOM     49  H12 UNL     1      11.123  28.166  27.393  1.00  0.00     0.217 HD
ENDBRANCH  37  48
BRANCH  39  50
HETATM   50  O13 UNL     1      12.406  28.320  23.057  1.00  0.00    -0.360 OA
ATOM     51  H13 UNL     1      12.655  28.889  22.338  1.00  0.00     0.217 HD
ENDBRANCH  39  50
BRANCH  44  52
HETATM   52  O15 UNL     1       8.266  31.017  21.546  1.00  0.00    -0.388 OA
ATOM     53  H15 UNL     1       7.951  31.194  20.667  1.00  0.00     0.210 HD
ENDBRANCH  44  52
BRANCH  46  54
HETATM   54  O16 UNL     1       7.322  29.086  19.715  1.00  0.00    -0.390 OA
ATOM     55  H16 UNL     1       6.825  28.296  19.535  1.00  0.00     0.210 HD
ENDBRANCH  46  54
BRANCH  47  56
HETATM   56  O17 UNL     1       9.984  28.566  19.075  1.00  0.00    -0.393 OA
ATOM     57  H17 UNL     1       9.939  29.178  18.349  1.00  0.00     0.210 HD
ENDBRANCH  47  56
ENDBRANCH   1  36
TORSDOF 23
ENDMDL
MODEL 3
REMARK VINA RESULT: -7.325257688      2.346      7.939
REMARK  23 active torsions:
REMARK  status: ('A' for Active; 'I' for Inactive)
REMARK    1  A    between atoms: C2_2  and  O1_3 
REMARK    2  A    between atoms: O1_3  and  C3_4 
REMARK    3  A    between atoms: C3_4  and  C4_6 
REMARK    4  A    between atoms: C4_6  and  O3_7 
REMARK    5  A    between atoms: C4_6  and  C27_53 
REMARK    6  A    between atoms: O3_7  and  C5_8 
REMARK    7  A    between atoms: C5_8  and  O4_9 
REMARK    8  A    between atoms: O4_9  and  C6_10 
REMARK    9  A    between atoms: C6_10  and  C7_12 
REMARK   10  A    between atoms: C7_12  and  O6_13 
REMARK   11  A    between atoms: C7_12  and  C16_31 
REMARK   12  A    between atoms: O6_13  and  C8_14 
REMARK   13  A    between atoms: C8_14  and  C9_16 
REMARK   14  A    between atoms: C9_16  and  C10_17 
REMARK   15  A    between atoms: C11_18  and  O8_19 
REMARK   16  A    between atoms: C13_21  and  O9_22 
REMARK   17  A    between atoms: C17_32  and  O12_33 
REMARK   18  A    between atoms: C19_36  and  O13_37 
REMARK   19  A    between atoms: C23_43  and  O15_44 
REMARK   20  A    between atoms: C24_46  and  O16_47 
REMARK   21  A    between atoms: C25_49  and  O17_50 
REMARK   22  A    between atoms: C27_53  and  O18_54 
REMARK   23  A    between atoms: C27_53  and  O19_56 
ROOT
HETATM    1  C7  UNL     1       8.174  29.646  26.461  1.00  0.00     0.271 C 
ENDROOT
BRANCH   1   2
HETATM    2  C6  UNL     1       7.506  28.487  27.113  1.00  0.00     0.295 C 
HETATM    3  O5  UNL     1       8.083  27.581  27.728  1.00  0.00    -0.262 OA
BRANCH   2   4
HETATM    4  O4  UNL     1       6.096  28.362  27.055  1.00  0.00    -0.293 OA
BRANCH   4   5
HETATM    5  C5  UNL     1       5.297  28.657  28.182  1.00  0.00     0.349 C 
BRANCH   5   6
HETATM    6  O3  UNL     1       4.080  29.128  27.735  1.00  0.00    -0.346 OA
BRANCH   6   7
HETATM    7  C4  UNL     1       3.989  29.406  26.401  1.00  0.00     0.278 C 
BRANCH   7   8
HETATM    8  C3  UNL     1       3.406  30.735  26.081  1.00  0.00     0.293 C 
HETATM    9  O2  UNL     1       3.758  31.298  24.987  1.00  0.00    -0.262 OA
BRANCH   8  10
HETATM   10  O1  UNL     1       2.519  31.405  26.866  1.00  0.00    -0.320 OA
BRANCH  10  11
HETATM   11  C2  UNL     1       2.278  32.768  26.685  1.00  0.00     0.174 C 
HETATM   12  C1  UNL     1       2.962  33.636  27.708  1.00  0.00     0.034 C 
ENDBRANCH  10  11
ENDBRANCH   8  10
ENDBRANCH   7   8
BRANCH   7  13
HETATM   13  C27 UNL     1       3.313  28.300  25.610  1.00  0.00     0.292 C 
BRANCH  13  14
HETATM   14  O18 UNL     1       2.290  28.816  24.804  1.00  0.00    -0.368 OA
ATOM     15  H18 UNL     1       1.546  29.085  25.330  1.00  0.00     0.212 HD
ENDBRANCH  13  14
BRANCH  13  16
HETATM   16  O19 UNL     1       4.228  27.704  24.740  1.00  0.00    -0.368 OA
ATOM     17  H19 UNL     1       4.325  26.783  24.950  1.00  0.00     0.212 HD
ENDBRANCH  13  16
ENDBRANCH   7  13
ENDBRANCH   6   7
ENDBRANCH   5   6
ENDBRANCH   4   5
ENDBRANCH   2   4
ENDBRANCH   1   2
BRANCH   1  18
HETATM   18  O6  UNL     1       7.296  30.695  26.217  1.00  0.00    -0.300 OA
BRANCH  18  19
HETATM   19  C8  UNL     1       7.225  31.847  27.026  1.00  0.00     0.265 C 
HETATM   20  O7  UNL     1       6.145  32.040  27.602  1.00  0.00    -0.265 OA
BRANCH  19  21
HETATM   21  C9  UNL     1       8.389  32.742  27.153  1.00  0.00     0.173 C 
BRANCH  21  22
HETATM   22  C10 UNL     1       9.171  32.443  28.370  1.00  0.00     0.082 A 
HETATM   23  C11 UNL     1      10.509  32.072  28.418  1.00  0.00     0.129 A 
HETATM   24  C13 UNL     1      10.861  31.869  29.757  1.00  0.00     0.136 A 
HETATM   25  C14 UNL     1       9.716  32.125  30.476  1.00  0.00     0.171 A 
HETATM   26  C15 UNL     1       9.205  32.164  31.757  1.00  0.00     0.338 A 
HETATM   27  N2  UNL     1       8.721  32.464  29.656  1.00  0.00    -0.228 N 
HETATM   28  O10 UNL     1       9.800  31.915  32.839  1.00  0.00    -0.255 OA
HETATM   29  O11 UNL     1       7.954  32.516  31.660  1.00  0.00    -0.177 OA
HETATM   30  N1  UNL     1       7.679  32.690  30.420  1.00  0.00    -0.191 N 
ATOM     31  H1  UNL     1       6.763  32.969  30.070  1.00  0.00     0.217 HD
BRANCH  23  32
HETATM   32  O8  UNL     1      11.428  31.903  27.406  1.00  0.00    -0.351 OA
HETATM   33  C12 UNL     1      12.118  32.923  26.732  1.00  0.00     0.210 C 
ENDBRANCH  23  32
BRANCH  24  34
HETATM   34  O9  UNL     1      12.084  31.493  30.253  1.00  0.00    -0.356 OA
ATOM     35  H9  UNL     1      12.779  32.057  30.572  1.00  0.00     0.218 HD
ENDBRANCH  24  34
ENDBRANCH  21  22
ENDBRANCH  19  21
ENDBRANCH  18  19
ENDBRANCH   1  18
BRANCH   1  36
HETATM   36  C16 UNL     1       8.996  29.211  25.355  1.00  0.00     0.065 C 
HETATM   37  C17 UNL     1      10.357  29.142  25.577  1.00  0.00     0.081 C 
HETATM   38  C18 UNL     1      11.369  29.228  24.621  1.00  0.00     0.074 C 
HETATM   39  C19 UNL     1      11.280  29.302  23.260  1.00  0.00     0.075 C 
HETATM   40  C20 UNL     1      10.143  29.203  22.459  1.00  0.00    -0.009 C 
HETATM   41  C21 UNL     1       8.840  29.069  22.889  1.00  0.00     0.033 C 
HETATM   42  C26 UNL     1      10.530  29.262  21.043  1.00  0.00     0.076 C 
HETATM   43  C22 UNL     1       8.387  28.854  24.161  1.00  0.00     0.193 C 
HETATM   44  C23 UNL     1       7.735  29.154  21.902  1.00  0.00     0.187 C 
HETATM   45  O14 UNL     1       7.287  28.255  24.245  1.00  0.00    -0.287 OA
HETATM   46  C24 UNL     1       8.234  28.431  20.650  1.00  0.00     0.180 C 
HETATM   47  C25 UNL     1       9.371  29.259  20.095  1.00  0.00     0.154 C 
BRANCH  37  48
HETATM   48  O12 UNL     1      10.800  28.971  26.862  1.00  0.00    -0.360 OA
ATOM     49  H12 UNL     1      11.118  29.731  27.335  1.00  0.00     0.217 HD
ENDBRANCH  37  48
BRANCH  39  50
HETATM   50  O13 UNL     1      12.490  29.502  22.594  1.00  0.00    -0.360 OA
ATOM     51  H13 UNL     1      13.268  29.267  23.086  1.00  0.00     0.217 HD
ENDBRANCH  39  50
BRANCH  44  52
HETATM   52  O15 UNL     1       7.541  30.492  21.485  1.00  0.00    -0.388 OA
ATOM     53  H15 UNL     1       8.281  31.032  21.739  1.00  0.00     0.210 HD
ENDBRANCH  44  52
BRANCH  46  54
HETATM   54  O16 UNL     1       7.198  28.300  19.738  1.00  0.00    -0.390 OA
ATOM     55  H16 UNL     1       7.238  29.004  19.101  1.00  0.00     0.210 HD
ENDBRANCH  46  54
BRANCH  47  56
HETATM   56  O17 UNL     1       9.801  28.752  18.853  1.00  0.00    -0.393 OA
ATOM     57  H17 UNL     1       9.656  27.814  18.801  1.00  0.00     0.210 HD
ENDBRANCH  47  56
ENDBRANCH   1  36
TORSDOF 23
ENDMDL
MODEL 4
REMARK VINA RESULT: -7.324805758      2.196      5.493
REMARK  23 active torsions:
REMARK  status: ('A' for Active; 'I' for Inactive)
REMARK    1  A    between atoms: C2_2  and  O1_3 
REMARK    2  A    between atoms: O1_3  and  C3_4 
REMARK    3  A    between atoms: C3_4  and  C4_6 
REMARK    4  A    between atoms: C4_6  and  O3_7 
REMARK    5  A    between atoms: C4_6  and  C27_53 
REMARK    6  A    between atoms: O3_7  and  C5_8 
REMARK    7  A    between atoms: C5_8  and  O4_9 
REMARK    8  A    between atoms: O4_9  and  C6_10 
REMARK    9  A    between atoms: C6_10  and  C7_12 
REMARK   10  A    between atoms: C7_12  and  O6_13 
REMARK   11  A    between atoms: C7_12  and  C16_31 
REMARK   12  A    between atoms: O6_13  and  C8_14 
REMARK   13  A    between atoms: C8_14  and  C9_16 
REMARK   14  A    between atoms: C9_16  and  C10_17 
REMARK   15  A    between atoms: C11_18  and  O8_19 
REMARK   16  A    between atoms: C13_21  and  O9_22 
REMARK   17  A    between atoms: C17_32  and  O12_33 
REMARK   18  A    between atoms: C19_36  and  O13_37 
REMARK   19  A    between atoms: C23_43  and  O15_44 
REMARK   20  A    between atoms: C24_46  and  O16_47 
REMARK   21  A    between atoms: C25_49  and  O17_50 
REMARK   22  A    between atoms: C27_53  and  O18_54 
REMARK   23  A    between atoms: C27_53  and  O19_56 
ROOT
HETATM    1  C7  UNL     1       8.242  29.006  26.400  1.00  0.00     0.271 C 
ENDROOT
BRANCH   1   2
HETATM    2  C6  UNL     1       9.190  29.760  25.537  1.00  0.00     0.295 C 
HETATM    3  O5  UNL     1       8.884  30.393  24.518  1.00  0.00    -0.262 OA
BRANCH   2   4
HETATM    4  O4  UNL     1      10.568  29.791  25.864  1.00  0.00    -0.293 OA
BRANCH   4   5
HETATM    5  C5  UNL     1      11.537  30.103  24.884  1.00  0.00     0.349 C 
BRANCH   5   6
HETATM    6  O3  UNL     1      12.295  31.157  25.350  1.00  0.00    -0.346 OA
BRANCH   6   7
HETATM    7  C4  UNL     1      12.921  30.972  26.549  1.00  0.00     0.278 C 
BRANCH   7   8
HETATM    8  C3  UNL     1      12.173  31.486  27.727  1.00  0.00     0.293 C 
HETATM    9  O2  UNL     1      12.077  30.730  28.755  1.00  0.00    -0.262 OA
BRANCH   8  10
HETATM   10  O1  UNL     1      11.579  32.709  27.798  1.00  0.00    -0.320 OA
BRANCH  10  11
HETATM   11  C2  UNL     1      10.196  32.849  27.676  1.00  0.00     0.174 C 
HETATM   12  C1  UNL     1       9.755  33.247  26.292  1.00  0.00     0.034 C 
ENDBRANCH  10  11
ENDBRANCH   8  10
ENDBRANCH   7   8
BRANCH   7  13
HETATM   13  C27 UNL     1      14.358  31.462  26.550  1.00  0.00     0.292 C 
BRANCH  13  14
HETATM   14  O18 UNL     1      14.561  32.416  27.556  1.00  0.00    -0.368 OA
ATOM     15  H18 UNL     1      13.964  33.149  27.453  1.00  0.00     0.212 HD
ENDBRANCH  13  14
BRANCH  13  16
HETATM   16  O19 UNL     1      15.224  30.406  26.840  1.00  0.00    -0.368 OA
ATOM     17  H19 UNL     1      15.812  30.256  26.108  1.00  0.00     0.212 HD
ENDBRANCH  13  16
ENDBRANCH   7  13
ENDBRANCH   6   7
ENDBRANCH   5   6
ENDBRANCH   4   5
ENDBRANCH   2   4
ENDBRANCH   1   2
BRANCH   1  18
HETATM   18  O6  UNL     1       7.419  28.158  25.668  1.00  0.00    -0.300 OA
BRANCH  18  19
HETATM   19  C8  UNL     1       7.897  27.028  24.975  1.00  0.00     0.265 C 
HETATM   20  O7  UNL     1       8.575  26.231  25.639  1.00  0.00    -0.265 OA
BRANCH  19  21
HETATM   21  C9  UNL     1       7.586  26.842  23.546  1.00  0.00     0.173 C 
BRANCH  21  22
HETATM   22  C10 UNL     1       8.632  27.427  22.684  1.00  0.00     0.082 A 
HETATM   23  C11 UNL     1       8.427  28.263  21.594  1.00  0.00     0.129 A 
HETATM   24  C13 UNL     1       9.673  28.584  21.045  1.00  0.00     0.136 A 
HETATM   25  C14 UNL     1      10.595  27.926  21.827  1.00  0.00     0.171 A 
HETATM   26  C15 UNL     1      11.947  27.706  21.988  1.00  0.00     0.338 A 
HETATM   27  N2  UNL     1       9.978  27.246  22.794  1.00  0.00    -0.228 N 
HETATM   28  O10 UNL     1      12.896  28.158  21.294  1.00  0.00    -0.255 OA
HETATM   29  O11 UNL     1      12.088  26.921  23.019  1.00  0.00    -0.177 OA
HETATM   30  N1  UNL     1      10.924  26.656  23.486  1.00  0.00    -0.191 N 
ATOM     31  H1  UNL     1      10.754  26.060  24.296  1.00  0.00     0.217 HD
BRANCH  23  32
HETATM   32  O8  UNL     1       7.261  28.760  21.053  1.00  0.00    -0.351 OA
HETATM   33  C12 UNL     1       6.727  28.437  19.796  1.00  0.00     0.210 C 
ENDBRANCH  23  32
BRANCH  24  34
HETATM   34  O9  UNL     1       9.930  29.382  19.958  1.00  0.00    -0.356 OA
ATOM     35  H9  UNL     1       9.372  29.530  19.203  1.00  0.00     0.218 HD
ENDBRANCH  24  34
ENDBRANCH  21  22
ENDBRANCH  19  21
ENDBRANCH  18  19
ENDBRANCH   1  18
BRANCH   1  36
HETATM   36  C16 UNL     1       7.595  29.886  27.347  1.00  0.00     0.065 C 
HETATM   37  C17 UNL     1       6.679  30.786  26.838  1.00  0.00     0.081 C 
HETATM   38  C18 UNL     1       6.296  32.003  27.403  1.00  0.00     0.074 C 
HETATM   39  C19 UNL     1       6.639  32.554  28.605  1.00  0.00     0.075 C 
HETATM   40  C20 UNL     1       7.387  31.988  29.637  1.00  0.00    -0.009 C 
HETATM   41  C21 UNL     1       7.999  30.752  29.630  1.00  0.00     0.033 C 
HETATM   42  C26 UNL     1       7.439  32.915  30.775  1.00  0.00     0.076 C 
HETATM   43  C22 UNL     1       7.888  29.759  28.696  1.00  0.00     0.193 C 
HETATM   44  C23 UNL     1       8.901  30.380  30.747  1.00  0.00     0.187 C 
HETATM   45  O14 UNL     1       8.074  28.595  29.127  1.00  0.00    -0.287 OA
HETATM   46  C24 UNL     1       8.250  30.935  32.015  1.00  0.00     0.180 C 
HETATM   47  C25 UNL     1       8.300  32.442  31.905  1.00  0.00     0.154 C 
BRANCH  37  48
HETATM   48  O12 UNL     1       6.059  30.487  25.654  1.00  0.00    -0.360 OA
ATOM     49  H12 UNL     1       5.110  30.458  25.635  1.00  0.00     0.217 HD
ENDBRANCH  37  48
BRANCH  39  50
HETATM   50  O13 UNL     1       6.176  33.853  28.818  1.00  0.00    -0.360 OA
ATOM     51  H13 UNL     1       5.295  34.026  28.505  1.00  0.00     0.217 HD
ENDBRANCH  39  50
BRANCH  44  52
HETATM   52  O15 UNL     1      10.130  31.075  30.647  1.00  0.00    -0.388 OA
ATOM     53  H15 UNL     1      10.210  31.716  31.344  1.00  0.00     0.210 HD
ENDBRANCH  44  52
BRANCH  46  54
HETATM   54  O16 UNL     1       8.931  30.477  33.133  1.00  0.00    -0.390 OA
ATOM     55  H16 UNL     1       8.521  29.684  33.457  1.00  0.00     0.210 HD
ENDBRANCH  46  54
BRANCH  47  56
HETATM   56  O17 UNL     1       7.857  33.048  33.098  1.00  0.00    -0.393 OA
ATOM     57  H17 UNL     1       8.535  33.021  33.763  1.00  0.00     0.210 HD
ENDBRANCH  47  56
ENDBRANCH   1  36
TORSDOF 23
ENDMDL
MODEL 5
REMARK VINA RESULT: -7.289472330      1.956      7.907
REMARK  23 active torsions:
REMARK  status: ('A' for Active; 'I' for Inactive)
REMARK    1  A    between atoms: C2_2  and  O1_3 
REMARK    2  A    between atoms: O1_3  and  C3_4 
REMARK    3  A    between atoms: C3_4  and  C4_6 
REMARK    4  A    between atoms: C4_6  and  O3_7 
REMARK    5  A    between atoms: C4_6  and  C27_53 
REMARK    6  A    between atoms: O3_7  and  C5_8 
REMARK    7  A    between atoms: C5_8  and  O4_9 
REMARK    8  A    between atoms: O4_9  and  C6_10 
REMARK    9  A    between atoms: C6_10  and  C7_12 
REMARK   10  A    between atoms: C7_12  and  O6_13 
REMARK   11  A    between atoms: C7_12  and  C16_31 
REMARK   12  A    between atoms: O6_13  and  C8_14 
REMARK   13  A    between atoms: C8_14  and  C9_16 
REMARK   14  A    between atoms: C9_16  and  C10_17 
REMARK   15  A    between atoms: C11_18  and  O8_19 
REMARK   16  A    between atoms: C13_21  and  O9_22 
REMARK   17  A    between atoms: C17_32  and  O12_33 
REMARK   18  A    between atoms: C19_36  and  O13_37 
REMARK   19  A    between atoms: C23_43  and  O15_44 
REMARK   20  A    between atoms: C24_46  and  O16_47 
REMARK   21  A    between atoms: C25_49  and  O17_50 
REMARK   22  A    between atoms: C27_53  and  O18_54 
REMARK   23  A    between atoms: C27_53  and  O19_56 
ROOT
HETATM    1  C7  UNL     1       7.965  30.070  26.320  1.00  0.00     0.271 C 
ENDROOT
BRANCH   1   2
HETATM    2  C6  UNL     1       8.480  31.432  26.624  1.00  0.00     0.295 C 
HETATM    3  O5  UNL     1       9.292  32.062  25.932  1.00  0.00    -0.262 OA
BRANCH   2   4
HETATM    4  O4  UNL     1       8.038  32.109  27.786  1.00  0.00    -0.293 OA
BRANCH   4   5
HETATM    5  C5  UNL     1       8.875  32.222  28.920  1.00  0.00     0.349 C 
BRANCH   5   6
HETATM    6  O3  UNL     1       8.251  31.596  29.979  1.00  0.00    -0.346 OA
BRANCH   6   7
HETATM    7  C4  UNL     1       8.655  31.968  31.228  1.00  0.00     0.278 C 
BRANCH   7   8
HETATM    8  C3  UNL     1       8.974  30.839  32.141  1.00  0.00     0.293 C 
HETATM    9  O2  UNL     1       8.005  30.260  32.743  1.00  0.00    -0.262 OA
BRANCH   8  10
HETATM   10  O1  UNL     1      10.228  30.368  32.388  1.00  0.00    -0.320 OA
BRANCH  10  11
HETATM   11  C2  UNL     1      11.153  30.201  31.356  1.00  0.00     0.174 C 
HETATM   12  C1  UNL     1      10.820  29.058  30.434  1.00  0.00     0.034 C 
ENDBRANCH  10  11
ENDBRANCH   8  10
ENDBRANCH   7   8
BRANCH   7  13
HETATM   13  C27 UNL     1       7.713  32.960  31.886  1.00  0.00     0.292 C 
BRANCH  13  14
HETATM   14  O18 UNL     1       6.377  32.591  31.684  1.00  0.00    -0.368 OA
ATOM     15  H18 UNL     1       5.796  33.103  32.236  1.00  0.00     0.212 HD
ENDBRANCH  13  14
BRANCH  13  16
HETATM   16  O19 UNL     1       7.909  32.965  33.268  1.00  0.00    -0.368 OA
ATOM     17  H19 UNL     1       7.087  32.800  33.715  1.00  0.00     0.212 HD
ENDBRANCH  13  16
ENDBRANCH   7  13
ENDBRANCH   6   7
ENDBRANCH   5   6
ENDBRANCH   4   5
ENDBRANCH   2   4
ENDBRANCH   1   2
BRANCH   1  18
HETATM   18  O6  UNL     1       7.739  29.320  27.468  1.00  0.00    -0.300 OA
BRANCH  18  19
HETATM   19  C8  UNL     1       6.936  28.163  27.489  1.00  0.00     0.265 C 
HETATM   20  O7  UNL     1       7.499  27.107  27.165  1.00  0.00    -0.265 OA
BRANCH  19  21
HETATM   21  C9  UNL     1       5.517  28.245  27.878  1.00  0.00     0.173 C 
BRANCH  21  22
HETATM   22  C10 UNL     1       4.901  29.503  27.411  1.00  0.00     0.082 A 
HETATM   23  C11 UNL     1       4.229  29.695  26.210  1.00  0.00     0.129 A 
HETATM   24  C13 UNL     1       3.812  31.029  26.148  1.00  0.00     0.136 A 
HETATM   25  C14 UNL     1       4.249  31.602  27.320  1.00  0.00     0.171 A 
HETATM   26  C15 UNL     1       4.269  32.785  28.028  1.00  0.00     0.338 A 
HETATM   27  N2  UNL     1       4.890  30.699  28.064  1.00  0.00    -0.228 N 
HETATM   28  O10 UNL     1       3.778  33.897  27.697  1.00  0.00    -0.255 OA
HETATM   29  O11 UNL     1       4.906  32.555  29.142  1.00  0.00    -0.177 OA
HETATM   30  N1  UNL     1       5.267  31.326  29.153  1.00  0.00    -0.191 N 
ATOM     31  H1  UNL     1       5.784  30.888  29.915  1.00  0.00     0.217 HD
BRANCH  23  32
HETATM   32  O8  UNL     1       3.956  28.814  25.187  1.00  0.00    -0.351 OA
HETATM   33  C12 UNL     1       2.929  27.858  25.166  1.00  0.00     0.210 C 
ENDBRANCH  23  32
BRANCH  24  34
HETATM   34  O9  UNL     1       3.117  31.643  25.135  1.00  0.00    -0.356 OA
ATOM     35  H9  UNL     1       3.449  32.262  24.497  1.00  0.00     0.218 HD
ENDBRANCH  24  34
ENDBRANCH  21  22
ENDBRANCH  19  21
ENDBRANCH  18  19
ENDBRANCH   1  18
BRANCH   1  36
HETATM   36  C16 UNL     1       8.745  29.445  25.275  1.00  0.00     0.065 C 
HETATM   37  C17 UNL     1      10.027  29.048  25.604  1.00  0.00     0.081 C 
HETATM   38  C18 UNL     1      11.104  28.883  24.733  1.00  0.00     0.074 C 
HETATM   39  C19 UNL     1      11.145  28.971  23.371  1.00  0.00     0.075 C 
HETATM   40  C20 UNL     1      10.087  29.149  22.480  1.00  0.00    -0.009 C 
HETATM   41  C21 UNL     1       8.760  29.336  22.803  1.00  0.00     0.033 C 
HETATM   42  C26 UNL     1      10.590  29.106  21.101  1.00  0.00     0.076 C 
HETATM   43  C22 UNL     1       8.167  29.241  24.032  1.00  0.00     0.193 C 
HETATM   44  C23 UNL     1       7.792  29.682  21.733  1.00  0.00     0.187 C 
HETATM   45  O14 UNL     1       6.951  28.927  24.018  1.00  0.00    -0.287 OA
HETATM   46  C24 UNL     1       8.201  28.856  20.513  1.00  0.00     0.180 C 
HETATM   47  C25 UNL     1       9.546  29.381  20.064  1.00  0.00     0.154 C 
BRANCH  37  48
HETATM   48  O12 UNL     1      10.309  28.780  26.917  1.00  0.00    -0.360 OA
ATOM     49  H12 UNL     1      10.647  27.920  27.140  1.00  0.00     0.217 HD
ENDBRANCH  37  48
BRANCH  39  50
HETATM   50  O13 UNL     1      12.417  28.870  22.806  1.00  0.00    -0.360 OA
ATOM     51  H13 UNL     1      12.517  28.190  22.150  1.00  0.00     0.217 HD
ENDBRANCH  39  50
BRANCH  44  52
HETATM   52  O15 UNL     1       7.962  31.026  21.323  1.00  0.00    -0.388 OA
ATOM     53  H15 UNL     1       7.399  31.603  21.827  1.00  0.00     0.210 HD
ENDBRANCH  44  52
BRANCH  46  54
HETATM   54  O16 UNL     1       7.241  28.976  19.519  1.00  0.00    -0.390 OA
ATOM     55  H16 UNL     1       7.059  28.124  19.141  1.00  0.00     0.210 HD
ENDBRANCH  46  54
BRANCH  47  56
HETATM   56  O17 UNL     1       9.940  28.780  18.851  1.00  0.00    -0.393 OA
ATOM     57  H17 UNL     1      10.575  29.321  18.396  1.00  0.00     0.210 HD
ENDBRANCH  47  56
ENDBRANCH   1  36
TORSDOF 23
ENDMDL
