MODEL 1
REMARK VINA RESULT: -8.614831258      0.000      0.000
REMARK  21 active torsions:
REMARK  status: ('A' for Active; 'I' for Inactive)
REMARK    1  A    between atoms: C3_3  and  C4_4 
REMARK    2  A    between atoms: C4_4  and  O2_6 
REMARK    3  A    between atoms: O2_6  and  C5_7 
REMARK    4  A    between atoms: C5_7  and  O3_8 
REMARK    5  A    between atoms: C7_12  and  O5_13 
REMARK    6  A    between atoms: C8_15  and  O6_16 
REMARK    7  A    between atoms: O6_16  and  C9_17 
REMARK    8  A    between atoms: C10_18  and  C11_19 
REMARK    9  A    between atoms: C11_19  and  C12_20 
REMARK   10  A    between atoms: C12_20  and  C13_21 
REMARK   11  A    between atoms: C13_21  and  O7_22 
REMARK   12  A    between atoms: O7_22  and  C14_23 
REMARK   13  A    between atoms: C15_27  and  O8_28 
REMARK   14  A    between atoms: C16_30  and  C17_31 
REMARK   15  A    between atoms: C17_31  and  O9_32 
REMARK   16  A    between atoms: C18_35  and  O11_36 
REMARK   17  A    between atoms: C20_39  and  O12_40 
REMARK   18  A    between atoms: C21_42  and  O13_43 
REMARK   19  A    between atoms: C24_51  and  O17_52 
REMARK   20  A    between atoms: C25_54  and  O18_55 
REMARK   21  A    between atoms: O18_55  and  C26_56 
ROOT
HETATM    1  C9  UNL     1       9.400  29.573  25.179  1.00  0.00     0.153 A 
HETATM    2  C10 UNL     1      10.737  29.207  24.946  1.00  0.00     0.017 A 
HETATM    3  C18 UNL     1      11.112  28.935  23.664  1.00  0.00     0.105 A 
HETATM    4  C19 UNL     1      10.196  29.017  22.591  1.00  0.00     0.119 A 
HETATM    5  C20 UNL     1      10.617  28.736  21.310  1.00  0.00     0.155 A 
HETATM    6  C21 UNL     1       9.702  28.825  20.297  1.00  0.00     0.224 A 
HETATM    7  O14 UNL     1       8.467  29.173  20.575  1.00  0.00    -0.234 OA
HETATM    8  C22 UNL     1       8.095  29.436  21.816  1.00  0.00     0.382 A 
HETATM    9  O15 UNL     1       6.893  29.761  21.986  1.00  0.00    -0.237 OA
HETATM   10  N2  UNL     1       8.936  29.371  22.872  1.00  0.00    -0.216 N 
HETATM   11  C23 UNL     1       8.522  29.647  24.122  1.00  0.00     0.291 A 
HETATM   12  O16 UNL     1       7.311  29.974  24.287  1.00  0.00    -0.264 OA
ENDROOT
BRANCH   1  13
HETATM   13  O6  UNL     1       9.031  29.844  26.470  1.00  0.00    -0.303 OA
BRANCH  13  14
HETATM   14  C8  UNL     1       7.796  30.272  26.921  1.00  0.00     0.122 C 
HETATM   15  C7  UNL     1       7.602  31.576  27.022  1.00  0.00     0.150 C 
HETATM   16  C6  UNL     1       6.328  32.090  27.489  1.00  0.00     0.249 C 
HETATM   17  C5  UNL     1       5.127  31.272  27.197  1.00  0.00     0.269 C 
HETATM   18  O4  UNL     1       6.308  33.188  28.111  1.00  0.00    -0.284 OA
HETATM   19  C25 UNL     1       5.439  29.876  27.700  1.00  0.00     0.238 C 
HETATM   20  C24 UNL     1       6.747  29.328  27.274  1.00  0.00     0.213 C 
BRANCH  15  21
HETATM   21  O5  UNL     1       8.614  32.489  26.682  1.00  0.00    -0.355 OA
ATOM     22  H5  UNL     1       9.519  32.250  26.849  1.00  0.00     0.218 HD
ENDBRANCH  15  21
BRANCH  17  23
HETATM   23  O2  UNL     1       3.988  31.716  27.864  1.00  0.00    -0.269 OA
BRANCH  23  24
HETATM   24  C4  UNL     1       2.937  32.425  27.337  1.00  0.00     0.285 C 
HETATM   25  O1  UNL     1       2.096  31.780  26.676  1.00  0.00    -0.260 OA
BRANCH  24  26
HETATM   26  C3  UNL     1       2.861  33.859  27.570  1.00  0.00     0.078 C 
HETATM   27  C2  UNL     1       1.745  34.521  27.720  1.00  0.00    -0.025 C 
HETATM   28  C1  UNL     1       0.436  33.838  27.660  1.00  0.00     0.036 C 
ENDBRANCH  24  26
ENDBRANCH  23  24
ENDBRANCH  17  23
BRANCH  17  29
HETATM   29  O3  UNL     1       4.939  31.166  25.818  1.00  0.00    -0.357 OA
ATOM     30  H3  UNL     1       4.815  30.268  25.531  1.00  0.00     0.213 HD
ENDBRANCH  17  29
BRANCH  19  31
HETATM   31  O18 UNL     1       4.344  29.060  27.252  1.00  0.00    -0.307 OA
BRANCH  31  32
HETATM   32  C26 UNL     1       4.006  27.900  27.920  1.00  0.00     0.255 C 
HETATM   33  C27 UNL     1       3.075  26.887  27.354  1.00  0.00     0.126 C 
HETATM   34  O19 UNL     1       4.512  27.706  29.050  1.00  0.00    -0.266 OA
ENDBRANCH  31  32
ENDBRANCH  19  31
BRANCH  20  35
HETATM   35  O17 UNL     1       7.231  28.514  28.332  1.00  0.00    -0.386 OA
ATOM     36  H17 UNL     1       6.699  28.690  29.100  1.00  0.00     0.210 HD
ENDBRANCH  20  35
ENDBRANCH  13  14
ENDBRANCH   1  13
BRANCH   2  37
HETATM   37  C11 UNL     1      11.686  29.131  26.081  1.00  0.00     0.046 C 
BRANCH  37  38
HETATM   38  C12 UNL     1      12.460  30.443  26.089  1.00  0.00     0.031 C 
BRANCH  38  39
HETATM   39  C13 UNL     1      12.450  31.107  27.424  1.00  0.00     0.173 C 
BRANCH  39  40
HETATM   40  O7  UNL     1      11.431  31.998  27.653  1.00  0.00    -0.339 OA
BRANCH  40  41
HETATM   41  C14 UNL     1      11.283  32.402  28.959  1.00  0.00     0.472 C 
HETATM   42  N1  UNL     1      11.794  31.413  29.855  1.00  0.00     0.004 N 
HETATM   43  C15 UNL     1      10.674  30.932  30.647  1.00  0.00     0.355 C 
ATOM     44  H12 UNL     1      12.297  30.665  29.379  1.00  0.00     0.286 HD
ATOM     45  H11 UNL     1      12.570  31.752  30.424  1.00  0.00     0.286 HD
HETATM   46  C16 UNL     1       9.752  32.148  30.568  1.00  0.00     0.206 C 
HETATM   47  O10 UNL     1       9.893  32.507  29.250  1.00  0.00    -0.327 OA
BRANCH  43  48
HETATM   48  O8  UNL     1      11.004  30.668  31.958  1.00  0.00    -0.368 OA
ATOM     49  H8  UNL     1      10.257  30.678  32.545  1.00  0.00     0.212 HD
ENDBRANCH  43  48
BRANCH  46  50
HETATM   50  C17 UNL     1       8.348  31.672  30.881  1.00  0.00     0.200 C 
BRANCH  50  51
HETATM   51  O9  UNL     1       8.161  30.345  30.552  1.00  0.00    -0.398 OA
ATOM     52  H9  UNL     1       7.608  29.895  31.178  1.00  0.00     0.209 HD
ENDBRANCH  50  51
ENDBRANCH  46  50
ENDBRANCH  40  41
ENDBRANCH  39  40
ENDBRANCH  38  39
ENDBRANCH  37  38
ENDBRANCH   2  37
BRANCH   3  53
HETATM   53  O11 UNL     1      12.395  28.569  23.335  1.00  0.00    -0.358 OA
ATOM     54  H11 UNL     1      13.150  29.101  23.559  1.00  0.00     0.217 HD
ENDBRANCH   3  53
BRANCH   5  55
HETATM   55  O12 UNL     1      11.915  28.373  21.041  1.00  0.00    -0.354 OA
ATOM     56  H12 UNL     1      12.314  28.541  20.196  1.00  0.00     0.218 HD
ENDBRANCH   5  55
BRANCH   6  57
HETATM   57  O13 UNL     1      10.095  28.550  19.004  1.00  0.00    -0.338 OA
ATOM     58  H13 UNL     1      10.557  29.215  18.506  1.00  0.00     0.220 HD
ENDBRANCH   6  57
TORSDOF 21
ENDMDL
MODEL 2
REMARK VINA RESULT: -8.405003421      2.091      2.647
REMARK  21 active torsions:
REMARK  status: ('A' for Active; 'I' for Inactive)
REMARK    1  A    between atoms: C3_3  and  C4_4 
REMARK    2  A    between atoms: C4_4  and  O2_6 
REMARK    3  A    between atoms: O2_6  and  C5_7 
REMARK    4  A    between atoms: C5_7  and  O3_8 
REMARK    5  A    between atoms: C7_12  and  O5_13 
REMARK    6  A    between atoms: C8_15  and  O6_16 
REMARK    7  A    between atoms: O6_16  and  C9_17 
REMARK    8  A    between atoms: C10_18  and  C11_19 
REMARK    9  A    between atoms: C11_19  and  C12_20 
REMARK   10  A    between atoms: C12_20  and  C13_21 
REMARK   11  A    between atoms: C13_21  and  O7_22 
REMARK   12  A    between atoms: O7_22  and  C14_23 
REMARK   13  A    between atoms: C15_27  and  O8_28 
REMARK   14  A    between atoms: C16_30  and  C17_31 
REMARK   15  A    between atoms: C17_31  and  O9_32 
REMARK   16  A    between atoms: C18_35  and  O11_36 
REMARK   17  A    between atoms: C20_39  and  O12_40 
REMARK   18  A    between atoms: C21_42  and  O13_43 
REMARK   19  A    between atoms: C24_51  and  O17_52 
REMARK   20  A    between atoms: C25_54  and  O18_55 
REMARK   21  A    between atoms: O18_55  and  C26_56 
ROOT
HETATM    1  C9  UNL     1       9.010  29.295  26.316  1.00  0.00     0.153 A 
HETATM    2  C10 UNL     1       9.942  30.157  25.713  1.00  0.00     0.017 A 
HETATM    3  C18 UNL     1      10.748  29.649  24.739  1.00  0.00     0.105 A 
HETATM    4  C19 UNL     1      10.659  28.298  24.334  1.00  0.00     0.119 A 
HETATM    5  C20 UNL     1      11.492  27.825  23.345  1.00  0.00     0.155 A 
HETATM    6  C21 UNL     1      11.378  26.512  22.980  1.00  0.00     0.224 A 
HETATM    7  O14 UNL     1      10.487  25.753  23.578  1.00  0.00    -0.234 OA
HETATM    8  C22 UNL     1       9.704  26.238  24.525  1.00  0.00     0.382 A 
HETATM    9  O15 UNL     1       8.882  25.438  25.040  1.00  0.00    -0.237 OA
HETATM   10  N2  UNL     1       9.754  27.523  24.943  1.00  0.00    -0.216 N 
HETATM   11  C23 UNL     1       8.938  27.982  25.910  1.00  0.00     0.291 A 
HETATM   12  O16 UNL     1       8.113  27.173  26.425  1.00  0.00    -0.264 OA
ENDROOT
BRANCH   1  13
HETATM   13  O6  UNL     1       8.204  29.814  27.294  1.00  0.00    -0.303 OA
BRANCH  13  14
HETATM   14  C8  UNL     1       6.843  30.049  27.229  1.00  0.00     0.122 C 
HETATM   15  C7  UNL     1       6.441  31.308  27.247  1.00  0.00     0.150 C 
HETATM   16  C6  UNL     1       5.026  31.624  27.181  1.00  0.00     0.249 C 
HETATM   17  C5  UNL     1       4.161  30.673  26.442  1.00  0.00     0.269 C 
HETATM   18  O4  UNL     1       4.610  32.671  27.747  1.00  0.00    -0.284 OA
HETATM   19  C25 UNL     1       4.451  29.303  27.024  1.00  0.00     0.238 C 
HETATM   20  C24 UNL     1       5.886  28.957  27.142  1.00  0.00     0.213 C 
BRANCH  15  21
HETATM   21  O5  UNL     1       7.364  32.365  27.331  1.00  0.00    -0.355 OA
ATOM     22  H5  UNL     1       7.523  32.764  28.178  1.00  0.00     0.218 HD
ENDBRANCH  15  21
BRANCH  17  23
HETATM   23  O2  UNL     1       2.802  30.924  26.612  1.00  0.00    -0.269 OA
BRANCH  23  24
HETATM   24  C4  UNL     1       1.908  31.347  25.660  1.00  0.00     0.285 C 
HETATM   25  O1  UNL     1       2.315  32.199  24.842  1.00  0.00    -0.260 OA
BRANCH  24  26
HETATM   26  C3  UNL     1       0.562  30.794  25.654  1.00  0.00     0.078 C 
HETATM   27  C2  UNL     1      -0.470  31.369  26.209  1.00  0.00    -0.025 C 
HETATM   28  C1  UNL     1      -0.343  32.665  26.906  1.00  0.00     0.036 C 
ENDBRANCH  24  26
ENDBRANCH  23  24
ENDBRANCH  17  23
BRANCH  17  29
HETATM   29  O3  UNL     1       4.538  30.622  25.098  1.00  0.00    -0.357 OA
ATOM     30  H3  UNL     1       5.227  29.989  24.932  1.00  0.00     0.213 HD
ENDBRANCH  17  29
BRANCH  19  31
HETATM   31  O18 UNL     1       3.744  28.378  26.183  1.00  0.00    -0.307 OA
BRANCH  31  32
HETATM   32  C26 UNL     1       2.871  27.454  26.724  1.00  0.00     0.255 C 
HETATM   33  C27 UNL     1       1.611  27.044  26.047  1.00  0.00     0.126 C 
HETATM   34  O19 UNL     1       3.167  26.948  27.831  1.00  0.00    -0.266 OA
ENDBRANCH  31  32
ENDBRANCH  19  31
BRANCH  20  35
HETATM   35  O17 UNL     1       6.035  28.155  28.303  1.00  0.00    -0.386 OA
ATOM     36  H17 UNL     1       5.972  27.244  28.039  1.00  0.00     0.210 HD
ENDBRANCH  20  35
ENDBRANCH  13  14
ENDBRANCH   1  13
BRANCH   2  37
HETATM   37  C11 UNL     1      10.018  31.573  26.145  1.00  0.00     0.046 C 
BRANCH  37  38
HETATM   38  C12 UNL     1      11.165  31.662  27.142  1.00  0.00     0.031 C 
BRANCH  38  39
HETATM   39  C13 UNL     1      10.908  32.657  28.224  1.00  0.00     0.173 C 
BRANCH  39  40
HETATM   40  O7  UNL     1       9.706  32.547  28.878  1.00  0.00    -0.339 OA
BRANCH  40  41
HETATM   41  C14 UNL     1       9.708  31.729  29.984  1.00  0.00     0.472 C 
HETATM   42  N1  UNL     1       8.410  31.171  30.200  1.00  0.00     0.004 N 
HETATM   43  C15 UNL     1       7.937  31.671  31.481  1.00  0.00     0.355 C 
ATOM     44  H12 UNL     1       7.762  31.357  29.435  1.00  0.00     0.286 HD
ATOM     45  H11 UNL     1       8.397  30.153  30.139  1.00  0.00     0.286 HD
HETATM   46  C16 UNL     1       9.273  31.955  32.165  1.00  0.00     0.206 C 
HETATM   47  O10 UNL     1       9.988  32.518  31.136  1.00  0.00    -0.327 OA
BRANCH  43  48
HETATM   48  O8  UNL     1       7.220  30.739  32.201  1.00  0.00    -0.368 OA
ATOM     49  H8  UNL     1       6.921  31.063  33.042  1.00  0.00     0.212 HD
ENDBRANCH  43  48
BRANCH  46  50
HETATM   50  C17 UNL     1       9.009  32.943  33.281  1.00  0.00     0.200 C 
BRANCH  50  51
HETATM   51  O9  UNL     1       7.664  33.074  33.555  1.00  0.00    -0.398 OA
ATOM     52  H9  UNL     1       7.273  32.255  33.834  1.00  0.00     0.209 HD
ENDBRANCH  50  51
ENDBRANCH  46  50
ENDBRANCH  40  41
ENDBRANCH  39  40
ENDBRANCH  38  39
ENDBRANCH  37  38
ENDBRANCH   2  37
BRANCH   3  53
HETATM   53  O11 UNL     1      11.690  30.412  24.091  1.00  0.00    -0.358 OA
ATOM     54  H11 UNL     1      12.561  30.087  23.895  1.00  0.00     0.217 HD
ENDBRANCH   3  53
BRANCH   5  55
HETATM   55  O12 UNL     1      12.416  28.636  22.732  1.00  0.00    -0.354 OA
ATOM     56  H12 UNL     1      12.532  28.636  21.789  1.00  0.00     0.218 HD
ENDBRANCH   5  55
BRANCH   6  57
HETATM   57  O13 UNL     1      12.197  26.010  21.991  1.00  0.00    -0.338 OA
ATOM     58  H13 UNL     1      12.695  25.217  22.155  1.00  0.00     0.220 HD
ENDBRANCH   6  57
TORSDOF 21
ENDMDL
MODEL 3
REMARK VINA RESULT: -8.301242496      1.263      1.431
REMARK  21 active torsions:
REMARK  status: ('A' for Active; 'I' for Inactive)
REMARK    1  A    between atoms: C3_3  and  C4_4 
REMARK    2  A    between atoms: C4_4  and  O2_6 
REMARK    3  A    between atoms: O2_6  and  C5_7 
REMARK    4  A    between atoms: C5_7  and  O3_8 
REMARK    5  A    between atoms: C7_12  and  O5_13 
REMARK    6  A    between atoms: C8_15  and  O6_16 
REMARK    7  A    between atoms: O6_16  and  C9_17 
REMARK    8  A    between atoms: C10_18  and  C11_19 
REMARK    9  A    between atoms: C11_19  and  C12_20 
REMARK   10  A    between atoms: C12_20  and  C13_21 
REMARK   11  A    between atoms: C13_21  and  O7_22 
REMARK   12  A    between atoms: O7_22  and  C14_23 
REMARK   13  A    between atoms: C15_27  and  O8_28 
REMARK   14  A    between atoms: C16_30  and  C17_31 
REMARK   15  A    between atoms: C17_31  and  O9_32 
REMARK   16  A    between atoms: C18_35  and  O11_36 
REMARK   17  A    between atoms: C20_39  and  O12_40 
REMARK   18  A    between atoms: C21_42  and  O13_43 
REMARK   19  A    between atoms: C24_51  and  O17_52 
REMARK   20  A    between atoms: C25_54  and  O18_55 
REMARK   21  A    between atoms: O18_55  and  C26_56 
ROOT
HETATM    1  C9  UNL     1       8.543  29.195  25.026  1.00  0.00     0.153 A 
HETATM    2  C10 UNL     1       9.888  28.788  25.031  1.00  0.00     0.017 A 
HETATM    3  C18 UNL     1      10.509  28.615  23.830  1.00  0.00     0.105 A 
HETATM    4  C19 UNL     1       9.834  28.838  22.608  1.00  0.00     0.119 A 
HETATM    5  C20 UNL     1      10.498  28.654  21.417  1.00  0.00     0.155 A 
HETATM    6  C21 UNL     1       9.813  28.878  20.255  1.00  0.00     0.224 A 
HETATM    7  O14 UNL     1       8.557  29.258  20.312  1.00  0.00    -0.234 OA
HETATM    8  C22 UNL     1       7.948  29.426  21.473  1.00  0.00     0.382 A 
HETATM    9  O15 UNL     1       6.746  29.791  21.430  1.00  0.00    -0.237 OA
HETATM   10  N2  UNL     1       8.554  29.225  22.664  1.00  0.00    -0.216 N 
HETATM   11  C23 UNL     1       7.901  29.406  23.827  1.00  0.00     0.291 A 
HETATM   12  O16 UNL     1       6.692  29.775  23.778  1.00  0.00    -0.264 OA
ENDROOT
BRANCH   1  13
HETATM   13  O6  UNL     1       7.926  29.366  26.237  1.00  0.00    -0.303 OA
BRANCH  13  14
HETATM   14  C8  UNL     1       6.612  29.729  26.471  1.00  0.00     0.122 C 
HETATM   15  C7  UNL     1       6.368  31.002  26.728  1.00  0.00     0.150 C 
HETATM   16  C6  UNL     1       5.011  31.449  26.982  1.00  0.00     0.249 C 
HETATM   17  C5  UNL     1       3.922  30.698  26.312  1.00  0.00     0.269 C 
HETATM   18  O4  UNL     1       4.829  32.435  27.747  1.00  0.00    -0.284 OA
HETATM   19  C25 UNL     1       4.153  29.238  26.647  1.00  0.00     0.238 C 
HETATM   20  C24 UNL     1       5.536  28.751  26.435  1.00  0.00     0.213 C 
BRANCH  15  21
HETATM   21  O5  UNL     1       7.407  31.948  26.763  1.00  0.00    -0.355 OA
ATOM     22  H5  UNL     1       8.298  31.643  26.885  1.00  0.00     0.218 HD
ENDBRANCH  15  21
BRANCH  17  23
HETATM   23  O2  UNL     1       2.655  31.042  26.776  1.00  0.00    -0.269 OA
BRANCH  23  24
HETATM   24  C4  UNL     1       1.663  31.694  26.085  1.00  0.00     0.285 C 
HETATM   25  O1  UNL     1       1.618  31.506  24.852  1.00  0.00    -0.260 OA
BRANCH  24  26
HETATM   26  C3  UNL     1       0.739  32.552  26.811  1.00  0.00     0.078 C 
HETATM   27  C2  UNL     1       0.971  33.804  27.099  1.00  0.00    -0.025 C 
HETATM   28  C1  UNL     1       2.230  34.461  26.696  1.00  0.00     0.036 C 
ENDBRANCH  24  26
ENDBRANCH  23  24
ENDBRANCH  17  23
BRANCH  17  29
HETATM   29  O3  UNL     1       4.039  30.812  24.925  1.00  0.00    -0.357 OA
ATOM     30  H3  UNL     1       4.777  31.349  24.661  1.00  0.00     0.213 HD
ENDBRANCH  17  29
BRANCH  19  31
HETATM   31  O18 UNL     1       3.202  28.513  25.851  1.00  0.00    -0.307 OA
BRANCH  31  32
HETATM   32  C26 UNL     1       2.475  27.470  26.390  1.00  0.00     0.255 C 
HETATM   33  C27 UNL     1       1.248  26.927  25.748  1.00  0.00     0.126 C 
HETATM   34  O19 UNL     1       2.877  26.971  27.467  1.00  0.00    -0.266 OA
ENDBRANCH  31  32
ENDBRANCH  19  31
BRANCH  20  35
HETATM   35  O17 UNL     1       5.800  27.777  27.433  1.00  0.00    -0.386 OA
ATOM     36  H17 UNL     1       4.985  27.597  27.888  1.00  0.00     0.210 HD
ENDBRANCH  20  35
ENDBRANCH  13  14
ENDBRANCH   1  13
BRANCH   2  37
HETATM   37  C11 UNL     1      10.582  28.565  26.320  1.00  0.00     0.046 C 
BRANCH  37  38
HETATM   38  C12 UNL     1      11.352  29.842  26.626  1.00  0.00     0.031 C 
BRANCH  38  39
HETATM   39  C13 UNL     1      10.995  30.424  27.953  1.00  0.00     0.173 C 
BRANCH  39  40
HETATM   40  O7  UNL     1       9.998  31.368  27.955  1.00  0.00    -0.339 OA
BRANCH  40  41
HETATM   41  C14 UNL     1       9.968  32.193  29.055  1.00  0.00     0.472 C 
HETATM   42  N1  UNL     1      10.628  31.579  30.164  1.00  0.00     0.004 N 
HETATM   43  C15 UNL     1       9.628  31.380  31.200  1.00  0.00     0.355 C 
ATOM     44  H12 UNL     1      11.118  30.721  29.913  1.00  0.00     0.286 HD
ATOM     45  H11 UNL     1      11.440  32.105  30.487  1.00  0.00     0.286 HD
HETATM   46  C16 UNL     1       8.636  32.480  30.826  1.00  0.00     0.206 C 
HETATM   47  O10 UNL     1       8.614  32.368  29.458  1.00  0.00    -0.327 OA
BRANCH  43  48
HETATM   48  O8  UNL     1      10.112  31.586  32.474  1.00  0.00    -0.368 OA
ATOM     49  H8  UNL     1       9.431  31.762  33.113  1.00  0.00     0.212 HD
ENDBRANCH  43  48
BRANCH  46  50
HETATM   50  C17 UNL     1       7.303  32.117  31.448  1.00  0.00     0.200 C 
BRANCH  50  51
HETATM   51  O9  UNL     1       7.317  30.861  32.017  1.00  0.00    -0.398 OA
ATOM     52  H9  UNL     1       6.959  30.200  31.436  1.00  0.00     0.209 HD
ENDBRANCH  50  51
ENDBRANCH  46  50
ENDBRANCH  40  41
ENDBRANCH  39  40
ENDBRANCH  38  39
ENDBRANCH  37  38
ENDBRANCH   2  37
BRANCH   3  53
HETATM   53  O11 UNL     1      11.820  28.219  23.730  1.00  0.00    -0.358 OA
ATOM     54  H11 UNL     1      12.097  27.512  23.159  1.00  0.00     0.217 HD
ENDBRANCH   3  53
BRANCH   5  55
HETATM   55  O12 UNL     1      11.813  28.255  21.379  1.00  0.00    -0.354 OA
ATOM     56  H12 UNL     1      12.132  27.653  20.717  1.00  0.00     0.218 HD
ENDBRANCH   5  55
BRANCH   6  57
HETATM   57  O13 UNL     1      10.453  28.702  19.046  1.00  0.00    -0.338 OA
ATOM     58  H13 UNL     1      10.046  29.026  18.251  1.00  0.00     0.220 HD
ENDBRANCH   6  57
TORSDOF 21
ENDMDL
MODEL 4
REMARK VINA RESULT: -8.293951396      2.868      5.306
REMARK  21 active torsions:
REMARK  status: ('A' for Active; 'I' for Inactive)
REMARK    1  A    between atoms: C3_3  and  C4_4 
REMARK    2  A    between atoms: C4_4  and  O2_6 
REMARK    3  A    between atoms: O2_6  and  C5_7 
REMARK    4  A    between atoms: C5_7  and  O3_8 
REMARK    5  A    between atoms: C7_12  and  O5_13 
REMARK    6  A    between atoms: C8_15  and  O6_16 
REMARK    7  A    between atoms: O6_16  and  C9_17 
REMARK    8  A    between atoms: C10_18  and  C11_19 
REMARK    9  A    between atoms: C11_19  and  C12_20 
REMARK   10  A    between atoms: C12_20  and  C13_21 
REMARK   11  A    between atoms: C13_21  and  O7_22 
REMARK   12  A    between atoms: O7_22  and  C14_23 
REMARK   13  A    between atoms: C15_27  and  O8_28 
REMARK   14  A    between atoms: C16_30  and  C17_31 
REMARK   15  A    between atoms: C17_31  and  O9_32 
REMARK   16  A    between atoms: C18_35  and  O11_36 
REMARK   17  A    between atoms: C20_39  and  O12_40 
REMARK   18  A    between atoms: C21_42  and  O13_43 
REMARK   19  A    between atoms: C24_51  and  O17_52 
REMARK   20  A    between atoms: C25_54  and  O18_55 
REMARK   21  A    between atoms: O18_55  and  C26_56 
ROOT
HETATM    1  C9  UNL     1       7.414  28.368  26.099  1.00  0.00     0.153 A 
HETATM    2  C10 UNL     1       7.987  27.189  26.607  1.00  0.00     0.017 A 
HETATM    3  C18 UNL     1       8.737  26.426  25.762  1.00  0.00     0.105 A 
HETATM    4  C19 UNL     1       8.942  26.799  24.414  1.00  0.00     0.119 A 
HETATM    5  C20 UNL     1       9.708  26.001  23.593  1.00  0.00     0.155 A 
HETATM    6  C21 UNL     1       9.885  26.392  22.295  1.00  0.00     0.224 A 
HETATM    7  O14 UNL     1       9.325  27.505  21.877  1.00  0.00    -0.234 OA
HETATM    8  C22 UNL     1       8.596  28.248  22.690  1.00  0.00     0.382 A 
HETATM    9  O15 UNL     1       8.100  29.296  22.203  1.00  0.00    -0.237 OA
HETATM   10  N2  UNL     1       8.373  27.932  23.985  1.00  0.00    -0.216 N 
HETATM   11  C23 UNL     1       7.624  28.714  24.784  1.00  0.00     0.291 A 
HETATM   12  O16 UNL     1       7.129  29.767  24.288  1.00  0.00    -0.264 OA
ENDROOT
BRANCH   1  13
HETATM   13  O6  UNL     1       6.662  29.129  26.955  1.00  0.00    -0.303 OA
BRANCH  13  14
HETATM   14  C8  UNL     1       7.111  30.074  27.859  1.00  0.00     0.122 C 
HETATM   15  C7  UNL     1       6.327  30.356  28.885  1.00  0.00     0.150 C 
HETATM   16  C6  UNL     1       6.739  31.339  29.870  1.00  0.00     0.249 C 
HETATM   17  C5  UNL     1       8.196  31.485  30.102  1.00  0.00     0.269 C 
HETATM   18  O4  UNL     1       5.853  32.009  30.468  1.00  0.00    -0.284 OA
HETATM   19  C25 UNL     1       8.818  31.698  28.736  1.00  0.00     0.238 C 
HETATM   20  C24 UNL     1       8.395  30.735  27.692  1.00  0.00     0.213 C 
BRANCH  15  21
HETATM   21  O5  UNL     1       5.085  29.718  29.048  1.00  0.00    -0.355 OA
ATOM     22  H5  UNL     1       4.784  29.127  28.368  1.00  0.00     0.218 HD
ENDBRANCH  15  21
BRANCH  17  23
HETATM   23  O2  UNL     1       8.516  32.589  30.887  1.00  0.00    -0.269 OA
BRANCH  23  24
HETATM   24  C4  UNL     1       8.690  32.621  32.249  1.00  0.00     0.285 C 
HETATM   25  O1  UNL     1       9.609  31.918  32.717  1.00  0.00    -0.260 OA
BRANCH  24  26
HETATM   26  C3  UNL     1       7.812  33.453  33.057  1.00  0.00     0.078 C 
HETATM   27  C2  UNL     1       8.166  34.589  33.596  1.00  0.00    -0.025 C 
HETATM   28  C1  UNL     1       9.530  35.128  33.418  1.00  0.00     0.036 C 
ENDBRANCH  24  26
ENDBRANCH  23  24
ENDBRANCH  17  23
BRANCH  17  29
HETATM   29  O3  UNL     1       8.728  30.294  30.601  1.00  0.00    -0.357 OA
ATOM     30  H3  UNL     1       8.174  29.892  31.260  1.00  0.00     0.213 HD
ENDBRANCH  17  29
BRANCH  19  31
HETATM   31  O18 UNL     1      10.237  31.659  28.957  1.00  0.00    -0.307 OA
BRANCH  31  32
HETATM   32  C26 UNL     1      11.084  32.510  28.275  1.00  0.00     0.255 C 
HETATM   33  C27 UNL     1      12.483  32.771  28.707  1.00  0.00     0.126 C 
HETATM   34  O19 UNL     1      10.640  33.081  27.251  1.00  0.00    -0.266 OA
ENDBRANCH  31  32
ENDBRANCH  19  31
BRANCH  20  35
HETATM   35  O17 UNL     1       8.368  31.435  26.457  1.00  0.00    -0.386 OA
ATOM     36  H17 UNL     1       8.544  30.809  25.764  1.00  0.00     0.210 HD
ENDBRANCH  20  35
ENDBRANCH  13  14
ENDBRANCH   1  13
BRANCH   2  37
HETATM   37  C11 UNL     1       7.767  26.817  28.024  1.00  0.00     0.046 C 
BRANCH  37  38
HETATM   38  C12 UNL     1       9.049  27.163  28.769  1.00  0.00     0.031 C 
BRANCH  38  39
HETATM   39  C13 UNL     1       9.287  26.275  29.944  1.00  0.00     0.173 C 
BRANCH  39  40
HETATM   40  O7  UNL     1      10.599  26.021  30.258  1.00  0.00    -0.339 OA
BRANCH  40  41
HETATM   41  C14 UNL     1      10.996  26.428  31.511  1.00  0.00     0.472 C 
HETATM   42  N1  UNL     1       9.922  27.077  32.194  1.00  0.00     0.004 N 
HETATM   43  C15 UNL     1      10.329  28.454  32.421  1.00  0.00     0.355 C 
ATOM     44  H12 UNL     1       9.031  27.000  31.704  1.00  0.00     0.286 HD
ATOM     45  H11 UNL     1       9.643  26.596  33.050  1.00  0.00     0.286 HD
HETATM   46  C16 UNL     1      11.847  28.287  32.414  1.00  0.00     0.206 C 
HETATM   47  O10 UNL     1      12.016  27.411  31.370  1.00  0.00    -0.327 OA
BRANCH  43  48
HETATM   48  O8  UNL     1       9.909  28.956  33.634  1.00  0.00    -0.368 OA
ATOM     49  H8  UNL     1      10.216  29.839  33.803  1.00  0.00     0.212 HD
ENDBRANCH  43  48
BRANCH  46  50
HETATM   50  C17 UNL     1      12.451  29.644  32.121  1.00  0.00     0.200 C 
BRANCH  50  51
HETATM   51  O9  UNL     1      11.564  30.482  31.478  1.00  0.00    -0.398 OA
ATOM     52  H9  UNL     1      11.650  30.441  30.533  1.00  0.00     0.209 HD
ENDBRANCH  50  51
ENDBRANCH  46  50
ENDBRANCH  40  41
ENDBRANCH  39  40
ENDBRANCH  38  39
ENDBRANCH  37  38
ENDBRANCH   2  37
BRANCH   3  53
HETATM   53  O11 UNL     1       9.338  25.258  26.162  1.00  0.00    -0.358 OA
ATOM     54  H11 UNL     1       9.865  25.201  26.950  1.00  0.00     0.217 HD
ENDBRANCH   3  53
BRANCH   5  55
HETATM   55  O12 UNL     1      10.284  24.840  24.051  1.00  0.00    -0.354 OA
ATOM     56  H12 UNL     1      11.212  24.667  23.940  1.00  0.00     0.218 HD
ENDBRANCH   5  55
BRANCH   6  57
HETATM   57  O13 UNL     1      10.648  25.613  21.450  1.00  0.00    -0.338 OA
ATOM     58  H13 UNL     1      10.871  25.942  20.587  1.00  0.00     0.220 HD
ENDBRANCH   6  57
TORSDOF 21
ENDMDL
MODEL 5
REMARK VINA RESULT: -8.243049072      2.099      3.370
REMARK  21 active torsions:
REMARK  status: ('A' for Active; 'I' for Inactive)
REMARK    1  A    between atoms: C3_3  and  C4_4 
REMARK    2  A    between atoms: C4_4  and  O2_6 
REMARK    3  A    between atoms: O2_6  and  C5_7 
REMARK    4  A    between atoms: C5_7  and  O3_8 
REMARK    5  A    between atoms: C7_12  and  O5_13 
REMARK    6  A    between atoms: C8_15  and  O6_16 
REMARK    7  A    between atoms: O6_16  and  C9_17 
REMARK    8  A    between atoms: C10_18  and  C11_19 
REMARK    9  A    between atoms: C11_19  and  C12_20 
REMARK   10  A    between atoms: C12_20  and  C13_21 
REMARK   11  A    between atoms: C13_21  and  O7_22 
REMARK   12  A    between atoms: O7_22  and  C14_23 
REMARK   13  A    between atoms: C15_27  and  O8_28 
REMARK   14  A    between atoms: C16_30  and  C17_31 
REMARK   15  A    between atoms: C17_31  and  O9_32 
REMARK   16  A    between atoms: C18_35  and  O11_36 
REMARK   17  A    between atoms: C20_39  and  O12_40 
REMARK   18  A    between atoms: C21_42  and  O13_43 
REMARK   19  A    between atoms: C24_51  and  O17_52 
REMARK   20  A    between atoms: C25_54  and  O18_55 
REMARK   21  A    between atoms: O18_55  and  C26_56 
ROOT
HETATM    1  C9  UNL     1       9.284  29.910  24.769  1.00  0.00     0.153 A 
HETATM    2  C10 UNL     1      10.639  29.601  24.558  1.00  0.00     0.017 A 
HETATM    3  C18 UNL     1      11.032  29.277  23.294  1.00  0.00     0.105 A 
HETATM    4  C19 UNL     1      10.116  29.251  22.218  1.00  0.00     0.119 A 
HETATM    5  C20 UNL     1      10.554  28.920  20.955  1.00  0.00     0.155 A 
HETATM    6  C21 UNL     1       9.640  28.905  19.938  1.00  0.00     0.224 A 
HETATM    7  O14 UNL     1       8.387  29.204  20.196  1.00  0.00    -0.234 OA
HETATM    8  C22 UNL     1       7.998  29.517  21.419  1.00  0.00     0.382 A 
HETATM    9  O15 UNL     1       6.780  29.789  21.571  1.00  0.00    -0.237 OA
HETATM   10  N2  UNL     1       8.839  29.555  22.477  1.00  0.00    -0.216 N 
HETATM   11  C23 UNL     1       8.406  29.879  23.710  1.00  0.00     0.291 A 
HETATM   12  O16 UNL     1       7.180  30.153  23.857  1.00  0.00    -0.264 OA
ENDROOT
BRANCH   1  13
HETATM   13  O6  UNL     1       8.897  30.235  26.043  1.00  0.00    -0.303 OA
BRANCH  13  14
HETATM   14  C8  UNL     1       7.969  29.583  26.834  1.00  0.00     0.122 C 
HETATM   15  C7  UNL     1       6.788  30.157  26.986  1.00  0.00     0.150 C 
HETATM   16  C6  UNL     1       5.769  29.525  27.804  1.00  0.00     0.249 C 
HETATM   17  C5  UNL     1       5.790  28.045  27.874  1.00  0.00     0.269 C 
HETATM   18  O4  UNL     1       4.934  30.255  28.404  1.00  0.00    -0.284 OA
HETATM   19  C25 UNL     1       7.204  27.664  28.265  1.00  0.00     0.238 C 
HETATM   20  C24 UNL     1       8.275  28.315  27.477  1.00  0.00     0.213 C 
BRANCH  15  21
HETATM   21  O5  UNL     1       6.491  31.383  26.366  1.00  0.00    -0.355 OA
ATOM     22  H5  UNL     1       7.146  32.070  26.377  1.00  0.00     0.218 HD
ENDBRANCH  15  21
BRANCH  17  23
HETATM   23  O2  UNL     1       4.932  27.532  28.843  1.00  0.00    -0.269 OA
BRANCH  23  24
HETATM   24  C4  UNL     1       3.811  26.763  28.642  1.00  0.00     0.285 C 
HETATM   25  O1  UNL     1       2.827  27.327  28.119  1.00  0.00    -0.260 OA
BRANCH  24  26
HETATM   26  C3  UNL     1       3.830  25.364  29.041  1.00  0.00     0.078 C 
HETATM   27  C2  UNL     1       3.960  24.365  28.210  1.00  0.00    -0.025 C 
HETATM   28  C1  UNL     1       4.102  24.591  26.758  1.00  0.00     0.036 C 
ENDBRANCH  24  26
ENDBRANCH  23  24
ENDBRANCH  17  23
BRANCH  17  29
HETATM   29  O3  UNL     1       5.565  27.498  26.609  1.00  0.00    -0.357 OA
ATOM     30  H3  UNL     1       6.159  27.838  25.950  1.00  0.00     0.213 HD
ENDBRANCH  17  29
BRANCH  19  31
HETATM   31  O18 UNL     1       7.253  26.232  28.155  1.00  0.00    -0.307 OA
BRANCH  31  32
HETATM   32  C26 UNL     1       7.699  25.456  29.207  1.00  0.00     0.255 C 
HETATM   33  C27 UNL     1       7.484  23.985  29.270  1.00  0.00     0.126 C 
HETATM   34  O19 UNL     1       8.308  26.029  30.141  1.00  0.00    -0.266 OA
ENDBRANCH  31  32
ENDBRANCH  19  31
BRANCH  20  35
HETATM   35  O17 UNL     1       9.376  28.523  28.349  1.00  0.00    -0.386 OA
ATOM     36  H17 UNL     1       9.071  28.394  29.240  1.00  0.00     0.210 HD
ENDBRANCH  20  35
ENDBRANCH  13  14
ENDBRANCH   1  13
BRANCH   2  37
HETATM   37  C11 UNL     1      11.586  29.639  25.696  1.00  0.00     0.046 C 
BRANCH  37  38
HETATM   38  C12 UNL     1      12.115  31.065  25.774  1.00  0.00     0.031 C 
BRANCH  38  39
HETATM   39  C13 UNL     1      11.979  31.654  27.138  1.00  0.00     0.173 C 
BRANCH  39  40
HETATM   40  O7  UNL     1      10.990  31.128  27.932  1.00  0.00    -0.339 OA
BRANCH  40  41
HETATM   41  C14 UNL     1      10.973  31.577  29.231  1.00  0.00     0.472 C 
HETATM   42  N1  UNL     1      12.149  31.157  29.926  1.00  0.00     0.004 N 
HETATM   43  C15 UNL     1      11.720  30.276  30.999  1.00  0.00     0.355 C 
ATOM     44  H12 UNL     1      12.844  30.731  29.313  1.00  0.00     0.286 HD
ATOM     45  H11 UNL     1      12.721  31.936  30.252  1.00  0.00     0.286 HD
HETATM   46  C16 UNL     1      10.296  30.786  31.209  1.00  0.00     0.206 C 
HETATM   47  O10 UNL     1       9.882  30.967  29.912  1.00  0.00    -0.327 OA
BRANCH  43  48
HETATM   48  O8  UNL     1      12.456  30.424  32.156  1.00  0.00    -0.368 OA
ATOM     49  H8  UNL     1      12.314  29.727  32.784  1.00  0.00     0.212 HD
ENDBRANCH  43  48
BRANCH  46  50
HETATM   50  C17 UNL     1       9.520  29.688  31.906  1.00  0.00     0.200 C 
BRANCH  50  51
HETATM   51  O9  UNL     1       9.483  28.525  31.166  1.00  0.00    -0.398 OA
ATOM     52  H9  UNL     1       9.540  27.750  31.712  1.00  0.00     0.209 HD
ENDBRANCH  50  51
ENDBRANCH  46  50
ENDBRANCH  40  41
ENDBRANCH  39  40
ENDBRANCH  38  39
ENDBRANCH  37  38
ENDBRANCH   2  37
BRANCH   3  53
HETATM   53  O11 UNL     1      12.332  28.960  22.986  1.00  0.00    -0.358 OA
ATOM     54  H11 UNL     1      12.906  29.557  22.521  1.00  0.00     0.217 HD
ENDBRANCH   3  53
BRANCH   5  55
HETATM   55  O12 UNL     1      11.870  28.610  20.707  1.00  0.00    -0.354 OA
ATOM     56  H12 UNL     1      12.446  29.212  20.251  1.00  0.00     0.218 HD
ENDBRANCH   5  55
BRANCH   6  57
HETATM   57  O13 UNL     1      10.050  28.578  18.663  1.00  0.00    -0.338 OA
ATOM     58  H13 UNL     1      10.448  27.729  18.504  1.00  0.00     0.220 HD
ENDBRANCH   6  57
TORSDOF 21
ENDMDL
