MODEL 1
REMARK VINA RESULT: -9.764590487      0.000      0.000
REMARK  15 active torsions:
REMARK  status: ('A' for Active; 'I' for Inactive)
REMARK    1  A    between atoms: N3_6  and  C4_7 
REMARK    2  A    between atoms: C5_9  and  N4_10 
REMARK    3  A    between atoms: N4_10  and  C6_12 
REMARK    4  A    between atoms: C7_13  and  O2_14 
REMARK    5  A    between atoms: N5_16  and  C8_17 
REMARK    6  A    between atoms: C8_17  and  C9_18 
REMARK    7  A    between atoms: C10_21  and  O5_22 
REMARK    8  A    between atoms: C11_24  and  C12_25 
REMARK    9  A    between atoms: N6_26  and  C13_28 
REMARK   10  A    between atoms: C13_28  and  C14_29 
REMARK       I    between atoms: C14_29  and  N7_31 
REMARK   11  A    between atoms: N7_31  and  N8_33 
REMARK   12  A    between atoms: C15_35  and  C16_36 
REMARK   13  A    between atoms: C17_37  and  O7_38 
REMARK   14  A    between atoms: C21_43  and  N9_44 
REMARK   15  A    between atoms: N10_50  and  O11_51 
ROOT
HETATM    1  N1  UNL     1       5.483  29.671  17.916  1.00  0.00    -0.191 NA
HETATM    2  C1  UNL     1       6.456  29.710  18.541  1.00  0.00     0.108 C 
HETATM    3  C2  UNL     1       7.663  29.752  19.338  1.00  0.00     0.153 A 
HETATM    4  C3  UNL     1       7.759  29.012  20.495  1.00  0.00     0.152 A 
HETATM    5  N2  UNL     1       6.668  28.214  20.898  1.00  0.00    -0.080 NA
HETATM    6  N3  UNL     1       8.879  29.022  21.276  1.00  0.00    -0.243 N 
HETATM    7  C24 UNL     1       9.879  29.788  20.863  1.00  0.00     0.333 A 
HETATM    8  O12 UNL     1      10.930  29.834  21.545  1.00  0.00    -0.246 OA
HETATM    9  N11 UNL     1       9.824  30.531  19.734  1.00  0.00    -0.274 N 
ATOM     10  H11 UNL     1      10.626  31.102  19.466  1.00  0.00     0.173 HD
HETATM   11  C25 UNL     1       8.728  30.524  18.962  1.00  0.00     0.273 A 
HETATM   12  O13 UNL     1       8.661  31.210  17.907  1.00  0.00    -0.266 OA
ENDROOT
BRANCH   6  13
HETATM   13  C4  UNL     1       8.876  28.201  22.470  1.00  0.00     0.341 C 
HETATM   14  O1  UNL     1       9.451  28.763  23.562  1.00  0.00    -0.326 OA
HETATM   15  C5  UNL     1      10.343  27.883  24.123  1.00  0.00     0.240 C 
HETATM   16  C23 UNL     1       9.875  26.553  23.576  1.00  0.00     0.179 C 
HETATM   17  N10 UNL     1       9.451  26.904  22.201  1.00  0.00    -0.147 NA
BRANCH  15  18
HETATM   18  N4  UNL     1      10.397  27.938  25.566  1.00  0.00    -0.356 N 
ATOM     19  H4  UNL     1      10.475  27.079  26.109  1.00  0.00     0.162 HD
BRANCH  18  20
HETATM   20  C6  UNL     1      10.341  29.190  26.221  1.00  0.00     0.133 A 
HETATM   21  C7  UNL     1      11.235  30.217  25.878  1.00  0.00     0.176 A 
HETATM   22  N5  UNL     1      11.206  31.415  26.482  1.00  0.00    -0.296 N 
HETATM   23  C10 UNL     1      10.302  31.666  27.450  1.00  0.00     0.160 A 
HETATM   24  C11 UNL     1       9.392  30.708  27.841  1.00  0.00     0.083 A 
HETATM   25  C22 UNL     1       9.439  29.485  27.207  1.00  0.00     0.218 A 
HETATM   26  O10 UNL     1       8.601  28.631  27.577  1.00  0.00    -0.285 OA
BRANCH  21  27
HETATM   27  O2  UNL     1      12.189  30.019  24.891  1.00  0.00    -0.344 OA
ATOM     28  H2  UNL     1      11.976  30.176  23.978  1.00  0.00     0.219 HD
ENDBRANCH  21  27
BRANCH  22  29
HETATM   29  C8  UNL     1      12.111  32.499  26.155  1.00  0.00     0.246 C 
BRANCH  29  30
HETATM   30  C9  UNL     1      13.335  32.497  26.938  1.00  0.00     0.192 C 
HETATM   31  O3  UNL     1      14.278  31.733  26.638  1.00  0.00    -0.647 OA
HETATM   32  O4  UNL     1      13.477  33.335  28.026  1.00  0.00    -0.647 OA
ENDBRANCH  29  30
ENDBRANCH  22  29
BRANCH  23  33
HETATM   33  O5  UNL     1      10.254  32.908  28.093  1.00  0.00    -0.345 OA
ATOM     34  H5  UNL     1      10.517  33.002  29.002  1.00  0.00     0.219 HD
ENDBRANCH  23  33
BRANCH  24  35
HETATM   35  C12 UNL     1       8.413  30.947  28.878  1.00  0.00     0.103 C 
HETATM   36  N6  UNL     1       8.643  31.576  29.979  1.00  0.00    -0.389 N 
ATOM     37  H6  UNL     1       9.562  31.959  30.200  1.00  0.00     0.159 HD
BRANCH  36  38
HETATM   38  C13 UNL     1       7.515  31.709  30.889  1.00  0.00     0.223 C 
BRANCH  38  39
HETATM   39  C14 UNL     1       6.215  31.537  30.166  1.00  0.00     0.253 C 
HETATM   40  O6  UNL     1       5.674  30.422  30.241  1.00  0.00    -0.270 OA
HETATM   41  N7  UNL     1       5.679  32.615  29.450  1.00  0.00    -0.269 N 
ATOM     42  H7  UNL     1       6.195  33.495  29.449  1.00  0.00     0.190 HD
BRANCH  41  43
HETATM   43  N8  UNL     1       4.509  32.557  28.756  1.00  0.00    -0.308 N 
HETATM   44  C15 UNL     1       4.391  32.417  27.500  1.00  0.00     0.124 C 
ATOM     45  H8  UNL     1       3.647  32.633  29.296  1.00  0.00     0.186 HD
BRANCH  44  46
HETATM   46  C16 UNL     1       3.044  32.376  26.957  1.00  0.00     0.047 A 
HETATM   47  C17 UNL     1       2.212  33.471  27.156  1.00  0.00     0.079 A 
HETATM   48  C18 UNL     1       0.938  33.482  26.643  1.00  0.00     0.037 A 
HETATM   49  C19 UNL     1       0.495  32.390  25.929  1.00  0.00     0.005 A 
HETATM   50  C20 UNL     1       1.301  31.307  25.724  1.00  0.00     0.037 A 
HETATM   51  C21 UNL     1       2.600  31.301  26.251  1.00  0.00     0.117 A 
BRANCH  47  52
HETATM   52  O7  UNL     1       2.648  34.570  27.871  1.00  0.00    -0.360 OA
ATOM     53  H7  UNL     1       2.561  35.447  27.516  1.00  0.00     0.217 HD
ENDBRANCH  47  52
BRANCH  51  54
HETATM   54  N9  UNL     1       3.335  30.128  25.972  1.00  0.00    -0.115 N 
HETATM   55  O8  UNL     1       3.208  29.112  26.646  1.00  0.00    -0.532 OA
HETATM   56  O9  UNL     1       4.197  30.134  24.875  1.00  0.00    -0.532 OA
ENDBRANCH  51  54
ENDBRANCH  44  46
ENDBRANCH  41  43
ENDBRANCH  38  39
ENDBRANCH  36  38
ENDBRANCH  24  35
ENDBRANCH  18  20
ENDBRANCH  15  18
BRANCH  17  57
HETATM   57  O11 UNL     1      10.571  26.985  21.448  1.00  0.00    -0.309 OA
ATOM     58  H11 UNL     1      10.860  26.135  21.138  1.00  0.00     0.237 HD
ENDBRANCH  17  57
ENDBRANCH   6  13
TORSDOF 15
ENDMDL
MODEL 2
REMARK VINA RESULT: -9.447125064      2.527      7.651
REMARK  15 active torsions:
REMARK  status: ('A' for Active; 'I' for Inactive)
REMARK    1  A    between atoms: N3_6  and  C4_7 
REMARK    2  A    between atoms: C5_9  and  N4_10 
REMARK    3  A    between atoms: N4_10  and  C6_12 
REMARK    4  A    between atoms: C7_13  and  O2_14 
REMARK    5  A    between atoms: N5_16  and  C8_17 
REMARK    6  A    between atoms: C8_17  and  C9_18 
REMARK    7  A    between atoms: C10_21  and  O5_22 
REMARK    8  A    between atoms: C11_24  and  C12_25 
REMARK    9  A    between atoms: N6_26  and  C13_28 
REMARK   10  A    between atoms: C13_28  and  C14_29 
REMARK       I    between atoms: C14_29  and  N7_31 
REMARK   11  A    between atoms: N7_31  and  N8_33 
REMARK   12  A    between atoms: C15_35  and  C16_36 
REMARK   13  A    between atoms: C17_37  and  O7_38 
REMARK   14  A    between atoms: C21_43  and  N9_44 
REMARK   15  A    between atoms: N10_50  and  O11_51 
ROOT
HETATM    1  N1  UNL     1       6.025  26.090  22.947  1.00  0.00    -0.191 NA
HETATM    2  C1  UNL     1       5.707  26.547  23.960  1.00  0.00     0.108 C 
HETATM    3  C2  UNL     1       5.321  27.136  25.225  1.00  0.00     0.153 A 
HETATM    4  C3  UNL     1       5.491  28.485  25.446  1.00  0.00     0.152 A 
HETATM    5  N2  UNL     1       6.046  29.288  24.427  1.00  0.00    -0.080 NA
HETATM    6  N3  UNL     1       5.140  29.080  26.623  1.00  0.00    -0.243 N 
HETATM    7  C24 UNL     1       4.625  28.290  27.553  1.00  0.00     0.333 A 
HETATM    8  O12 UNL     1       4.288  28.786  28.654  1.00  0.00    -0.246 OA
HETATM    9  N11 UNL     1       4.444  26.961  27.377  1.00  0.00    -0.274 N 
ATOM     10  H11 UNL     1       4.043  26.402  28.130  1.00  0.00     0.173 HD
HETATM   11  C25 UNL     1       4.785  26.370  26.223  1.00  0.00     0.273 A 
HETATM   12  O13 UNL     1       4.622  25.133  26.043  1.00  0.00    -0.266 OA
ENDROOT
BRANCH   6  13
HETATM   13  C4  UNL     1       5.355  30.508  26.747  1.00  0.00     0.341 C 
HETATM   14  O1  UNL     1       5.859  30.917  27.937  1.00  0.00    -0.326 OA
HETATM   15  C5  UNL     1       5.111  31.962  28.424  1.00  0.00     0.240 C 
HETATM   16  C23 UNL     1       4.429  32.481  27.178  1.00  0.00     0.179 C 
HETATM   17  N10 UNL     1       4.152  31.237  26.423  1.00  0.00    -0.147 NA
BRANCH  15  18
HETATM   18  N4  UNL     1       5.882  32.959  29.130  1.00  0.00    -0.356 N 
ATOM     19  H4  UNL     1       5.471  33.868  29.344  1.00  0.00     0.162 HD
BRANCH  18  20
HETATM   20  C6  UNL     1       7.209  32.669  29.525  1.00  0.00     0.133 A 
HETATM   21  C7  UNL     1       7.513  32.405  30.870  1.00  0.00     0.176 A 
HETATM   22  N5  UNL     1       8.762  32.127  31.274  1.00  0.00    -0.296 N 
HETATM   23  C10 UNL     1       9.772  32.093  30.382  1.00  0.00     0.160 A 
HETATM   24  C11 UNL     1       9.551  32.340  29.045  1.00  0.00     0.083 A 
HETATM   25  C22 UNL     1       8.261  32.623  28.652  1.00  0.00     0.218 A 
HETATM   26  O10 UNL     1       8.084  32.842  27.431  1.00  0.00    -0.285 OA
BRANCH  21  27
HETATM   27  O2  UNL     1       6.516  32.427  31.834  1.00  0.00    -0.344 OA
ATOM     28  H2  UNL     1       5.959  31.669  31.967  1.00  0.00     0.219 HD
ENDBRANCH  21  27
BRANCH  22  29
HETATM   29  C8  UNL     1       9.114  31.849  32.652  1.00  0.00     0.246 C 
BRANCH  29  30
HETATM   30  C9  UNL     1       8.933  30.460  33.035  1.00  0.00     0.192 C 
HETATM   31  O3  UNL     1       9.884  29.652  32.956  1.00  0.00    -0.647 OA
HETATM   32  O4  UNL     1       7.710  30.007  33.489  1.00  0.00    -0.647 OA
ENDBRANCH  29  30
ENDBRANCH  22  29
BRANCH  23  33
HETATM   33  O5  UNL     1      11.083  31.805  30.783  1.00  0.00    -0.345 OA
ATOM     34  H5  UNL     1      11.586  31.117  30.361  1.00  0.00     0.219 HD
ENDBRANCH  23  33
BRANCH  24  35
HETATM   35  C12 UNL     1      10.616  32.313  28.067  1.00  0.00     0.103 C 
HETATM   36  N6  UNL     1      11.727  32.958  28.167  1.00  0.00    -0.389 N 
ATOM     37  H6  UNL     1      11.936  33.552  28.970  1.00  0.00     0.159 HD
BRANCH  36  38
HETATM   38  C13 UNL     1      12.667  32.792  27.068  1.00  0.00     0.223 C 
BRANCH  38  39
HETATM   39  C14 UNL     1      12.413  31.514  26.330  1.00  0.00     0.253 C 
HETATM   40  O6  UNL     1      13.128  30.544  26.624  1.00  0.00    -0.270 OA
HETATM   41  N7  UNL     1      11.405  31.471  25.358  1.00  0.00    -0.269 N 
ATOM     42  H7  UNL     1      10.866  32.319  25.186  1.00  0.00     0.190 HD
BRANCH  41  43
HETATM   43  N8  UNL     1      11.102  30.361  24.629  1.00  0.00    -0.308 N 
HETATM   44  C15 UNL     1       9.939  29.897  24.423  1.00  0.00     0.124 C 
ATOM     45  H8  UNL     1      11.883  29.856  24.210  1.00  0.00     0.186 HD
BRANCH  44  46
HETATM   46  C16 UNL     1       9.835  28.696  23.610  1.00  0.00     0.047 A 
HETATM   47  C17 UNL     1      10.064  27.464  24.209  1.00  0.00     0.079 A 
HETATM   48  C18 UNL     1       9.957  26.304  23.482  1.00  0.00     0.037 A 
HETATM   49  C19 UNL     1       9.620  26.379  22.148  1.00  0.00     0.005 A 
HETATM   50  C20 UNL     1       9.392  27.582  21.545  1.00  0.00     0.037 A 
HETATM   51  C21 UNL     1       9.503  28.763  22.292  1.00  0.00     0.117 A 
BRANCH  47  52
HETATM   52  O7  UNL     1      10.402  27.380  25.546  1.00  0.00    -0.360 OA
ATOM     53  H7  UNL     1      10.206  26.598  26.049  1.00  0.00     0.217 HD
ENDBRANCH  47  52
BRANCH  51  54
HETATM   54  N9  UNL     1       9.242  29.941  21.559  1.00  0.00    -0.115 N 
HETATM   55  O8  UNL     1      10.053  30.396  20.758  1.00  0.00    -0.532 OA
HETATM   56  O9  UNL     1       8.010  30.572  21.738  1.00  0.00    -0.532 OA
ENDBRANCH  51  54
ENDBRANCH  44  46
ENDBRANCH  41  43
ENDBRANCH  38  39
ENDBRANCH  36  38
ENDBRANCH  24  35
ENDBRANCH  18  20
ENDBRANCH  15  18
BRANCH  17  57
HETATM   57  O11 UNL     1       3.049  30.678  26.970  1.00  0.00    -0.309 OA
ATOM     58  H11 UNL     1       2.346  30.575  26.339  1.00  0.00     0.237 HD
ENDBRANCH  17  57
ENDBRANCH   6  13
TORSDOF 15
ENDMDL
MODEL 3
REMARK VINA RESULT: -9.203174030      2.822      3.539
REMARK  15 active torsions:
REMARK  status: ('A' for Active; 'I' for Inactive)
REMARK    1  A    between atoms: N3_6  and  C4_7 
REMARK    2  A    between atoms: C5_9  and  N4_10 
REMARK    3  A    between atoms: N4_10  and  C6_12 
REMARK    4  A    between atoms: C7_13  and  O2_14 
REMARK    5  A    between atoms: N5_16  and  C8_17 
REMARK    6  A    between atoms: C8_17  and  C9_18 
REMARK    7  A    between atoms: C10_21  and  O5_22 
REMARK    8  A    between atoms: C11_24  and  C12_25 
REMARK    9  A    between atoms: N6_26  and  C13_28 
REMARK   10  A    between atoms: C13_28  and  C14_29 
REMARK       I    between atoms: C14_29  and  N7_31 
REMARK   11  A    between atoms: N7_31  and  N8_33 
REMARK   12  A    between atoms: C15_35  and  C16_36 
REMARK   13  A    between atoms: C17_37  and  O7_38 
REMARK   14  A    between atoms: C21_43  and  N9_44 
REMARK   15  A    between atoms: N10_50  and  O11_51 
ROOT
HETATM    1  N1  UNL     1       5.361  29.078  18.031  1.00  0.00    -0.191 NA
HETATM    2  C1  UNL     1       6.358  29.228  18.596  1.00  0.00     0.108 C 
HETATM    3  C2  UNL     1       7.598  29.410  19.321  1.00  0.00     0.153 A 
HETATM    4  C3  UNL     1       7.817  28.741  20.504  1.00  0.00     0.152 A 
HETATM    5  N2  UNL     1       6.819  27.878  21.006  1.00  0.00    -0.080 NA
HETATM    6  N3  UNL     1       8.971  28.882  21.219  1.00  0.00    -0.243 N 
HETATM    7  C24 UNL     1       9.880  29.705  20.715  1.00  0.00     0.333 A 
HETATM    8  O12 UNL     1      10.958  29.872  21.333  1.00  0.00    -0.246 OA
HETATM    9  N11 UNL     1       9.703  30.381  19.556  1.00  0.00    -0.274 N 
ATOM     10  H11 UNL     1      10.439  31.001  19.217  1.00  0.00     0.173 HD
HETATM   11  C25 UNL     1       8.573  30.246  18.849  1.00  0.00     0.273 A 
HETATM   12  O13 UNL     1       8.393  30.869  17.769  1.00  0.00    -0.266 OA
ENDROOT
BRANCH   6  13
HETATM   13  C4  UNL     1       9.101  28.127  22.449  1.00  0.00     0.341 C 
HETATM   14  O1  UNL     1       9.780  28.749  23.443  1.00  0.00    -0.326 OA
HETATM   15  C5  UNL     1      10.735  27.905  23.955  1.00  0.00     0.240 C 
HETATM   16  C23 UNL     1      10.226  26.545  23.531  1.00  0.00     0.179 C 
HETATM   17  N10 UNL     1       9.658  26.820  22.190  1.00  0.00    -0.147 NA
BRANCH  15  18
HETATM   18  N4  UNL     1      10.937  28.037  25.378  1.00  0.00    -0.356 N 
ATOM     19  H4  UNL     1      11.349  27.271  25.911  1.00  0.00     0.162 HD
BRANCH  18  20
HETATM   20  C6  UNL     1      10.563  29.235  26.031  1.00  0.00     0.133 A 
HETATM   21  C7  UNL     1      11.413  30.352  26.019  1.00  0.00     0.176 A 
HETATM   22  N5  UNL     1      11.085  31.501  26.628  1.00  0.00    -0.296 N 
HETATM   23  C10 UNL     1       9.909  31.613  27.278  1.00  0.00     0.160 A 
HETATM   24  C11 UNL     1       9.022  30.561  27.333  1.00  0.00     0.083 A 
HETATM   25  C22 UNL     1       9.379  29.390  26.700  1.00  0.00     0.218 A 
HETATM   26  O10 UNL     1       8.556  28.447  26.761  1.00  0.00    -0.285 OA
BRANCH  21  27
HETATM   27  O2  UNL     1      12.637  30.297  25.367  1.00  0.00    -0.344 OA
ATOM     28  H2  UNL     1      13.260  31.009  25.453  1.00  0.00     0.219 HD
ENDBRANCH  21  27
BRANCH  22  29
HETATM   29  C8  UNL     1      11.936  32.674  26.636  1.00  0.00     0.246 C 
BRANCH  29  30
HETATM   30  C9  UNL     1      12.858  32.721  27.758  1.00  0.00     0.192 C 
HETATM   31  O3  UNL     1      14.093  32.725  27.563  1.00  0.00    -0.647 OA
HETATM   32  O4  UNL     1      12.388  32.762  29.056  1.00  0.00    -0.647 OA
ENDBRANCH  29  30
ENDBRANCH  22  29
BRANCH  23  33
HETATM   33  O5  UNL     1       9.547  32.803  27.921  1.00  0.00    -0.345 OA
ATOM     34  H5  UNL     1       8.634  33.035  28.048  1.00  0.00     0.219 HD
ENDBRANCH  23  33
BRANCH  24  35
HETATM   35  C12 UNL     1       7.756  30.651  28.025  1.00  0.00     0.103 C 
HETATM   36  N6  UNL     1       6.761  31.382  27.654  1.00  0.00    -0.389 N 
ATOM     37  H6  UNL     1       6.804  31.966  26.818  1.00  0.00     0.159 HD
BRANCH  36  38
HETATM   38  C13 UNL     1       5.575  31.326  28.494  1.00  0.00     0.223 C 
BRANCH  38  39
HETATM   39  C14 UNL     1       4.861  30.020  28.333  1.00  0.00     0.253 C 
HETATM   40  O6  UNL     1       4.615  29.383  29.370  1.00  0.00    -0.270 OA
HETATM   41  N7  UNL     1       4.512  29.580  27.050  1.00  0.00    -0.269 N 
ATOM     42  H7  UNL     1       4.754  30.174  26.256  1.00  0.00     0.190 HD
BRANCH  41  43
HETATM   43  N8  UNL     1       3.869  28.407  26.799  1.00  0.00    -0.308 N 
HETATM   44  C15 UNL     1       4.420  27.296  26.526  1.00  0.00     0.124 C 
ATOM     45  H8  UNL     1       2.850  28.421  26.835  1.00  0.00     0.186 HD
BRANCH  44  46
HETATM   46  C16 UNL     1       3.547  26.158  26.293  1.00  0.00     0.047 A 
HETATM   47  C17 UNL     1       2.714  26.173  25.182  1.00  0.00     0.079 A 
HETATM   48  C18 UNL     1       1.887  25.110  24.914  1.00  0.00     0.037 A 
HETATM   49  C19 UNL     1       1.894  24.026  25.766  1.00  0.00     0.005 A 
HETATM   50  C20 UNL     1       2.707  23.996  26.862  1.00  0.00     0.037 A 
HETATM   51  C21 UNL     1       3.548  25.085  27.131  1.00  0.00     0.117 A 
BRANCH  47  52
HETATM   52  O7  UNL     1       2.701  27.255  24.323  1.00  0.00    -0.360 OA
ATOM     53  H7  UNL     1       3.236  27.259  23.537  1.00  0.00     0.217 HD
ENDBRANCH  47  52
BRANCH  51  54
HETATM   54  N9  UNL     1       4.340  24.936  28.290  1.00  0.00    -0.115 N 
HETATM   55  O8  UNL     1       3.898  25.174  29.409  1.00  0.00    -0.532 OA
HETATM   56  O9  UNL     1       5.648  24.470  28.142  1.00  0.00    -0.532 OA
ENDBRANCH  51  54
ENDBRANCH  44  46
ENDBRANCH  41  43
ENDBRANCH  38  39
ENDBRANCH  36  38
ENDBRANCH  24  35
ENDBRANCH  18  20
ENDBRANCH  15  18
BRANCH  17  57
HETATM   57  O11 UNL     1      10.693  26.865  21.321  1.00  0.00    -0.309 OA
ATOM     58  H11 UNL     1      11.413  26.306  21.589  1.00  0.00     0.237 HD
ENDBRANCH  17  57
ENDBRANCH   6  13
TORSDOF 15
ENDMDL
MODEL 4
REMARK VINA RESULT: -9.116194994      2.934      3.677
REMARK  15 active torsions:
REMARK  status: ('A' for Active; 'I' for Inactive)
REMARK    1  A    between atoms: N3_6  and  C4_7 
REMARK    2  A    between atoms: C5_9  and  N4_10 
REMARK    3  A    between atoms: N4_10  and  C6_12 
REMARK    4  A    between atoms: C7_13  and  O2_14 
REMARK    5  A    between atoms: N5_16  and  C8_17 
REMARK    6  A    between atoms: C8_17  and  C9_18 
REMARK    7  A    between atoms: C10_21  and  O5_22 
REMARK    8  A    between atoms: C11_24  and  C12_25 
REMARK    9  A    between atoms: N6_26  and  C13_28 
REMARK   10  A    between atoms: C13_28  and  C14_29 
REMARK       I    between atoms: C14_29  and  N7_31 
REMARK   11  A    between atoms: N7_31  and  N8_33 
REMARK   12  A    between atoms: C15_35  and  C16_36 
REMARK   13  A    between atoms: C17_37  and  O7_38 
REMARK   14  A    between atoms: C21_43  and  N9_44 
REMARK   15  A    between atoms: N10_50  and  O11_51 
ROOT
HETATM    1  N1  UNL     1       5.198  29.085  18.166  1.00  0.00    -0.191 NA
HETATM    2  C1  UNL     1       6.230  29.222  18.668  1.00  0.00     0.108 C 
HETATM    3  C2  UNL     1       7.515  29.387  19.314  1.00  0.00     0.153 A 
HETATM    4  C3  UNL     1       7.783  28.750  20.505  1.00  0.00     0.152 A 
HETATM    5  N2  UNL     1       6.791  27.935  21.091  1.00  0.00    -0.080 NA
HETATM    6  N3  UNL     1       8.980  28.877  21.147  1.00  0.00    -0.243 N 
HETATM    7  C24 UNL     1       9.882  29.654  20.564  1.00  0.00     0.333 A 
HETATM    8  O12 UNL     1      10.998  29.807  21.114  1.00  0.00    -0.246 OA
HETATM    9  N11 UNL     1       9.659  30.299  19.396  1.00  0.00    -0.274 N 
ATOM     10  H11 UNL     1      10.392  30.884  18.995  1.00  0.00     0.173 HD
HETATM   11  C25 UNL     1       8.485  30.177  18.760  1.00  0.00     0.273 A 
HETATM   12  O13 UNL     1       8.261  30.770  17.671  1.00  0.00    -0.266 OA
ENDROOT
BRANCH   6  13
HETATM   13  C4  UNL     1       9.158  28.157  22.392  1.00  0.00     0.341 C 
HETATM   14  O1  UNL     1       9.896  28.797  23.332  1.00  0.00    -0.326 OA
HETATM   15  C5  UNL     1      10.861  27.951  23.822  1.00  0.00     0.240 C 
HETATM   16  C23 UNL     1      10.309  26.589  23.466  1.00  0.00     0.179 C 
HETATM   17  N10 UNL     1       9.679  26.833  22.147  1.00  0.00    -0.147 NA
BRANCH  15  18
HETATM   18  N4  UNL     1      11.137  28.123  25.229  1.00  0.00    -0.356 N 
ATOM     19  H4  UNL     1      11.692  27.431  25.731  1.00  0.00     0.162 HD
BRANCH  18  20
HETATM   20  C6  UNL     1      10.634  29.258  25.907  1.00  0.00     0.133 A 
HETATM   21  C7  UNL     1      11.390  30.439  25.984  1.00  0.00     0.176 A 
HETATM   22  N5  UNL     1      10.939  31.530  26.620  1.00  0.00    -0.296 N 
HETATM   23  C10 UNL     1       9.728  31.520  27.211  1.00  0.00     0.160 A 
HETATM   24  C11 UNL     1       8.928  30.399  27.178  1.00  0.00     0.083 A 
HETATM   25  C22 UNL     1       9.410  29.288  26.519  1.00  0.00     0.218 A 
HETATM   26  O10 UNL     1       8.665  28.282  26.499  1.00  0.00    -0.285 OA
BRANCH  21  27
HETATM   27  O2  UNL     1      12.644  30.510  25.396  1.00  0.00    -0.344 OA
ATOM     28  H2  UNL     1      12.914  31.293  24.931  1.00  0.00     0.219 HD
ENDBRANCH  21  27
BRANCH  22  29
HETATM   29  C8  UNL     1      11.690  32.766  26.720  1.00  0.00     0.246 C 
BRANCH  29  30
HETATM   30  C9  UNL     1      12.592  32.814  27.858  1.00  0.00     0.192 C 
HETATM   31  O3  UNL     1      13.823  32.946  27.685  1.00  0.00    -0.647 OA
HETATM   32  O4  UNL     1      12.107  32.713  29.147  1.00  0.00    -0.647 OA
ENDBRANCH  29  30
ENDBRANCH  22  29
BRANCH  23  33
HETATM   33  O5  UNL     1       9.238  32.648  27.881  1.00  0.00    -0.345 OA
ATOM     34  H5  UNL     1       9.156  33.485  27.439  1.00  0.00     0.219 HD
ENDBRANCH  23  33
BRANCH  24  35
HETATM   35  C12 UNL     1       7.626  30.357  27.806  1.00  0.00     0.103 C 
HETATM   36  N6  UNL     1       6.651  31.156  27.538  1.00  0.00    -0.389 N 
ATOM     37  H6  UNL     1       6.736  31.897  26.842  1.00  0.00     0.159 HD
BRANCH  36  38
HETATM   38  C13 UNL     1       5.421  30.941  28.285  1.00  0.00     0.223 C 
BRANCH  38  39
HETATM   39  C14 UNL     1       4.916  29.544  28.102  1.00  0.00     0.253 C 
HETATM   40  O6  UNL     1       4.560  28.936  29.125  1.00  0.00    -0.270 OA
HETATM   41  N7  UNL     1       4.871  28.992  26.815  1.00  0.00    -0.269 N 
ATOM     42  H7  UNL     1       5.182  29.569  26.034  1.00  0.00     0.190 HD
BRANCH  41  43
HETATM   43  N8  UNL     1       4.436  27.730  26.547  1.00  0.00    -0.308 N 
HETATM   44  C15 UNL     1       3.282  27.412  26.122  1.00  0.00     0.124 C 
ATOM     45  H8  UNL     1       5.098  26.970  26.700  1.00  0.00     0.186 HD
BRANCH  44  46
HETATM   46  C16 UNL     1       3.021  26.000  25.896  1.00  0.00     0.047 A 
HETATM   47  C17 UNL     1       2.886  25.163  26.996  1.00  0.00     0.079 A 
HETATM   48  C18 UNL     1       2.620  23.826  26.828  1.00  0.00     0.037 A 
HETATM   49  C19 UNL     1       2.488  23.326  25.551  1.00  0.00     0.005 A 
HETATM   50  C20 UNL     1       2.618  24.136  24.459  1.00  0.00     0.037 A 
HETATM   51  C21 UNL     1       2.891  25.499  24.637  1.00  0.00     0.117 A 
BRANCH  47  52
HETATM   52  O7  UNL     1       3.016  25.656  28.280  1.00  0.00    -0.360 OA
ATOM     53  H7  UNL     1       2.249  25.862  28.802  1.00  0.00     0.217 HD
ENDBRANCH  47  52
BRANCH  51  54
HETATM   54  N9  UNL     1       3.000  26.233  23.435  1.00  0.00    -0.115 N 
HETATM   55  O8  UNL     1       4.019  26.206  22.754  1.00  0.00    -0.532 OA
HETATM   56  O9  UNL     1       1.896  26.973  23.010  1.00  0.00    -0.532 OA
ENDBRANCH  51  54
ENDBRANCH  44  46
ENDBRANCH  41  43
ENDBRANCH  38  39
ENDBRANCH  36  38
ENDBRANCH  24  35
ENDBRANCH  18  20
ENDBRANCH  15  18
BRANCH  17  57
HETATM   57  O11 UNL     1      10.670  26.832  21.227  1.00  0.00    -0.309 OA
ATOM     58  H11 UNL     1      10.367  26.559  20.370  1.00  0.00     0.237 HD
ENDBRANCH  17  57
ENDBRANCH   6  13
TORSDOF 15
ENDMDL
MODEL 5
REMARK VINA RESULT: -9.027964976      8.233     15.757
REMARK  15 active torsions:
REMARK  status: ('A' for Active; 'I' for Inactive)
REMARK    1  A    between atoms: N3_6  and  C4_7 
REMARK    2  A    between atoms: C5_9  and  N4_10 
REMARK    3  A    between atoms: N4_10  and  C6_12 
REMARK    4  A    between atoms: C7_13  and  O2_14 
REMARK    5  A    between atoms: N5_16  and  C8_17 
REMARK    6  A    between atoms: C8_17  and  C9_18 
REMARK    7  A    between atoms: C10_21  and  O5_22 
REMARK    8  A    between atoms: C11_24  and  C12_25 
REMARK    9  A    between atoms: N6_26  and  C13_28 
REMARK   10  A    between atoms: C13_28  and  C14_29 
REMARK       I    between atoms: C14_29  and  N7_31 
REMARK   11  A    between atoms: N7_31  and  N8_33 
REMARK   12  A    between atoms: C15_35  and  C16_36 
REMARK   13  A    between atoms: C17_37  and  O7_38 
REMARK   14  A    between atoms: C21_43  and  N9_44 
REMARK   15  A    between atoms: N10_50  and  O11_51 
ROOT
HETATM    1  N1  UNL     1       9.652  25.523  24.675  1.00  0.00    -0.191 NA
HETATM    2  C1  UNL     1       9.749  26.298  23.823  1.00  0.00     0.108 C 
HETATM    3  C2  UNL     1       9.856  27.259  22.746  1.00  0.00     0.153 A 
HETATM    4  C3  UNL     1       8.815  27.430  21.860  1.00  0.00     0.152 A 
HETATM    5  N2  UNL     1       7.644  26.657  22.011  1.00  0.00    -0.080 NA
HETATM    6  N3  UNL     1       8.874  28.325  20.832  1.00  0.00    -0.243 N 
HETATM    7  C24 UNL     1       9.992  29.028  20.724  1.00  0.00     0.333 A 
HETATM    8  O12 UNL     1      10.098  29.863  19.795  1.00  0.00    -0.246 OA
HETATM    9  N11 UNL     1      11.037  28.889  21.572  1.00  0.00    -0.274 N 
ATOM     10  H11 UNL     1      11.873  29.459  21.439  1.00  0.00     0.173 HD
HETATM   11  C25 UNL     1      10.986  28.013  22.585  1.00  0.00     0.273 A 
HETATM   12  O13 UNL     1      11.950  27.872  23.384  1.00  0.00    -0.266 OA
ENDROOT
BRANCH   6  13
HETATM   13  C4  UNL     1       7.719  28.430  19.961  1.00  0.00     0.341 C 
HETATM   14  O1  UNL     1       7.994  28.451  18.634  1.00  0.00    -0.326 OA
HETATM   15  C5  UNL     1       7.332  29.497  18.039  1.00  0.00     0.240 C 
HETATM   16  C23 UNL     1       6.229  29.790  19.031  1.00  0.00     0.179 C 
HETATM   17  N10 UNL     1       6.899  29.558  20.332  1.00  0.00    -0.147 NA
BRANCH  15  18
HETATM   18  N4  UNL     1       6.859  29.213  16.704  1.00  0.00    -0.356 N 
ATOM     19  H4  UNL     1       5.994  29.634  16.366  1.00  0.00     0.162 HD
BRANCH  18  20
HETATM   20  C6  UNL     1       7.603  28.348  15.868  1.00  0.00     0.133 A 
HETATM   21  C7  UNL     1       7.392  26.961  15.906  1.00  0.00     0.176 A 
HETATM   22  N5  UNL     1       8.081  26.116  15.125  1.00  0.00    -0.296 N 
HETATM   23  C10 UNL     1       9.009  26.587  14.268  1.00  0.00     0.160 A 
HETATM   24  C11 UNL     1       9.272  27.936  14.173  1.00  0.00     0.083 A 
HETATM   25  C22 UNL     1       8.552  28.786  14.985  1.00  0.00     0.218 A 
HETATM   26  O10 UNL     1       8.807  30.008  14.880  1.00  0.00    -0.285 OA
BRANCH  21  27
HETATM   27  O2  UNL     1       6.451  26.416  16.767  1.00  0.00    -0.344 OA
ATOM     28  H2  UNL     1       6.204  25.502  16.695  1.00  0.00     0.219 HD
ENDBRANCH  21  27
BRANCH  22  29
HETATM   29  C8  UNL     1       7.891  24.679  15.136  1.00  0.00     0.246 C 
BRANCH  29  30
HETATM   30  C9  UNL     1       6.860  24.218  14.222  1.00  0.00     0.192 C 
HETATM   31  O3  UNL     1       5.676  24.105  14.607  1.00  0.00    -0.647 OA
HETATM   32  O4  UNL     1       7.168  23.894  12.915  1.00  0.00    -0.647 OA
ENDBRANCH  29  30
ENDBRANCH  22  29
BRANCH  23  33
HETATM   33  O5  UNL     1       9.741  25.722  13.444  1.00  0.00    -0.345 OA
ATOM     34  H5  UNL     1       9.999  25.981  12.567  1.00  0.00     0.219 HD
ENDBRANCH  23  33
BRANCH  24  35
HETATM   35  C12 UNL     1      10.265  28.470  13.267  1.00  0.00     0.103 C 
HETATM   36  N6  UNL     1      11.301  27.829  12.846  1.00  0.00    -0.389 N 
ATOM     37  H6  UNL     1      11.497  26.870  13.135  1.00  0.00     0.159 HD
BRANCH  36  38
HETATM   38  C13 UNL     1      12.175  28.551  11.935  1.00  0.00     0.223 C 
BRANCH  38  39
HETATM   39  C14 UNL     1      13.326  27.697  11.500  1.00  0.00     0.253 C 
HETATM   40  O6  UNL     1      13.739  26.856  12.314  1.00  0.00    -0.270 OA
HETATM   41  N7  UNL     1      13.877  27.882  10.226  1.00  0.00    -0.269 N 
ATOM     42  H7  UNL     1      13.468  28.598   9.625  1.00  0.00     0.190 HD
BRANCH  41  43
HETATM   43  N8  UNL     1      14.926  27.163   9.742  1.00  0.00    -0.308 N 
HETATM   44  C15 UNL     1      14.928  26.463   8.683  1.00  0.00     0.124 C 
ATOM     45  H8  UNL     1      15.792  27.188  10.281  1.00  0.00     0.186 HD
BRANCH  44  46
HETATM   46  C16 UNL     1      16.160  25.771   8.343  1.00  0.00     0.047 A 
HETATM   47  C17 UNL     1      17.133  26.456   7.627  1.00  0.00     0.079 A 
HETATM   48  C18 UNL     1      18.320  25.845   7.302  1.00  0.00     0.037 A 
HETATM   49  C19 UNL     1      18.532  24.542   7.696  1.00  0.00     0.005 A 
HETATM   50  C20 UNL     1      17.585  23.855   8.400  1.00  0.00     0.037 A 
HETATM   51  C21 UNL     1      16.375  24.483   8.728  1.00  0.00     0.117 A 
BRANCH  47  52
HETATM   52  O7  UNL     1      16.930  27.763   7.229  1.00  0.00    -0.360 OA
ATOM     53  H7  UNL     1      16.624  27.962   6.352  1.00  0.00     0.217 HD
ENDBRANCH  47  52
BRANCH  51  54
HETATM   54  N9  UNL     1      15.478  23.672   9.458  1.00  0.00    -0.115 N 
HETATM   55  O8  UNL     1      15.063  22.607   9.012  1.00  0.00    -0.532 OA
HETATM   56  O9  UNL     1      15.093  24.093  10.731  1.00  0.00    -0.532 OA
ENDBRANCH  51  54
ENDBRANCH  44  46
ENDBRANCH  41  43
ENDBRANCH  38  39
ENDBRANCH  36  38
ENDBRANCH  24  35
ENDBRANCH  18  20
ENDBRANCH  15  18
BRANCH  17  57
HETATM   57  O11 UNL     1       7.633  30.661  20.603  1.00  0.00    -0.309 OA
ATOM     58  H11 UNL     1       7.101  31.380  20.922  1.00  0.00     0.237 HD
ENDBRANCH  17  57
ENDBRANCH   6  13
TORSDOF 15
ENDMDL
