MODEL 1
REMARK VINA RESULT: -6.948583952      0.000      0.000
REMARK  11 active torsions:
REMARK  status: ('A' for Active; 'I' for Inactive)
REMARK    1  A    between atoms: N1_1  and  C1_4 
REMARK    2  A    between atoms: C2_7  and  N3_8 
REMARK    3  A    between atoms: C4_14  and  N5_15 
REMARK    4  A    between atoms: N5_15  and  C5_16 
REMARK    5  A    between atoms: N10_25  and  C6_26 
REMARK    6  A    between atoms: C6_26  and  C7_27 
REMARK    7  A    between atoms: N11_29  and  C9_30 
REMARK    8  A    between atoms: C9_30  and  O1_31 
REMARK    9  A    between atoms: O1_31  and  C10_32 
REMARK   10  A    between atoms: C10_32  and  C11_33 
REMARK   11  A    between atoms: C11_33  and  O2_34 
ROOT
HETATM    1  C1  UNL     1      -6.943  35.901  32.357  1.00  0.00     0.679 A 
HETATM    2  N2  UNL     1      -5.907  36.781  32.306  1.00  0.00    -0.175 N 
ATOM      3  H2  UNL     1      -5.010  36.514  31.901  1.00  0.00     0.186 HD
HETATM    4  C2  UNL     1      -6.102  38.002  32.801  1.00  0.00     0.145 A 
HETATM    5  C3  UNL     1      -7.317  38.367  33.349  1.00  0.00     0.125 A 
HETATM    6  N4  UNL     1      -7.781  39.488  33.901  1.00  0.00    -0.310 N 
ATOM      7  H4  UNL     1      -7.240  40.345  34.014  1.00  0.00     0.170 HD
HETATM    8  C4  UNL     1      -9.095  39.332  34.301  1.00  0.00     0.267 A 
HETATM    9  N10 UNL     1      -9.417  38.034  33.958  1.00  0.00    -0.285 N 
HETATM   10  C12 UNL     1      -8.360  37.462  33.392  1.00  0.00     0.158 A 
HETATM   11  N14 UNL     1      -8.129  36.223  32.881  1.00  0.00    -0.174 N 
ATOM     12  H14 UNL     1      -8.875  35.527  32.897  1.00  0.00     0.186 HD
ENDROOT
BRANCH   9  13
HETATM   13  C6  UNL     1     -10.707  37.498  34.218  1.00  0.00     0.195 C 
BRANCH  13  14
HETATM   14  C7  UNL     1     -10.987  37.198  35.620  1.00  0.00     0.062 A 
HETATM   15  C8  UNL     1     -12.146  37.330  36.332  1.00  0.00     0.142 A 
HETATM   16  N11 UNL     1     -11.944  36.931  37.598  1.00  0.00    -0.264 N 
HETATM   17  N12 UNL     1     -10.681  36.562  37.660  1.00  0.00    -0.239 N 
HETATM   18  N13 UNL     1     -10.084  36.711  36.490  1.00  0.00    -0.287 N 
ATOM     19  H12 UNL     1     -10.224  36.208  38.501  1.00  0.00     0.208 HD
ATOM     20  H13 UNL     1      -9.109  36.494  36.283  1.00  0.00     0.188 HD
BRANCH  16  21
HETATM   21  C9  UNL     1     -12.860  36.883  38.710  1.00  0.00     0.317 C 
BRANCH  21  22
HETATM   22  O1  UNL     1     -13.160  38.130  39.189  1.00  0.00    -0.368 OA
BRANCH  22  23
HETATM   23  C10 UNL     1     -14.222  38.755  38.589  1.00  0.00     0.196 C 
BRANCH  23  24
HETATM   24  C11 UNL     1     -13.814  40.032  37.871  1.00  0.00     0.190 C 
BRANCH  24  25
HETATM   25  O2  UNL     1     -12.510  40.384  38.108  1.00  0.00    -0.399 OA
ATOM     26  H2  UNL     1     -12.303  41.261  37.808  1.00  0.00     0.209 HD
ENDBRANCH  24  25
ENDBRANCH  23  24
ENDBRANCH  22  23
ENDBRANCH  21  22
ENDBRANCH  16  21
ENDBRANCH  13  14
ENDBRANCH   9  13
BRANCH   8  27
HETATM   27  N5  UNL     1      -9.843  40.264  34.884  1.00  0.00    -0.333 NA
BRANCH  27  28
HETATM   28  C5  UNL     1     -10.487  41.085  35.422  1.00  0.00     0.294 A 
HETATM   29  N6  UNL     1     -11.742  41.607  35.109  1.00  0.00    -0.242 N 
HETATM   30  N7  UNL     1     -12.029  42.491  36.005  1.00  0.00    -0.225 N 
ATOM     31  H6  UNL     1     -12.326  41.340  34.317  1.00  0.00     0.192 HD
HETATM   32  N8  UNL     1     -11.070  42.605  36.900  1.00  0.00    -0.225 N 
ATOM     33  H7  UNL     1     -12.893  43.033  36.019  1.00  0.00     0.210 HD
HETATM   34  N9  UNL     1     -10.138  41.772  36.567  1.00  0.00    -0.242 N 
ATOM     35  H8  UNL     1     -11.062  43.232  37.704  1.00  0.00     0.210 HD
ATOM     36  H9  UNL     1      -9.266  41.641  37.080  1.00  0.00     0.192 HD
ENDBRANCH  27  28
ENDBRANCH   8  27
BRANCH   4  37
HETATM   37  N3  UNL     1      -5.152  38.853  32.770  1.00  0.00    -0.383 N 
ATOM     38  H32 UNL     1      -4.756  39.124  31.870  1.00  0.00     0.157 HD
ATOM     39  H31 UNL     1      -4.802  39.249  33.642  1.00  0.00     0.157 HD
ENDBRANCH   4  37
BRANCH   1  40
HETATM   40  N1  UNL     1      -6.714  34.730  31.870  1.00  0.00    -0.234 N 
ATOM     41  H12 UNL     1      -5.780  34.320  31.877  1.00  0.00     0.174 HD
ATOM     42  H11 UNL     1      -7.520  34.244  31.478  1.00  0.00     0.174 HD
ENDBRANCH   1  40
TORSDOF 11
ENDMDL
MODEL 2
REMARK VINA RESULT: -6.893970795      3.383      7.464
REMARK  11 active torsions:
REMARK  status: ('A' for Active; 'I' for Inactive)
REMARK    1  A    between atoms: N1_1  and  C1_4 
REMARK    2  A    between atoms: C2_7  and  N3_8 
REMARK    3  A    between atoms: C4_14  and  N5_15 
REMARK    4  A    between atoms: N5_15  and  C5_16 
REMARK    5  A    between atoms: N10_25  and  C6_26 
REMARK    6  A    between atoms: C6_26  and  C7_27 
REMARK    7  A    between atoms: N11_29  and  C9_30 
REMARK    8  A    between atoms: C9_30  and  O1_31 
REMARK    9  A    between atoms: O1_31  and  C10_32 
REMARK   10  A    between atoms: C10_32  and  C11_33 
REMARK   11  A    between atoms: C11_33  and  O2_34 
ROOT
HETATM    1  C1  UNL     1     -12.523  42.130  34.566  1.00  0.00     0.679 A 
HETATM    2  N2  UNL     1     -13.165  42.733  35.602  1.00  0.00    -0.175 N 
ATOM      3  H2  UNL     1     -13.450  43.710  35.548  1.00  0.00     0.186 HD
HETATM    4  C2  UNL     1     -13.410  42.006  36.691  1.00  0.00     0.145 A 
HETATM    5  C3  UNL     1     -13.027  40.680  36.767  1.00  0.00     0.125 A 
HETATM    6  N4  UNL     1     -13.140  39.739  37.705  1.00  0.00    -0.310 N 
ATOM      7  H4  UNL     1     -13.580  39.878  38.614  1.00  0.00     0.170 HD
HETATM    8  C4  UNL     1     -12.580  38.550  37.278  1.00  0.00     0.267 A 
HETATM    9  N10 UNL     1     -12.111  38.816  36.007  1.00  0.00    -0.285 N 
HETATM   10  C12 UNL     1     -12.377  40.082  35.705  1.00  0.00     0.158 A 
HETATM   11  N14 UNL     1     -12.139  40.851  34.609  1.00  0.00    -0.174 N 
ATOM     12  H14 UNL     1     -11.660  40.445  33.805  1.00  0.00     0.186 HD
ENDROOT
BRANCH   9  13
HETATM   13  C6  UNL     1     -11.458  37.817  35.235  1.00  0.00     0.195 C 
BRANCH  13  14
HETATM   14  C7  UNL     1     -10.002  37.910  35.197  1.00  0.00     0.062 A 
HETATM   15  C8  UNL     1      -9.063  36.930  35.029  1.00  0.00     0.142 A 
HETATM   16  N11 UNL     1      -7.836  37.473  35.062  1.00  0.00    -0.264 N 
HETATM   17  N12 UNL     1      -8.019  38.764  35.248  1.00  0.00    -0.239 N 
HETATM   18  N13 UNL     1      -9.307  39.053  35.332  1.00  0.00    -0.287 N 
ATOM     19  H12 UNL     1      -7.268  39.450  35.317  1.00  0.00     0.208 HD
ATOM     20  H13 UNL     1      -9.704  39.982  35.475  1.00  0.00     0.188 HD
BRANCH  16  21
HETATM   21  C9  UNL     1      -6.544  36.848  34.927  1.00  0.00     0.317 C 
BRANCH  21  22
HETATM   22  O1  UNL     1      -6.444  36.107  33.779  1.00  0.00    -0.368 OA
BRANCH  22  23
HETATM   23  C10 UNL     1      -5.350  36.374  32.996  1.00  0.00     0.196 C 
BRANCH  23  24
HETATM   24  C11 UNL     1      -4.239  35.352  33.185  1.00  0.00     0.190 C 
BRANCH  24  25
HETATM   25  O2  UNL     1      -4.402  34.237  32.403  1.00  0.00    -0.399 OA
ATOM     26  H2  UNL     1      -3.995  34.321  31.549  1.00  0.00     0.209 HD
ENDBRANCH  24  25
ENDBRANCH  23  24
ENDBRANCH  22  23
ENDBRANCH  21  22
ENDBRANCH  16  21
ENDBRANCH  13  14
ENDBRANCH   9  13
BRANCH   8  27
HETATM   27  N5  UNL     1     -12.533  37.421  37.979  1.00  0.00    -0.333 NA
BRANCH  27  28
HETATM   28  C5  UNL     1     -12.475  36.438  38.618  1.00  0.00     0.294 A 
HETATM   29  N6  UNL     1     -13.456  35.773  39.356  1.00  0.00    -0.242 N 
HETATM   30  N7  UNL     1     -12.905  34.732  39.884  1.00  0.00    -0.225 N 
ATOM     31  H6  UNL     1     -14.429  36.058  39.459  1.00  0.00     0.192 HD
HETATM   32  N8  UNL     1     -11.631  34.639  39.561  1.00  0.00    -0.225 N 
ATOM     33  H7  UNL     1     -13.395  34.064  40.479  1.00  0.00     0.210 HD
HETATM   34  N9  UNL     1     -11.356  35.651  38.804  1.00  0.00    -0.242 N 
ATOM     35  H8  UNL     1     -10.984  33.907  39.852  1.00  0.00     0.210 HD
ATOM     36  H9  UNL     1     -10.439  35.842  38.400  1.00  0.00     0.192 HD
ENDBRANCH  27  28
ENDBRANCH   8  27
BRANCH   4  37
HETATM   37  N3  UNL     1     -14.010  42.538  37.682  1.00  0.00    -0.383 N 
ATOM     38  H32 UNL     1     -14.907  42.158  37.983  1.00  0.00     0.157 HD
ATOM     39  H31 UNL     1     -13.588  43.335  38.158  1.00  0.00     0.157 HD
ENDBRANCH   4  37
BRANCH   1  40
HETATM   40  N1  UNL     1     -12.303  42.868  33.532  1.00  0.00    -0.234 N 
ATOM     41  H12 UNL     1     -12.406  43.882  33.566  1.00  0.00     0.174 HD
ATOM     42  H11 UNL     1     -12.023  42.376  32.683  1.00  0.00     0.174 HD
ENDBRANCH   1  40
TORSDOF 11
ENDMDL
MODEL 3
REMARK VINA RESULT: -6.849899912      2.650      3.989
REMARK  11 active torsions:
REMARK  status: ('A' for Active; 'I' for Inactive)
REMARK    1  A    between atoms: N1_1  and  C1_4 
REMARK    2  A    between atoms: C2_7  and  N3_8 
REMARK    3  A    between atoms: C4_14  and  N5_15 
REMARK    4  A    between atoms: N5_15  and  C5_16 
REMARK    5  A    between atoms: N10_25  and  C6_26 
REMARK    6  A    between atoms: C6_26  and  C7_27 
REMARK    7  A    between atoms: N11_29  and  C9_30 
REMARK    8  A    between atoms: C9_30  and  O1_31 
REMARK    9  A    between atoms: O1_31  and  C10_32 
REMARK   10  A    between atoms: C10_32  and  C11_33 
REMARK   11  A    between atoms: C11_33  and  O2_34 
ROOT
HETATM    1  C1  UNL     1      -8.522  38.090  33.550  1.00  0.00     0.679 A 
HETATM    2  N2  UNL     1      -7.811  39.230  33.343  1.00  0.00    -0.175 N 
ATOM      3  H2  UNL     1      -6.884  39.203  32.919  1.00  0.00     0.186 HD
HETATM    4  C2  UNL     1      -8.363  40.384  33.712  1.00  0.00     0.145 A 
HETATM    5  C3  UNL     1      -9.621  40.425  34.285  1.00  0.00     0.125 A 
HETATM    6  N4  UNL     1     -10.397  41.410  34.737  1.00  0.00    -0.310 N 
ATOM      7  H4  UNL     1     -10.145  42.398  34.724  1.00  0.00     0.170 HD
HETATM    8  C4  UNL     1     -11.589  40.910  35.227  1.00  0.00     0.267 A 
HETATM    9  N10 UNL     1     -11.500  39.545  35.047  1.00  0.00    -0.285 N 
HETATM   10  C12 UNL     1     -10.330  39.258  34.488  1.00  0.00     0.158 A 
HETATM   11  N14 UNL     1      -9.738  38.096  34.102  1.00  0.00    -0.174 N 
ATOM     12  H14 UNL     1     -10.231  37.213  34.238  1.00  0.00     0.186 HD
ENDROOT
BRANCH   9  13
HETATM   13  C6  UNL     1     -12.556  38.676  35.439  1.00  0.00     0.195 C 
BRANCH  13  14
HETATM   14  C7  UNL     1     -12.329  37.939  36.679  1.00  0.00     0.062 A 
HETATM   15  C8  UNL     1     -12.044  36.617  36.875  1.00  0.00     0.142 A 
HETATM   16  N11 UNL     1     -11.916  36.375  38.189  1.00  0.00    -0.264 N 
HETATM   17  N12 UNL     1     -12.121  37.530  38.789  1.00  0.00    -0.239 N 
HETATM   18  N13 UNL     1     -12.371  38.484  37.908  1.00  0.00    -0.287 N 
ATOM     19  H12 UNL     1     -12.091  37.670  39.799  1.00  0.00     0.208 HD
ATOM     20  H13 UNL     1     -12.562  39.463  38.123  1.00  0.00     0.188 HD
BRANCH  16  21
HETATM   21  C9  UNL     1     -11.616  35.144  38.878  1.00  0.00     0.317 C 
BRANCH  21  22
HETATM   22  O1  UNL     1     -11.217  34.154  38.021  1.00  0.00    -0.368 OA
BRANCH  22  23
HETATM   23  C10 UNL     1     -11.812  32.933  38.208  1.00  0.00     0.196 C 
BRANCH  23  24
HETATM   24  C11 UNL     1     -10.816  31.786  38.146  1.00  0.00     0.190 C 
BRANCH  24  25
HETATM   25  O2  UNL     1     -10.472  31.310  39.386  1.00  0.00    -0.399 OA
ATOM     26  H2  UNL     1      -9.550  31.097  39.457  1.00  0.00     0.209 HD
ENDBRANCH  24  25
ENDBRANCH  23  24
ENDBRANCH  22  23
ENDBRANCH  21  22
ENDBRANCH  16  21
ENDBRANCH  13  14
ENDBRANCH   9  13
BRANCH   8  27
HETATM   27  N5  UNL     1     -12.576  41.634  35.746  1.00  0.00    -0.333 NA
BRANCH  27  28
HETATM   28  C5  UNL     1     -13.463  42.248  36.211  1.00  0.00     0.294 A 
HETATM   29  N6  UNL     1     -13.541  43.589  36.589  1.00  0.00    -0.242 N 
HETATM   30  N7  UNL     1     -14.730  43.794  37.048  1.00  0.00    -0.225 N 
ATOM     31  H6  UNL     1     -12.795  44.281  36.516  1.00  0.00     0.192 HD
HETATM   32  N8  UNL     1     -15.462  42.699  37.008  1.00  0.00    -0.225 N 
ATOM     33  H7  UNL     1     -15.062  44.693  37.399  1.00  0.00     0.210 HD
HETATM   34  N9  UNL     1     -14.720  41.764  36.510  1.00  0.00    -0.242 N 
ATOM     35  H8  UNL     1     -16.431  42.607  37.312  1.00  0.00     0.210 HD
ATOM     36  H9  UNL     1     -15.022  40.801  36.360  1.00  0.00     0.192 HD
ENDBRANCH  27  28
ENDBRANCH   8  27
BRANCH   4  37
HETATM   37  N3  UNL     1      -7.725  41.474  33.533  1.00  0.00    -0.383 N 
ATOM     38  H32 UNL     1      -7.742  42.186  34.263  1.00  0.00     0.157 HD
ATOM     39  H31 UNL     1      -7.210  41.620  32.665  1.00  0.00     0.157 HD
ENDBRANCH   4  37
BRANCH   1  40
HETATM   40  N1  UNL     1      -7.952  36.994  33.181  1.00  0.00    -0.234 N 
ATOM     41  H12 UNL     1      -7.462  36.919  32.289  1.00  0.00     0.174 HD
ATOM     42  H11 UNL     1      -8.022  36.212  33.833  1.00  0.00     0.174 HD
ENDBRANCH   1  40
TORSDOF 11
ENDMDL
MODEL 4
REMARK VINA RESULT: -6.828499095      3.246      4.100
REMARK  11 active torsions:
REMARK  status: ('A' for Active; 'I' for Inactive)
REMARK    1  A    between atoms: N1_1  and  C1_4 
REMARK    2  A    between atoms: C2_7  and  N3_8 
REMARK    3  A    between atoms: C4_14  and  N5_15 
REMARK    4  A    between atoms: N5_15  and  C5_16 
REMARK    5  A    between atoms: N10_25  and  C6_26 
REMARK    6  A    between atoms: C6_26  and  C7_27 
REMARK    7  A    between atoms: N11_29  and  C9_30 
REMARK    8  A    between atoms: C9_30  and  O1_31 
REMARK    9  A    between atoms: O1_31  and  C10_32 
REMARK   10  A    between atoms: C10_32  and  C11_33 
REMARK   11  A    between atoms: C11_33  and  O2_34 
ROOT
HETATM    1  C1  UNL     1      -5.754  35.975  30.496  1.00  0.00     0.679 A 
HETATM    2  N2  UNL     1      -4.673  36.753  30.770  1.00  0.00    -0.175 N 
ATOM      3  H2  UNL     1      -3.774  36.581  30.321  1.00  0.00     0.186 HD
HETATM    4  C2  UNL     1      -4.825  37.746  31.644  1.00  0.00     0.145 A 
HETATM    5  C3  UNL     1      -6.044  37.983  32.253  1.00  0.00     0.125 A 
HETATM    6  N4  UNL     1      -6.473  38.881  33.140  1.00  0.00    -0.310 N 
ATOM      7  H4  UNL     1      -5.893  39.614  33.549  1.00  0.00     0.170 HD
HETATM    8  C4  UNL     1      -7.809  38.683  33.432  1.00  0.00     0.267 A 
HETATM    9  N10 UNL     1      -8.182  37.600  32.663  1.00  0.00    -0.285 N 
HETATM   10  C12 UNL     1      -7.133  37.184  31.963  1.00  0.00     0.158 A 
HETATM   11  N14 UNL     1      -6.944  36.177  31.068  1.00  0.00    -0.174 N 
ATOM     12  H14 UNL     1      -7.725  35.565  30.830  1.00  0.00     0.186 HD
ENDROOT
BRANCH   9  13
HETATM   13  C6  UNL     1      -9.509  37.091  32.695  1.00  0.00     0.195 C 
BRANCH  13  14
HETATM   14  C7  UNL     1     -10.507  37.905  32.008  1.00  0.00     0.062 A 
HETATM   15  C8  UNL     1     -11.723  38.355  32.441  1.00  0.00     0.142 A 
HETATM   16  N11 UNL     1     -12.308  39.075  31.470  1.00  0.00    -0.264 N 
HETATM   17  N12 UNL     1     -11.464  39.065  30.459  1.00  0.00    -0.239 N 
HETATM   18  N13 UNL     1     -10.378  38.372  30.753  1.00  0.00    -0.287 N 
ATOM     19  H12 UNL     1     -11.628  39.531  29.566  1.00  0.00     0.208 HD
ATOM     20  H13 UNL     1      -9.579  38.219  30.136  1.00  0.00     0.188 HD
BRANCH  16  21
HETATM   21  C9  UNL     1     -13.582  39.750  31.458  1.00  0.00     0.317 C 
BRANCH  21  22
HETATM   22  O1  UNL     1     -13.447  41.112  31.464  1.00  0.00    -0.368 OA
BRANCH  22  23
HETATM   23  C10 UNL     1     -13.188  41.677  32.686  1.00  0.00     0.196 C 
BRANCH  23  24
HETATM   24  C11 UNL     1     -11.967  42.583  32.659  1.00  0.00     0.190 C 
BRANCH  24  25
HETATM   25  O2  UNL     1     -10.941  42.120  33.444  1.00  0.00    -0.399 OA
ATOM     26  H2  UNL     1     -11.237  41.797  34.286  1.00  0.00     0.209 HD
ENDBRANCH  24  25
ENDBRANCH  23  24
ENDBRANCH  22  23
ENDBRANCH  21  22
ENDBRANCH  16  21
ENDBRANCH  13  14
ENDBRANCH   9  13
BRANCH   8  27
HETATM   27  N5  UNL     1      -8.533  39.411  34.277  1.00  0.00    -0.333 NA
BRANCH  27  28
HETATM   28  C5  UNL     1      -9.184  40.068  35.001  1.00  0.00     0.294 A 
HETATM   29  N6  UNL     1     -10.506  39.922  35.421  1.00  0.00    -0.242 N 
HETATM   30  N7  UNL     1     -10.769  40.900  36.221  1.00  0.00    -0.225 N 
ATOM     31  H6  UNL     1     -11.147  39.178  35.147  1.00  0.00     0.192 HD
HETATM   32  N8  UNL     1      -9.730  41.694  36.376  1.00  0.00    -0.225 N 
ATOM     33  H7  UNL     1     -11.671  41.040  36.677  1.00  0.00     0.210 HD
HETATM   34  N9  UNL     1      -8.772  41.213  35.654  1.00  0.00    -0.242 N 
ATOM     35  H8  UNL     1      -9.688  42.531  36.958  1.00  0.00     0.210 HD
ATOM     36  H9  UNL     1      -7.841  41.622  35.576  1.00  0.00     0.192 HD
ENDBRANCH  27  28
ENDBRANCH   8  27
BRANCH   4  37
HETATM   37  N3  UNL     1      -3.833  38.496  31.925  1.00  0.00    -0.383 N 
ATOM     38  H32 UNL     1      -2.967  38.395  31.395  1.00  0.00     0.157 HD
ATOM     39  H31 UNL     1      -3.917  39.184  32.674  1.00  0.00     0.157 HD
ENDBRANCH   4  37
BRANCH   1  40
HETATM   40  N1  UNL     1      -5.565  35.024  29.647  1.00  0.00    -0.234 N 
ATOM     41  H12 UNL     1      -6.213  34.239  29.569  1.00  0.00     0.174 HD
ATOM     42  H11 UNL     1      -4.733  35.104  29.063  1.00  0.00     0.174 HD
ENDBRANCH   1  40
TORSDOF 11
ENDMDL
MODEL 5
REMARK VINA RESULT: -6.731722884      4.694      8.154
REMARK  11 active torsions:
REMARK  status: ('A' for Active; 'I' for Inactive)
REMARK    1  A    between atoms: N1_1  and  C1_4 
REMARK    2  A    between atoms: C2_7  and  N3_8 
REMARK    3  A    between atoms: C4_14  and  N5_15 
REMARK    4  A    between atoms: N5_15  and  C5_16 
REMARK    5  A    between atoms: N10_25  and  C6_26 
REMARK    6  A    between atoms: C6_26  and  C7_27 
REMARK    7  A    between atoms: N11_29  and  C9_30 
REMARK    8  A    between atoms: C9_30  and  O1_31 
REMARK    9  A    between atoms: O1_31  and  C10_32 
REMARK   10  A    between atoms: C10_32  and  C11_33 
REMARK   11  A    between atoms: C11_33  and  O2_34 
ROOT
HETATM    1  C1  UNL     1     -14.087  42.831  36.838  1.00  0.00     0.679 A 
HETATM    2  N2  UNL     1     -13.701  42.114  37.927  1.00  0.00    -0.175 N 
ATOM      3  H2  UNL     1     -14.162  42.236  38.828  1.00  0.00     0.186 HD
HETATM    4  C2  UNL     1     -12.701  41.246  37.780  1.00  0.00     0.145 A 
HETATM    5  C3  UNL     1     -12.076  41.077  36.559  1.00  0.00     0.125 A 
HETATM    6  N4  UNL     1     -11.078  40.302  36.133  1.00  0.00    -0.310 N 
ATOM      7  H4  UNL     1     -10.568  39.640  36.719  1.00  0.00     0.170 HD
HETATM    8  C4  UNL     1     -10.826  40.517  34.791  1.00  0.00     0.267 A 
HETATM    9  N10 UNL     1     -11.739  41.480  34.411  1.00  0.00    -0.285 N 
HETATM   10  C12 UNL     1     -12.480  41.812  35.462  1.00  0.00     0.158 A 
HETATM   11  N14 UNL     1     -13.502  42.691  35.645  1.00  0.00    -0.174 N 
ATOM     12  H14 UNL     1     -13.827  43.253  34.859  1.00  0.00     0.186 HD
ENDROOT
BRANCH   9  13
HETATM   13  C6  UNL     1     -11.786  41.969  33.077  1.00  0.00     0.195 C 
BRANCH  13  14
HETATM   14  C7  UNL     1     -12.415  41.077  32.107  1.00  0.00     0.062 A 
HETATM   15  C8  UNL     1     -12.041  40.765  30.830  1.00  0.00     0.142 A 
HETATM   16  N11 UNL     1     -12.919  39.895  30.304  1.00  0.00    -0.264 N 
HETATM   17  N12 UNL     1     -13.816  39.679  31.244  1.00  0.00    -0.239 N 
HETATM   18  N13 UNL     1     -13.538  40.373  32.334  1.00  0.00    -0.287 N 
ATOM     19  H12 UNL     1     -14.618  39.057  31.144  1.00  0.00     0.208 HD
ATOM     20  H13 UNL     1     -14.082  40.376  33.198  1.00  0.00     0.188 HD
BRANCH  16  21
HETATM   21  C9  UNL     1     -12.944  39.279  29.001  1.00  0.00     0.317 C 
BRANCH  21  22
HETATM   22  O1  UNL     1     -13.461  40.111  28.045  1.00  0.00    -0.368 OA
BRANCH  22  23
HETATM   23  C10 UNL     1     -14.152  39.494  27.033  1.00  0.00     0.196 C 
BRANCH  23  24
HETATM   24  C11 UNL     1     -14.535  40.458  25.921  1.00  0.00     0.190 C 
BRANCH  24  25
HETATM   25  O2  UNL     1     -14.203  41.759  26.203  1.00  0.00    -0.399 OA
ATOM     26  H2  UNL     1     -14.834  42.186  26.771  1.00  0.00     0.209 HD
ENDBRANCH  24  25
ENDBRANCH  23  24
ENDBRANCH  22  23
ENDBRANCH  21  22
ENDBRANCH  16  21
ENDBRANCH  13  14
ENDBRANCH   9  13
BRANCH   8  27
HETATM   27  N5  UNL     1      -9.896  39.900  34.069  1.00  0.00    -0.333 NA
BRANCH  27  28
HETATM   28  C5  UNL     1      -9.075  39.333  33.450  1.00  0.00     0.294 A 
HETATM   29  N6  UNL     1      -7.683  39.423  33.484  1.00  0.00    -0.242 N 
HETATM   30  N7  UNL     1      -7.219  38.594  32.611  1.00  0.00    -0.225 N 
ATOM     31  H6  UNL     1      -7.134  40.033  34.089  1.00  0.00     0.192 HD
HETATM   32  N8  UNL     1      -8.185  37.949  31.991  1.00  0.00    -0.225 N 
ATOM     33  H7  UNL     1      -6.225  38.455  32.425  1.00  0.00     0.210 HD
HETATM   34  N9  UNL     1      -9.303  38.378  32.479  1.00  0.00    -0.242 N 
ATOM     35  H8  UNL     1      -8.073  37.243  31.263  1.00  0.00     0.210 HD
ATOM     36  H9  UNL     1     -10.226  38.056  32.187  1.00  0.00     0.192 HD
ENDBRANCH  27  28
ENDBRANCH   8  27
BRANCH   4  37
HETATM   37  N3  UNL     1     -12.313  40.556  38.779  1.00  0.00    -0.383 N 
ATOM     38  H32 UNL     1     -12.931  40.454  39.584  1.00  0.00     0.157 HD
ATOM     39  H31 UNL     1     -11.392  40.119  38.762  1.00  0.00     0.157 HD
ENDBRANCH   4  37
BRANCH   1  40
HETATM   40  N1  UNL     1     -15.056  43.661  37.023  1.00  0.00    -0.234 N 
ATOM     41  H12 UNL     1     -15.990  43.484  36.653  1.00  0.00     0.174 HD
ATOM     42  H11 UNL     1     -14.831  44.500  37.557  1.00  0.00     0.174 HD
ENDBRANCH   1  40
TORSDOF 11
ENDMDL
