MODEL 1
REMARK VINA RESULT: -6.133496467      0.000      0.000
REMARK  3 active torsions:
REMARK  status: ('A' for Active; 'I' for Inactive)
REMARK    1  A    between atoms: C1_2  and  C2_3 
REMARK    2  A    between atoms: C3_4  and  C4_5 
REMARK    3  A    between atoms: N1_6  and  N2_8 
ROOT
HETATM    1  C4  UNL     1      -0.157  27.340  12.300  1.00  0.00     0.107 C 
HETATM    2  N1  UNL     1      -0.511  27.990  13.353  1.00  0.00    -0.314 N 
ATOM      3  H1  UNL     1       0.140  28.621  13.822  1.00  0.00     0.185 HD
ENDROOT
BRANCH   2   4
HETATM    4  N2  UNL     1      -1.807  27.808  13.836  1.00  0.00    -0.328 N 
HETATM    5  C5  UNL     1      -2.151  26.567  14.497  1.00  0.00     0.142 C 
HETATM    6  C6  UNL     1      -3.470  26.012  14.021  1.00  0.00     0.021 C 
HETATM    7  C7  UNL     1      -4.285  27.037  13.267  1.00  0.00     0.003 C 
HETATM    8  C8  UNL     1      -4.132  28.368  13.981  1.00  0.00     0.021 C 
HETATM    9  C9  UNL     1      -2.747  28.888  13.645  1.00  0.00     0.142 C 
ENDBRANCH   2   4
BRANCH   1  10
HETATM   10  C3  UNL     1       1.187  27.525  11.793  1.00  0.00     0.022 C 
HETATM   11  C2  UNL     1       1.551  27.042  10.620  1.00  0.00     0.042 C 
BRANCH  11  12
HETATM   12  C1  UNL     1       2.904  27.241  10.137  1.00  0.00     0.258 C 
HETATM   13  O1  UNL     1       3.482  28.363  10.311  1.00  0.00    -0.302 OA
ENDBRANCH  11  12
ENDBRANCH   1  10
TORSDOF 3
ENDMDL
MODEL 2
REMARK VINA RESULT: -6.101135098      1.407      2.097
REMARK  3 active torsions:
REMARK  status: ('A' for Active; 'I' for Inactive)
REMARK    1  A    between atoms: C1_2  and  C2_3 
REMARK    2  A    between atoms: C3_4  and  C4_5 
REMARK    3  A    between atoms: N1_6  and  N2_8 
ROOT
HETATM    1  C4  UNL     1      -0.352  26.650  10.621  1.00  0.00     0.107 C 
HETATM    2  N1  UNL     1      -0.695  27.506  11.519  1.00  0.00    -0.314 N 
ATOM      3  H1  UNL     1      -0.039  28.219  11.841  1.00  0.00     0.185 HD
ENDROOT
BRANCH   2   4
HETATM    4  N2  UNL     1      -1.988  27.433  12.041  1.00  0.00    -0.328 N 
HETATM    5  C5  UNL     1      -2.869  28.574  11.916  1.00  0.00     0.142 C 
HETATM    6  C6  UNL     1      -3.591  28.882  13.205  1.00  0.00     0.021 C 
HETATM    7  C7  UNL     1      -3.520  27.738  14.189  1.00  0.00     0.003 C 
HETATM    8  C8  UNL     1      -3.687  26.445  13.411  1.00  0.00     0.021 C 
HETATM    9  C9  UNL     1      -2.378  26.200  12.685  1.00  0.00     0.142 C 
ENDBRANCH   2   4
BRANCH   1  10
HETATM   10  C3  UNL     1       0.987  26.720  10.076  1.00  0.00     0.022 C 
HETATM   11  C2  UNL     1       1.938  27.409  10.679  1.00  0.00     0.042 C 
BRANCH  11  12
HETATM   12  C1  UNL     1       3.272  27.463  10.112  1.00  0.00     0.258 C 
HETATM   13  O1  UNL     1       4.102  26.526  10.349  1.00  0.00    -0.302 OA
ENDBRANCH  11  12
ENDBRANCH   1  10
TORSDOF 3
ENDMDL
MODEL 3
REMARK VINA RESULT: -6.017061304      3.282      6.098
REMARK  3 active torsions:
REMARK  status: ('A' for Active; 'I' for Inactive)
REMARK    1  A    between atoms: C1_2  and  C2_3 
REMARK    2  A    between atoms: C3_4  and  C4_5 
REMARK    3  A    between atoms: N1_6  and  N2_8 
ROOT
HETATM    1  C4  UNL     1      -1.409  26.197  11.916  1.00  0.00     0.107 C 
HETATM    2  N1  UNL     1      -0.778  27.130  11.292  1.00  0.00    -0.314 N 
ATOM      3  H1  UNL     1      -1.060  28.106  11.386  1.00  0.00     0.185 HD
ENDROOT
BRANCH   2   4
HETATM    4  N2  UNL     1       0.303  26.770  10.485  1.00  0.00    -0.328 N 
HETATM    5  C5  UNL     1       0.056  26.270   9.150  1.00  0.00     0.142 C 
HETATM    6  C6  UNL     1       0.878  25.044   8.837  1.00  0.00     0.021 C 
HETATM    7  C7  UNL     1       2.012  24.849   9.816  1.00  0.00     0.003 C 
HETATM    8  C8  UNL     1       2.604  26.215  10.118  1.00  0.00     0.021 C 
HETATM    9  C9  UNL     1       1.628  26.920  11.040  1.00  0.00     0.142 C 
ENDBRANCH   2   4
BRANCH   1  10
HETATM   10  C3  UNL     1      -2.530  26.564  12.755  1.00  0.00     0.022 C 
HETATM   11  C2  UNL     1      -2.974  27.806  12.803  1.00  0.00     0.042 C 
BRANCH  11  12
HETATM   12  C1  UNL     1      -4.099  28.147  13.652  1.00  0.00     0.258 C 
HETATM   13  O1  UNL     1      -5.091  27.351  13.743  1.00  0.00    -0.302 OA
ENDBRANCH  11  12
ENDBRANCH   1  10
TORSDOF 3
ENDMDL
MODEL 4
REMARK VINA RESULT: -6.004494009      2.769      3.229
REMARK  3 active torsions:
REMARK  status: ('A' for Active; 'I' for Inactive)
REMARK    1  A    between atoms: C1_2  and  C2_3 
REMARK    2  A    between atoms: C3_4  and  C4_5 
REMARK    3  A    between atoms: N1_6  and  N2_8 
ROOT
HETATM    1  C4  UNL     1      -0.638  25.861  12.660  1.00  0.00     0.107 C 
HETATM    2  N1  UNL     1      -1.872  25.652  12.356  1.00  0.00    -0.314 N 
ATOM      3  H1  UNL     1      -2.171  24.757  11.968  1.00  0.00     0.185 HD
ENDROOT
BRANCH   2   4
HETATM    4  N2  UNL     1      -2.787  26.684  12.571  1.00  0.00    -0.328 N 
HETATM    5  C5  UNL     1      -2.651  27.920  11.831  1.00  0.00     0.142 C 
HETATM    6  C6  UNL     1      -2.804  29.134  12.714  1.00  0.00     0.021 C 
HETATM    7  C7  UNL     1      -3.422  28.796  14.051  1.00  0.00     0.003 C 
HETATM    8  C8  UNL     1      -4.522  27.777  13.810  1.00  0.00     0.021 C 
HETATM    9  C9  UNL     1      -3.837  26.452  13.536  1.00  0.00     0.142 C 
ENDBRANCH   2   4
BRANCH   1  10
HETATM   10  C3  UNL     1       0.317  24.796  12.439  1.00  0.00     0.022 C 
HETATM   11  C2  UNL     1       0.630  24.395  11.221  1.00  0.00     0.042 C 
BRANCH  11  12
HETATM   12  C1  UNL     1       1.590  23.325  11.028  1.00  0.00     0.258 C 
HETATM   13  O1  UNL     1       1.574  22.310  11.798  1.00  0.00    -0.302 OA
ENDBRANCH  11  12
ENDBRANCH   1  10
TORSDOF 3
ENDMDL
MODEL 5
REMARK VINA RESULT: -5.961346587      1.696      2.294
REMARK  3 active torsions:
REMARK  status: ('A' for Active; 'I' for Inactive)
REMARK    1  A    between atoms: C1_2  and  C2_3 
REMARK    2  A    between atoms: C3_4  and  C4_5 
REMARK    3  A    between atoms: N1_6  and  N2_8 
ROOT
HETATM    1  C4  UNL     1      -0.040  27.393  11.635  1.00  0.00     0.107 C 
HETATM    2  N1  UNL     1      -0.902  26.555  12.096  1.00  0.00    -0.314 N 
ATOM      3  H1  UNL     1      -0.644  25.586  12.280  1.00  0.00     0.185 HD
ENDROOT
BRANCH   2   4
HETATM    4  N2  UNL     1      -2.200  27.010  12.336  1.00  0.00    -0.328 N 
HETATM    5  C5  UNL     1      -2.618  28.283  11.791  1.00  0.00     0.142 C 
HETATM    6  C6  UNL     1      -3.356  29.124  12.804  1.00  0.00     0.021 C 
HETATM    7  C7  UNL     1      -3.806  28.317  13.999  1.00  0.00     0.003 C 
HETATM    8  C8  UNL     1      -4.297  26.972  13.493  1.00  0.00     0.021 C 
HETATM    9  C9  UNL     1      -3.065  26.167  13.128  1.00  0.00     0.142 C 
ENDBRANCH   2   4
BRANCH   1  10
HETATM   10  C3  UNL     1       1.308  26.928  11.383  1.00  0.00     0.022 C 
HETATM   11  C2  UNL     1       1.877  26.023  12.157  1.00  0.00     0.042 C 
BRANCH  11  12
HETATM   12  C1  UNL     1       3.229  25.574  11.883  1.00  0.00     0.258 C 
HETATM   13  O1  UNL     1       4.186  25.940  12.641  1.00  0.00    -0.302 OA
ENDBRANCH  11  12
ENDBRANCH   1  10
TORSDOF 3
ENDMDL
