MODEL 1
REMARK VINA RESULT: -6.280314718      0.000      0.000
REMARK  4 active torsions:
REMARK  status: ('A' for Active; 'I' for Inactive)
REMARK    1  A    between atoms: C2_3  and  C3_4 
REMARK    2  A    between atoms: C3_4  and  C4_5 
REMARK    3  A    between atoms: C4_5  and  O2_7 
REMARK    4  A    between atoms: O2_7  and  C5_8 
ROOT
HETATM    1  N1  UNL     1       1.440  22.992  11.241  1.00  0.00    -0.197 NA
HETATM    2  C1  UNL     1       1.593  23.810  10.455  1.00  0.00     0.059 C 
HETATM    3  C2  UNL     1       1.780  24.837   9.446  1.00  0.00     0.133 C 
ENDROOT
BRANCH   3   4
HETATM    4  C3  UNL     1       0.479  25.549   9.131  1.00  0.00     0.125 C 
BRANCH   4   5
HETATM    5  C4  UNL     1       0.054  26.286  10.353  1.00  0.00     0.260 C 
HETATM    6  O1  UNL     1       0.712  27.293  10.784  1.00  0.00    -0.265 OA
BRANCH   5   7
HETATM    7  O2  UNL     1      -1.063  25.943  11.095  1.00  0.00    -0.316 OA
BRANCH   7   8
HETATM    8  C5  UNL     1      -1.229  26.271  12.436  1.00  0.00     0.132 C 
HETATM    9  C6  UNL     1      -0.440  25.291  13.319  1.00  0.00     0.032 C 
HETATM   10  C7  UNL     1      -0.951  25.722  14.674  1.00  0.00     0.002 C 
HETATM   11  C8  UNL     1      -2.440  25.788  14.437  1.00  0.00     0.002 C 
HETATM   12  C9  UNL     1      -2.630  26.046  12.954  1.00  0.00     0.032 C 
ENDBRANCH   7   8
ENDBRANCH   5   7
ENDBRANCH   4   5
ENDBRANCH   3   4
TORSDOF 4
ENDMDL
MODEL 2
REMARK VINA RESULT: -6.276318203      1.448      2.041
REMARK  4 active torsions:
REMARK  status: ('A' for Active; 'I' for Inactive)
REMARK    1  A    between atoms: C2_3  and  C3_4 
REMARK    2  A    between atoms: C3_4  and  C4_5 
REMARK    3  A    between atoms: C4_5  and  O2_7 
REMARK    4  A    between atoms: O2_7  and  C5_8 
ROOT
HETATM    1  N1  UNL     1       1.567  23.007  11.247  1.00  0.00    -0.197 NA
HETATM    2  C1  UNL     1       1.547  23.786  10.409  1.00  0.00     0.059 C 
HETATM    3  C2  UNL     1       1.507  24.765   9.338  1.00  0.00     0.133 C 
ENDROOT
BRANCH   3   4
HETATM    4  C3  UNL     1       0.373  25.752   9.531  1.00  0.00     0.125 C 
BRANCH   4   5
HETATM    5  C4  UNL     1       0.825  26.784  10.505  1.00  0.00     0.260 C 
HETATM    6  O1  UNL     1       1.931  27.406  10.350  1.00  0.00    -0.265 OA
BRANCH   5   7
HETATM    7  O2  UNL     1       0.096  27.138  11.628  1.00  0.00    -0.316 OA
BRANCH   7   8
HETATM    8  C5  UNL     1      -1.246  27.499  11.593  1.00  0.00     0.132 C 
HETATM    9  C6  UNL     1      -1.444  28.857  12.282  1.00  0.00     0.032 C 
HETATM   10  C7  UNL     1      -2.954  28.903  12.298  1.00  0.00     0.002 C 
HETATM   11  C8  UNL     1      -3.301  27.526  12.811  1.00  0.00     0.002 C 
HETATM   12  C9  UNL     1      -2.139  26.623  12.441  1.00  0.00     0.032 C 
ENDBRANCH   7   8
ENDBRANCH   5   7
ENDBRANCH   4   5
ENDBRANCH   3   4
TORSDOF 4
ENDMDL
MODEL 3
REMARK VINA RESULT: -6.247558923      1.142      1.701
REMARK  4 active torsions:
REMARK  status: ('A' for Active; 'I' for Inactive)
REMARK    1  A    between atoms: C2_3  and  C3_4 
REMARK    2  A    between atoms: C3_4  and  C4_5 
REMARK    3  A    between atoms: C4_5  and  O2_7 
REMARK    4  A    between atoms: O2_7  and  C5_8 
ROOT
HETATM    1  N1  UNL     1       1.574  22.999  11.336  1.00  0.00    -0.197 NA
HETATM    2  C1  UNL     1       1.536  23.717  10.446  1.00  0.00     0.059 C 
HETATM    3  C2  UNL     1       1.472  24.620   9.311  1.00  0.00     0.133 C 
ENDROOT
BRANCH   3   4
HETATM    4  C3  UNL     1       0.489  25.748   9.554  1.00  0.00     0.125 C 
BRANCH   4   5
HETATM    5  C4  UNL     1       1.149  26.746  10.441  1.00  0.00     0.260 C 
HETATM    6  O1  UNL     1       2.256  27.295  10.116  1.00  0.00    -0.265 OA
BRANCH   5   7
HETATM    7  O2  UNL     1       0.621  27.145  11.657  1.00  0.00    -0.316 OA
BRANCH   7   8
HETATM    8  C5  UNL     1       0.584  26.334  12.785  1.00  0.00     0.132 C 
HETATM    9  C6  UNL     1      -0.838  25.792  12.998  1.00  0.00     0.032 C 
HETATM   10  C7  UNL     1      -0.653  25.151  14.353  1.00  0.00     0.002 C 
HETATM   11  C8  UNL     1       0.065  26.239  15.115  1.00  0.00     0.002 C 
HETATM   12  C9  UNL     1       0.795  27.078  14.083  1.00  0.00     0.032 C 
ENDBRANCH   7   8
ENDBRANCH   5   7
ENDBRANCH   4   5
ENDBRANCH   3   4
TORSDOF 4
ENDMDL
MODEL 4
REMARK VINA RESULT: -6.239835856      3.489      4.351
REMARK  4 active torsions:
REMARK  status: ('A' for Active; 'I' for Inactive)
REMARK    1  A    between atoms: C2_3  and  C3_4 
REMARK    2  A    between atoms: C3_4  and  C4_5 
REMARK    3  A    between atoms: C4_5  and  O2_7 
REMARK    4  A    between atoms: O2_7  and  C5_8 
ROOT
HETATM    1  N1  UNL     1       0.047  27.729  11.665  1.00  0.00    -0.197 NA
HETATM    2  C1  UNL     1      -1.081  27.909  11.583  1.00  0.00     0.059 C 
HETATM    3  C2  UNL     1      -2.513  28.123  11.492  1.00  0.00     0.133 C 
ENDROOT
BRANCH   3   4
HETATM    4  C3  UNL     1      -3.039  28.878  12.697  1.00  0.00     0.125 C 
BRANCH   4   5
HETATM    5  C4  UNL     1      -3.640  27.885  13.631  1.00  0.00     0.260 C 
HETATM    6  O1  UNL     1      -4.651  27.181  13.293  1.00  0.00    -0.265 OA
BRANCH   5   7
HETATM    7  O2  UNL     1      -3.156  27.658  14.908  1.00  0.00    -0.316 OA
BRANCH   7   8
HETATM    8  C5  UNL     1      -2.165  26.728  15.203  1.00  0.00     0.132 C 
HETATM    9  C6  UNL     1      -0.780  27.386  15.103  1.00  0.00     0.032 C 
HETATM   10  C7  UNL     1       0.084  26.155  15.248  1.00  0.00     0.002 C 
HETATM   11  C8  UNL     1      -0.577  25.197  14.285  1.00  0.00     0.002 C 
HETATM   12  C9  UNL     1      -2.027  25.631  14.174  1.00  0.00     0.032 C 
ENDBRANCH   7   8
ENDBRANCH   5   7
ENDBRANCH   4   5
ENDBRANCH   3   4
TORSDOF 4
ENDMDL
MODEL 5
REMARK VINA RESULT: -6.151788217      2.407      2.959
REMARK  4 active torsions:
REMARK  status: ('A' for Active; 'I' for Inactive)
REMARK    1  A    between atoms: C2_3  and  C3_4 
REMARK    2  A    between atoms: C3_4  and  C4_5 
REMARK    3  A    between atoms: C4_5  and  O2_7 
REMARK    4  A    between atoms: O2_7  and  C5_8 
ROOT
HETATM    1  N1  UNL     1       3.071  28.164  10.167  1.00  0.00    -0.197 NA
HETATM    2  C1  UNL     1       2.394  27.242  10.119  1.00  0.00     0.059 C 
HETATM    3  C2  UNL     1       1.534  26.073  10.077  1.00  0.00     0.133 C 
ENDROOT
BRANCH   3   4
HETATM    4  C3  UNL     1       0.072  26.457  10.186  1.00  0.00     0.125 C 
BRANCH   4   5
HETATM    5  C4  UNL     1      -0.453  25.898  11.462  1.00  0.00     0.260 C 
HETATM    6  O1  UNL     1       0.311  25.286  12.285  1.00  0.00    -0.265 OA
BRANCH   5   7
HETATM    7  O2  UNL     1      -1.780  25.998  11.844  1.00  0.00    -0.316 OA
BRANCH   7   8
HETATM    8  C5  UNL     1      -2.259  26.961  12.725  1.00  0.00     0.132 C 
HETATM    9  C6  UNL     1      -3.710  26.643  13.117  1.00  0.00     0.032 C 
HETATM   10  C7  UNL     1      -4.041  27.910  13.870  1.00  0.00     0.002 C 
HETATM   11  C8  UNL     1      -3.531  28.973  12.927  1.00  0.00     0.002 C 
HETATM   12  C9  UNL     1      -2.431  28.328  12.104  1.00  0.00     0.032 C 
ENDBRANCH   7   8
ENDBRANCH   5   7
ENDBRANCH   4   5
ENDBRANCH   3   4
TORSDOF 4
ENDMDL
