MODEL 1
REMARK VINA RESULT: -8.011903760      0.000      0.000
REMARK  5 active torsions:
REMARK  status: ('A' for Active; 'I' for Inactive)
REMARK    1  A    between atoms: O1_1  and  N1_3 
REMARK    2  A    between atoms: N1_3  and  C1_5 
REMARK    3  A    between atoms: C6_10  and  N2_11 
REMARK       I    between atoms: N2_11  and  C7_13 
REMARK    4  A    between atoms: C7_13  and  C8_15 
REMARK       I    between atoms: C8_15  and  N3_17 
REMARK    5  A    between atoms: N3_17  and  C9_19 
ROOT
HETATM    1  N2  UNL     1       0.877  27.558   9.390  1.00  0.00    -0.317 N 
ATOM      2  H2  UNL     1       0.755  26.574   9.152  1.00  0.00     0.169 HD
HETATM    3  C7  UNL     1       0.314  27.939  10.598  1.00  0.00     0.314 C 
HETATM    4  O2  UNL     1       0.372  29.107  11.040  1.00  0.00    -0.262 OA
ENDROOT
BRANCH   1   5
HETATM    5  C6  UNL     1       1.590  28.308   8.439  1.00  0.00     0.064 A 
HETATM    6  C1  UNL     1       2.952  28.058   8.216  1.00  0.00     0.081 A 
HETATM    7  C2  UNL     1       3.693  28.751   7.310  1.00  0.00     0.034 A 
HETATM    8  C3  UNL     1       3.072  29.739   6.584  1.00  0.00     0.002 A 
HETATM    9  C4  UNL     1       1.746  30.010   6.774  1.00  0.00     0.002 A 
HETATM   10  C5  UNL     1       0.986  29.295   7.708  1.00  0.00     0.032 A 
BRANCH   6  11
HETATM   11  N1  UNL     1       3.577  27.041   8.969  1.00  0.00    -0.267 N 
ATOM     12  H1  UNL     1       4.380  27.313   9.537  1.00  0.00     0.194 HD
BRANCH  11  13
HETATM   13  O1  UNL     1       3.243  25.860   9.004  1.00  0.00    -0.289 OA
ATOM     14  H1  UNL     1       3.809  25.115   8.837  1.00  0.00     0.244 HD
ENDBRANCH  11  13
ENDBRANCH   6  11
ENDBRANCH   1   5
BRANCH   3  15
HETATM   15  C8  UNL     1      -0.388  26.920  11.405  1.00  0.00     0.315 C 
HETATM   16  O3  UNL     1      -1.632  26.843  11.316  1.00  0.00    -0.262 OA
HETATM   17  N3  UNL     1       0.323  26.050  12.262  1.00  0.00    -0.299 N 
ATOM     18  H3  UNL     1       1.339  26.112  12.337  1.00  0.00     0.171 HD
BRANCH  17  19
HETATM   19  C9  UNL     1      -0.395  25.091  13.014  1.00  0.00     0.149 A 
HETATM   20  C10 UNL     1      -1.001  25.319  14.254  1.00  0.00     0.058 A 
HETATM   21  C11 UNL     1      -1.595  24.138  14.648  1.00  0.00     0.029 A 
HETATM   22  C12 UNL     1      -1.334  23.235  13.642  1.00  0.00     0.144 A 
HETATM   23  O4  UNL     1      -0.634  23.825  12.709  1.00  0.00    -0.306 OA
ENDBRANCH  17  19
ENDBRANCH   3  15
TORSDOF 5
ENDMDL
MODEL 2
REMARK VINA RESULT: -7.718096741      1.277      2.137
REMARK  5 active torsions:
REMARK  status: ('A' for Active; 'I' for Inactive)
REMARK    1  A    between atoms: O1_1  and  N1_3 
REMARK    2  A    between atoms: N1_3  and  C1_5 
REMARK    3  A    between atoms: C6_10  and  N2_11 
REMARK       I    between atoms: N2_11  and  C7_13 
REMARK    4  A    between atoms: C7_13  and  C8_15 
REMARK       I    between atoms: C8_15  and  N3_17 
REMARK    5  A    between atoms: N3_17  and  C9_19 
ROOT
HETATM    1  N2  UNL     1       0.952  27.692   9.307  1.00  0.00    -0.317 N 
ATOM      2  H2  UNL     1       0.809  26.719   9.040  1.00  0.00     0.169 HD
HETATM    3  C7  UNL     1       0.405  28.046  10.531  1.00  0.00     0.314 C 
HETATM    4  O2  UNL     1       0.490  29.198  11.009  1.00  0.00    -0.262 OA
ENDROOT
BRANCH   1   5
HETATM    5  C6  UNL     1       1.672  28.458   8.374  1.00  0.00     0.064 A 
HETATM    6  C1  UNL     1       1.092  29.597   7.795  1.00  0.00     0.081 A 
HETATM    7  C2  UNL     1       1.739  30.377   6.888  1.00  0.00     0.034 A 
HETATM    8  C3  UNL     1       3.018  30.027   6.527  1.00  0.00     0.002 A 
HETATM    9  C4  UNL     1       3.615  28.924   7.071  1.00  0.00     0.002 A 
HETATM   10  C5  UNL     1       2.946  28.123   8.006  1.00  0.00     0.032 A 
BRANCH   6  11
HETATM   11  N1  UNL     1      -0.223  29.944   8.175  1.00  0.00    -0.267 N 
ATOM     12  H1  UNL     1      -0.971  29.316   7.879  1.00  0.00     0.194 HD
BRANCH  11  13
HETATM   13  O1  UNL     1      -0.548  30.932   8.827  1.00  0.00    -0.289 OA
ATOM     14  H1  UNL     1      -0.623  31.819   8.497  1.00  0.00     0.244 HD
ENDBRANCH  11  13
ENDBRANCH   6  11
ENDBRANCH   1   5
BRANCH   3  15
HETATM   15  C8  UNL     1      -0.310  27.016  11.312  1.00  0.00     0.315 C 
HETATM   16  O3  UNL     1      -1.552  26.935  11.194  1.00  0.00    -0.262 OA
HETATM   17  N3  UNL     1       0.386  26.140  12.175  1.00  0.00    -0.299 N 
ATOM     18  H3  UNL     1       1.399  26.205  12.274  1.00  0.00     0.171 HD
BRANCH  17  19
HETATM   19  C9  UNL     1      -0.346  25.170  12.901  1.00  0.00     0.149 A 
HETATM   20  C10 UNL     1      -1.033  25.399  14.098  1.00  0.00     0.058 A 
HETATM   21  C11 UNL     1      -1.611  24.206  14.479  1.00  0.00     0.029 A 
HETATM   22  C12 UNL     1      -1.260  23.295  13.507  1.00  0.00     0.144 A 
HETATM   23  O4  UNL     1      -0.525  23.892  12.607  1.00  0.00    -0.306 OA
ENDBRANCH  17  19
ENDBRANCH   3  15
TORSDOF 5
ENDMDL
MODEL 3
REMARK VINA RESULT: -7.683828792      0.938      1.140
REMARK  5 active torsions:
REMARK  status: ('A' for Active; 'I' for Inactive)
REMARK    1  A    between atoms: O1_1  and  N1_3 
REMARK    2  A    between atoms: N1_3  and  C1_5 
REMARK    3  A    between atoms: C6_10  and  N2_11 
REMARK       I    between atoms: N2_11  and  C7_13 
REMARK    4  A    between atoms: C7_13  and  C8_15 
REMARK       I    between atoms: C8_15  and  N3_17 
REMARK    5  A    between atoms: N3_17  and  C9_19 
ROOT
HETATM    1  N2  UNL     1       1.015  27.957   9.483  1.00  0.00    -0.317 N 
ATOM      2  H2  UNL     1       1.061  28.445  10.377  1.00  0.00     0.169 HD
HETATM    3  C7  UNL     1       0.250  26.800   9.490  1.00  0.00     0.314 C 
HETATM    4  O2  UNL     1       0.088  26.083   8.479  1.00  0.00    -0.262 OA
ENDROOT
BRANCH   1   5
HETATM    5  C6  UNL     1       1.738  28.566   8.443  1.00  0.00     0.064 A 
HETATM    6  C1  UNL     1       3.049  28.156   8.156  1.00  0.00     0.081 A 
HETATM    7  C2  UNL     1       3.796  28.708   7.164  1.00  0.00     0.034 A 
HETATM    8  C3  UNL     1       3.235  29.712   6.411  1.00  0.00     0.002 A 
HETATM    9  C4  UNL     1       1.960  30.137   6.661  1.00  0.00     0.002 A 
HETATM   10  C5  UNL     1       1.193  29.566   7.685  1.00  0.00     0.032 A 
BRANCH   6  11
HETATM   11  N1  UNL     1       3.612  27.124   8.938  1.00  0.00    -0.267 N 
ATOM     12  H1  UNL     1       4.353  27.388   9.588  1.00  0.00     0.194 HD
BRANCH  11  13
HETATM   13  O1  UNL     1       3.292  25.940   8.908  1.00  0.00    -0.289 OA
ATOM     14  H1  UNL     1       2.601  25.562   8.377  1.00  0.00     0.244 HD
ENDBRANCH  11  13
ENDBRANCH   6  11
ENDBRANCH   1   5
BRANCH   3  15
HETATM   15  C8  UNL     1      -0.407  26.393  10.748  1.00  0.00     0.315 C 
HETATM   16  O3  UNL     1      -1.594  26.734  10.937  1.00  0.00    -0.262 OA
HETATM   17  N3  UNL     1       0.284  25.637  11.722  1.00  0.00    -0.299 N 
ATOM     18  H3  UNL     1       1.254  25.358  11.570  1.00  0.00     0.171 HD
BRANCH  17  19
HETATM   19  C9  UNL     1      -0.390  25.273  12.912  1.00  0.00     0.149 A 
HETATM   20  C10 UNL     1      -0.691  26.135  13.971  1.00  0.00     0.058 A 
HETATM   21  C11 UNL     1      -1.349  25.396  14.932  1.00  0.00     0.029 A 
HETATM   22  C12 UNL     1      -1.426  24.116  14.430  1.00  0.00     0.144 A 
HETATM   23  O4  UNL     1      -0.859  24.083  13.253  1.00  0.00    -0.306 OA
ENDBRANCH  17  19
ENDBRANCH   3  15
TORSDOF 5
ENDMDL
MODEL 4
REMARK VINA RESULT: -7.618299334      1.330      2.403
REMARK  5 active torsions:
REMARK  status: ('A' for Active; 'I' for Inactive)
REMARK    1  A    between atoms: O1_1  and  N1_3 
REMARK    2  A    between atoms: N1_3  and  C1_5 
REMARK    3  A    between atoms: C6_10  and  N2_11 
REMARK       I    between atoms: N2_11  and  C7_13 
REMARK    4  A    between atoms: C7_13  and  C8_15 
REMARK       I    between atoms: C8_15  and  N3_17 
REMARK    5  A    between atoms: N3_17  and  C9_19 
ROOT
HETATM    1  N2  UNL     1       0.971  28.038   9.473  1.00  0.00    -0.317 N 
ATOM      2  H2  UNL     1       0.994  28.529  10.366  1.00  0.00     0.169 HD
HETATM    3  C7  UNL     1       0.241  26.859   9.477  1.00  0.00     0.314 C 
HETATM    4  O2  UNL     1       0.108  26.134   8.466  1.00  0.00    -0.262 OA
ENDROOT
BRANCH   1   5
HETATM    5  C6  UNL     1       1.683  28.665   8.437  1.00  0.00     0.064 A 
HETATM    6  C1  UNL     1       1.140  29.778   7.777  1.00  0.00     0.081 A 
HETATM    7  C2  UNL     1       1.782  30.426   6.768  1.00  0.00     0.034 A 
HETATM    8  C3  UNL     1       3.019  29.965   6.384  1.00  0.00     0.002 A 
HETATM    9  C4  UNL     1       3.579  28.884   7.005  1.00  0.00     0.002 A 
HETATM   10  C5  UNL     1       2.915  28.219   8.044  1.00  0.00     0.032 A 
BRANCH   6  11
HETATM   11  N1  UNL     1      -0.131  30.241   8.181  1.00  0.00    -0.267 N 
ATOM     12  H1  UNL     1      -0.913  30.053   7.554  1.00  0.00     0.194 HD
BRANCH  11  13
HETATM   13  O1  UNL     1      -0.381  30.848   9.218  1.00  0.00    -0.289 OA
ATOM     14  H1  UNL     1       0.083  30.760  10.042  1.00  0.00     0.244 HD
ENDBRANCH  11  13
ENDBRANCH   6  11
ENDBRANCH   1   5
BRANCH   3  15
HETATM   15  C8  UNL     1      -0.415  26.436  10.731  1.00  0.00     0.315 C 
HETATM   16  O3  UNL     1      -1.608  26.758  10.918  1.00  0.00    -0.262 OA
HETATM   17  N3  UNL     1       0.285  25.686  11.704  1.00  0.00    -0.299 N 
ATOM     18  H3  UNL     1       1.259  25.423  11.554  1.00  0.00     0.171 HD
BRANCH  17  19
HETATM   19  C9  UNL     1      -0.388  25.306  12.889  1.00  0.00     0.149 A 
HETATM   20  C10 UNL     1      -0.709  26.159  13.950  1.00  0.00     0.058 A 
HETATM   21  C11 UNL     1      -1.357  25.405  14.906  1.00  0.00     0.029 A 
HETATM   22  C12 UNL     1      -1.409  24.126  14.399  1.00  0.00     0.144 A 
HETATM   23  O4  UNL     1      -0.836  24.107  13.225  1.00  0.00    -0.306 OA
ENDBRANCH  17  19
ENDBRANCH   3  15
TORSDOF 5
ENDMDL
MODEL 5
REMARK VINA RESULT: -7.437007493      1.525      2.434
REMARK  5 active torsions:
REMARK  status: ('A' for Active; 'I' for Inactive)
REMARK    1  A    between atoms: O1_1  and  N1_3 
REMARK    2  A    between atoms: N1_3  and  C1_5 
REMARK    3  A    between atoms: C6_10  and  N2_11 
REMARK       I    between atoms: N2_11  and  C7_13 
REMARK    4  A    between atoms: C7_13  and  C8_15 
REMARK       I    between atoms: C8_15  and  N3_17 
REMARK    5  A    between atoms: N3_17  and  C9_19 
ROOT
HETATM    1  N2  UNL     1       1.665  27.686   9.451  1.00  0.00    -0.317 N 
ATOM      2  H2  UNL     1       1.857  28.075  10.374  1.00  0.00     0.169 HD
HETATM    3  C7  UNL     1       0.589  26.812   9.400  1.00  0.00     0.314 C 
HETATM    4  O2  UNL     1       0.217  26.249   8.348  1.00  0.00    -0.262 OA
ENDROOT
BRANCH   1   5
HETATM    5  C6  UNL     1       2.534  28.123   8.436  1.00  0.00     0.064 A 
HETATM    6  C1  UNL     1       2.089  29.034   7.466  1.00  0.00     0.081 A 
HETATM    7  C2  UNL     1       2.883  29.492   6.462  1.00  0.00     0.034 A 
HETATM    8  C3  UNL     1       4.179  29.037   6.401  1.00  0.00     0.002 A 
HETATM    9  C4  UNL     1       4.647  28.149   7.329  1.00  0.00     0.002 A 
HETATM   10  C5  UNL     1       3.827  27.680   8.363  1.00  0.00     0.032 A 
BRANCH   6  11
HETATM   11  N1  UNL     1       0.756  29.492   7.541  1.00  0.00    -0.267 N 
ATOM     12  H1  UNL     1       0.143  29.261   6.758  1.00  0.00     0.194 HD
BRANCH  11  13
HETATM   13  O1  UNL     1       0.266  30.141   8.461  1.00  0.00    -0.289 OA
ATOM     14  H1  UNL     1      -0.656  30.179   8.688  1.00  0.00     0.244 HD
ENDBRANCH  11  13
ENDBRANCH   6  11
ENDBRANCH   1   5
BRANCH   3  15
HETATM   15  C8  UNL     1      -0.157  26.534  10.644  1.00  0.00     0.315 C 
HETATM   16  O3  UNL     1      -1.324  26.967  10.748  1.00  0.00    -0.262 OA
HETATM   17  N3  UNL     1       0.431  25.797  11.698  1.00  0.00    -0.299 N 
ATOM     18  H3  UNL     1       1.384  25.444  11.615  1.00  0.00     0.171 HD
BRANCH  17  19
HETATM   19  C9  UNL     1      -0.325  25.558  12.870  1.00  0.00     0.149 A 
HETATM   20  C10 UNL     1      -0.895  24.333  13.233  1.00  0.00     0.058 A 
HETATM   21  C11 UNL     1      -1.544  24.519  14.436  1.00  0.00     0.029 A 
HETATM   22  C12 UNL     1      -1.350  25.842  14.764  1.00  0.00     0.144 A 
HETATM   23  O4  UNL     1      -0.637  26.414  13.830  1.00  0.00    -0.306 OA
ENDBRANCH  17  19
ENDBRANCH   3  15
TORSDOF 5
ENDMDL
