MODEL 1
REMARK VINA RESULT: -7.001689745      0.000      0.000
REMARK  4 active torsions:
REMARK  status: ('A' for Active; 'I' for Inactive)
REMARK       I    between atoms: C1_4  and  N2_5 
REMARK       I    between atoms: C1_4  and  N5_17 
REMARK    1  A    between atoms: N2_5  and  C2_7 
REMARK    2  A    between atoms: C6_11  and  N3_12 
REMARK    3  A    between atoms: N5_17  and  N6_19 
REMARK       I    between atoms: N6_19  and  C7_21 
REMARK    4  A    between atoms: C7_21  and  C8_23 
ROOT
HETATM    1  N1  UNL     1      45.472  31.706  -2.226  1.00  0.00    -0.233 N 
ATOM      2  H11 UNL     1      44.702  31.065  -2.035  1.00  0.00     0.174 HD
ATOM      3  H12 UNL     1      45.852  31.927  -3.146  1.00  0.00     0.174 HD
HETATM    4  C1  UNL     1      46.020  32.307  -1.208  1.00  0.00     0.692 C 
HETATM    5  N2  UNL     1      47.078  33.187  -1.470  1.00  0.00    -0.176 N 
ATOM      6  H2  UNL     1      46.855  34.090  -1.889  1.00  0.00     0.186 HD
HETATM    7  N5  UNL     1      45.498  32.004   0.057  1.00  0.00    -0.129 N 
ATOM      8  H5  UNL     1      45.864  31.203   0.572  1.00  0.00     0.205 HD
ENDROOT
BRANCH   5   9
HETATM    9  C2  UNL     1      48.316  32.928  -1.214  1.00  0.00     0.122 A 
HETATM   10  C3  UNL     1      48.809  31.655  -1.034  1.00  0.00     0.049 A 
HETATM   11  C4  UNL     1      50.135  31.379  -0.762  1.00  0.00     0.008 A 
HETATM   12  C5  UNL     1      50.991  32.483  -0.673  1.00  0.00     0.055 A 
HETATM   13  C6  UNL     1      50.499  33.762  -0.852  1.00  0.00     0.175 A 
HETATM   14  N4  UNL     1      49.195  33.951  -1.114  1.00  0.00    -0.323 N 
ATOM     15  H4  UNL     1      48.855  34.904  -1.243  1.00  0.00     0.169 HD
BRANCH  13  16
HETATM   16  N3  UNL     1      51.400  34.850  -0.752  1.00  0.00    -0.098 N 
HETATM   17  O1  UNL     1      52.393  34.943  -1.486  1.00  0.00    -0.531 OA
HETATM   18  O2  UNL     1      51.157  35.819   0.183  1.00  0.00    -0.531 OA
ENDBRANCH  13  16
ENDBRANCH   5   9
BRANCH   7  19
HETATM   19  N6  UNL     1      44.494  32.772   0.618  1.00  0.00    -0.250 N 
HETATM   20  C7  UNL     1      44.764  34.043   1.177  1.00  0.00     0.297 C 
HETATM   21  O3  UNL     1      45.899  34.576   1.219  1.00  0.00    -0.263 OA
ATOM     22  H6  UNL     1      43.539  32.415   0.629  1.00  0.00     0.191 HD
BRANCH  20  23
HETATM   23  C8  UNL     1      43.653  34.822   1.764  1.00  0.00     0.334 C 
HETATM   24  O4  UNL     1      43.879  35.910   2.381  1.00  0.00    -0.296 OA
ENDBRANCH  20  23
ENDBRANCH   7  19
TORSDOF 4
ENDMDL
MODEL 2
REMARK VINA RESULT: -6.836407640      1.881      5.649
REMARK  4 active torsions:
REMARK  status: ('A' for Active; 'I' for Inactive)
REMARK       I    between atoms: C1_4  and  N2_5 
REMARK       I    between atoms: C1_4  and  N5_17 
REMARK    1  A    between atoms: N2_5  and  C2_7 
REMARK    2  A    between atoms: C6_11  and  N3_12 
REMARK    3  A    between atoms: N5_17  and  N6_19 
REMARK       I    between atoms: N6_19  and  C7_21 
REMARK    4  A    between atoms: C7_21  and  C8_23 
ROOT
HETATM    1  N1  UNL     1      50.880  31.829  -1.364  1.00  0.00    -0.233 N 
ATOM      2  H11 UNL     1      51.572  32.067  -2.074  1.00  0.00     0.174 HD
ATOM      3  H12 UNL     1      50.737  30.907  -0.953  1.00  0.00     0.174 HD
HETATM    4  C1  UNL     1      50.108  32.787  -0.934  1.00  0.00     0.692 C 
HETATM    5  N2  UNL     1      49.157  32.461   0.041  1.00  0.00    -0.176 N 
ATOM      6  H2  UNL     1      49.486  32.292   0.992  1.00  0.00     0.186 HD
HETATM    7  N5  UNL     1      50.304  34.054  -1.499  1.00  0.00    -0.129 N 
ATOM      8  H5  UNL     1      49.814  34.301  -2.360  1.00  0.00     0.205 HD
ENDROOT
BRANCH   5   9
HETATM    9  C2  UNL     1      47.890  32.361  -0.187  1.00  0.00     0.122 A 
HETATM   10  C3  UNL     1      47.340  31.450  -1.062  1.00  0.00     0.049 A 
HETATM   11  C4  UNL     1      45.985  31.344  -1.304  1.00  0.00     0.008 A 
HETATM   12  C5  UNL     1      45.159  32.230  -0.600  1.00  0.00     0.055 A 
HETATM   13  C6  UNL     1      45.708  33.145   0.277  1.00  0.00     0.175 A 
HETATM   14  N4  UNL     1      47.038  33.189   0.460  1.00  0.00    -0.323 N 
ATOM     15  H4  UNL     1      47.421  33.873   1.112  1.00  0.00     0.169 HD
BRANCH  13  16
HETATM   16  N3  UNL     1      44.837  34.022   0.966  1.00  0.00    -0.098 N 
HETATM   17  O1  UNL     1      43.674  33.701   1.244  1.00  0.00    -0.531 OA
HETATM   18  O2  UNL     1      45.303  35.257   1.331  1.00  0.00    -0.531 OA
ENDBRANCH  13  16
ENDBRANCH   5   9
BRANCH   7  19
HETATM   19  N6  UNL     1      51.152  34.976  -0.911  1.00  0.00    -0.250 N 
HETATM   20  C7  UNL     1      50.681  35.900   0.051  1.00  0.00     0.297 C 
HETATM   21  O3  UNL     1      49.493  35.973   0.448  1.00  0.00    -0.263 OA
ATOM     22  H6  UNL     1      52.136  34.989  -1.176  1.00  0.00     0.191 HD
BRANCH  20  23
HETATM   23  C8  UNL     1      51.630  36.863   0.647  1.00  0.00     0.334 C 
HETATM   24  O4  UNL     1      51.215  37.953   1.155  1.00  0.00    -0.296 OA
ENDBRANCH  20  23
ENDBRANCH   7  19
TORSDOF 4
ENDMDL
MODEL 3
REMARK VINA RESULT: -6.768387668      1.343      1.487
REMARK  4 active torsions:
REMARK  status: ('A' for Active; 'I' for Inactive)
REMARK       I    between atoms: C1_4  and  N2_5 
REMARK       I    between atoms: C1_4  and  N5_17 
REMARK    1  A    between atoms: N2_5  and  C2_7 
REMARK    2  A    between atoms: C6_11  and  N3_12 
REMARK    3  A    between atoms: N5_17  and  N6_19 
REMARK       I    between atoms: N6_19  and  C7_21 
REMARK    4  A    between atoms: C7_21  and  C8_23 
ROOT
HETATM    1  N1  UNL     1      46.558  31.896  -2.522  1.00  0.00    -0.233 N 
ATOM      2  H11 UNL     1      46.030  31.037  -2.367  1.00  0.00     0.174 HD
ATOM      3  H12 UNL     1      46.882  32.243  -3.425  1.00  0.00     0.174 HD
HETATM    4  C1  UNL     1      46.842  32.623  -1.479  1.00  0.00     0.692 C 
HETATM    5  N2  UNL     1      47.567  33.803  -1.693  1.00  0.00    -0.176 N 
ATOM      6  H2  UNL     1      47.080  34.592  -2.118  1.00  0.00     0.186 HD
HETATM    7  N5  UNL     1      46.396  32.145  -0.239  1.00  0.00    -0.129 N 
ATOM      8  H5  UNL     1      46.982  31.497   0.288  1.00  0.00     0.205 HD
ENDROOT
BRANCH   5   9
HETATM    9  C2  UNL     1      48.811  33.954  -1.385  1.00  0.00     0.122 A 
HETATM   10  C3  UNL     1      49.809  33.097  -1.794  1.00  0.00     0.049 A 
HETATM   11  C4  UNL     1      51.141  33.260  -1.466  1.00  0.00     0.008 A 
HETATM   12  C5  UNL     1      51.450  34.371  -0.672  1.00  0.00     0.055 A 
HETATM   13  C6  UNL     1      50.451  35.232  -0.260  1.00  0.00     0.175 A 
HETATM   14  N4  UNL     1      49.177  35.007  -0.620  1.00  0.00    -0.323 N 
ATOM     15  H4  UNL     1      48.457  35.656  -0.303  1.00  0.00     0.169 HD
BRANCH  13  16
HETATM   16  N3  UNL     1      50.809  36.342   0.543  1.00  0.00    -0.098 N 
HETATM   17  O1  UNL     1      51.724  37.112   0.221  1.00  0.00    -0.531 OA
HETATM   18  O2  UNL     1      50.117  36.563   1.704  1.00  0.00    -0.531 OA
ENDBRANCH  13  16
ENDBRANCH   5   9
BRANCH   7  19
HETATM   19  N6  UNL     1      45.176  32.538   0.281  1.00  0.00    -0.250 N 
HETATM   20  C7  UNL     1      45.005  33.807   0.882  1.00  0.00     0.297 C 
HETATM   21  O3  UNL     1      45.911  34.668   0.997  1.00  0.00    -0.263 OA
ATOM     22  H6  UNL     1      44.383  31.899   0.231  1.00  0.00     0.191 HD
BRANCH  20  23
HETATM   23  C8  UNL     1      43.680  34.175   1.422  1.00  0.00     0.334 C 
HETATM   24  O4  UNL     1      43.488  35.318   1.946  1.00  0.00    -0.296 OA
ENDBRANCH  20  23
ENDBRANCH   7  19
TORSDOF 4
ENDMDL
MODEL 4
REMARK VINA RESULT: -6.688528608      2.804      6.323
REMARK  4 active torsions:
REMARK  status: ('A' for Active; 'I' for Inactive)
REMARK       I    between atoms: C1_4  and  N2_5 
REMARK       I    between atoms: C1_4  and  N5_17 
REMARK    1  A    between atoms: N2_5  and  C2_7 
REMARK    2  A    between atoms: C6_11  and  N3_12 
REMARK    3  A    between atoms: N5_17  and  N6_19 
REMARK       I    between atoms: N6_19  and  C7_21 
REMARK    4  A    between atoms: C7_21  and  C8_23 
ROOT
HETATM    1  N1  UNL     1      49.595  35.836   2.085  1.00  0.00    -0.233 N 
ATOM      2  H11 UNL     1      50.443  35.671   2.627  1.00  0.00     0.174 HD
ATOM      3  H12 UNL     1      48.853  36.495   2.321  1.00  0.00     0.174 HD
HETATM    4  C1  UNL     1      49.442  35.152   0.987  1.00  0.00     0.692 C 
HETATM    5  N2  UNL     1      48.278  35.379   0.242  1.00  0.00    -0.176 N 
ATOM      6  H2  UNL     1      48.210  36.250  -0.285  1.00  0.00     0.186 HD
HETATM    7  N5  UNL     1      50.461  34.246   0.663  1.00  0.00    -0.129 N 
ATOM      8  H5  UNL     1      50.427  33.297   1.037  1.00  0.00     0.205 HD
ENDROOT
BRANCH   5   9
HETATM    9  C2  UNL     1      47.285  34.555   0.180  1.00  0.00     0.122 A 
HETATM   10  C3  UNL     1      46.125  34.700   0.908  1.00  0.00     0.049 A 
HETATM   11  C4  UNL     1      45.063  33.819   0.839  1.00  0.00     0.008 A 
HETATM   12  C5  UNL     1      45.216  32.733  -0.031  1.00  0.00     0.055 A 
HETATM   13  C6  UNL     1      46.380  32.584  -0.762  1.00  0.00     0.175 A 
HETATM   14  N4  UNL     1      47.370  33.484  -0.642  1.00  0.00    -0.323 N 
ATOM     15  H4  UNL     1      48.219  33.354  -1.191  1.00  0.00     0.169 HD
BRANCH  13  16
HETATM   16  N3  UNL     1      46.492  31.471  -1.629  1.00  0.00    -0.098 N 
HETATM   17  O1  UNL     1      46.976  30.396  -1.251  1.00  0.00    -0.531 OA
HETATM   18  O2  UNL     1      46.048  31.596  -2.918  1.00  0.00    -0.531 OA
ENDBRANCH  13  16
ENDBRANCH   5   9
BRANCH   7  19
HETATM   19  N6  UNL     1      51.514  34.617  -0.154  1.00  0.00    -0.250 N 
HETATM   20  C7  UNL     1      51.536  34.278  -1.527  1.00  0.00     0.297 C 
HETATM   21  O3  UNL     1      50.636  33.630  -2.115  1.00  0.00    -0.263 OA
ATOM     22  H6  UNL     1      52.290  35.147   0.241  1.00  0.00     0.191 HD
BRANCH  20  23
HETATM   23  C8  UNL     1      52.685  34.700  -2.354  1.00  0.00     0.334 C 
HETATM   24  O4  UNL     1      53.160  35.875  -2.254  1.00  0.00    -0.296 OA
ENDBRANCH  20  23
ENDBRANCH   7  19
TORSDOF 4
ENDMDL
MODEL 5
REMARK VINA RESULT: -6.638780498      2.417      6.674
REMARK  4 active torsions:
REMARK  status: ('A' for Active; 'I' for Inactive)
REMARK       I    between atoms: C1_4  and  N2_5 
REMARK       I    between atoms: C1_4  and  N5_17 
REMARK    1  A    between atoms: N2_5  and  C2_7 
REMARK    2  A    between atoms: C6_11  and  N3_12 
REMARK    3  A    between atoms: N5_17  and  N6_19 
REMARK       I    between atoms: N6_19  and  C7_21 
REMARK    4  A    between atoms: C7_21  and  C8_23 
ROOT
HETATM    1  N1  UNL     1      49.846  36.027   2.104  1.00  0.00    -0.233 N 
ATOM      2  H11 UNL     1      50.691  35.840   2.645  1.00  0.00     0.174 HD
ATOM      3  H12 UNL     1      49.150  36.743   2.311  1.00  0.00     0.174 HD
HETATM    4  C1  UNL     1      49.634  35.292   1.049  1.00  0.00     0.692 C 
HETATM    5  N2  UNL     1      48.474  35.549   0.306  1.00  0.00    -0.176 N 
ATOM      6  H2  UNL     1      48.452  36.391  -0.269  1.00  0.00     0.186 HD
HETATM    7  N5  UNL     1      50.590  34.308   0.765  1.00  0.00    -0.129 N 
ATOM      8  H5  UNL     1      50.503  33.386   1.194  1.00  0.00     0.205 HD
ENDROOT
BRANCH   5   9
HETATM    9  C2  UNL     1      47.432  34.787   0.304  1.00  0.00     0.122 A 
HETATM   10  C3  UNL     1      47.339  33.623  -0.427  1.00  0.00     0.049 A 
HETATM   11  C4  UNL     1      46.224  32.807  -0.428  1.00  0.00     0.008 A 
HETATM   12  C5  UNL     1      45.152  33.223   0.372  1.00  0.00     0.055 A 
HETATM   13  C6  UNL     1      45.243  34.391   1.105  1.00  0.00     0.175 A 
HETATM   14  N4  UNL     1      46.362  35.133   1.054  1.00  0.00    -0.323 N 
ATOM     15  H4  UNL     1      46.406  35.990   1.604  1.00  0.00     0.169 HD
BRANCH  13  16
HETATM   16  N3  UNL     1      44.135  34.774   1.899  1.00  0.00    -0.098 N 
HETATM   17  O1  UNL     1      43.107  34.087   1.959  1.00  0.00    -0.531 OA
HETATM   18  O2  UNL     1      44.214  35.938   2.616  1.00  0.00    -0.531 OA
ENDBRANCH  13  16
ENDBRANCH   5   9
BRANCH   7  19
HETATM   19  N6  UNL     1      51.650  34.566  -0.085  1.00  0.00    -0.250 N 
HETATM   20  C7  UNL     1      51.571  34.283  -1.468  1.00  0.00     0.297 C 
HETATM   21  O3  UNL     1      50.568  33.789  -2.038  1.00  0.00    -0.263 OA
ATOM     22  H6  UNL     1      52.508  34.967   0.294  1.00  0.00     0.191 HD
BRANCH  20  23
HETATM   23  C8  UNL     1      52.734  34.579  -2.331  1.00  0.00     0.334 C 
HETATM   24  O4  UNL     1      53.249  35.740  -2.350  1.00  0.00    -0.296 OA
ENDBRANCH  20  23
ENDBRANCH   7  19
TORSDOF 4
ENDMDL
