MODEL 1
REMARK VINA RESULT: -8.468301207      0.000      0.000
REMARK  3 active torsions:
REMARK  status: ('A' for Active; 'I' for Inactive)
REMARK    1  A    between atoms: C2_2  and  C4_5 
REMARK    2  A    between atoms: C6_7  and  C7_8 
REMARK    3  A    between atoms: C7_8  and  O1_9 
ROOT
HETATM    1  C4  UNL     1       4.727  70.419  68.021  1.00  0.00     0.022 A 
HETATM    2  C5  UNL     1       4.558  69.670  66.854  1.00  0.00     0.041 A 
HETATM    3  C6  UNL     1       3.360  69.171  66.416  1.00  0.00     0.044 A 
HETATM    4  N1  UNL     1       2.278  69.441  67.212  1.00  0.00    -0.364 N 
ATOM      5  H1  UNL     1       1.364  69.088  66.930  1.00  0.00     0.165 HD
HETATM    6  C17 UNL     1       2.370  70.150  68.348  1.00  0.00     0.131 A 
HETATM    7  C18 UNL     1       3.610  70.655  68.770  1.00  0.00     0.141 A 
HETATM    8  F2  UNL     1       3.668  71.368  69.934  1.00  0.00    -0.204 F 
ENDROOT
BRANCH   3   9
HETATM    9  C7  UNL     1       3.145  68.485  65.120  1.00  0.00     0.100 C 
HETATM   10  C8  UNL     1       4.472  68.637  64.373  1.00  0.00     0.045 C 
HETATM   11  C9  UNL     1       4.245  69.153  62.973  1.00  0.00     0.013 C 
HETATM   12  C10 UNL     1       3.181  68.288  62.263  1.00  0.00    -0.041 C 
HETATM   13  C11 UNL     1       3.194  68.813  60.823  1.00  0.00     0.015 C 
HETATM   14  C12 UNL     1       3.658  66.891  62.200  1.00  0.00     0.015 C 
HETATM   15  C13 UNL     1       1.890  68.585  62.942  1.00  0.00    -0.038 C 
HETATM   16  C14 UNL     1       0.841  67.539  62.790  1.00  0.00     0.015 C 
HETATM   17  C15 UNL     1       1.299  69.806  62.203  1.00  0.00     0.015 C 
HETATM   18  C16 UNL     1       2.002  69.044  64.379  1.00  0.00     0.053 C 
BRANCH   9  19
HETATM   19  O1  UNL     1       2.948  67.127  65.470  1.00  0.00    -0.384 OA
ATOM     20  H1  UNL     1       3.296  66.640  64.733  1.00  0.00     0.211 HD
ENDBRANCH   9  19
ENDBRANCH   3   9
BRANCH   1  21
HETATM   21  C2  UNL     1       6.045  71.032  68.372  1.00  0.00     0.126 C 
HETATM   22  C1  UNL     1       7.078  70.641  67.315  1.00  0.00     0.057 C 
HETATM   23  C3  UNL     1       6.542  70.688  69.728  1.00  0.00     0.057 C 
HETATM   24  F1  UNL     1       5.929  72.414  68.264  1.00  0.00    -0.238 F 
ENDBRANCH   1  21
TORSDOF 3
ENDMDL
MODEL 2
REMARK VINA RESULT: -8.052301940      5.638      6.829
REMARK  3 active torsions:
REMARK  status: ('A' for Active; 'I' for Inactive)
REMARK    1  A    between atoms: C2_2  and  C4_5 
REMARK    2  A    between atoms: C6_7  and  C7_8 
REMARK    3  A    between atoms: C7_8  and  O1_9 
ROOT
HETATM    1  C4  UNL     1       2.478  63.744  70.686  1.00  0.00     0.022 A 
HETATM    2  C5  UNL     1       2.268  64.806  69.804  1.00  0.00     0.041 A 
HETATM    3  C6  UNL     1       1.222  65.687  69.883  1.00  0.00     0.044 A 
HETATM    4  N1  UNL     1       0.339  65.470  70.908  1.00  0.00    -0.364 N 
ATOM      5  H1  UNL     1      -0.458  66.098  71.007  1.00  0.00     0.165 HD
HETATM    6  C17 UNL     1       0.479  64.467  71.788  1.00  0.00     0.131 A 
HETATM    7  C18 UNL     1       1.564  63.582  71.687  1.00  0.00     0.141 A 
HETATM    8  F2  UNL     1       1.673  62.568  72.596  1.00  0.00    -0.204 F 
ENDROOT
BRANCH   3   9
HETATM    9  C7  UNL     1       1.054  66.891  69.034  1.00  0.00     0.100 C 
HETATM   10  C8  UNL     1      -0.461  67.079  68.922  1.00  0.00     0.045 C 
HETATM   11  C9  UNL     1      -0.875  67.260  67.482  1.00  0.00     0.013 C 
HETATM   12  C10 UNL     1      -0.020  68.366  66.826  1.00  0.00    -0.041 C 
HETATM   13  C11 UNL     1      -0.670  68.553  65.450  1.00  0.00     0.015 C 
HETATM   14  C12 UNL     1      -0.224  69.632  67.558  1.00  0.00     0.015 C 
HETATM   15  C13 UNL     1       1.355  67.807  66.710  1.00  0.00    -0.038 C 
HETATM   16  C14 UNL     1       2.440  68.820  66.587  1.00  0.00     0.015 C 
HETATM   17  C15 UNL     1       1.393  67.062  65.357  1.00  0.00     0.015 C 
HETATM   18  C16 UNL     1       1.711  66.743  67.724  1.00  0.00     0.053 C 
BRANCH   9  19
HETATM   19  O1  UNL     1       1.610  67.943  69.801  1.00  0.00    -0.384 OA
ATOM     20  H1  UNL     1       0.925  68.600  69.833  1.00  0.00     0.211 HD
ENDBRANCH   9  19
ENDBRANCH   3   9
BRANCH   1  21
HETATM   21  C2  UNL     1       3.708  62.896  70.608  1.00  0.00     0.126 C 
HETATM   22  C1  UNL     1       4.922  63.794  70.367  1.00  0.00     0.057 C 
HETATM   23  C3  UNL     1       3.652  61.823  69.584  1.00  0.00     0.057 C 
HETATM   24  F1  UNL     1       3.928  62.327  71.857  1.00  0.00    -0.238 F 
ENDBRANCH   1  21
TORSDOF 3
ENDMDL
MODEL 3
REMARK VINA RESULT: -7.780142756      5.951      7.665
REMARK  3 active torsions:
REMARK  status: ('A' for Active; 'I' for Inactive)
REMARK    1  A    between atoms: C2_2  and  C4_5 
REMARK    2  A    between atoms: C6_7  and  C7_8 
REMARK    3  A    between atoms: C7_8  and  O1_9 
ROOT
HETATM    1  C4  UNL     1       0.855  68.184  68.339  1.00  0.00     0.022 A 
HETATM    2  C5  UNL     1       1.200  67.223  69.292  1.00  0.00     0.041 A 
HETATM    3  C6  UNL     1       0.452  66.113  69.584  1.00  0.00     0.044 A 
HETATM    4  N1  UNL     1      -0.713  65.980  68.875  1.00  0.00    -0.364 N 
ATOM      5  H1  UNL     1      -1.307  65.171  69.058  1.00  0.00     0.165 HD
HETATM    6  C17 UNL     1      -1.107  66.868  67.949  1.00  0.00     0.131 A 
HETATM    7  C18 UNL     1      -0.317  67.994  67.665  1.00  0.00     0.141 A 
HETATM    8  F2  UNL     1      -0.751  68.881  66.721  1.00  0.00    -0.204 F 
ENDROOT
BRANCH   3   9
HETATM    9  C7  UNL     1       0.865  65.022  70.498  1.00  0.00     0.100 C 
HETATM   10  C8  UNL     1       2.347  65.285  70.773  1.00  0.00     0.045 C 
HETATM   11  C9  UNL     1       3.164  64.033  70.562  1.00  0.00     0.013 C 
HETATM   12  C10 UNL     1       2.540  62.863  71.353  1.00  0.00    -0.041 C 
HETATM   13  C11 UNL     1       3.563  61.733  71.187  1.00  0.00     0.015 C 
HETATM   14  C12 UNL     1       2.529  63.204  72.790  1.00  0.00     0.015 C 
HETATM   15  C13 UNL     1       1.257  62.543  70.671  1.00  0.00    -0.038 C 
HETATM   16  C14 UNL     1       0.258  61.823  71.510  1.00  0.00     0.015 C 
HETATM   17  C15 UNL     1       1.611  61.525  69.566  1.00  0.00     0.015 C 
HETATM   18  C16 UNL     1       0.616  63.690  69.922  1.00  0.00     0.053 C 
BRANCH   9  19
HETATM   19  O1  UNL     1       0.114  65.249  71.677  1.00  0.00    -0.384 OA
ATOM     20  H1  UNL     1       0.530  66.002  72.081  1.00  0.00     0.211 HD
ENDBRANCH   9  19
ENDBRANCH   3   9
BRANCH   1  21
HETATM   21  C2  UNL     1       1.780  69.306  67.990  1.00  0.00     0.126 C 
HETATM   22  C1  UNL     1       2.371  69.056  66.603  1.00  0.00     0.057 C 
HETATM   23  C3  UNL     1       2.866  69.538  68.977  1.00  0.00     0.057 C 
HETATM   24  F1  UNL     1       1.029  70.468  67.854  1.00  0.00    -0.238 F 
ENDBRANCH   1  21
TORSDOF 3
ENDMDL
MODEL 4
REMARK VINA RESULT: -7.724503890     11.598     12.910
REMARK  3 active torsions:
REMARK  status: ('A' for Active; 'I' for Inactive)
REMARK    1  A    between atoms: C2_2  and  C4_5 
REMARK    2  A    between atoms: C6_7  and  C7_8 
REMARK    3  A    between atoms: C7_8  and  O1_9 
ROOT
HETATM    1  C4  UNL     1      -0.580  59.433  74.478  1.00  0.00     0.022 A 
HETATM    2  C5  UNL     1       0.483  59.912  73.709  1.00  0.00     0.041 A 
HETATM    3  C6  UNL     1       1.680  59.266  73.547  1.00  0.00     0.044 A 
HETATM    4  N1  UNL     1       1.804  58.073  74.210  1.00  0.00    -0.364 N 
ATOM      5  H1  UNL     1       2.679  57.555  74.124  1.00  0.00     0.165 HD
HETATM    6  C17 UNL     1       0.825  57.558  74.969  1.00  0.00     0.131 A 
HETATM    7  C18 UNL     1      -0.394  58.238  75.113  1.00  0.00     0.141 A 
HETATM    8  F2  UNL     1      -1.367  57.687  75.897  1.00  0.00    -0.204 F 
ENDROOT
BRANCH   3   9
HETATM    9  C7  UNL     1       2.767  59.698  72.637  1.00  0.00     0.100 C 
HETATM   10  C8  UNL     1       3.467  60.837  73.381  1.00  0.00     0.045 C 
HETATM   11  C9  UNL     1       3.629  62.044  72.488  1.00  0.00     0.013 C 
HETATM   12  C10 UNL     1       4.283  61.623  71.154  1.00  0.00    -0.041 C 
HETATM   13  C11 UNL     1       4.541  62.958  70.445  1.00  0.00     0.015 C 
HETATM   14  C12 UNL     1       5.610  61.036  71.431  1.00  0.00     0.015 C 
HETATM   15  C13 UNL     1       3.264  60.810  70.435  1.00  0.00    -0.038 C 
HETATM   16  C14 UNL     1       3.807  59.893  69.395  1.00  0.00     0.015 C 
HETATM   17  C15 UNL     1       2.415  61.818  69.630  1.00  0.00     0.015 C 
HETATM   18  C16 UNL     1       2.257  60.104  71.316  1.00  0.00     0.053 C 
BRANCH   9  19
HETATM   19  O1  UNL     1       3.628  58.577  72.561  1.00  0.00    -0.384 OA
ATOM     20  H1  UNL     1       3.150  57.881  72.997  1.00  0.00     0.211 HD
ENDBRANCH   9  19
ENDBRANCH   3   9
BRANCH   1  21
HETATM   21  C2  UNL     1      -1.899  60.135  74.510  1.00  0.00     0.126 C 
HETATM   22  C1  UNL     1      -2.002  61.067  73.303  1.00  0.00     0.057 C 
HETATM   23  C3  UNL     1      -2.166  60.887  75.763  1.00  0.00     0.057 C 
HETATM   24  F1  UNL     1      -2.904  59.192  74.319  1.00  0.00    -0.238 F 
ENDBRANCH   1  21
TORSDOF 3
ENDMDL
MODEL 5
REMARK VINA RESULT: -7.693631507     10.719     12.303
REMARK  3 active torsions:
REMARK  status: ('A' for Active; 'I' for Inactive)
REMARK    1  A    between atoms: C2_2  and  C4_5 
REMARK    2  A    between atoms: C6_7  and  C7_8 
REMARK    3  A    between atoms: C7_8  and  O1_9 
ROOT
HETATM    1  C4  UNL     1       3.139  61.866  70.417  1.00  0.00     0.022 A 
HETATM    2  C5  UNL     1       2.261  61.718  71.493  1.00  0.00     0.041 A 
HETATM    3  C6  UNL     1       1.943  60.522  72.079  1.00  0.00     0.044 A 
HETATM    4  N1  UNL     1       2.543  59.416  71.534  1.00  0.00    -0.364 N 
ATOM      5  H1  UNL     1       2.335  58.501  71.934  1.00  0.00     0.165 HD
HETATM    6  C17 UNL     1       3.391  59.487  70.497  1.00  0.00     0.131 A 
HETATM    7  C18 UNL     1       3.705  60.727  69.920  1.00  0.00     0.141 A 
HETATM    8  F2  UNL     1       4.569  60.761  68.862  1.00  0.00    -0.204 F 
ENDROOT
BRANCH   3   9
HETATM    9  C7  UNL     1       1.115  60.362  73.298  1.00  0.00     0.100 C 
HETATM   10  C8  UNL     1       0.903  58.852  73.428  1.00  0.00     0.045 C 
HETATM   11  C9  UNL     1      -0.558  58.529  73.632  1.00  0.00     0.013 C 
HETATM   12  C10 UNL     1      -1.125  59.381  74.789  1.00  0.00    -0.041 C 
HETATM   13  C11 UNL     1      -2.538  58.819  74.988  1.00  0.00     0.015 C 
HETATM   14  C12 UNL     1      -0.377  59.073  76.025  1.00  0.00     0.015 C 
HETATM   15  C13 UNL     1      -1.159  60.782  74.289  1.00  0.00    -0.038 C 
HETATM   16  C14 UNL     1      -1.181  61.830  75.348  1.00  0.00     0.015 C 
HETATM   17  C15 UNL     1      -2.524  60.943  73.585  1.00  0.00     0.015 C 
HETATM   18  C16 UNL     1      -0.149  61.113  73.213  1.00  0.00     0.053 C 
BRANCH   9  19
HETATM   19  O1  UNL     1       1.945  60.820  74.349  1.00  0.00    -0.384 OA
ATOM     20  H1  UNL     1       2.492  61.484  73.947  1.00  0.00     0.211 HD
ENDBRANCH   9  19
ENDBRANCH   3   9
BRANCH   1  21
HETATM   21  C2  UNL     1       3.530  63.216  69.908  1.00  0.00     0.126 C 
HETATM   22  C1  UNL     1       4.940  63.548  70.399  1.00  0.00     0.057 C 
HETATM   23  C3  UNL     1       2.590  64.307  70.270  1.00  0.00     0.057 C 
HETATM   24  F1  UNL     1       3.642  63.148  68.523  1.00  0.00    -0.238 F 
ENDBRANCH   1  21
TORSDOF 3
ENDMDL
