MODEL 1
REMARK VINA RESULT: -6.960777853      0.000      0.000
REMARK  2 active torsions:
REMARK  status: ('A' for Active; 'I' for Inactive)
REMARK       I    between atoms: C1_4  and  N2_5 
REMARK       I    between atoms: C1_4  and  N4_10 
REMARK    1  A    between atoms: N2_5  and  N3_7 
REMARK    2  A    between atoms: N4_10  and  C2_12 
ROOT
HETATM    1  C2  UNL     1      49.827 120.484  51.473  1.00  0.00     0.113 A 
HETATM    2  C3  UNL     1      48.848 119.574  51.118  1.00  0.00     0.142 A 
HETATM    3  N5  UNL     1      48.845 119.467  49.768  1.00  0.00    -0.297 N 
ATOM      4  H5  UNL     1      48.224 118.867  49.225  1.00  0.00     0.186 HD
HETATM    5  N6  UNL     1      49.773 120.263  49.264  1.00  0.00    -0.184 N 
HETATM    6  C4  UNL     1      50.372 120.714  48.146  1.00  0.00     0.362 A 
HETATM    7  O1  UNL     1      50.101 120.379  46.943  1.00  0.00    -0.243 OA
HETATM    8  N7  UNL     1      51.321 121.598  48.502  1.00  0.00    -0.248 N 
ATOM      9  H7  UNL     1      51.930 122.096  47.853  1.00  0.00     0.192 HD
HETATM   10  N8  UNL     1      51.348 121.723  49.808  1.00  0.00    -0.278 N 
ATOM     11  H8  UNL     1      51.968 122.322  50.354  1.00  0.00     0.189 HD
HETATM   12  C5  UNL     1      50.390 120.898  50.286  1.00  0.00     0.175 A 
ENDROOT
BRANCH   1  13
HETATM   13  N4  UNL     1      50.138 120.867  52.794  1.00  0.00    -0.186 N 
HETATM   14  C1  UNL     1      49.151 121.347  53.715  1.00  0.00     0.690 C 
HETATM   15  N1  UNL     1      48.430 122.356  53.363  1.00  0.00    -0.233 N 
HETATM   16  N2  UNL     1      48.962 120.732  54.984  1.00  0.00    -0.139 N 
ATOM     17  H12 UNL     1      47.728 122.698  54.019  1.00  0.00     0.174 HD
ATOM     18  H11 UNL     1      48.566 122.796  52.454  1.00  0.00     0.174 HD
ATOM     19  H2  UNL     1      49.621 120.916  55.740  1.00  0.00     0.205 HD
ATOM     20  H4  UNL     1      51.107 120.800  53.106  1.00  0.00     0.184 HD
BRANCH  16  21
HETATM   21  N3  UNL     1      47.885 119.884  55.198  1.00  0.00    -0.331 N 
ATOM     22  H32 UNL     1      47.021 120.272  55.579  1.00  0.00     0.177 HD
ATOM     23  H31 UNL     1      47.959 118.891  54.978  1.00  0.00     0.177 HD
ENDBRANCH  16  21
ENDBRANCH   1  13
TORSDOF 2
ENDMDL
MODEL 2
REMARK VINA RESULT: -6.878119551      2.941      4.987
REMARK  2 active torsions:
REMARK  status: ('A' for Active; 'I' for Inactive)
REMARK       I    between atoms: C1_4  and  N2_5 
REMARK       I    between atoms: C1_4  and  N4_10 
REMARK    1  A    between atoms: N2_5  and  N3_7 
REMARK    2  A    between atoms: N4_10  and  C2_12 
ROOT
HETATM    1  C2  UNL     1      47.941 120.546  50.981  1.00  0.00     0.113 A 
HETATM    2  C3  UNL     1      46.851 119.741  51.257  1.00  0.00     0.142 A 
HETATM    3  N5  UNL     1      46.832 119.503  52.590  1.00  0.00    -0.297 N 
ATOM      4  H5  UNL     1      46.138 118.937  53.079  1.00  0.00     0.186 HD
HETATM    5  N6  UNL     1      47.854 120.119  53.159  1.00  0.00    -0.184 N 
HETATM    6  C4  UNL     1      48.505 120.378  54.309  1.00  0.00     0.362 A 
HETATM    7  O1  UNL     1      48.192 119.963  55.476  1.00  0.00    -0.243 OA
HETATM    8  N7  UNL     1      49.562 121.161  54.029  1.00  0.00    -0.248 N 
ATOM      9  H7  UNL     1      50.231 121.509  54.716  1.00  0.00     0.192 HD
HETATM   10  N8  UNL     1      49.606 121.409  52.742  1.00  0.00    -0.278 N 
ATOM     11  H8  UNL     1      50.299 121.975  52.250  1.00  0.00     0.189 HD
HETATM   12  C5  UNL     1      48.551 120.765  52.197  1.00  0.00     0.175 A 
ENDROOT
BRANCH   1  13
HETATM   13  N4  UNL     1      48.301 121.013  49.701  1.00  0.00    -0.186 N 
HETATM   14  C1  UNL     1      48.993 122.250  49.493  1.00  0.00     0.690 C 
HETATM   15  N1  UNL     1      48.473 123.327  49.974  1.00  0.00    -0.233 N 
HETATM   16  N2  UNL     1      50.223 122.299  48.778  1.00  0.00    -0.139 N 
ATOM     17  H12 UNL     1      48.965 124.208  49.826  1.00  0.00     0.174 HD
ATOM     18  H11 UNL     1      47.592 123.291  50.486  1.00  0.00     0.174 HD
ATOM     19  H2  UNL     1      50.220 122.238  47.760  1.00  0.00     0.205 HD
ATOM     20  H4  UNL     1      48.059 120.445  48.888  1.00  0.00     0.184 HD
BRANCH  16  21
HETATM   21  N3  UNL     1      51.424 122.432  49.459  1.00  0.00    -0.331 N 
ATOM     22  H32 UNL     1      52.130 121.702  49.357  1.00  0.00     0.177 HD
ATOM     23  H31 UNL     1      51.595 123.245  50.049  1.00  0.00     0.177 HD
ENDBRANCH  16  21
ENDBRANCH   1  13
TORSDOF 2
ENDMDL
MODEL 3
REMARK VINA RESULT: -6.822124484      3.551      5.461
REMARK  2 active torsions:
REMARK  status: ('A' for Active; 'I' for Inactive)
REMARK       I    between atoms: C1_4  and  N2_5 
REMARK       I    between atoms: C1_4  and  N4_10 
REMARK    1  A    between atoms: N2_5  and  N3_7 
REMARK    2  A    between atoms: N4_10  and  C2_12 
ROOT
HETATM    1  C2  UNL     1      47.046 121.203  51.558  1.00  0.00     0.113 A 
HETATM    2  C3  UNL     1      47.458 120.164  50.744  1.00  0.00     0.142 A 
HETATM    3  N5  UNL     1      47.934 119.174  51.535  1.00  0.00    -0.297 N 
ATOM      4  H5  UNL     1      48.307 118.284  51.206  1.00  0.00     0.186 HD
HETATM    5  N6  UNL     1      47.838 119.542  52.802  1.00  0.00    -0.184 N 
HETATM    6  C4  UNL     1      48.055 119.200  54.085  1.00  0.00     0.362 A 
HETATM    7  O1  UNL     1      48.557 118.105  54.512  1.00  0.00    -0.243 OA
HETATM    8  N7  UNL     1      47.651 120.216  54.868  1.00  0.00    -0.248 N 
ATOM      9  H7  UNL     1      47.701 120.226  55.887  1.00  0.00     0.192 HD
HETATM   10  N8  UNL     1      47.185 121.193  54.127  1.00  0.00    -0.278 N 
ATOM     11  H8  UNL     1      46.810 122.084  54.453  1.00  0.00     0.189 HD
HETATM   12  C5  UNL     1      47.298 120.781  52.845  1.00  0.00     0.175 A 
ENDROOT
BRANCH   1  13
HETATM   13  N4  UNL     1      46.491 122.418  51.106  1.00  0.00    -0.186 N 
HETATM   14  C1  UNL     1      47.085 123.201  50.063  1.00  0.00     0.690 C 
HETATM   15  N1  UNL     1      48.314 123.565  50.201  1.00  0.00    -0.233 N 
HETATM   16  N2  UNL     1      46.349 123.570  48.903  1.00  0.00    -0.139 N 
ATOM     17  H12 UNL     1      48.737 124.123  49.459  1.00  0.00     0.174 HD
ATOM     18  H11 UNL     1      48.842 123.301  51.032  1.00  0.00     0.174 HD
ATOM     19  H2  UNL     1      45.666 124.326  48.955  1.00  0.00     0.205 HD
ATOM     20  H4  UNL     1      45.631 122.753  51.539  1.00  0.00     0.184 HD
BRANCH  16  21
HETATM   21  N3  UNL     1      46.554 122.906  47.702  1.00  0.00    -0.331 N 
ATOM     22  H32 UNL     1      46.340 121.910  47.648  1.00  0.00     0.177 HD
ATOM     23  H31 UNL     1      46.912 123.408  46.890  1.00  0.00     0.177 HD
ENDBRANCH  16  21
ENDBRANCH   1  13
TORSDOF 2
ENDMDL
MODEL 4
REMARK VINA RESULT: -6.821886683      3.323      5.153
REMARK  2 active torsions:
REMARK  status: ('A' for Active; 'I' for Inactive)
REMARK       I    between atoms: C1_4  and  N2_5 
REMARK       I    between atoms: C1_4  and  N4_10 
REMARK    1  A    between atoms: N2_5  and  N3_7 
REMARK    2  A    between atoms: N4_10  and  C2_12 
ROOT
HETATM    1  C2  UNL     1      48.320 120.762  50.829  1.00  0.00     0.113 A 
HETATM    2  C3  UNL     1      49.692 120.712  50.995  1.00  0.00     0.142 A 
HETATM    3  N5  UNL     1      49.956 119.929  52.067  1.00  0.00    -0.297 N 
ATOM      4  H5  UNL     1      50.887 119.713  52.425  1.00  0.00     0.186 HD
HETATM    5  N6  UNL     1      48.820 119.488  52.578  1.00  0.00    -0.184 N 
HETATM    6  C4  UNL     1      48.239 118.743  53.537  1.00  0.00     0.362 A 
HETATM    7  O1  UNL     1      48.830 118.088  54.461  1.00  0.00    -0.243 OA
HETATM    8  N7  UNL     1      46.906 118.799  53.367  1.00  0.00    -0.248 N 
ATOM      9  H7  UNL     1      46.220 118.326  53.955  1.00  0.00     0.192 HD
HETATM   10  N8  UNL     1      46.619 119.553  52.332  1.00  0.00    -0.278 N 
ATOM     11  H8  UNL     1      45.690 119.770  51.971  1.00  0.00     0.189 HD
HETATM   12  C5  UNL     1      47.801 119.983  51.839  1.00  0.00     0.175 A 
ENDROOT
BRANCH   1  13
HETATM   13  N4  UNL     1      47.652 121.480  49.816  1.00  0.00    -0.186 N 
HETATM   14  C1  UNL     1      47.359 122.879  49.921  1.00  0.00     0.690 C 
HETATM   15  N1  UNL     1      46.694 123.286  50.948  1.00  0.00    -0.233 N 
HETATM   16  N2  UNL     1      47.789 123.802  48.927  1.00  0.00    -0.139 N 
ATOM     17  H12 UNL     1      46.486 124.282  51.023  1.00  0.00     0.174 HD
ATOM     18  H11 UNL     1      46.386 122.625  51.660  1.00  0.00     0.174 HD
ATOM     19  H2  UNL     1      47.289 123.859  48.040  1.00  0.00     0.205 HD
ATOM     20  H4  UNL     1      47.363 120.982  48.974  1.00  0.00     0.184 HD
BRANCH  16  21
HETATM   21  N3  UNL     1      48.883 124.623  49.159  1.00  0.00    -0.331 N 
ATOM     22  H32 UNL     1      49.810 124.202  49.218  1.00  0.00     0.177 HD
ATOM     23  H31 UNL     1      48.757 125.629  49.267  1.00  0.00     0.177 HD
ENDBRANCH  16  21
ENDBRANCH   1  13
TORSDOF 2
ENDMDL
MODEL 5
REMARK VINA RESULT: -6.798506338      3.538      5.666
REMARK  2 active torsions:
REMARK  status: ('A' for Active; 'I' for Inactive)
REMARK       I    between atoms: C1_4  and  N2_5 
REMARK       I    between atoms: C1_4  and  N4_10 
REMARK    1  A    between atoms: N2_5  and  N3_7 
REMARK    2  A    between atoms: N4_10  and  C2_12 
ROOT
HETATM    1  C2  UNL     1      47.010 122.089  51.895  1.00  0.00     0.113 A 
HETATM    2  C3  UNL     1      47.691 122.976  52.708  1.00  0.00     0.142 A 
HETATM    3  N5  UNL     1      48.192 122.283  53.758  1.00  0.00    -0.297 N 
ATOM      4  H5  UNL     1      48.741 122.682  54.520  1.00  0.00     0.186 HD
HETATM    5  N6  UNL     1      47.860 121.009  53.640  1.00  0.00    -0.184 N 
HETATM    6  C4  UNL     1      47.939 119.778  54.179  1.00  0.00     0.362 A 
HETATM    7  O1  UNL     1      48.535 119.453  55.261  1.00  0.00    -0.243 OA
HETATM    8  N7  UNL     1      47.273 118.924  53.382  1.00  0.00    -0.248 N 
ATOM      9  H7  UNL     1      47.171 117.923  53.552  1.00  0.00     0.192 HD
HETATM   10  N8  UNL     1      46.775 119.569  52.353  1.00  0.00    -0.278 N 
ATOM     11  H8  UNL     1      46.226 119.173  51.589  1.00  0.00     0.189 HD
HETATM   12  C5  UNL     1      47.134 120.862  52.508  1.00  0.00     0.175 A 
ENDROOT
BRANCH   1  13
HETATM   13  N4  UNL     1      46.346 122.430  50.700  1.00  0.00    -0.186 N 
HETATM   14  C1  UNL     1      46.635 121.800  49.445  1.00  0.00     0.690 C 
HETATM   15  N1  UNL     1      47.853 121.813  49.024  1.00  0.00    -0.233 N 
HETATM   16  N2  UNL     1      45.613 121.173  48.679  1.00  0.00    -0.139 N 
ATOM     17  H12 UNL     1      48.059 121.365  48.131  1.00  0.00     0.174 HD
ATOM     18  H11 UNL     1      48.585 122.262  49.574  1.00  0.00     0.174 HD
ATOM     19  H2  UNL     1      44.964 121.744  48.136  1.00  0.00     0.205 HD
ATOM     20  H4  UNL     1      45.629 123.156  50.728  1.00  0.00     0.184 HD
BRANCH  16  21
HETATM   21  N3  UNL     1      45.495 119.791  48.665  1.00  0.00    -0.331 N 
ATOM     22  H32 UNL     1      45.545 119.284  49.549  1.00  0.00     0.177 HD
ATOM     23  H31 UNL     1      45.362 119.294  47.785  1.00  0.00     0.177 HD
ENDBRANCH  16  21
ENDBRANCH   1  13
TORSDOF 2
ENDMDL
