MODEL 1
REMARK VINA RESULT: -8.261998952      0.000      0.000
REMARK  18 active torsions:
REMARK  status: ('A' for Active; 'I' for Inactive)
REMARK    1  A    between atoms: C2_2  and  C3_3 
REMARK    2  A    between atoms: C3_3  and  C4_4 
REMARK       I    between atoms: C4_4  and  N1_6 
REMARK    3  A    between atoms: N1_6  and  C5_8 
REMARK    4  A    between atoms: C5_8  and  C7_10 
REMARK    5  A    between atoms: C7_10  and  O3_16 
REMARK    6  A    between atoms: C8_11  and  C9_12 
REMARK    7  A    between atoms: C9_12  and  O2_14 
REMARK    8  A    between atoms: O3_16  and  C12_17 
REMARK    9  A    between atoms: C12_17  and  O4_18 
REMARK   10  A    between atoms: C14_21  and  O5_22 
REMARK   11  A    between atoms: C19_28  and  C31_47 
REMARK   12  A    between atoms: C21_30  and  C22_31 
REMARK   13  A    between atoms: C22_31  and  C23_32 
REMARK       I    between atoms: C23_32  and  N2_34 
REMARK   14  A    between atoms: N2_34  and  C24_36 
REMARK   15  A    between atoms: C24_36  and  C25_37 
REMARK   16  A    between atoms: C24_36  and  C28_42 
REMARK   17  A    between atoms: C25_37  and  C26_38 
REMARK   18  A    between atoms: C26_38  and  C27_39 
ROOT
HETATM    1  C12 UNL     1      14.444  21.177   5.655  1.00  0.00     0.173 C 
HETATM    2  C13 UNL     1      14.259  22.216   6.738  1.00  0.00     0.107 C 
HETATM    3  C14 UNL     1      12.984  23.042   6.539  1.00  0.00     0.067 C 
HETATM    4  C15 UNL     1      12.967  24.195   7.493  1.00  0.00     0.039 C 
HETATM    5  C16 UNL     1      12.338  25.452   7.065  1.00  0.00     0.008 C 
HETATM    6  C17 UNL     1      11.775  25.615   5.714  1.00  0.00    -0.004 C 
HETATM    7  C18 UNL     1      11.808  24.423   4.824  1.00  0.00     0.001 C 
HETATM    8  C19 UNL     1      10.455  23.832   4.995  1.00  0.00    -0.004 C 
HETATM    9  C20 UNL     1       9.806  24.540   6.193  1.00  0.00     0.011 C 
HETATM   10  C21 UNL     1      10.273  25.944   5.735  1.00  0.00     0.008 C 
HETATM   11  C32 UNL     1      12.983  23.551   5.150  1.00  0.00     0.025 C 
HETATM   12  C33 UNL     1      13.240  22.519   4.078  1.00  0.00     0.017 C 
HETATM   13  C34 UNL     1      14.598  21.839   4.338  1.00  0.00     0.045 C 
HETATM   14  C35 UNL     1      15.670  22.851   4.213  1.00  0.00     0.015 C 
ENDROOT
BRANCH   1  15
HETATM   15  O3  UNL     1      15.298  20.193   6.037  1.00  0.00    -0.316 OA
BRANCH  15  16
HETATM   16  C7  UNL     1      16.599  20.050   6.287  1.00  0.00     0.071 C 
HETATM   17  C8  UNL     1      17.149  20.348   7.433  1.00  0.00     0.039 C 
BRANCH  16  18
HETATM   18  C5  UNL     1      17.495  19.520   5.198  1.00  0.00     0.137 C 
HETATM   19  C6  UNL     1      18.453  18.480   5.769  1.00  0.00     0.039 C 
BRANCH  18  20
HETATM   20  N1  UNL     1      16.734  18.845   4.180  1.00  0.00    -0.351 N 
HETATM   21  C4  UNL     1      17.178  18.492   2.894  1.00  0.00     0.218 C 
HETATM   22  O1  UNL     1      18.341  18.769   2.540  1.00  0.00    -0.274 OA
ATOM     23  H1  UNL     1      15.773  18.598   4.417  1.00  0.00     0.163 HD
BRANCH  21  24
HETATM   24  C3  UNL     1      16.274  17.794   1.958  1.00  0.00     0.102 C 
BRANCH  24  25
HETATM   25  C2  UNL     1      14.886  18.404   1.936  1.00  0.00     0.005 C 
HETATM   26  C1  UNL     1      14.908  19.746   1.224  1.00  0.00     0.005 C 
ENDBRANCH  24  25
ENDBRANCH  21  24
ENDBRANCH  18  20
ENDBRANCH  16  18
BRANCH  17  27
HETATM   27  C9  UNL     1      16.519  20.877   8.646  1.00  0.00     0.142 C 
HETATM   28  C10 UNL     1      16.429  19.735   9.656  1.00  0.00     0.044 C 
BRANCH  27  29
HETATM   29  O2  UNL     1      17.222  21.954   9.190  1.00  0.00    -0.387 OA
HETATM   30  C11 UNL     1      18.570  21.929   8.831  1.00  0.00     0.202 C 
ENDBRANCH  27  29
ENDBRANCH  17  27
ENDBRANCH  15  16
ENDBRANCH   1  15
BRANCH   1  31
HETATM   31  O4  UNL     1      13.167  20.531   5.559  1.00  0.00    -0.364 OA
ATOM     32  H4  UNL     1      12.759  20.918   4.794  1.00  0.00     0.213 HD
ENDBRANCH   1  31
BRANCH   3  33
HETATM   33  O5  UNL     1      11.953  22.118   6.779  1.00  0.00    -0.389 OA
ATOM     34  H5  UNL     1      11.352  22.264   6.058  1.00  0.00     0.210 HD
ENDBRANCH   3  33
BRANCH   8  35
HETATM   35  C31 UNL     1       9.613  24.512   3.894  1.00  0.00     0.008 A 
HETATM   36  C22 UNL     1       8.728  23.327   3.478  1.00  0.00     0.049 A 
HETATM   37  C29 UNL     1       9.362  23.466   2.102  1.00  0.00     0.020 A 
HETATM   38  C30 UNL     1      10.235  24.608   2.554  1.00  0.00     0.007 A 
BRANCH  36  39
HETATM   39  C23 UNL     1       7.288  23.597   3.409  1.00  0.00     0.228 C 
HETATM   40  O6  UNL     1       6.403  22.693   3.364  1.00  0.00    -0.273 OA
HETATM   41  N2  UNL     1       6.798  24.925   3.389  1.00  0.00    -0.347 N 
ATOM     42  H2  UNL     1       7.464  25.697   3.424  1.00  0.00     0.163 HD
BRANCH  41  43
HETATM   43  C24 UNL     1       5.380  25.224   3.320  1.00  0.00     0.174 C 
BRANCH  43  44
HETATM   44  C25 UNL     1       5.036  26.314   4.268  1.00  0.00     0.043 C 
BRANCH  44  45
HETATM   45  C26 UNL     1       6.216  26.849   4.994  1.00  0.00     0.102 C 
BRANCH  45  46
HETATM   46  C27 UNL     1       5.889  27.336   6.329  1.00  0.00     0.231 C 
HETATM   47  N3  UNL     1       4.914  26.685   7.165  1.00  0.00    -0.062 NA
HETATM   48  O7  UNL     1       6.446  28.350   6.818  1.00  0.00    -0.277 OA
ENDBRANCH  45  46
ENDBRANCH  44  45
ENDBRANCH  43  44
BRANCH  43  49
HETATM   49  C28 UNL     1       5.038  25.727   1.944  1.00  0.00     0.254 C 
HETATM   50  N4  UNL     1       3.813  26.361   1.658  1.00  0.00    -0.060 NA
HETATM   51  O8  UNL     1       5.871  25.578   1.019  1.00  0.00    -0.275 OA
ENDBRANCH  43  49
ENDBRANCH  41  43
ENDBRANCH  36  39
ENDBRANCH   8  35
TORSDOF 18
ENDMDL
MODEL 2
REMARK VINA RESULT: -8.185517774      2.895     11.487
REMARK  18 active torsions:
REMARK  status: ('A' for Active; 'I' for Inactive)
REMARK    1  A    between atoms: C2_2  and  C3_3 
REMARK    2  A    between atoms: C3_3  and  C4_4 
REMARK       I    between atoms: C4_4  and  N1_6 
REMARK    3  A    between atoms: N1_6  and  C5_8 
REMARK    4  A    between atoms: C5_8  and  C7_10 
REMARK    5  A    between atoms: C7_10  and  O3_16 
REMARK    6  A    between atoms: C8_11  and  C9_12 
REMARK    7  A    between atoms: C9_12  and  O2_14 
REMARK    8  A    between atoms: O3_16  and  C12_17 
REMARK    9  A    between atoms: C12_17  and  O4_18 
REMARK   10  A    between atoms: C14_21  and  O5_22 
REMARK   11  A    between atoms: C19_28  and  C31_47 
REMARK   12  A    between atoms: C21_30  and  C22_31 
REMARK   13  A    between atoms: C22_31  and  C23_32 
REMARK       I    between atoms: C23_32  and  N2_34 
REMARK   14  A    between atoms: N2_34  and  C24_36 
REMARK   15  A    between atoms: C24_36  and  C25_37 
REMARK   16  A    between atoms: C24_36  and  C28_42 
REMARK   17  A    between atoms: C25_37  and  C26_38 
REMARK   18  A    between atoms: C26_38  and  C27_39 
ROOT
HETATM    1  C12 UNL     1      11.190  24.005   5.941  1.00  0.00     0.173 C 
HETATM    2  C13 UNL     1      11.637  23.273   4.696  1.00  0.00     0.107 C 
HETATM    3  C14 UNL     1      12.817  22.334   4.967  1.00  0.00     0.067 C 
HETATM    4  C15 UNL     1      13.366  21.814   3.675  1.00  0.00     0.039 C 
HETATM    5  C16 UNL     1      14.807  21.549   3.579  1.00  0.00     0.008 C 
HETATM    6  C17 UNL     1      15.721  21.828   4.699  1.00  0.00    -0.004 C 
HETATM    7  C18 UNL     1      15.107  22.324   5.960  1.00  0.00     0.001 C 
HETATM    8  C19 UNL     1      14.959  21.091   6.776  1.00  0.00    -0.004 C 
HETATM    9  C20 UNL     1      15.223  19.902   5.842  1.00  0.00     0.011 C 
HETATM   10  C21 UNL     1      16.458  20.570   5.188  1.00  0.00     0.008 C 
HETATM   11  C32 UNL     1      13.863  23.108   5.670  1.00  0.00     0.025 C 
HETATM   12  C33 UNL     1      13.394  23.895   6.870  1.00  0.00     0.017 C 
HETATM   13  C34 UNL     1      12.284  24.872   6.440  1.00  0.00     0.045 C 
HETATM   14  C35 UNL     1      12.853  25.854   5.490  1.00  0.00     0.015 C 
ENDROOT
BRANCH   1  15
HETATM   15  O3  UNL     1       9.927  24.489   5.819  1.00  0.00    -0.316 OA
BRANCH  15  16
HETATM   16  C7  UNL     1       9.300  25.477   5.180  1.00  0.00     0.071 C 
HETATM   17  C8  UNL     1       8.818  25.361   3.973  1.00  0.00     0.039 C 
BRANCH  16  18
HETATM   18  C5  UNL     1       9.133  26.802   5.876  1.00  0.00     0.137 C 
HETATM   19  C6  UNL     1       7.760  27.388   5.564  1.00  0.00     0.039 C 
BRANCH  18  20
HETATM   20  N1  UNL     1       9.187  26.650   7.306  1.00  0.00    -0.351 N 
HETATM   21  C4  UNL     1       9.268  27.681   8.259  1.00  0.00     0.218 C 
HETATM   22  O1  UNL     1       9.304  28.870   7.887  1.00  0.00    -0.274 OA
ATOM     23  H1  UNL     1       9.163  25.695   7.665  1.00  0.00     0.163 HD
BRANCH  21  24
HETATM   24  C3  UNL     1       9.311  27.363   9.700  1.00  0.00     0.102 C 
BRANCH  24  25
HETATM   25  C2  UNL     1      10.284  26.243  10.014  1.00  0.00     0.005 C 
HETATM   26  C1  UNL     1      11.691  26.630   9.592  1.00  0.00     0.005 C 
ENDBRANCH  24  25
ENDBRANCH  21  24
ENDBRANCH  18  20
ENDBRANCH  16  18
BRANCH  17  27
HETATM   27  C9  UNL     1       8.844  24.200   3.079  1.00  0.00     0.142 C 
HETATM   28  C10 UNL     1       7.442  23.594   3.068  1.00  0.00     0.044 C 
BRANCH  27  29
HETATM   29  O2  UNL     1       9.241  24.529   1.781  1.00  0.00    -0.387 OA
HETATM   30  C11 UNL     1       8.871  25.831   1.439  1.00  0.00     0.202 C 
ENDBRANCH  27  29
ENDBRANCH  17  27
ENDBRANCH  15  16
ENDBRANCH   1  15
BRANCH   1  31
HETATM   31  O4  UNL     1      11.090  22.981   6.941  1.00  0.00    -0.364 OA
ATOM     32  H4  UNL     1      11.721  22.323   6.674  1.00  0.00     0.213 HD
ENDBRANCH   1  31
BRANCH   3  33
HETATM   33  O5  UNL     1      12.258  21.325   5.770  1.00  0.00    -0.389 OA
ATOM     34  H5  UNL     1      12.973  20.711   5.885  1.00  0.00     0.210 HD
ENDBRANCH   3  33
BRANCH   8  35
HETATM   35  C31 UNL     1      16.283  21.010   7.566  1.00  0.00     0.008 A 
HETATM   36  C22 UNL     1      15.734  20.630   8.950  1.00  0.00     0.049 A 
HETATM   37  C29 UNL     1      16.338  21.939   9.436  1.00  0.00     0.020 A 
HETATM   38  C30 UNL     1      16.837  22.291   8.058  1.00  0.00     0.007 A 
BRANCH  36  39
HETATM   39  C23 UNL     1      16.384  19.491   9.606  1.00  0.00     0.228 C 
HETATM   40  O6  UNL     1      15.882  18.859  10.581  1.00  0.00    -0.273 OA
HETATM   41  N2  UNL     1      17.647  19.024   9.168  1.00  0.00    -0.347 N 
ATOM     42  H2  UNL     1      18.102  19.493   8.384  1.00  0.00     0.163 HD
BRANCH  41  43
HETATM   43  C24 UNL     1      18.315  17.900   9.797  1.00  0.00     0.174 C 
BRANCH  43  44
HETATM   44  C25 UNL     1      18.965  17.047   8.771  1.00  0.00     0.043 C 
BRANCH  44  45
HETATM   45  C26 UNL     1      18.659  15.603   8.933  1.00  0.00     0.102 C 
BRANCH  45  46
HETATM   46  C27 UNL     1      18.636  14.880   7.667  1.00  0.00     0.231 C 
HETATM   47  N3  UNL     1      18.654  13.441   7.606  1.00  0.00    -0.062 NA
HETATM   48  O7  UNL     1      18.596  15.478   6.563  1.00  0.00    -0.277 OA
ENDBRANCH  45  46
ENDBRANCH  44  45
ENDBRANCH  43  44
BRANCH  43  49
HETATM   49  C28 UNL     1      19.413  18.405  10.695  1.00  0.00     0.254 C 
HETATM   50  N4  UNL     1      20.585  17.664  10.938  1.00  0.00    -0.060 NA
HETATM   51  O8  UNL     1      19.280  19.524  11.245  1.00  0.00    -0.275 OA
ENDBRANCH  43  49
ENDBRANCH  41  43
ENDBRANCH  36  39
ENDBRANCH   8  35
TORSDOF 18
ENDMDL
MODEL 3
REMARK VINA RESULT: -8.172028786      3.398     11.075
REMARK  18 active torsions:
REMARK  status: ('A' for Active; 'I' for Inactive)
REMARK    1  A    between atoms: C2_2  and  C3_3 
REMARK    2  A    between atoms: C3_3  and  C4_4 
REMARK       I    between atoms: C4_4  and  N1_6 
REMARK    3  A    between atoms: N1_6  and  C5_8 
REMARK    4  A    between atoms: C5_8  and  C7_10 
REMARK    5  A    between atoms: C7_10  and  O3_16 
REMARK    6  A    between atoms: C8_11  and  C9_12 
REMARK    7  A    between atoms: C9_12  and  O2_14 
REMARK    8  A    between atoms: O3_16  and  C12_17 
REMARK    9  A    between atoms: C12_17  and  O4_18 
REMARK   10  A    between atoms: C14_21  and  O5_22 
REMARK   11  A    between atoms: C19_28  and  C31_47 
REMARK   12  A    between atoms: C21_30  and  C22_31 
REMARK   13  A    between atoms: C22_31  and  C23_32 
REMARK       I    between atoms: C23_32  and  N2_34 
REMARK   14  A    between atoms: N2_34  and  C24_36 
REMARK   15  A    between atoms: C24_36  and  C25_37 
REMARK   16  A    between atoms: C24_36  and  C28_42 
REMARK   17  A    between atoms: C25_37  and  C26_38 
REMARK   18  A    between atoms: C26_38  and  C27_39 
ROOT
HETATM    1  C12 UNL     1      11.357  23.755   5.839  1.00  0.00     0.173 C 
HETATM    2  C13 UNL     1      11.925  22.877   4.748  1.00  0.00     0.107 C 
HETATM    3  C14 UNL     1      13.107  22.032   5.236  1.00  0.00     0.067 C 
HETATM    4  C15 UNL     1      13.773  21.363   4.076  1.00  0.00     0.039 C 
HETATM    5  C16 UNL     1      15.225  21.145   4.127  1.00  0.00     0.008 C 
HETATM    6  C17 UNL     1      16.037  21.612   5.263  1.00  0.00    -0.004 C 
HETATM    7  C18 UNL     1      15.308  22.252   6.392  1.00  0.00     0.001 C 
HETATM    8  C19 UNL     1      15.131  21.138   7.360  1.00  0.00    -0.004 C 
HETATM    9  C20 UNL     1      15.504  19.843   6.624  1.00  0.00     0.011 C 
HETATM   10  C21 UNL     1      16.768  20.465   5.979  1.00  0.00     0.008 C 
HETATM   11  C32 UNL     1      14.069  22.938   5.902  1.00  0.00     0.025 C 
HETATM   12  C33 UNL     1      13.482  23.863   6.940  1.00  0.00     0.017 C 
HETATM   13  C34 UNL     1      12.381  24.726   6.293  1.00  0.00     0.045 C 
HETATM   14  C35 UNL     1      12.996  25.589   5.261  1.00  0.00     0.015 C 
ENDROOT
BRANCH   1  15
HETATM   15  O3  UNL     1      10.095  24.165   5.555  1.00  0.00    -0.316 OA
BRANCH  15  16
HETATM   16  C7  UNL     1       9.499  25.107   4.823  1.00  0.00     0.071 C 
HETATM   17  C8  UNL     1       9.172  24.945   3.570  1.00  0.00     0.039 C 
BRANCH  16  18
HETATM   18  C5  UNL     1       9.180  26.432   5.464  1.00  0.00     0.137 C 
HETATM   19  C6  UNL     1       7.802  26.910   5.019  1.00  0.00     0.039 C 
BRANCH  18  20
HETATM   20  N1  UNL     1       9.119  26.317   6.897  1.00  0.00    -0.351 N 
HETATM   21  C4  UNL     1       9.107  27.373   7.825  1.00  0.00     0.218 C 
HETATM   22  O1  UNL     1       9.155  28.552   7.427  1.00  0.00    -0.274 OA
ATOM     23  H1  UNL     1       9.081  25.371   7.278  1.00  0.00     0.163 HD
BRANCH  21  24
HETATM   24  C3  UNL     1       9.037  27.092   9.273  1.00  0.00     0.102 C 
BRANCH  24  25
HETATM   25  C2  UNL     1      10.087  26.091   9.717  1.00  0.00     0.005 C 
HETATM   26  C1  UNL     1      11.481  26.648   9.485  1.00  0.00     0.005 C 
ENDBRANCH  24  25
ENDBRANCH  21  24
ENDBRANCH  18  20
ENDBRANCH  16  18
BRANCH  17  27
HETATM   27  C9  UNL     1       9.367  23.773   2.712  1.00  0.00     0.142 C 
HETATM   28  C10 UNL     1       7.985  23.243   2.333  1.00  0.00     0.044 C 
BRANCH  27  29
HETATM   29  O2  UNL     1      10.108  24.063   1.565  1.00  0.00    -0.387 OA
HETATM   30  C11 UNL     1      11.349  24.620   1.875  1.00  0.00     0.202 C 
ENDBRANCH  27  29
ENDBRANCH  17  27
ENDBRANCH  15  16
ENDBRANCH   1  15
BRANCH   1  31
HETATM   31  O4  UNL     1      11.208  22.875   6.963  1.00  0.00    -0.364 OA
ATOM     32  H4  UNL     1      11.901  22.235   6.860  1.00  0.00     0.213 HD
ENDBRANCH   1  31
BRANCH   3  33
HETATM   33  O5  UNL     1      12.514  21.122   6.128  1.00  0.00    -0.389 OA
ATOM     34  H5  UNL     1      12.963  20.306   5.943  1.00  0.00     0.210 HD
ENDBRANCH   3  33
BRANCH   8  35
HETATM   35  C31 UNL     1      16.389  21.220   8.251  1.00  0.00     0.008 A 
HETATM   36  C22 UNL     1      15.779  20.792   9.596  1.00  0.00     0.049 A 
HETATM   37  C29 UNL     1      16.186  22.167  10.102  1.00  0.00     0.020 A 
HETATM   38  C30 UNL     1      16.750  22.561   8.761  1.00  0.00     0.007 A 
BRANCH  36  39
HETATM   39  C23 UNL     1      16.502  19.743  10.321  1.00  0.00     0.228 C 
HETATM   40  O6  UNL     1      17.492  19.964  11.079  1.00  0.00    -0.273 OA
HETATM   41  N2  UNL     1      16.119  18.384  10.207  1.00  0.00    -0.347 N 
ATOM     42  H2  UNL     1      15.328  18.143   9.610  1.00  0.00     0.163 HD
BRANCH  41  43
HETATM   43  C24 UNL     1      16.816  17.324  10.911  1.00  0.00     0.174 C 
BRANCH  43  44
HETATM   44  C25 UNL     1      15.874  16.232  11.261  1.00  0.00     0.043 C 
BRANCH  44  45
HETATM   45  C26 UNL     1      15.947  15.832  12.689  1.00  0.00     0.102 C 
BRANCH  45  46
HETATM   46  C27 UNL     1      14.659  15.420  13.232  1.00  0.00     0.231 C 
HETATM   47  N3  UNL     1      14.552  14.562  14.384  1.00  0.00    -0.062 NA
HETATM   48  O7  UNL     1      13.574  15.797  12.722  1.00  0.00    -0.277 OA
ENDBRANCH  45  46
ENDBRANCH  44  45
ENDBRANCH  43  44
BRANCH  43  49
HETATM   49  C28 UNL     1      17.858  16.720  10.008  1.00  0.00     0.254 C 
HETATM   50  N4  UNL     1      18.932  17.471   9.491  1.00  0.00    -0.060 NA
HETATM   51  O8  UNL     1      17.768  15.506   9.705  1.00  0.00    -0.275 OA
ENDBRANCH  43  49
ENDBRANCH  41  43
ENDBRANCH  36  39
ENDBRANCH   8  35
TORSDOF 18
ENDMDL
MODEL 4
REMARK VINA RESULT: -8.171020204      1.523      2.283
REMARK  18 active torsions:
REMARK  status: ('A' for Active; 'I' for Inactive)
REMARK    1  A    between atoms: C2_2  and  C3_3 
REMARK    2  A    between atoms: C3_3  and  C4_4 
REMARK       I    between atoms: C4_4  and  N1_6 
REMARK    3  A    between atoms: N1_6  and  C5_8 
REMARK    4  A    between atoms: C5_8  and  C7_10 
REMARK    5  A    between atoms: C7_10  and  O3_16 
REMARK    6  A    between atoms: C8_11  and  C9_12 
REMARK    7  A    between atoms: C9_12  and  O2_14 
REMARK    8  A    between atoms: O3_16  and  C12_17 
REMARK    9  A    between atoms: C12_17  and  O4_18 
REMARK   10  A    between atoms: C14_21  and  O5_22 
REMARK   11  A    between atoms: C19_28  and  C31_47 
REMARK   12  A    between atoms: C21_30  and  C22_31 
REMARK   13  A    between atoms: C22_31  and  C23_32 
REMARK       I    between atoms: C23_32  and  N2_34 
REMARK   14  A    between atoms: N2_34  and  C24_36 
REMARK   15  A    between atoms: C24_36  and  C25_37 
REMARK   16  A    between atoms: C24_36  and  C28_42 
REMARK   17  A    between atoms: C25_37  and  C26_38 
REMARK   18  A    between atoms: C26_38  and  C27_39 
ROOT
HETATM    1  C12 UNL     1      14.329  21.250   5.667  1.00  0.00     0.173 C 
HETATM    2  C13 UNL     1      13.954  22.300   6.688  1.00  0.00     0.107 C 
HETATM    3  C14 UNL     1      12.675  23.052   6.305  1.00  0.00     0.067 C 
HETATM    4  C15 UNL     1      12.477  24.222   7.216  1.00  0.00     0.039 C 
HETATM    5  C16 UNL     1      11.847  25.435   6.676  1.00  0.00     0.008 C 
HETATM    6  C17 UNL     1      11.456  25.539   5.261  1.00  0.00    -0.004 C 
HETATM    7  C18 UNL     1      11.664  24.332   4.416  1.00  0.00     0.001 C 
HETATM    8  C19 UNL     1      10.331  23.673   4.428  1.00  0.00    -0.004 C 
HETATM    9  C20 UNL     1       9.498  24.371   5.512  1.00  0.00     0.011 C 
HETATM   10  C21 UNL     1       9.950  25.788   5.079  1.00  0.00     0.008 C 
HETATM   11  C32 UNL     1      12.828  23.531   4.913  1.00  0.00     0.025 C 
HETATM   12  C33 UNL     1      13.274  22.492   3.913  1.00  0.00     0.017 C 
HETATM   13  C34 UNL     1      14.619  21.891   4.363  1.00  0.00     0.045 C 
HETATM   14  C35 UNL     1      15.646  22.956   4.349  1.00  0.00     0.015 C 
ENDROOT
BRANCH   1  15
HETATM   15  O3  UNL     1      15.174  20.321   6.183  1.00  0.00    -0.316 OA
BRANCH  15  16
HETATM   16  C7  UNL     1      16.468  20.216   6.486  1.00  0.00     0.071 C 
HETATM   17  C8  UNL     1      16.968  20.565   7.639  1.00  0.00     0.039 C 
BRANCH  16  18
HETATM   18  C5  UNL     1      17.415  19.668   5.450  1.00  0.00     0.137 C 
HETATM   19  C6  UNL     1      18.377  18.674   6.094  1.00  0.00     0.039 C 
BRANCH  18  20
HETATM   20  N1  UNL     1      16.708  18.937   4.432  1.00  0.00    -0.351 N 
HETATM   21  C4  UNL     1      17.222  18.506   3.197  1.00  0.00     0.218 C 
HETATM   22  O1  UNL     1      18.406  18.755   2.894  1.00  0.00    -0.274 OA
ATOM     23  H1  UNL     1      15.734  18.708   4.627  1.00  0.00     0.163 HD
BRANCH  21  24
HETATM   24  C3  UNL     1      16.368  17.757   2.254  1.00  0.00     0.102 C 
BRANCH  24  25
HETATM   25  C2  UNL     1      14.986  18.367   2.121  1.00  0.00     0.005 C 
HETATM   26  C1  UNL     1      15.021  19.561   1.183  1.00  0.00     0.005 C 
ENDBRANCH  24  25
ENDBRANCH  21  24
ENDBRANCH  18  20
ENDBRANCH  16  18
BRANCH  17  27
HETATM   27  C9  UNL     1      16.282  21.122   8.809  1.00  0.00     0.142 C 
HETATM   28  C10 UNL     1      16.243  20.036   9.882  1.00  0.00     0.044 C 
BRANCH  27  29
HETATM   29  O2  UNL     1      16.904  22.270   9.301  1.00  0.00    -0.387 OA
HETATM   30  C11 UNL     1      16.745  23.357   8.440  1.00  0.00     0.202 C 
ENDBRANCH  27  29
ENDBRANCH  17  27
ENDBRANCH  15  16
ENDBRANCH   1  15
BRANCH   1  31
HETATM   31  O4  UNL     1      13.109  20.535   5.426  1.00  0.00    -0.364 OA
ATOM     32  H4  UNL     1      12.433  21.078   5.813  1.00  0.00     0.213 HD
ENDBRANCH   1  31
BRANCH   3  33
HETATM   33  O5  UNL     1      11.670  22.079   6.435  1.00  0.00    -0.389 OA
ATOM     34  H5  UNL     1      11.769  21.776   7.330  1.00  0.00     0.210 HD
ENDBRANCH   3  33
BRANCH   8  35
HETATM   35  C31 UNL     1       9.607  24.285   3.209  1.00  0.00     0.008 A 
HETATM   36  C22 UNL     1       8.361  23.385   3.172  1.00  0.00     0.049 A 
HETATM   37  C29 UNL     1       8.836  22.956   1.792  1.00  0.00     0.020 A 
HETATM   38  C30 UNL     1      10.061  23.830   1.875  1.00  0.00     0.007 A 
BRANCH  36  39
HETATM   39  C23 UNL     1       7.073  24.079   3.079  1.00  0.00     0.228 C 
HETATM   40  O6  UNL     1       6.955  25.312   2.817  1.00  0.00    -0.273 OA
HETATM   41  N2  UNL     1       5.857  23.384   3.286  1.00  0.00    -0.347 N 
ATOM     42  H2  UNL     1       5.888  22.387   3.500  1.00  0.00     0.163 HD
BRANCH  41  43
HETATM   43  C24 UNL     1       4.567  24.045   3.202  1.00  0.00     0.174 C 
BRANCH  43  44
HETATM   44  C25 UNL     1       3.872  23.659   1.948  1.00  0.00     0.043 C 
BRANCH  44  45
HETATM   45  C26 UNL     1       2.973  24.721   1.429  1.00  0.00     0.102 C 
BRANCH  45  46
HETATM   46  C27 UNL     1       3.685  25.939   1.059  1.00  0.00     0.231 C 
HETATM   47  N3  UNL     1       3.231  27.244   1.464  1.00  0.00    -0.062 NA
HETATM   48  O7  UNL     1       4.734  25.909   0.369  1.00  0.00    -0.277 OA
ENDBRANCH  45  46
ENDBRANCH  44  45
ENDBRANCH  43  44
BRANCH  43  49
HETATM   49  C28 UNL     1       3.692  23.586   4.337  1.00  0.00     0.254 C 
HETATM   50  N4  UNL     1       2.945  24.485   5.122  1.00  0.00    -0.060 NA
HETATM   51  O8  UNL     1       3.624  22.360   4.593  1.00  0.00    -0.275 OA
ENDBRANCH  43  49
ENDBRANCH  41  43
ENDBRANCH  36  39
ENDBRANCH   8  35
TORSDOF 18
ENDMDL
MODEL 5
REMARK VINA RESULT: -8.106209210      2.139      5.078
REMARK  18 active torsions:
REMARK  status: ('A' for Active; 'I' for Inactive)
REMARK    1  A    between atoms: C2_2  and  C3_3 
REMARK    2  A    between atoms: C3_3  and  C4_4 
REMARK       I    between atoms: C4_4  and  N1_6 
REMARK    3  A    between atoms: N1_6  and  C5_8 
REMARK    4  A    between atoms: C5_8  and  C7_10 
REMARK    5  A    between atoms: C7_10  and  O3_16 
REMARK    6  A    between atoms: C8_11  and  C9_12 
REMARK    7  A    between atoms: C9_12  and  O2_14 
REMARK    8  A    between atoms: O3_16  and  C12_17 
REMARK    9  A    between atoms: C12_17  and  O4_18 
REMARK   10  A    between atoms: C14_21  and  O5_22 
REMARK   11  A    between atoms: C19_28  and  C31_47 
REMARK   12  A    between atoms: C21_30  and  C22_31 
REMARK   13  A    between atoms: C22_31  and  C23_32 
REMARK       I    between atoms: C23_32  and  N2_34 
REMARK   14  A    between atoms: N2_34  and  C24_36 
REMARK   15  A    between atoms: C24_36  and  C25_37 
REMARK   16  A    between atoms: C24_36  and  C28_42 
REMARK   17  A    between atoms: C25_37  and  C26_38 
REMARK   18  A    between atoms: C26_38  and  C27_39 
ROOT
HETATM    1  C12 UNL     1      14.143  22.973   6.056  1.00  0.00     0.173 C 
HETATM    2  C13 UNL     1      13.654  23.378   4.684  1.00  0.00     0.107 C 
HETATM    3  C14 UNL     1      12.382  24.230   4.748  1.00  0.00     0.067 C 
HETATM    4  C15 UNL     1      11.814  24.407   3.375  1.00  0.00     0.039 C 
HETATM    5  C16 UNL     1      10.356  24.500   3.223  1.00  0.00     0.008 C 
HETATM    6  C17 UNL     1       9.449  24.373   4.375  1.00  0.00    -0.004 C 
HETATM    7  C18 UNL     1      10.080  24.218   5.714  1.00  0.00     0.001 C 
HETATM    8  C19 UNL     1      10.089  25.605   6.250  1.00  0.00    -0.004 C 
HETATM    9  C20 UNL     1       9.731  26.537   5.084  1.00  0.00     0.011 C 
HETATM   10  C21 UNL     1       8.582  25.626   4.586  1.00  0.00     0.008 C 
HETATM   11  C32 UNL     1      11.401  23.520   5.598  1.00  0.00     0.025 C 
HETATM   12  C33 UNL     1      11.918  23.054   6.938  1.00  0.00     0.017 C 
HETATM   13  C34 UNL     1      13.128  22.125   6.726  1.00  0.00     0.045 C 
HETATM   14  C35 UNL     1      12.679  20.913   6.005  1.00  0.00     0.015 C 
ENDROOT
BRANCH   1  15
HETATM   15  O3  UNL     1      15.449  22.603   6.040  1.00  0.00    -0.316 OA
BRANCH  15  16
HETATM   16  C7  UNL     1      16.206  21.611   6.508  1.00  0.00     0.071 C 
HETATM   17  C8  UNL     1      16.370  20.476   5.886  1.00  0.00     0.039 C 
BRANCH  16  18
HETATM   18  C5  UNL     1      16.913  21.795   7.825  1.00  0.00     0.137 C 
HETATM   19  C6  UNL     1      16.608  23.176   8.394  1.00  0.00     0.039 C 
BRANCH  18  20
HETATM   20  N1  UNL     1      16.447  20.848   8.804  1.00  0.00    -0.351 N 
HETATM   21  C4  UNL     1      17.214  19.869   9.459  1.00  0.00     0.218 C 
HETATM   22  O1  UNL     1      18.430  19.759   9.206  1.00  0.00    -0.274 OA
ATOM     23  H1  UNL     1      15.457  20.892   9.047  1.00  0.00     0.163 HD
BRANCH  21  24
HETATM   24  C3  UNL     1      16.588  18.969  10.449  1.00  0.00     0.102 C 
BRANCH  24  25
HETATM   25  C2  UNL     1      17.379  17.690  10.644  1.00  0.00     0.005 C 
HETATM   26  C1  UNL     1      16.483  16.591  11.190  1.00  0.00     0.005 C 
ENDBRANCH  24  25
ENDBRANCH  21  24
ENDBRANCH  18  20
ENDBRANCH  16  18
BRANCH  17  27
HETATM   27  C9  UNL     1      15.803  20.037   4.607  1.00  0.00     0.142 C 
HETATM   28  C10 UNL     1      16.944  19.462   3.769  1.00  0.00     0.044 C 
BRANCH  27  29
HETATM   29  O2  UNL     1      14.790  19.090   4.764  1.00  0.00    -0.387 OA
HETATM   30  C11 UNL     1      15.133  17.862   4.198  1.00  0.00     0.202 C 
ENDBRANCH  27  29
ENDBRANCH  17  27
ENDBRANCH  15  16
ENDBRANCH   1  15
BRANCH   1  31
HETATM   31  O4  UNL     1      14.119  24.189   6.816  1.00  0.00    -0.364 OA
ATOM     32  H4  UNL     1      13.210  24.463   6.802  1.00  0.00     0.213 HD
ENDBRANCH   1  31
BRANCH   3  33
HETATM   33  O5  UNL     1      12.822  25.435   5.319  1.00  0.00    -0.389 OA
ATOM     34  H5  UNL     1      12.063  26.002   5.254  1.00  0.00     0.210 HD
ENDBRANCH   3  33
BRANCH   8  35
HETATM   35  C31 UNL     1       8.746  25.717   7.003  1.00  0.00     0.008 A 
HETATM   36  C22 UNL     1       8.897  27.130   7.588  1.00  0.00     0.049 A 
HETATM   37  C29 UNL     1       8.805  26.465   8.953  1.00  0.00     0.020 A 
HETATM   38  C30 UNL     1       8.686  25.092   8.343  1.00  0.00     0.007 A 
BRANCH  36  39
HETATM   39  C23 UNL     1       7.761  28.034   7.379  1.00  0.00     0.228 C 
HETATM   40  O6  UNL     1       7.799  29.278   7.608  1.00  0.00    -0.273 OA
HETATM   41  N2  UNL     1       6.523  27.545   6.896  1.00  0.00    -0.347 N 
ATOM     42  H2  UNL     1       6.431  26.550   6.693  1.00  0.00     0.163 HD
BRANCH  41  43
HETATM   43  C24 UNL     1       5.381  28.415   6.681  1.00  0.00     0.174 C 
BRANCH  43  44
HETATM   44  C25 UNL     1       4.664  28.026   5.441  1.00  0.00     0.043 C 
BRANCH  44  45
HETATM   45  C26 UNL     1       5.178  26.769   4.839  1.00  0.00     0.102 C 
BRANCH  45  46
HETATM   46  C27 UNL     1       4.167  26.049   4.075  1.00  0.00     0.231 C 
HETATM   47  N3  UNL     1       3.832  26.406   2.720  1.00  0.00    -0.062 NA
HETATM   48  O7  UNL     1       3.538  25.076   4.561  1.00  0.00    -0.277 OA
ENDBRANCH  45  46
ENDBRANCH  44  45
ENDBRANCH  43  44
BRANCH  43  49
HETATM   49  C28 UNL     1       4.402  28.249   7.812  1.00  0.00     0.254 C 
HETATM   50  N4  UNL     1       4.059  29.312   8.671  1.00  0.00    -0.060 NA
HETATM   51  O8  UNL     1       3.873  27.127   7.998  1.00  0.00    -0.275 OA
ENDBRANCH  43  49
ENDBRANCH  41  43
ENDBRANCH  36  39
ENDBRANCH   8  35
TORSDOF 18
ENDMDL
