MODEL 1
REMARK VINA RESULT: -9.306041665      0.000      0.000
REMARK  16 active torsions:
REMARK  status: ('A' for Active; 'I' for Inactive)
REMARK    1  A    between atoms: C2_2  and  C3_3 
REMARK    2  A    between atoms: C3_3  and  C5_5 
REMARK    3  A    between atoms: C8_11  and  C9_12 
REMARK    4  A    between atoms: C9_12  and  C10_13 
REMARK    5  A    between atoms: C10_13  and  C11_14 
REMARK    6  A    between atoms: C11_14  and  C12_15 
REMARK    7  A    between atoms: C12_15  and  O1_19 
REMARK    8  A    between atoms: C16_23  and  C17_24 
REMARK    9  A    between atoms: C17_24  and  C18_26 
REMARK   10  A    between atoms: C18_26  and  C19_27 
REMARK   11  A    between atoms: C19_27  and  C20_28 
REMARK   12  A    between atoms: C19_27  and  C26_41 
REMARK       I    between atoms: C20_28  and  N3_30 
REMARK   13  A    between atoms: C21_32  and  C22_33 
REMARK   14  A    between atoms: C21_32  and  C25_38 
REMARK   15  A    between atoms: C22_33  and  C23_34 
REMARK   16  A    between atoms: C23_34  and  C24_35 
ROOT
HETATM    1  C5  UNL     1       8.004  25.526   3.347  1.00  0.00     0.280 C 
HETATM    2  N1  UNL     1       8.602  26.586   4.129  1.00  0.00    -0.062 N 
ATOM      3  H11 UNL     1       8.200  27.491   3.881  1.00  0.00     0.278 HD
ATOM      4  H12 UNL     1       9.568  26.747   3.843  1.00  0.00     0.278 HD
HETATM    5  C6  UNL     1       8.519  26.362   5.540  1.00  0.00     0.233 C 
HETATM    6  C7  UNL     1       9.848  26.601   6.213  1.00  0.00     0.032 C 
HETATM    7  C8  UNL     1      10.621  25.294   6.418  1.00  0.00    -0.007 C 
HETATM    8  C14 UNL     1      12.087  25.415   6.201  1.00  0.00     0.016 C 
HETATM    9  C15 UNL     1      12.903  25.250   7.444  1.00  0.00     0.012 C 
HETATM   10  C16 UNL     1      12.659  24.621   5.037  1.00  0.00     0.162 C 
HETATM   11  N5  UNL     1      11.662  23.608   4.629  1.00  0.00    -0.348 N 
ATOM     12  H5  UNL     1      11.315  22.961   5.337  1.00  0.00     0.163 HD
HETATM   13  C29 UNL     1      11.165  23.489   3.318  1.00  0.00     0.236 C 
HETATM   14  O7  UNL     1      10.850  22.371   2.842  1.00  0.00    -0.272 OA
HETATM   15  C30 UNL     1      11.008  24.692   2.472  1.00  0.00     0.225 C 
HETATM   16  N6  UNL     1       9.795  24.707   1.694  1.00  0.00    -0.351 N 
ATOM     17  H6  UNL     1       9.772  24.118   0.862  1.00  0.00     0.163 HD
HETATM   18  C31 UNL     1       8.632  25.463   1.978  1.00  0.00     0.249 C 
HETATM   19  O8  UNL     1       8.124  26.108   0.994  1.00  0.00    -0.271 OA
ENDROOT
BRANCH  10  20
HETATM   20  C17 UNL     1      13.846  23.860   5.352  1.00  0.00     0.169 C 
HETATM   21  O2  UNL     1      14.862  24.306   4.718  1.00  0.00    -0.291 OA
BRANCH  20  22
HETATM   22  C18 UNL     1      14.140  22.759   6.191  1.00  0.00     0.040 C 
BRANCH  22  23
HETATM   23  C19 UNL     1      15.349  22.240   6.752  1.00  0.00     0.107 C 
BRANCH  23  24
HETATM   24  C20 UNL     1      15.304  20.698   6.518  1.00  0.00     0.230 C 
HETATM   25  O3  UNL     1      14.225  20.256   6.056  1.00  0.00    -0.272 OA
HETATM   26  N3  UNL     1      16.364  19.869   6.795  1.00  0.00    -0.326 N 
HETATM   27  C21 UNL     1      17.329  19.480   6.039  1.00  0.00     0.077 C 
ATOM     28  H3  UNL     1      16.390  19.506   7.747  1.00  0.00     0.168 HD
BRANCH  27  29
HETATM   29  C22 UNL     1      17.394  19.934   4.652  1.00  0.00     0.073 C 
BRANCH  29  30
HETATM   30  C23 UNL     1      16.650  19.161   3.630  1.00  0.00     0.119 C 
BRANCH  30  31
HETATM   31  C24 UNL     1      17.338  18.541   2.525  1.00  0.00     0.172 C 
HETATM   32  O4  UNL     1      16.729  18.419   1.404  1.00  0.00    -0.648 OA
HETATM   33  O5  UNL     1      18.644  18.044   2.554  1.00  0.00    -0.648 OA
ENDBRANCH  30  31
ENDBRANCH  29  30
ENDBRANCH  27  29
BRANCH  27  34
HETATM   34  C25 UNL     1      18.278  18.561   6.581  1.00  0.00     0.277 C 
HETATM   35  N4  UNL     1      18.645  18.575   7.937  1.00  0.00    -0.056 NA
HETATM   36  O6  UNL     1      18.820  17.699   5.848  1.00  0.00    -0.270 OA
ENDBRANCH  27  34
ENDBRANCH  23  24
BRANCH  23  37
HETATM   37  C26 UNL     1      15.808  22.344   8.135  1.00  0.00    -0.006 C 
HETATM   38  C27 UNL     1      16.584  23.542   8.571  1.00  0.00     0.011 C 
HETATM   39  C28 UNL     1      14.735  21.977   9.163  1.00  0.00     0.011 C 
ENDBRANCH  23  37
ENDBRANCH  22  23
ENDBRANCH  20  22
ENDBRANCH  10  20
BRANCH   7  40
HETATM   40  C9  UNL     1      10.133  24.525   7.580  1.00  0.00     0.005 C 
BRANCH  40  41
HETATM   41  C10 UNL     1       9.064  25.132   8.435  1.00  0.00     0.008 C 
BRANCH  41  42
HETATM   42  C11 UNL     1       9.796  25.780   9.633  1.00  0.00     0.083 C 
BRANCH  42  43
HETATM   43  C12 UNL     1       9.626  27.247   9.618  1.00  0.00     0.110 C 
HETATM   44  N2  UNL     1      10.597  28.092   9.552  1.00  0.00    -0.384 N 
ATOM     45  H22 UNL     1      11.544  27.715   9.506  1.00  0.00     0.157 HD
ATOM     46  H21 UNL     1      10.480  29.106   9.542  1.00  0.00     0.157 HD
BRANCH  43  47
HETATM   47  O1  UNL     1       8.340  27.760   9.680  1.00  0.00    -0.344 OA
HETATM   48  C13 UNL     1       7.750  28.392   8.539  1.00  0.00     0.211 C 
ENDBRANCH  43  47
ENDBRANCH  42  43
ENDBRANCH  41  42
ENDBRANCH  40  41
ENDBRANCH   7  40
BRANCH   1  49
HETATM   49  C3  UNL     1       6.539  25.719   3.119  1.00  0.00     0.021 C 
HETATM   50  C4  UNL     1       5.795  26.419   4.201  1.00  0.00     0.012 C 
BRANCH  49  51
HETATM   51  C2  UNL     1       5.836  24.462   2.714  1.00  0.00     0.002 C 
HETATM   52  C1  UNL     1       4.962  24.652   1.493  1.00  0.00     0.005 C 
ENDBRANCH  49  51
ENDBRANCH   1  49
TORSDOF 16
ENDMDL
MODEL 2
REMARK VINA RESULT: -9.027488220      0.940      1.057
REMARK  16 active torsions:
REMARK  status: ('A' for Active; 'I' for Inactive)
REMARK    1  A    between atoms: C2_2  and  C3_3 
REMARK    2  A    between atoms: C3_3  and  C5_5 
REMARK    3  A    between atoms: C8_11  and  C9_12 
REMARK    4  A    between atoms: C9_12  and  C10_13 
REMARK    5  A    between atoms: C10_13  and  C11_14 
REMARK    6  A    between atoms: C11_14  and  C12_15 
REMARK    7  A    between atoms: C12_15  and  O1_19 
REMARK    8  A    between atoms: C16_23  and  C17_24 
REMARK    9  A    between atoms: C17_24  and  C18_26 
REMARK   10  A    between atoms: C18_26  and  C19_27 
REMARK   11  A    between atoms: C19_27  and  C20_28 
REMARK   12  A    between atoms: C19_27  and  C26_41 
REMARK       I    between atoms: C20_28  and  N3_30 
REMARK   13  A    between atoms: C21_32  and  C22_33 
REMARK   14  A    between atoms: C21_32  and  C25_38 
REMARK   15  A    between atoms: C22_33  and  C23_34 
REMARK   16  A    between atoms: C23_34  and  C24_35 
ROOT
HETATM    1  C5  UNL     1       7.941  25.531   3.363  1.00  0.00     0.280 C 
HETATM    2  N1  UNL     1       8.551  26.596   4.127  1.00  0.00    -0.062 N 
ATOM      3  H11 UNL     1       8.148  27.499   3.877  1.00  0.00     0.278 HD
ATOM      4  H12 UNL     1       9.513  26.752   3.828  1.00  0.00     0.278 HD
HETATM    5  C6  UNL     1       8.486  26.385   5.541  1.00  0.00     0.233 C 
HETATM    6  C7  UNL     1       9.825  26.626   6.195  1.00  0.00     0.032 C 
HETATM    7  C8  UNL     1      10.597  25.319   6.401  1.00  0.00    -0.007 C 
HETATM    8  C14 UNL     1      12.060  25.436   6.164  1.00  0.00     0.016 C 
HETATM    9  C15 UNL     1      12.892  25.279   7.397  1.00  0.00     0.012 C 
HETATM   10  C16 UNL     1      12.615  24.630   5.000  1.00  0.00     0.162 C 
HETATM   11  N5  UNL     1      11.610  23.615   4.614  1.00  0.00    -0.348 N 
ATOM     12  H5  UNL     1      11.271  22.976   5.332  1.00  0.00     0.163 HD
HETATM   13  C29 UNL     1      11.096  23.485   3.311  1.00  0.00     0.236 C 
HETATM   14  O7  UNL     1      10.772  22.364   2.849  1.00  0.00    -0.272 OA
HETATM   15  C30 UNL     1      10.931  24.682   2.456  1.00  0.00     0.225 C 
HETATM   16  N6  UNL     1       9.708  24.692   1.694  1.00  0.00    -0.351 N 
ATOM     17  H6  UNL     1       9.672  24.096   0.868  1.00  0.00     0.163 HD
HETATM   18  C31 UNL     1       8.550  25.454   1.987  1.00  0.00     0.249 C 
HETATM   19  O8  UNL     1       8.030  26.091   1.004  1.00  0.00    -0.271 OA
ENDROOT
BRANCH  10  20
HETATM   20  C17 UNL     1      13.804  23.869   5.306  1.00  0.00     0.169 C 
HETATM   21  O2  UNL     1      14.821  24.328   4.681  1.00  0.00    -0.291 OA
BRANCH  20  22
HETATM   22  C18 UNL     1      14.101  22.756   6.128  1.00  0.00     0.040 C 
BRANCH  22  23
HETATM   23  C19 UNL     1      15.311  22.232   6.683  1.00  0.00     0.107 C 
BRANCH  23  24
HETATM   24  C20 UNL     1      15.243  20.687   6.477  1.00  0.00     0.230 C 
HETATM   25  O3  UNL     1      14.112  20.233   6.183  1.00  0.00    -0.272 OA
HETATM   26  N3  UNL     1      16.339  19.867   6.605  1.00  0.00    -0.326 N 
HETATM   27  C21 UNL     1      17.185  19.472   5.721  1.00  0.00     0.077 C 
ATOM     28  H3  UNL     1      16.507  19.517   7.548  1.00  0.00     0.168 HD
BRANCH  27  29
HETATM   29  C22 UNL     1      17.042  19.909   4.334  1.00  0.00     0.073 C 
BRANCH  29  30
HETATM   30  C23 UNL     1      16.268  19.048   3.409  1.00  0.00     0.119 C 
BRANCH  30  31
HETATM   31  C24 UNL     1      15.182  19.588   2.630  1.00  0.00     0.172 C 
HETATM   32  O4  UNL     1      14.700  20.732   2.947  1.00  0.00    -0.648 OA
HETATM   33  O5  UNL     1      14.584  18.970   1.528  1.00  0.00    -0.648 OA
ENDBRANCH  30  31
ENDBRANCH  29  30
ENDBRANCH  27  29
BRANCH  27  34
HETATM   34  C25 UNL     1      18.210  18.566   6.129  1.00  0.00     0.277 C 
HETATM   35  N4  UNL     1      18.800  17.651   5.242  1.00  0.00    -0.056 NA
HETATM   36  O6  UNL     1      18.620  18.562   7.316  1.00  0.00    -0.270 OA
ENDBRANCH  27  34
ENDBRANCH  23  24
BRANCH  23  37
HETATM   37  C26 UNL     1      15.791  22.355   8.057  1.00  0.00    -0.006 C 
HETATM   38  C27 UNL     1      16.551  23.570   8.472  1.00  0.00     0.011 C 
HETATM   39  C28 UNL     1      14.743  21.973   9.105  1.00  0.00     0.011 C 
ENDBRANCH  23  37
ENDBRANCH  22  23
ENDBRANCH  20  22
ENDBRANCH  10  20
BRANCH   7  40
HETATM   40  C9  UNL     1      10.123  24.562   7.577  1.00  0.00     0.005 C 
BRANCH  40  41
HETATM   41  C10 UNL     1       9.060  25.176   8.436  1.00  0.00     0.008 C 
BRANCH  41  42
HETATM   42  C11 UNL     1       9.801  25.813   9.634  1.00  0.00     0.083 C 
BRANCH  42  43
HETATM   43  C12 UNL     1       9.634  27.281   9.631  1.00  0.00     0.110 C 
HETATM   44  N2  UNL     1      10.606  28.124   9.567  1.00  0.00    -0.384 N 
ATOM     45  H22 UNL     1      11.552  27.745   9.516  1.00  0.00     0.157 HD
ATOM     46  H21 UNL     1      10.491  29.138   9.566  1.00  0.00     0.157 HD
BRANCH  43  47
HETATM   47  O1  UNL     1       8.349  27.796   9.701  1.00  0.00    -0.344 OA
HETATM   48  C13 UNL     1       7.744  28.409   8.558  1.00  0.00     0.211 C 
ENDBRANCH  43  47
ENDBRANCH  42  43
ENDBRANCH  41  42
ENDBRANCH  40  41
ENDBRANCH   7  40
BRANCH   1  49
HETATM   49  C3  UNL     1       6.473  25.725   3.153  1.00  0.00     0.021 C 
HETATM   50  C4  UNL     1       5.739  26.411   4.251  1.00  0.00     0.012 C 
BRANCH  49  51
HETATM   51  C2  UNL     1       5.767  24.472   2.740  1.00  0.00     0.002 C 
HETATM   52  C1  UNL     1       4.262  24.599   2.820  1.00  0.00     0.005 C 
ENDBRANCH  49  51
ENDBRANCH   1  49
TORSDOF 16
ENDMDL
MODEL 3
REMARK VINA RESULT: -9.018708757      2.423     11.004
REMARK  16 active torsions:
REMARK  status: ('A' for Active; 'I' for Inactive)
REMARK    1  A    between atoms: C2_2  and  C3_3 
REMARK    2  A    between atoms: C3_3  and  C5_5 
REMARK    3  A    between atoms: C8_11  and  C9_12 
REMARK    4  A    between atoms: C9_12  and  C10_13 
REMARK    5  A    between atoms: C10_13  and  C11_14 
REMARK    6  A    between atoms: C11_14  and  C12_15 
REMARK    7  A    between atoms: C12_15  and  O1_19 
REMARK    8  A    between atoms: C16_23  and  C17_24 
REMARK    9  A    between atoms: C17_24  and  C18_26 
REMARK   10  A    between atoms: C18_26  and  C19_27 
REMARK   11  A    between atoms: C19_27  and  C20_28 
REMARK   12  A    between atoms: C19_27  and  C26_41 
REMARK       I    between atoms: C20_28  and  N3_30 
REMARK   13  A    between atoms: C21_32  and  C22_33 
REMARK   14  A    between atoms: C21_32  and  C25_38 
REMARK   15  A    between atoms: C22_33  and  C23_34 
REMARK   16  A    between atoms: C23_34  and  C24_35 
ROOT
HETATM    1  C5  UNL     1      17.835  20.198   8.212  1.00  0.00     0.280 C 
HETATM    2  N1  UNL     1      18.208  20.254   6.815  1.00  0.00    -0.062 N 
ATOM      3  H11 UNL     1      19.209  20.093   6.701  1.00  0.00     0.278 HD
ATOM      4  H12 UNL     1      18.150  21.209   6.462  1.00  0.00     0.278 HD
HETATM    5  C6  UNL     1      17.452  19.360   5.993  1.00  0.00     0.233 C 
HETATM    6  C7  UNL     1      16.937  20.055   4.756  1.00  0.00     0.032 C 
HETATM    7  C8  UNL     1      15.492  20.532   4.936  1.00  0.00    -0.007 C 
HETATM    8  C14 UNL     1      15.209  21.853   4.314  1.00  0.00     0.016 C 
HETATM    9  C15 UNL     1      14.279  21.789   3.144  1.00  0.00     0.012 C 
HETATM   10  C16 UNL     1      14.840  22.977   5.271  1.00  0.00     0.162 C 
HETATM   11  N5  UNL     1      14.479  22.379   6.575  1.00  0.00    -0.348 N 
ATOM     12  H5  UNL     1      13.746  21.670   6.594  1.00  0.00     0.163 HD
HETATM   13  C29 UNL     1      15.092  22.736   7.790  1.00  0.00     0.236 C 
HETATM   14  O7  UNL     1      14.449  22.730   8.868  1.00  0.00    -0.272 OA
HETATM   15  C30 UNL     1      16.518  23.129   7.814  1.00  0.00     0.225 C 
HETATM   16  N6  UNL     1      17.253  22.596   8.933  1.00  0.00    -0.351 N 
ATOM     17  H6  UNL     1      17.112  23.048   9.837  1.00  0.00     0.163 HD
HETATM   18  C31 UNL     1      18.153  21.504   8.895  1.00  0.00     0.249 C 
HETATM   19  O8  UNL     1      19.279  21.678   9.482  1.00  0.00    -0.271 OA
ENDROOT
BRANCH  10  20
HETATM   20  C17 UNL     1      13.676  23.740   4.884  1.00  0.00     0.169 C 
HETATM   21  O2  UNL     1      13.977  24.963   4.666  1.00  0.00    -0.291 OA
BRANCH  20  22
HETATM   22  C18 UNL     1      12.305  23.450   4.686  1.00  0.00     0.040 C 
BRANCH  22  23
HETATM   23  C19 UNL     1      11.220  24.167   4.091  1.00  0.00     0.107 C 
BRANCH  23  24
HETATM   24  C20 UNL     1      10.097  24.222   5.172  1.00  0.00     0.230 C 
HETATM   25  O3  UNL     1      10.297  23.519   6.191  1.00  0.00    -0.272 OA
HETATM   26  N3  UNL     1       8.960  24.983   5.032  1.00  0.00    -0.326 N 
HETATM   27  C21 UNL     1       8.723  26.191   5.404  1.00  0.00     0.077 C 
ATOM     28  H3  UNL     1       8.185  24.517   4.561  1.00  0.00     0.168 HD
BRANCH  27  29
HETATM   29  C22 UNL     1       9.760  26.956   6.092  1.00  0.00     0.073 C 
BRANCH  29  30
HETATM   30  C23 UNL     1       9.850  26.839   7.566  1.00  0.00     0.119 C 
BRANCH  30  31
HETATM   31  C24 UNL     1       9.422  27.917   8.422  1.00  0.00     0.172 C 
HETATM   32  O4  UNL     1       8.810  28.916   7.902  1.00  0.00    -0.648 OA
HETATM   33  O5  UNL     1       9.610  27.983   9.805  1.00  0.00    -0.648 OA
ENDBRANCH  30  31
ENDBRANCH  29  30
ENDBRANCH  27  29
BRANCH  27  34
HETATM   34  C25 UNL     1       7.417  26.720   5.174  1.00  0.00     0.277 C 
HETATM   35  N4  UNL     1       6.870  26.832   3.885  1.00  0.00    -0.056 NA
HETATM   36  O6  UNL     1       6.708  27.106   6.135  1.00  0.00    -0.270 OA
ENDBRANCH  27  34
ENDBRANCH  23  24
BRANCH  23  37
HETATM   37  C26 UNL     1      10.483  23.827   2.876  1.00  0.00    -0.006 C 
HETATM   38  C27 UNL     1      11.015  24.240   1.545  1.00  0.00     0.011 C 
HETATM   39  C28 UNL     1       9.990  22.378   2.848  1.00  0.00     0.011 C 
ENDBRANCH  23  37
ENDBRANCH  22  23
ENDBRANCH  20  22
ENDBRANCH  10  20
BRANCH   7  40
HETATM   40  C9  UNL     1      14.511  19.441   4.771  1.00  0.00     0.005 C 
BRANCH  40  41
HETATM   41  C10 UNL     1      14.992  18.129   4.230  1.00  0.00     0.008 C 
BRANCH  41  42
HETATM   42  C11 UNL     1      14.795  18.206   2.699  1.00  0.00     0.083 C 
BRANCH  42  43
HETATM   43  C12 UNL     1      16.097  18.165   2.002  1.00  0.00     0.110 C 
HETATM   44  N2  UNL     1      16.487  19.035   1.135  1.00  0.00    -0.384 N 
ATOM     45  H22 UNL     1      15.848  19.801   0.921  1.00  0.00     0.157 HD
ATOM     46  H21 UNL     1      17.386  19.007   0.654  1.00  0.00     0.157 HD
BRANCH  43  47
HETATM   47  O1  UNL     1      16.966  17.124   2.292  1.00  0.00    -0.344 OA
HETATM   48  C13 UNL     1      18.271  17.385   2.817  1.00  0.00     0.211 C 
ENDBRANCH  43  47
ENDBRANCH  42  43
ENDBRANCH  41  42
ENDBRANCH  40  41
ENDBRANCH   7  40
BRANCH   1  49
HETATM   49  C3  UNL     1      18.572  19.144   8.975  1.00  0.00     0.021 C 
HETATM   50  C4  UNL     1      18.637  17.800   8.339  1.00  0.00     0.012 C 
BRANCH  49  51
HETATM   51  C2  UNL     1      18.137  19.040  10.402  1.00  0.00     0.002 C 
HETATM   52  C1  UNL     1      17.271  17.826  10.659  1.00  0.00     0.005 C 
ENDBRANCH  49  51
ENDBRANCH   1  49
TORSDOF 16
ENDMDL
MODEL 4
REMARK VINA RESULT: -8.766692997      2.522      5.476
REMARK  16 active torsions:
REMARK  status: ('A' for Active; 'I' for Inactive)
REMARK    1  A    between atoms: C2_2  and  C3_3 
REMARK    2  A    between atoms: C3_3  and  C5_5 
REMARK    3  A    between atoms: C8_11  and  C9_12 
REMARK    4  A    between atoms: C9_12  and  C10_13 
REMARK    5  A    between atoms: C10_13  and  C11_14 
REMARK    6  A    between atoms: C11_14  and  C12_15 
REMARK    7  A    between atoms: C12_15  and  O1_19 
REMARK    8  A    between atoms: C16_23  and  C17_24 
REMARK    9  A    between atoms: C17_24  and  C18_26 
REMARK   10  A    between atoms: C18_26  and  C19_27 
REMARK   11  A    between atoms: C19_27  and  C20_28 
REMARK   12  A    between atoms: C19_27  and  C26_41 
REMARK       I    between atoms: C20_28  and  N3_30 
REMARK   13  A    between atoms: C21_32  and  C22_33 
REMARK   14  A    between atoms: C21_32  and  C25_38 
REMARK   15  A    between atoms: C22_33  and  C23_34 
REMARK   16  A    between atoms: C23_34  and  C24_35 
ROOT
HETATM    1  C5  UNL     1      10.197  25.391   6.598  1.00  0.00     0.280 C 
HETATM    2  N1  UNL     1      11.544  25.879   6.789  1.00  0.00    -0.062 N 
ATOM      3  H11 UNL     1      11.542  26.877   7.000  1.00  0.00     0.278 HD
ATOM      4  H12 UNL     1      12.053  25.896   5.905  1.00  0.00     0.278 HD
HETATM    5  C6  UNL     1      12.273  25.150   7.782  1.00  0.00     0.233 C 
HETATM    6  C7  UNL     1      13.648  24.772   7.286  1.00  0.00     0.032 C 
HETATM    7  C8  UNL     1      13.678  23.343   6.736  1.00  0.00    -0.007 C 
HETATM    8  C14 UNL     1      14.530  23.175   5.529  1.00  0.00     0.016 C 
HETATM    9  C15 UNL     1      15.752  22.343   5.757  1.00  0.00     0.012 C 
HETATM   10  C16 UNL     1      13.807  22.784   4.250  1.00  0.00     0.162 C 
HETATM   11  N5  UNL     1      12.460  22.289   4.608  1.00  0.00    -0.348 N 
ATOM     12  H5  UNL     1      12.390  21.524   5.278  1.00  0.00     0.163 HD
HETATM   13  C29 UNL     1      11.270  22.817   4.074  1.00  0.00     0.236 C 
HETATM   14  O7  UNL     1      10.267  22.088   3.877  1.00  0.00    -0.272 OA
HETATM   15  C30 UNL     1      11.184  24.254   3.731  1.00  0.00     0.225 C 
HETATM   16  N6  UNL     1       9.932  24.868   4.094  1.00  0.00    -0.351 N 
ATOM     17  H6  UNL     1       9.131  24.676   3.493  1.00  0.00     0.163 HD
HETATM   18  C31 UNL     1       9.711  25.715   5.208  1.00  0.00     0.249 C 
HETATM   19  O8  UNL     1       9.063  26.795   4.976  1.00  0.00    -0.271 OA
ENDROOT
BRANCH  10  20
HETATM   20  C17 UNL     1      14.415  21.694   3.522  1.00  0.00     0.169 C 
HETATM   21  O2  UNL     1      14.468  21.947   2.270  1.00  0.00    -0.291 OA
BRANCH  20  22
HETATM   22  C18 UNL     1      14.964  20.437   3.870  1.00  0.00     0.040 C 
BRANCH  22  23
HETATM   23  C19 UNL     1      14.683  19.092   3.472  1.00  0.00     0.107 C 
BRANCH  23  24
HETATM   24  C20 UNL     1      15.399  18.178   4.514  1.00  0.00     0.230 C 
HETATM   25  O3  UNL     1      14.985  16.995   4.565  1.00  0.00    -0.272 OA
HETATM   26  N3  UNL     1      16.414  18.623   5.327  1.00  0.00    -0.326 N 
HETATM   27  C21 UNL     1      17.687  18.608   5.143  1.00  0.00     0.077 C 
ATOM     28  H3  UNL     1      16.111  19.028   6.212  1.00  0.00     0.168 HD
BRANCH  27  29
HETATM   29  C22 UNL     1      18.237  18.049   3.911  1.00  0.00     0.073 C 
BRANCH  29  30
HETATM   30  C23 UNL     1      19.245  16.970   4.024  1.00  0.00     0.119 C 
BRANCH  30  31
HETATM   31  C24 UNL     1      18.953  15.755   4.743  1.00  0.00     0.172 C 
HETATM   32  O4  UNL     1      17.962  15.739   5.556  1.00  0.00    -0.648 OA
HETATM   33  O5  UNL     1      19.661  14.555   4.638  1.00  0.00    -0.648 OA
ENDBRANCH  30  31
ENDBRANCH  29  30
ENDBRANCH  27  29
BRANCH  27  34
HETATM   34  C25 UNL     1      18.522  19.096   6.193  1.00  0.00     0.277 C 
HETATM   35  N4  UNL     1      18.642  18.431   7.426  1.00  0.00    -0.056 NA
HETATM   36  O6  UNL     1      19.184  20.151   6.043  1.00  0.00    -0.270 OA
ENDBRANCH  27  34
ENDBRANCH  23  24
BRANCH  23  37
HETATM   37  C26 UNL     1      15.007  18.450   2.200  1.00  0.00    -0.006 C 
HETATM   38  C27 UNL     1      13.932  18.215   1.193  1.00  0.00     0.011 C 
HETATM   39  C28 UNL     1      16.270  19.009   1.541  1.00  0.00     0.011 C 
ENDBRANCH  23  37
ENDBRANCH  22  23
ENDBRANCH  20  22
ENDBRANCH  10  20
BRANCH   7  40
HETATM   40  C9  UNL     1      13.748  22.327   7.806  1.00  0.00     0.005 C 
BRANCH  40  41
HETATM   41  C10 UNL     1      14.826  22.454   8.837  1.00  0.00     0.008 C 
BRANCH  41  42
HETATM   42  C11 UNL     1      14.820  21.123   9.622  1.00  0.00     0.083 C 
BRANCH  42  43
HETATM   43  C12 UNL     1      16.102  20.408   9.449  1.00  0.00     0.110 C 
HETATM   44  N2  UNL     1      17.150  20.915   8.897  1.00  0.00    -0.384 N 
ATOM     45  H22 UNL     1      17.082  21.875   8.559  1.00  0.00     0.157 HD
ATOM     46  H21 UNL     1      18.035  20.422   8.778  1.00  0.00     0.157 HD
BRANCH  43  47
HETATM   47  O1  UNL     1      16.193  19.103   9.908  1.00  0.00    -0.344 OA
HETATM   48  C13 UNL     1      17.392  18.629  10.530  1.00  0.00     0.211 C 
ENDBRANCH  43  47
ENDBRANCH  42  43
ENDBRANCH  41  42
ENDBRANCH  40  41
ENDBRANCH   7  40
BRANCH   1  49
HETATM   49  C3  UNL     1       9.209  26.011   7.533  1.00  0.00     0.021 C 
HETATM   50  C4  UNL     1       9.497  27.408   7.958  1.00  0.00     0.012 C 
BRANCH  49  51
HETATM   51  C2  UNL     1       8.896  25.148   8.715  1.00  0.00     0.002 C 
HETATM   52  C1  UNL     1       9.486  25.685  10.000  1.00  0.00     0.005 C 
ENDBRANCH  49  51
ENDBRANCH   1  49
TORSDOF 16
ENDMDL
MODEL 5
REMARK VINA RESULT: -8.609586118      2.327     10.923
REMARK  16 active torsions:
REMARK  status: ('A' for Active; 'I' for Inactive)
REMARK    1  A    between atoms: C2_2  and  C3_3 
REMARK    2  A    between atoms: C3_3  and  C5_5 
REMARK    3  A    between atoms: C8_11  and  C9_12 
REMARK    4  A    between atoms: C9_12  and  C10_13 
REMARK    5  A    between atoms: C10_13  and  C11_14 
REMARK    6  A    between atoms: C11_14  and  C12_15 
REMARK    7  A    between atoms: C12_15  and  O1_19 
REMARK    8  A    between atoms: C16_23  and  C17_24 
REMARK    9  A    between atoms: C17_24  and  C18_26 
REMARK   10  A    between atoms: C18_26  and  C19_27 
REMARK   11  A    between atoms: C19_27  and  C20_28 
REMARK   12  A    between atoms: C19_27  and  C26_41 
REMARK       I    between atoms: C20_28  and  N3_30 
REMARK   13  A    between atoms: C21_32  and  C22_33 
REMARK   14  A    between atoms: C21_32  and  C25_38 
REMARK   15  A    between atoms: C22_33  and  C23_34 
REMARK   16  A    between atoms: C23_34  and  C24_35 
ROOT
HETATM    1  C5  UNL     1      17.702  19.442   8.405  1.00  0.00     0.280 C 
HETATM    2  N1  UNL     1      18.175  19.627   7.051  1.00  0.00    -0.062 N 
ATOM      3  H11 UNL     1      19.183  19.483   6.996  1.00  0.00     0.278 HD
ATOM      4  H12 UNL     1      18.131  20.610   6.783  1.00  0.00     0.278 HD
HETATM    5  C6  UNL     1      17.491  18.809   6.097  1.00  0.00     0.233 C 
HETATM    6  C7  UNL     1      17.059  19.612   4.894  1.00  0.00     0.032 C 
HETATM    7  C8  UNL     1      15.600  20.064   5.010  1.00  0.00    -0.007 C 
HETATM    8  C14 UNL     1      15.347  21.435   4.492  1.00  0.00     0.016 C 
HETATM    9  C15 UNL     1      14.506  21.474   3.256  1.00  0.00     0.012 C 
HETATM   10  C16 UNL     1      14.897  22.464   5.517  1.00  0.00     0.162 C 
HETATM   11  N5  UNL     1      14.449  21.748   6.731  1.00  0.00    -0.348 N 
ATOM     12  H5  UNL     1      13.725  21.037   6.631  1.00  0.00     0.163 HD
HETATM   13  C29 UNL     1      14.968  21.995   8.016  1.00  0.00     0.236 C 
HETATM   14  O7  UNL     1      14.248  21.887   9.039  1.00  0.00    -0.272 OA
HETATM   15  C30 UNL     1      16.384  22.391   8.181  1.00  0.00     0.225 C 
HETATM   16  N6  UNL     1      17.042  21.761   9.297  1.00  0.00    -0.351 N 
ATOM     17  H6  UNL     1      16.830  22.127  10.225  1.00  0.00     0.163 HD
HETATM   18  C31 UNL     1      17.955  20.681   9.225  1.00  0.00     0.249 C 
HETATM   19  O8  UNL     1      19.032  20.806   9.907  1.00  0.00    -0.271 OA
ENDROOT
BRANCH  10  20
HETATM   20  C17 UNL     1      13.756  23.254   5.117  1.00  0.00     0.169 C 
HETATM   21  O2  UNL     1      14.110  24.429   4.759  1.00  0.00    -0.291 OA
BRANCH  20  22
HETATM   22  C18 UNL     1      12.362  23.030   5.024  1.00  0.00     0.040 C 
BRANCH  22  23
HETATM   23  C19 UNL     1      11.212  23.774   5.438  1.00  0.00     0.107 C 
BRANCH  23  24
HETATM   24  C20 UNL     1      10.838  24.692   4.234  1.00  0.00     0.230 C 
HETATM   25  O3  UNL     1      11.417  24.426   3.154  1.00  0.00    -0.272 OA
HETATM   26  N3  UNL     1       9.937  25.726   4.334  1.00  0.00    -0.326 N 
HETATM   27  C21 UNL     1       8.667  25.740   4.129  1.00  0.00     0.077 C 
ATOM     28  H3  UNL     1      10.338  26.621   4.614  1.00  0.00     0.168 HD
BRANCH  27  29
HETATM   29  C22 UNL     1       7.985  24.514   3.721  1.00  0.00     0.073 C 
BRANCH  29  30
HETATM   30  C23 UNL     1       7.697  24.324   2.280  1.00  0.00     0.119 C 
BRANCH  30  31
HETATM   31  C24 UNL     1       7.121  25.386   1.493  1.00  0.00     0.172 C 
HETATM   32  O4  UNL     1       7.892  26.107   0.767  1.00  0.00    -0.648 OA
HETATM   33  O5  UNL     1       5.765  25.718   1.440  1.00  0.00    -0.648 OA
ENDBRANCH  30  31
ENDBRANCH  29  30
ENDBRANCH  27  29
BRANCH  27  34
HETATM   34  C25 UNL     1       7.981  26.984   4.257  1.00  0.00     0.277 C 
HETATM   35  N4  UNL     1       6.614  27.058   4.574  1.00  0.00    -0.056 NA
HETATM   36  O6  UNL     1       8.590  28.068   4.087  1.00  0.00    -0.270 OA
ENDBRANCH  27  34
ENDBRANCH  23  24
BRANCH  23  37
HETATM   37  C26 UNL     1      11.095  24.675   6.582  1.00  0.00    -0.006 C 
HETATM   38  C27 UNL     1       9.892  24.605   7.462  1.00  0.00     0.011 C 
HETATM   39  C28 UNL     1      12.379  24.780   7.408  1.00  0.00     0.011 C 
ENDBRANCH  23  37
ENDBRANCH  22  23
ENDBRANCH  20  22
ENDBRANCH  10  20
BRANCH   7  40
HETATM   40  C9  UNL     1      14.646  18.988   4.675  1.00  0.00     0.005 C 
BRANCH  40  41
HETATM   41  C10 UNL     1      15.172  17.756   4.005  1.00  0.00     0.008 C 
BRANCH  41  42
HETATM   42  C11 UNL     1      14.965  17.978   2.489  1.00  0.00     0.083 C 
BRANCH  42  43
HETATM   43  C12 UNL     1      16.264  18.083   1.793  1.00  0.00     0.110 C 
HETATM   44  N2  UNL     1      16.630  19.092   1.081  1.00  0.00    -0.384 N 
ATOM     45  H22 UNL     1      15.972  19.867   0.996  1.00  0.00     0.157 HD
ATOM     46  H21 UNL     1      17.527  19.165   0.601  1.00  0.00     0.157 HD
BRANCH  43  47
HETATM   47  O1  UNL     1      17.158  17.029   1.909  1.00  0.00    -0.344 OA
HETATM   48  C13 UNL     1      18.266  17.106   2.810  1.00  0.00     0.211 C 
ENDBRANCH  43  47
ENDBRANCH  42  43
ENDBRANCH  41  42
ENDBRANCH  40  41
ENDBRANCH   7  40
BRANCH   1  49
HETATM   49  C3  UNL     1      18.394  18.326   9.121  1.00  0.00     0.021 C 
HETATM   50  C4  UNL     1      18.819  17.173   8.281  1.00  0.00     0.012 C 
BRANCH  49  51
HETATM   51  C2  UNL     1      17.654  17.859  10.335  1.00  0.00     0.002 C 
HETATM   52  C1  UNL     1      17.496  16.354  10.376  1.00  0.00     0.005 C 
ENDBRANCH  49  51
ENDBRANCH   1  49
TORSDOF 16
ENDMDL
