MODEL 1
REMARK VINA RESULT: -6.054619164      0.000      0.000
REMARK  3 active torsions:
REMARK  status: ('A' for Active; 'I' for Inactive)
REMARK    1  A    between atoms: N1_2  and  C2_5 
REMARK    2  A    between atoms: C2_5  and  C3_6 
REMARK    3  A    between atoms: N3_22  and  C15_23 
ROOT
HETATM    1  C3  UNL     1      15.695  44.109  16.900  1.00  0.00     0.169 C 
HETATM    2  C4  UNL     1      14.214  43.947  16.971  1.00  0.00     0.002 C 
HETATM    3  C5  UNL     1      13.705  42.762  16.685  1.00  0.00     0.195 C 
HETATM    4  F1  UNL     1      14.513  41.700  16.330  1.00  0.00    -0.219 F 
HETATM    5  C6  UNL     1      13.305  45.047  17.345  1.00  0.00     0.124 C 
HETATM    6  C7  UNL     1      13.254  45.185  18.909  1.00  0.00     0.063 C 
HETATM    7  C8  UNL     1      12.089  45.875  19.448  1.00  0.00    -0.024 C 
HETATM    8  C9  UNL     1      10.740  45.378  19.619  1.00  0.00    -0.008 C 
HETATM    9  C10 UNL     1       9.953  44.605  18.674  1.00  0.00    -0.026 C 
HETATM   10  C11 UNL     1       9.643  44.962  17.283  1.00  0.00     0.038 C 
HETATM   11  C12 UNL     1      10.787  44.709  16.242  1.00  0.00     0.085 C 
HETATM   12  C13 UNL     1      11.965  44.906  16.982  1.00  0.00    -0.158 C 
HETATM   13  C14 UNL     1      14.004  46.316  16.917  1.00  0.00     0.261 C 
HETATM   14  O1  UNL     1      13.380  47.159  16.260  1.00  0.00    -0.270 OA
HETATM   15  N2  UNL     1      15.348  46.477  17.291  1.00  0.00    -0.263 N 
ATOM     16  H2  UNL     1      15.748  47.411  17.378  1.00  0.00     0.190 HD
HETATM   17  N3  UNL     1      16.135  45.344  17.545  1.00  0.00    -0.256 N 
ENDROOT
BRANCH   1  18
HETATM   18  C2  UNL     1      16.169  44.175  15.457  1.00  0.00     0.263 C 
BRANCH  18  19
HETATM   19  N1  UNL     1      17.587  44.357  15.381  1.00  0.00    -0.077 N 
HETATM   20  C1  UNL     1      17.845  45.309  14.299  1.00  0.00     0.267 C 
ATOM     21  H12 UNL     1      18.096  43.480  15.272  1.00  0.00     0.276 HD
ATOM     22  H11 UNL     1      18.001  44.640  16.270  1.00  0.00     0.276 HD
ENDBRANCH  18  19
ENDBRANCH   1  18
BRANCH  17  23
HETATM   23  C15 UNL     1      17.284  45.408  18.380  1.00  0.00     0.202 C 
HETATM   24  N4  UNL     1      18.554  45.826  17.903  1.00  0.00    -0.068 NA
HETATM   25  S1  UNL     1      17.125  44.984  19.948  1.00  0.00    -0.043 SA
ENDBRANCH  17  23
TORSDOF 3
ENDMDL
MODEL 2
REMARK VINA RESULT: -5.749968275      1.716      2.071
REMARK  3 active torsions:
REMARK  status: ('A' for Active; 'I' for Inactive)
REMARK    1  A    between atoms: N1_2  and  C2_5 
REMARK    2  A    between atoms: C2_5  and  C3_6 
REMARK    3  A    between atoms: N3_22  and  C15_23 
ROOT
HETATM    1  C3  UNL     1      15.539  43.637  14.940  1.00  0.00     0.169 C 
HETATM    2  C4  UNL     1      14.186  43.549  15.562  1.00  0.00     0.002 C 
HETATM    3  C5  UNL     1      13.554  42.391  15.511  1.00  0.00     0.195 C 
HETATM    4  F1  UNL     1      14.120  41.289  14.903  1.00  0.00    -0.219 F 
HETATM    5  C6  UNL     1      13.534  44.695  16.224  1.00  0.00     0.124 C 
HETATM    6  C7  UNL     1      14.077  44.840  17.691  1.00  0.00     0.063 C 
HETATM    7  C8  UNL     1      13.231  45.588  18.611  1.00  0.00    -0.024 C 
HETATM    8  C9  UNL     1      12.023  45.161  19.283  1.00  0.00    -0.008 C 
HETATM    9  C10 UNL     1      10.904  44.426  18.717  1.00  0.00    -0.026 C 
HETATM   10  C11 UNL     1      10.114  44.794  17.534  1.00  0.00     0.038 C 
HETATM   11  C12 UNL     1      10.773  44.481  16.147  1.00  0.00     0.085 C 
HETATM   12  C13 UNL     1      12.150  44.621  16.390  1.00  0.00    -0.158 C 
HETATM   13  C14 UNL     1      14.079  45.926  15.539  1.00  0.00     0.261 C 
HETATM   14  O1  UNL     1      13.294  46.797  15.145  1.00  0.00    -0.270 OA
HETATM   15  N2  UNL     1      15.471  46.020  15.382  1.00  0.00    -0.263 N 
ATOM     16  H2  UNL     1      15.917  46.933  15.292  1.00  0.00     0.190 HD
HETATM   17  N3  UNL     1      16.244  44.849  15.348  1.00  0.00    -0.256 N 
ENDROOT
BRANCH   1  18
HETATM   18  C2  UNL     1      15.442  43.675  13.423  1.00  0.00     0.263 C 
BRANCH  18  19
HETATM   19  N1  UNL     1      16.504  42.935  12.813  1.00  0.00    -0.077 N 
HETATM   20  C1  UNL     1      15.893  41.830  12.072  1.00  0.00     0.267 C 
ATOM     21  H12 UNL     1      17.210  42.625  13.482  1.00  0.00     0.276 HD
ATOM     22  H11 UNL     1      17.114  43.514  12.236  1.00  0.00     0.276 HD
ENDBRANCH  18  19
ENDBRANCH   1  18
BRANCH  17  23
HETATM   23  C15 UNL     1      17.623  44.859  15.692  1.00  0.00     0.202 C 
HETATM   24  N4  UNL     1      18.655  44.767  14.721  1.00  0.00    -0.068 NA
HETATM   25  S1  UNL     1      18.025  44.980  17.270  1.00  0.00    -0.043 SA
ENDBRANCH  17  23
TORSDOF 3
ENDMDL
MODEL 3
REMARK VINA RESULT: -5.260384896      3.301      5.368
REMARK  3 active torsions:
REMARK  status: ('A' for Active; 'I' for Inactive)
REMARK    1  A    between atoms: N1_2  and  C2_5 
REMARK    2  A    between atoms: C2_5  and  C3_6 
REMARK    3  A    between atoms: N3_22  and  C15_23 
ROOT
HETATM    1  C3  UNL     1      12.852  44.369  16.895  1.00  0.00     0.169 C 
HETATM    2  C4  UNL     1      12.436  43.669  15.646  1.00  0.00     0.002 C 
HETATM    3  C5  UNL     1      11.258  43.970  15.129  1.00  0.00     0.195 C 
HETATM    4  F1  UNL     1      10.431  44.903  15.720  1.00  0.00    -0.219 F 
HETATM    5  C6  UNL     1      13.281  42.664  14.972  1.00  0.00     0.124 C 
HETATM    6  C7  UNL     1      14.354  43.384  14.079  1.00  0.00     0.063 C 
HETATM    7  C8  UNL     1      14.938  42.580  13.015  1.00  0.00    -0.024 C 
HETATM    8  C9  UNL     1      14.366  42.218  11.735  1.00  0.00    -0.008 C 
HETATM    9  C10 UNL     1      13.017  41.750  11.466  1.00  0.00    -0.026 C 
HETATM   10  C11 UNL     1      12.337  40.607  12.091  1.00  0.00     0.038 C 
HETATM   11  C12 UNL     1      11.758  40.858  13.526  1.00  0.00     0.085 C 
HETATM   12  C13 UNL     1      12.640  41.798  14.084  1.00  0.00    -0.158 C 
HETATM   13  C14 UNL     1      14.115  42.036  16.063  1.00  0.00     0.261 C 
HETATM   14  O1  UNL     1      14.187  40.803  16.138  1.00  0.00    -0.270 OA
HETATM   15  N2  UNL     1      14.779  42.898  16.952  1.00  0.00    -0.263 N 
ATOM     16  H2  UNL     1      15.620  42.586  17.439  1.00  0.00     0.190 HD
HETATM   17  N3  UNL     1      14.276  44.190  17.167  1.00  0.00    -0.256 N 
ENDROOT
BRANCH   1  18
HETATM   18  C2  UNL     1      12.104  43.826  18.102  1.00  0.00     0.263 C 
BRANCH  18  19
HETATM   19  N1  UNL     1      11.288  44.833  18.708  1.00  0.00    -0.077 N 
HETATM   20  C1  UNL     1      12.128  45.552  19.669  1.00  0.00     0.267 C 
ATOM     21  H12 UNL     1      10.436  44.459  19.124  1.00  0.00     0.276 HD
ATOM     22  H11 UNL     1      10.844  45.449  18.027  1.00  0.00     0.276 HD
ENDBRANCH  18  19
ENDBRANCH   1  18
BRANCH  17  23
HETATM   23  C15 UNL     1      15.113  45.247  17.618  1.00  0.00     0.202 C 
HETATM   24  N4  UNL     1      15.220  46.484  16.931  1.00  0.00    -0.068 NA
HETATM   25  S1  UNL     1      15.979  45.019  18.983  1.00  0.00    -0.043 SA
ENDBRANCH  17  23
TORSDOF 3
ENDMDL
MODEL 4
REMARK VINA RESULT: -5.253334606      2.886      3.899
REMARK  3 active torsions:
REMARK  status: ('A' for Active; 'I' for Inactive)
REMARK    1  A    between atoms: N1_2  and  C2_5 
REMARK    2  A    between atoms: C2_5  and  C3_6 
REMARK    3  A    between atoms: N3_22  and  C15_23 
ROOT
HETATM    1  C3  UNL     1      16.013  45.115  15.418  1.00  0.00     0.169 C 
HETATM    2  C4  UNL     1      14.752  45.295  16.193  1.00  0.00     0.002 C 
HETATM    3  C5  UNL     1      14.597  46.418  16.872  1.00  0.00     0.195 C 
HETATM    4  F1  UNL     1      15.567  47.399  16.869  1.00  0.00    -0.219 F 
HETATM    5  C6  UNL     1      13.684  44.279  16.231  1.00  0.00     0.124 C 
HETATM    6  C7  UNL     1      12.783  44.407  14.951  1.00  0.00     0.063 C 
HETATM    7  C8  UNL     1      11.451  43.825  15.050  1.00  0.00    -0.024 C 
HETATM    8  C9  UNL     1      10.279  44.351  15.717  1.00  0.00    -0.008 C 
HETATM    9  C10 UNL     1      10.206  44.958  17.036  1.00  0.00    -0.026 C 
HETATM   10  C11 UNL     1      10.664  44.373  18.303  1.00  0.00     0.038 C 
HETATM   11  C12 UNL     1      12.207  44.440  18.569  1.00  0.00     0.085 C 
HETATM   12  C13 UNL     1      12.772  44.364  17.286  1.00  0.00    -0.158 C 
HETATM   13  C14 UNL     1      14.375  42.952  16.026  1.00  0.00     0.261 C 
HETATM   14  O1  UNL     1      14.126  42.014  16.793  1.00  0.00    -0.270 OA
HETATM   15  N2  UNL     1      15.281  42.849  14.958  1.00  0.00    -0.263 N 
ATOM     16  H2  UNL     1      15.479  41.941  14.538  1.00  0.00     0.190 HD
HETATM   17  N3  UNL     1      15.913  44.005  14.473  1.00  0.00    -0.256 N 
ENDROOT
BRANCH   1  18
HETATM   18  C2  UNL     1      17.182  44.804  16.338  1.00  0.00     0.263 C 
BRANCH  18  19
HETATM   19  N1  UNL     1      18.398  45.379  15.850  1.00  0.00    -0.077 N 
HETATM   20  C1  UNL     1      19.483  44.458  16.195  1.00  0.00     0.267 C 
ATOM     21  H12 UNL     1      18.556  46.327  16.191  1.00  0.00     0.276 HD
ATOM     22  H11 UNL     1      18.364  45.600  14.855  1.00  0.00     0.276 HD
ENDBRANCH  18  19
ENDBRANCH   1  18
BRANCH  17  23
HETATM   23  C15 UNL     1      16.416  44.075  13.145  1.00  0.00     0.202 C 
HETATM   24  N4  UNL     1      17.743  44.485  12.852  1.00  0.00    -0.068 NA
HETATM   25  S1  UNL     1      15.421  43.666  11.918  1.00  0.00    -0.043 SA
ENDBRANCH  17  23
TORSDOF 3
ENDMDL
MODEL 5
REMARK VINA RESULT: -5.199880792      2.543      3.836
REMARK  3 active torsions:
REMARK  status: ('A' for Active; 'I' for Inactive)
REMARK    1  A    between atoms: N1_2  and  C2_5 
REMARK    2  A    between atoms: C2_5  and  C3_6 
REMARK    3  A    between atoms: N3_22  and  C15_23 
ROOT
HETATM    1  C3  UNL     1      15.228  46.564  16.274  1.00  0.00     0.169 C 
HETATM    2  C4  UNL     1      14.545  45.582  15.384  1.00  0.00     0.002 C 
HETATM    3  C5  UNL     1      14.635  45.760  14.078  1.00  0.00     0.195 C 
HETATM    4  F1  UNL     1      15.338  46.821  13.545  1.00  0.00    -0.219 F 
HETATM    5  C6  UNL     1      13.781  44.430  15.901  1.00  0.00     0.124 C 
HETATM    6  C7  UNL     1      14.763  43.257  16.257  1.00  0.00     0.063 C 
HETATM    7  C8  UNL     1      14.169  41.929  16.325  1.00  0.00    -0.024 C 
HETATM    8  C9  UNL     1      13.786  41.051  15.240  1.00  0.00    -0.008 C 
HETATM    9  C10 UNL     1      13.073  41.402  14.023  1.00  0.00    -0.026 C 
HETATM   10  C11 UNL     1      11.776  42.085  13.925  1.00  0.00     0.038 C 
HETATM   11  C12 UNL     1      11.805  43.639  14.127  1.00  0.00     0.085 C 
HETATM   12  C13 UNL     1      12.865  43.841  15.028  1.00  0.00    -0.158 C 
HETATM   13  C14 UNL     1      13.263  44.859  17.253  1.00  0.00     0.261 C 
HETATM   14  O1  UNL     1      12.068  44.690  17.526  1.00  0.00    -0.270 OA
HETATM   15  N2  UNL     1      14.179  45.437  18.147  1.00  0.00    -0.263 N 
ATOM     16  H2  UNL     1      14.012  45.395  19.153  1.00  0.00     0.190 HD
HETATM   17  N3  UNL     1      15.324  46.074  17.647  1.00  0.00    -0.256 N 
ENDROOT
BRANCH   1  18
HETATM   18  C2  UNL     1      14.463  47.876  16.329  1.00  0.00     0.263 C 
BRANCH  18  19
HETATM   19  N1  UNL     1      15.310  48.959  16.729  1.00  0.00    -0.077 N 
HETATM   20  C1  UNL     1      16.057  49.387  15.544  1.00  0.00     0.267 C 
ATOM     21  H12 UNL     1      15.914  48.723  17.517  1.00  0.00     0.276 HD
ATOM     22  H11 UNL     1      14.800  49.720  17.176  1.00  0.00     0.276 HD
ENDBRANCH  18  19
ENDBRANCH   1  18
BRANCH  17  23
HETATM   23  C15 UNL     1      16.497  46.225  18.438  1.00  0.00     0.202 C 
HETATM   24  N4  UNL     1      17.242  47.432  18.478  1.00  0.00    -0.068 NA
HETATM   25  S1  UNL     1      16.995  44.953  19.331  1.00  0.00    -0.043 SA
ENDBRANCH  17  23
TORSDOF 3
ENDMDL
