MODEL 1
REMARK VINA RESULT: -5.753782571      0.000      0.000
REMARK  2 active torsions:
REMARK  status: ('A' for Active; 'I' for Inactive)
REMARK       I    between atoms: N1_1  and  C1_5 
REMARK       I    between atoms: C1_5  and  N2_6 
REMARK       I    between atoms: C1_5  and  N3_10 
REMARK    1  A    between atoms: N3_10  and  N4_12 
REMARK    2  A    between atoms: C2_14  and  C3_15 
ROOT
HETATM    1  N1  UNL     1      84.622 -13.255  67.606  1.00  0.00    -0.032 N 
ATOM      2  H11 UNL     1      84.357 -14.171  67.967  1.00  0.00     0.279 HD
ATOM      3  H12 UNL     1      84.557 -12.518  68.309  1.00  0.00     0.279 HD
ATOM      4  H13 UNL     1      85.621 -13.178  67.420  1.00  0.00     0.279 HD
HETATM    5  C1  UNL     1      83.803 -12.989  66.429  1.00  0.00     0.494 C 
HETATM    6  N2  UNL     1      84.177 -11.697  65.920  1.00  0.00    -0.032 N 
ATOM      7  H21 UNL     1      83.605 -11.511  65.097  1.00  0.00     0.279 HD
ATOM      8  H22 UNL     1      85.177 -11.620  65.734  1.00  0.00     0.279 HD
ATOM      9  H23 UNL     1      84.113 -10.961  66.623  1.00  0.00     0.279 HD
HETATM   10  N3  UNL     1      84.088 -14.051  65.466  1.00  0.00    -0.284 N 
ATOM     11  H3  UNL     1      84.466 -13.841  64.543  1.00  0.00     0.184 HD
ENDROOT
BRANCH  10  12
HETATM   12  N4  UNL     1      83.824 -15.355  65.857  1.00  0.00    -0.310 N 
HETATM   13  C2  UNL     1      83.100 -16.182  65.191  1.00  0.00     0.144 C 
ATOM     14  H4  UNL     1      84.232 -15.680  66.733  1.00  0.00     0.185 HD
BRANCH  13  15
HETATM   15  C3  UNL     1      82.477 -15.815  63.932  1.00  0.00     0.091 A 
HETATM   16  C4  UNL     1      82.167 -16.624  62.869  1.00  0.00     0.040 A 
HETATM   17  C5  UNL     1      81.593 -15.814  61.914  1.00  0.00     0.027 A 
HETATM   18  C6  UNL     1      81.575 -14.539  62.434  1.00  0.00     0.142 A 
HETATM   19  O1  UNL     1      82.099 -14.578  63.615  1.00  0.00    -0.321 OA
ENDBRANCH  13  15
ENDBRANCH  10  12
TORSDOF 2
ENDMDL
MODEL 2
REMARK VINA RESULT: -5.372090391      2.165      2.831
REMARK  2 active torsions:
REMARK  status: ('A' for Active; 'I' for Inactive)
REMARK       I    between atoms: N1_1  and  C1_5 
REMARK       I    between atoms: C1_5  and  N2_6 
REMARK       I    between atoms: C1_5  and  N3_10 
REMARK    1  A    between atoms: N3_10  and  N4_12 
REMARK    2  A    between atoms: C2_14  and  C3_15 
ROOT
HETATM    1  N1  UNL     1      87.169 -14.402  66.239  1.00  0.00    -0.032 N 
ATOM      2  H11 UNL     1      86.587 -13.565  66.240  1.00  0.00     0.279 HD
ATOM      3  H12 UNL     1      88.123 -14.222  65.925  1.00  0.00     0.279 HD
ATOM      4  H13 UNL     1      87.395 -14.727  67.179  1.00  0.00     0.279 HD
HETATM    5  C1  UNL     1      86.490 -15.413  65.438  1.00  0.00     0.494 C 
HETATM    6  N2  UNL     1      87.310 -16.594  65.438  1.00  0.00    -0.032 N 
ATOM      7  H21 UNL     1      86.835 -17.301  64.877  1.00  0.00     0.279 HD
ATOM      8  H22 UNL     1      87.536 -16.919  66.377  1.00  0.00     0.279 HD
ATOM      9  H23 UNL     1      88.264 -16.414  65.124  1.00  0.00     0.279 HD
HETATM   10  N3  UNL     1      85.195 -15.656  66.071  1.00  0.00    -0.284 N 
ATOM     11  H3  UNL     1      84.939 -16.581  66.415  1.00  0.00     0.184 HD
ENDROOT
BRANCH  10  12
HETATM   12  N4  UNL     1      84.328 -14.580  66.185  1.00  0.00    -0.310 N 
HETATM   13  C2  UNL     1      83.219 -14.468  65.546  1.00  0.00     0.144 C 
ATOM     14  H4  UNL     1      84.588 -13.827  66.821  1.00  0.00     0.185 HD
BRANCH  13  15
HETATM   15  C3  UNL     1      82.760 -15.488  64.620  1.00  0.00     0.091 A 
HETATM   16  C4  UNL     1      82.389 -15.341  63.308  1.00  0.00     0.040 A 
HETATM   17  C5  UNL     1      82.033 -16.593  62.859  1.00  0.00     0.027 A 
HETATM   18  C6  UNL     1      82.202 -17.457  63.917  1.00  0.00     0.142 A 
HETATM   19  O1  UNL     1      82.629 -16.777  64.929  1.00  0.00    -0.321 OA
ENDBRANCH  13  15
ENDBRANCH  10  12
TORSDOF 2
ENDMDL
MODEL 3
REMARK VINA RESULT: -5.364949176      2.022      2.685
REMARK  2 active torsions:
REMARK  status: ('A' for Active; 'I' for Inactive)
REMARK       I    between atoms: N1_1  and  C1_5 
REMARK       I    between atoms: C1_5  and  N2_6 
REMARK       I    between atoms: C1_5  and  N3_10 
REMARK    1  A    between atoms: N3_10  and  N4_12 
REMARK    2  A    between atoms: C2_14  and  C3_15 
ROOT
HETATM    1  N1  UNL     1      85.727 -15.245  66.977  1.00  0.00    -0.032 N 
ATOM      2  H11 UNL     1      85.056 -14.488  67.105  1.00  0.00     0.279 HD
ATOM      3  H12 UNL     1      86.456 -15.254  67.690  1.00  0.00     0.279 HD
ATOM      4  H13 UNL     1      85.331 -16.163  67.177  1.00  0.00     0.279 HD
HETATM    5  C1  UNL     1      86.259 -15.139  65.623  1.00  0.00     0.494 C 
HETATM    6  N2  UNL     1      87.205 -16.207  65.441  1.00  0.00    -0.032 N 
ATOM      7  H21 UNL     1      87.577 -16.133  64.494  1.00  0.00     0.279 HD
ATOM      8  H22 UNL     1      86.809 -17.125  65.641  1.00  0.00     0.279 HD
ATOM      9  H23 UNL     1      87.934 -16.216  66.155  1.00  0.00     0.279 HD
HETATM   10  N3  UNL     1      85.124 -15.264  64.711  1.00  0.00    -0.284 N 
ATOM     11  H3  UNL     1      85.080 -16.012  64.020  1.00  0.00     0.184 HD
ENDROOT
BRANCH  10  12
HETATM   12  N4  UNL     1      84.109 -14.325  64.822  1.00  0.00    -0.310 N 
HETATM   13  C2  UNL     1      82.886 -14.533  64.487  1.00  0.00     0.144 C 
ATOM     14  H4  UNL     1      84.351 -13.407  65.195  1.00  0.00     0.185 HD
BRANCH  13  15
HETATM   15  C3  UNL     1      82.443 -15.806  63.948  1.00  0.00     0.091 A 
HETATM   16  C4  UNL     1      81.948 -16.074  62.698  1.00  0.00     0.040 A 
HETATM   17  C5  UNL     1      81.669 -17.422  62.668  1.00  0.00     0.027 A 
HETATM   18  C6  UNL     1      82.006 -17.925  63.905  1.00  0.00     0.142 A 
HETATM   19  O1  UNL     1      82.455 -16.952  64.627  1.00  0.00    -0.321 OA
ENDBRANCH  13  15
ENDBRANCH  10  12
TORSDOF 2
ENDMDL
MODEL 4
REMARK VINA RESULT: -5.288701369      3.080      4.583
REMARK  2 active torsions:
REMARK  status: ('A' for Active; 'I' for Inactive)
REMARK       I    between atoms: N1_1  and  C1_5 
REMARK       I    between atoms: C1_5  and  N2_6 
REMARK       I    between atoms: C1_5  and  N3_10 
REMARK    1  A    between atoms: N3_10  and  N4_12 
REMARK    2  A    between atoms: C2_14  and  C3_15 
ROOT
HETATM    1  N1  UNL     1      79.702 -15.519  61.584  1.00  0.00    -0.032 N 
ATOM      2  H11 UNL     1      79.811 -16.474  61.925  1.00  0.00     0.279 HD
ATOM      3  H12 UNL     1      79.252 -15.473  60.670  1.00  0.00     0.279 HD
ATOM      4  H13 UNL     1      79.003 -14.990  62.106  1.00  0.00     0.279 HD
HETATM    5  C1  UNL     1      81.018 -14.890  61.601  1.00  0.00     0.494 C 
HETATM    6  N2  UNL     1      80.864 -13.543  61.122  1.00  0.00    -0.032 N 
ATOM      7  H21 UNL     1      81.784 -13.103  61.133  1.00  0.00     0.279 HD
ATOM      8  H22 UNL     1      80.165 -13.015  61.643  1.00  0.00     0.279 HD
ATOM      9  H23 UNL     1      80.414 -13.497  60.207  1.00  0.00     0.279 HD
HETATM   10  N3  UNL     1      81.484 -14.919  62.986  1.00  0.00    -0.284 N 
ATOM     11  H3  UNL     1      81.700 -14.060  63.490  1.00  0.00     0.184 HD
ENDROOT
BRANCH  10  12
HETATM   12  N4  UNL     1      81.621 -16.161  63.588  1.00  0.00    -0.310 N 
HETATM   13  C2  UNL     1      82.467 -16.430  64.516  1.00  0.00     0.144 C 
ATOM     14  H4  UNL     1      81.007 -16.912  63.272  1.00  0.00     0.185 HD
BRANCH  13  15
HETATM   15  C3  UNL     1      83.382 -15.429  65.035  1.00  0.00     0.091 A 
HETATM   16  C4  UNL     1      84.752 -15.472  65.081  1.00  0.00     0.040 A 
HETATM   17  C5  UNL     1      85.161 -14.291  65.661  1.00  0.00     0.027 A 
HETATM   18  C6  UNL     1      84.022 -13.573  65.945  1.00  0.00     0.142 A 
HETATM   19  O1  UNL     1      83.001 -14.269  65.566  1.00  0.00    -0.321 OA
ENDBRANCH  13  15
ENDBRANCH  10  12
TORSDOF 2
ENDMDL
MODEL 5
REMARK VINA RESULT: -4.930453979      2.459      4.648
REMARK  2 active torsions:
REMARK  status: ('A' for Active; 'I' for Inactive)
REMARK       I    between atoms: N1_1  and  C1_5 
REMARK       I    between atoms: C1_5  and  N2_6 
REMARK       I    between atoms: C1_5  and  N3_10 
REMARK    1  A    between atoms: N3_10  and  N4_12 
REMARK    2  A    between atoms: C2_14  and  C3_15 
ROOT
HETATM    1  N1  UNL     1      82.003 -17.259  63.980  1.00  0.00    -0.032 N 
ATOM      2  H11 UNL     1      82.890 -17.706  64.209  1.00  0.00     0.279 HD
ATOM      3  H12 UNL     1      81.327 -17.907  63.574  1.00  0.00     0.279 HD
ATOM      4  H13 UNL     1      81.464 -17.001  64.806  1.00  0.00     0.279 HD
HETATM    5  C1  UNL     1      82.291 -16.123  63.112  1.00  0.00     0.494 C 
HETATM    6  N2  UNL     1      81.040 -15.493  62.788  1.00  0.00    -0.032 N 
ATOM      7  H21 UNL     1      81.241 -14.698  62.181  1.00  0.00     0.279 HD
ATOM      8  H22 UNL     1      80.501 -15.235  63.615  1.00  0.00     0.279 HD
ATOM      9  H23 UNL     1      80.363 -16.141  62.383  1.00  0.00     0.279 HD
HETATM   10  N3  UNL     1      83.167 -15.227  63.865  1.00  0.00    -0.284 N 
ATOM     11  H3  UNL     1      82.892 -14.267  64.070  1.00  0.00     0.184 HD
ENDROOT
BRANCH  10  12
HETATM   12  N4  UNL     1      84.386 -15.733  64.288  1.00  0.00    -0.310 N 
HETATM   13  C2  UNL     1      85.141 -15.173  65.164  1.00  0.00     0.144 C 
ATOM     14  H4  UNL     1      84.706 -16.609  63.875  1.00  0.00     0.185 HD
BRANCH  13  15
HETATM   15  C3  UNL     1      84.774 -13.926  65.810  1.00  0.00     0.091 A 
HETATM   16  C4  UNL     1      84.625 -13.674  67.149  1.00  0.00     0.040 A 
HETATM   17  C5  UNL     1      84.270 -12.348  67.261  1.00  0.00     0.027 A 
HETATM   18  C6  UNL     1      84.217 -11.842  65.981  1.00  0.00     0.142 A 
HETATM   19  O1  UNL     1      84.517 -12.793  65.160  1.00  0.00    -0.321 OA
ENDBRANCH  13  15
ENDBRANCH  10  12
TORSDOF 2
ENDMDL
