MODEL 1
REMARK VINA RESULT: -7.585133890      0.000      0.000
REMARK  5 active torsions:
REMARK  status: ('A' for Active; 'I' for Inactive)
REMARK    1  A    between atoms: C6_7  and  C7_8 
REMARK    2  A    between atoms: C7_8  and  C8_9 
REMARK    3  A    between atoms: C14_16  and  C15_17 
REMARK    4  A    between atoms: C16_18  and  C17_19 
REMARK    5  A    between atoms: C18_24  and  O1_25 
ROOT
HETATM    1  C8  UNL     1      29.030  11.028  29.821  1.00  0.00     0.065 A 
HETATM    2  C9  UNL     1      28.240   9.958  29.413  1.00  0.00     0.023 A 
HETATM    3  C10 UNL     1      26.875   9.849  29.169  1.00  0.00     0.033 A 
HETATM    4  C11 UNL     1      26.601   8.583  28.811  1.00  0.00     0.092 A 
HETATM    5  N2  UNL     1      27.748   7.839  28.808  1.00  0.00    -0.359 N 
HETATM    6  C12 UNL     1      27.798   6.413  28.597  1.00  0.00     0.156 C 
HETATM    7  C13 UNL     1      28.784   8.614  29.157  1.00  0.00     0.075 A 
HETATM    8  C14 UNL     1      30.129   8.400  29.315  1.00  0.00     0.076 A 
HETATM    9  N5  UNL     1      30.818   9.518  29.723  1.00  0.00    -0.296 N 
ATOM     10  H5  UNL     1      31.822   9.404  29.861  1.00  0.00     0.187 HD
HETATM   11  N6  UNL     1      30.338  10.699  29.953  1.00  0.00    -0.295 N 
HETATM   12  C19 UNL     1      31.306  11.719  30.368  1.00  0.00     0.178 C 
ENDROOT
BRANCH   8  13
HETATM   13  C15 UNL     1      30.899   7.274  28.888  1.00  0.00     0.036 C 
HETATM   14  C16 UNL     1      31.554   6.936  27.846  1.00  0.00     0.038 C 
BRANCH  14  15
HETATM   15  C17 UNL     1      32.254   5.628  27.748  1.00  0.00     0.100 A 
HETATM   16  N3  UNL     1      33.182   5.066  26.947  1.00  0.00    -0.295 N 
HETATM   17  N4  UNL     1      33.179   3.899  27.601  1.00  0.00    -0.278 N 
ATOM     18  H3  UNL     1      33.700   5.407  26.136  1.00  0.00     0.187 HD
HETATM   19  C18 UNL     1      32.249   4.425  28.425  1.00  0.00     0.183 A 
ATOM     20  H4  UNL     1      33.665   3.005  27.515  1.00  0.00     0.189 HD
BRANCH  19  21
HETATM   21  O1  UNL     1      31.563   3.940  29.517  1.00  0.00    -0.343 OA
ATOM     22  H1  UNL     1      31.192   3.096  29.746  1.00  0.00     0.219 HD
ENDBRANCH  19  21
ENDBRANCH  14  15
ENDBRANCH   8  13
BRANCH   1  23
HETATM   23  C7  UNL     1      28.494  12.332  30.143  1.00  0.00     0.061 C 
BRANCH  23  24
HETATM   24  C6  UNL     1      28.449  13.457  29.238  1.00  0.00     0.035 A 
HETATM   25  N1  UNL     1      28.922  14.681  29.382  1.00  0.00    -0.361 N 
HETATM   26  C1  UNL     1      29.627  15.117  30.564  1.00  0.00     0.155 C 
HETATM   27  C2  UNL     1      28.752  15.639  28.416  1.00  0.00     0.090 A 
HETATM   28  C3  UNL     1      28.096  15.433  27.244  1.00  0.00     0.017 A 
HETATM   29  C4  UNL     1      27.578  14.170  27.043  1.00  0.00     0.004 A 
HETATM   30  C5  UNL     1      27.762  13.242  28.017  1.00  0.00     0.029 A 
ENDBRANCH  23  24
ENDBRANCH   1  23
TORSDOF 5
ENDMDL
MODEL 2
REMARK VINA RESULT: -7.557400906      0.811      1.198
REMARK  5 active torsions:
REMARK  status: ('A' for Active; 'I' for Inactive)
REMARK    1  A    between atoms: C6_7  and  C7_8 
REMARK    2  A    between atoms: C7_8  and  C8_9 
REMARK    3  A    between atoms: C14_16  and  C15_17 
REMARK    4  A    between atoms: C16_18  and  C17_19 
REMARK    5  A    between atoms: C18_24  and  O1_25 
ROOT
HETATM    1  C8  UNL     1      28.928  11.026  29.739  1.00  0.00     0.065 A 
HETATM    2  C9  UNL     1      28.155   9.959  29.292  1.00  0.00     0.023 A 
HETATM    3  C10 UNL     1      26.801   9.854  28.987  1.00  0.00     0.033 A 
HETATM    4  C11 UNL     1      26.540   8.590  28.615  1.00  0.00     0.092 A 
HETATM    5  N2  UNL     1      27.684   7.843  28.661  1.00  0.00    -0.359 N 
HETATM    6  C12 UNL     1      27.739   6.418  28.448  1.00  0.00     0.156 C 
HETATM    7  C13 UNL     1      28.706   8.614  29.057  1.00  0.00     0.075 A 
HETATM    8  C14 UNL     1      30.041   8.395  29.275  1.00  0.00     0.076 A 
HETATM    9  N5  UNL     1      30.715   9.510  29.716  1.00  0.00    -0.296 N 
ATOM     10  H5  UNL     1      31.712   9.393  29.898  1.00  0.00     0.187 HD
HETATM   11  N6  UNL     1      30.228  10.692  29.927  1.00  0.00    -0.295 N 
HETATM   12  C19 UNL     1      31.180  11.708  30.388  1.00  0.00     0.178 C 
ENDROOT
BRANCH   8  13
HETATM   13  C15 UNL     1      30.827   7.269  28.880  1.00  0.00     0.036 C 
HETATM   14  C16 UNL     1      31.562   6.949  27.887  1.00  0.00     0.038 C 
BRANCH  14  15
HETATM   15  C17 UNL     1      32.247   5.632  27.808  1.00  0.00     0.100 A 
HETATM   16  N3  UNL     1      33.187   5.056  27.030  1.00  0.00    -0.295 N 
HETATM   17  N4  UNL     1      33.151   3.890  27.686  1.00  0.00    -0.278 N 
ATOM     18  H3  UNL     1      33.729   5.389  26.232  1.00  0.00     0.187 HD
HETATM   19  C18 UNL     1      32.208   4.430  28.486  1.00  0.00     0.183 A 
ATOM     20  H4  UNL     1      33.627   2.990  27.613  1.00  0.00     0.189 HD
BRANCH  19  21
HETATM   21  O1  UNL     1      31.489   3.956  29.561  1.00  0.00    -0.343 OA
ATOM     22  H1  UNL     1      31.663   3.877  30.492  1.00  0.00     0.219 HD
ENDBRANCH  19  21
ENDBRANCH  14  15
ENDBRANCH   8  13
BRANCH   1  23
HETATM   23  C7  UNL     1      28.383  12.330  30.039  1.00  0.00     0.061 C 
BRANCH  23  24
HETATM   24  C6  UNL     1      28.051  13.337  29.059  1.00  0.00     0.035 A 
HETATM   25  N1  UNL     1      26.873  13.808  28.691  1.00  0.00    -0.361 N 
HETATM   26  C1  UNL     1      25.630  13.355  29.268  1.00  0.00     0.155 C 
HETATM   27  C2  UNL     1      26.749  14.752  27.704  1.00  0.00     0.090 A 
HETATM   28  C3  UNL     1      27.797  15.286  27.023  1.00  0.00     0.017 A 
HETATM   29  C4  UNL     1      29.052  14.827  27.366  1.00  0.00     0.004 A 
HETATM   30  C5  UNL     1      29.143  13.891  28.346  1.00  0.00     0.029 A 
ENDBRANCH  23  24
ENDBRANCH   1  23
TORSDOF 5
ENDMDL
MODEL 3
REMARK VINA RESULT: -7.161121330      0.549      1.404
REMARK  5 active torsions:
REMARK  status: ('A' for Active; 'I' for Inactive)
REMARK    1  A    between atoms: C6_7  and  C7_8 
REMARK    2  A    between atoms: C7_8  and  C8_9 
REMARK    3  A    between atoms: C14_16  and  C15_17 
REMARK    4  A    between atoms: C16_18  and  C17_19 
REMARK    5  A    between atoms: C18_24  and  O1_25 
ROOT
HETATM    1  C8  UNL     1      29.328  11.154  30.031  1.00  0.00     0.065 A 
HETATM    2  C9  UNL     1      28.493  10.156  29.537  1.00  0.00     0.023 A 
HETATM    3  C10 UNL     1      27.133  10.140  29.247  1.00  0.00     0.033 A 
HETATM    4  C11 UNL     1      26.801   8.915  28.807  1.00  0.00     0.092 A 
HETATM    5  N2  UNL     1      27.904   8.107  28.794  1.00  0.00    -0.359 N 
HETATM    6  C12 UNL     1      27.880   6.695  28.499  1.00  0.00     0.156 C 
HETATM    7  C13 UNL     1      28.970   8.800  29.218  1.00  0.00     0.075 A 
HETATM    8  C14 UNL     1      30.294   8.500  29.403  1.00  0.00     0.076 A 
HETATM    9  N5  UNL     1      31.031   9.550  29.897  1.00  0.00    -0.296 N 
ATOM     10  H5  UNL     1      32.022   9.371  30.057  1.00  0.00     0.187 HD
HETATM   11  N6  UNL     1      30.610  10.742  30.181  1.00  0.00    -0.295 N 
HETATM   12  C19 UNL     1      31.620  11.679  30.685  1.00  0.00     0.178 C 
ENDROOT
BRANCH   8  13
HETATM   13  C15 UNL     1      31.014   7.358  28.933  1.00  0.00     0.036 C 
HETATM   14  C16 UNL     1      31.572   6.993  27.845  1.00  0.00     0.038 C 
BRANCH  14  15
HETATM   15  C17 UNL     1      32.249   5.676  27.712  1.00  0.00     0.100 A 
HETATM   16  N3  UNL     1      33.122   5.099  26.860  1.00  0.00    -0.295 N 
HETATM   17  N4  UNL     1      33.142   3.934  27.519  1.00  0.00    -0.278 N 
ATOM     18  H3  UNL     1      33.595   5.430  26.019  1.00  0.00     0.187 HD
HETATM   19  C18 UNL     1      32.268   4.476  28.394  1.00  0.00     0.183 A 
ATOM     20  H4  UNL     1      33.611   3.034  27.409  1.00  0.00     0.189 HD
BRANCH  19  21
HETATM   21  O1  UNL     1      31.642   4.003  29.527  1.00  0.00    -0.343 OA
ATOM     22  H1  UNL     1      31.596   3.156  29.955  1.00  0.00     0.219 HD
ENDBRANCH  19  21
ENDBRANCH  14  15
ENDBRANCH   8  13
BRANCH   1  23
HETATM   23  C7  UNL     1      28.856  12.465  30.413  1.00  0.00     0.061 C 
BRANCH  23  24
HETATM   24  C6  UNL     1      29.026  13.668  29.633  1.00  0.00     0.035 A 
HETATM   25  N1  UNL     1      28.436  14.043  28.512  1.00  0.00    -0.361 N 
HETATM   26  C1  UNL     1      27.440  13.242  27.842  1.00  0.00     0.155 C 
HETATM   27  C2  UNL     1      28.755  15.222  27.888  1.00  0.00     0.090 A 
HETATM   28  C3  UNL     1      29.684  16.101  28.347  1.00  0.00     0.017 A 
HETATM   29  C4  UNL     1      30.332  15.757  29.514  1.00  0.00     0.004 A 
HETATM   30  C5  UNL     1      29.997  14.584  30.109  1.00  0.00     0.029 A 
ENDBRANCH  23  24
ENDBRANCH   1  23
TORSDOF 5
ENDMDL
MODEL 4
REMARK VINA RESULT: -7.107262309      6.719      8.275
REMARK  5 active torsions:
REMARK  status: ('A' for Active; 'I' for Inactive)
REMARK    1  A    between atoms: C6_7  and  C7_8 
REMARK    2  A    between atoms: C7_8  and  C8_9 
REMARK    3  A    between atoms: C14_16  and  C15_17 
REMARK    4  A    between atoms: C16_18  and  C17_19 
REMARK    5  A    between atoms: C18_24  and  O1_25 
ROOT
HETATM    1  C8  UNL     1      21.544  13.257  29.414  1.00  0.00     0.065 A 
HETATM    2  C9  UNL     1      21.531  12.293  28.411  1.00  0.00     0.023 A 
HETATM    3  C10 UNL     1      20.755  12.152  27.265  1.00  0.00     0.033 A 
HETATM    4  C11 UNL     1      21.124  11.028  26.630  1.00  0.00     0.092 A 
HETATM    5  N2  UNL     1      22.129  10.409  27.320  1.00  0.00    -0.359 N 
HETATM    6  C12 UNL     1      22.672   9.115  26.988  1.00  0.00     0.156 C 
HETATM    7  C13 UNL     1      22.432  11.129  28.409  1.00  0.00     0.075 A 
HETATM    8  C14 UNL     1      23.334  10.984  29.431  1.00  0.00     0.076 A 
HETATM    9  N5  UNL     1      23.264  11.985  30.371  1.00  0.00    -0.296 N 
ATOM     10  H5  UNL     1      23.913  11.915  31.154  1.00  0.00     0.187 HD
HETATM   11  N6  UNL     1      22.468  13.007  30.374  1.00  0.00    -0.295 N 
HETATM   12  C19 UNL     1      22.615  13.936  31.500  1.00  0.00     0.178 C 
ENDROOT
BRANCH   8  13
HETATM   13  C15 UNL     1      24.450  10.095  29.503  1.00  0.00     0.036 C 
HETATM   14  C16 UNL     1      25.599   9.998  28.956  1.00  0.00     0.038 C 
BRANCH  14  15
HETATM   15  C17 UNL     1      26.534   8.888  29.282  1.00  0.00     0.100 A 
HETATM   16  N3  UNL     1      27.492   8.645  30.200  1.00  0.00    -0.295 N 
HETATM   17  N4  UNL     1      27.783   7.432  29.715  1.00  0.00    -0.278 N 
ATOM     18  H3  UNL     1      27.860   9.188  30.981  1.00  0.00     0.187 HD
HETATM   19  C18 UNL     1      26.833   7.638  28.779  1.00  0.00     0.183 A 
ATOM     20  H4  UNL     1      28.436   6.683  29.949  1.00  0.00     0.189 HD
BRANCH  19  21
HETATM   21  O1  UNL     1      26.353   6.883  27.731  1.00  0.00    -0.343 OA
ATOM     22  H1  UNL     1      26.229   5.952  27.585  1.00  0.00     0.219 HD
ENDBRANCH  19  21
ENDBRANCH  14  15
ENDBRANCH   8  13
BRANCH   1  23
HETATM   23  C7  UNL     1      20.617  14.365  29.461  1.00  0.00     0.061 C 
BRANCH  23  24
HETATM   24  C6  UNL     1      19.214  14.288  29.125  1.00  0.00     0.035 A 
HETATM   25  N1  UNL     1      18.533  14.911  28.179  1.00  0.00    -0.361 N 
HETATM   26  C1  UNL     1      19.141  15.835  27.252  1.00  0.00     0.155 C 
HETATM   27  C2  UNL     1      17.181  14.736  28.030  1.00  0.00     0.090 A 
HETATM   28  C3  UNL     1      16.424  13.929  28.819  1.00  0.00     0.017 A 
HETATM   29  C4  UNL     1      17.086  13.256  29.825  1.00  0.00     0.004 A 
HETATM   30  C5  UNL     1      18.425  13.449  29.949  1.00  0.00     0.029 A 
ENDBRANCH  23  24
ENDBRANCH   1  23
TORSDOF 5
ENDMDL
MODEL 5
REMARK VINA RESULT: -6.981379228      2.324      3.445
REMARK  5 active torsions:
REMARK  status: ('A' for Active; 'I' for Inactive)
REMARK    1  A    between atoms: C6_7  and  C7_8 
REMARK    2  A    between atoms: C7_8  and  C8_9 
REMARK    3  A    between atoms: C14_16  and  C15_17 
REMARK    4  A    between atoms: C16_18  and  C17_19 
REMARK    5  A    between atoms: C18_24  and  O1_25 
ROOT
HETATM    1  C8  UNL     1      29.900  12.864  30.720  1.00  0.00     0.065 A 
HETATM    2  C9  UNL     1      28.848  12.333  29.981  1.00  0.00     0.023 A 
HETATM    3  C10 UNL     1      27.724  12.918  29.407  1.00  0.00     0.033 A 
HETATM    4  C11 UNL     1      26.996  11.960  28.810  1.00  0.00     0.092 A 
HETATM    5  N2  UNL     1      27.603  10.745  28.967  1.00  0.00    -0.359 N 
HETATM    6  C12 UNL     1      27.028   9.485  28.563  1.00  0.00     0.156 C 
HETATM    7  C13 UNL     1      28.738  10.899  29.663  1.00  0.00     0.075 A 
HETATM    8  C14 UNL     1      29.715  10.044  30.101  1.00  0.00     0.076 A 
HETATM    9  N5  UNL     1      30.706  10.666  30.823  1.00  0.00    -0.296 N 
ATOM     10  H5  UNL     1      31.452  10.067  31.175  1.00  0.00     0.187 HD
HETATM   11  N6  UNL     1      30.800  11.927  31.106  1.00  0.00    -0.295 N 
HETATM   12  C19 UNL     1      31.975  12.327  31.886  1.00  0.00     0.178 C 
ENDROOT
BRANCH   8  13
HETATM   13  C15 UNL     1      29.945   8.690  29.705  1.00  0.00     0.036 C 
HETATM   14  C16 UNL     1      30.691   8.079  28.870  1.00  0.00     0.038 C 
BRANCH  14  15
HETATM   15  C17 UNL     1      30.655   6.600  28.718  1.00  0.00     0.100 A 
HETATM   16  N3  UNL     1      29.982   5.569  29.271  1.00  0.00    -0.295 N 
HETATM   17  N4  UNL     1      30.607   4.642  28.535  1.00  0.00    -0.278 N 
ATOM     18  H3  UNL     1      29.259   5.516  29.988  1.00  0.00     0.187 HD
HETATM   19  C18 UNL     1      31.301   5.645  27.958  1.00  0.00     0.183 A 
ATOM     20  H4  UNL     1      30.573   3.626  28.448  1.00  0.00     0.189 HD
BRANCH  19  21
HETATM   21  O1  UNL     1      32.277   5.689  26.986  1.00  0.00    -0.343 OA
ATOM     22  H1  UNL     1      32.564   6.347  26.363  1.00  0.00     0.219 HD
ENDBRANCH  19  21
ENDBRANCH  14  15
ENDBRANCH   8  13
BRANCH   1  23
HETATM   23  C7  UNL     1      29.980  14.257  31.096  1.00  0.00     0.061 C 
BRANCH  23  24
HETATM   24  C6  UNL     1      29.311  14.850  32.230  1.00  0.00     0.035 A 
HETATM   25  N1  UNL     1      29.793  15.215  33.405  1.00  0.00    -0.361 N 
HETATM   26  C1  UNL     1      31.184  15.074  33.762  1.00  0.00     0.155 C 
HETATM   27  C2  UNL     1      28.987  15.737  34.385  1.00  0.00     0.090 A 
HETATM   28  C3  UNL     1      27.648  15.925  34.252  1.00  0.00     0.017 A 
HETATM   29  C4  UNL     1      27.092  15.558  33.044  1.00  0.00     0.004 A 
HETATM   30  C5  UNL     1      27.914  15.044  32.093  1.00  0.00     0.029 A 
ENDBRANCH  23  24
ENDBRANCH   1  23
TORSDOF 5
ENDMDL
