MODEL 1
REMARK VINA RESULT: -7.597442710      0.000      0.000
REMARK  10 active torsions:
REMARK  status: ('A' for Active; 'I' for Inactive)
REMARK    1  A    between atoms: N1_1  and  C1_4 
REMARK    2  A    between atoms: C2_7  and  N3_8 
REMARK    3  A    between atoms: N4_15  and  C7_16 
REMARK    4  A    between atoms: C7_16  and  C8_17 
REMARK    5  A    between atoms: C8_17  and  C9_18 
REMARK    6  A    between atoms: C10_19  and  C11_20 
REMARK    7  A    between atoms: C11_20  and  C12_21 
REMARK    8  A    between atoms: C13_22  and  C14_23 
REMARK    9  A    between atoms: C14_23  and  C15_24 
REMARK   10  A    between atoms: C15_24  and  N5_25 
ROOT
HETATM    1  C1  UNL     1      19.708  11.366  25.313  1.00  0.00     0.679 A 
HETATM    2  N2  UNL     1      18.747  12.013  25.982  1.00  0.00    -0.176 N 
ATOM      3  H2  UNL     1      17.957  12.403  25.470  1.00  0.00     0.186 HD
HETATM    4  C2  UNL     1      18.806  12.161  27.339  1.00  0.00     0.128 A 
HETATM    5  C3  UNL     1      19.900  11.614  27.980  1.00  0.00     0.053 A 
HETATM    6  C4  UNL     1      19.979  11.762  29.358  1.00  0.00     0.020 A 
HETATM    7  C5  UNL     1      21.065  11.228  30.015  1.00  0.00     0.018 A 
HETATM    8  C6  UNL     1      22.003  10.580  29.253  1.00  0.00     0.092 A 
HETATM    9  N4  UNL     1      21.928  10.435  27.912  1.00  0.00    -0.341 N 
HETATM   10  C19 UNL     1      20.887  10.945  27.262  1.00  0.00     0.137 A 
HETATM   11  N7  UNL     1      20.766  10.834  25.911  1.00  0.00    -0.176 N 
ATOM     12  H7  UNL     1      21.479  10.349  25.366  1.00  0.00     0.186 HD
ENDROOT
BRANCH   9  13
HETATM   13  C7  UNL     1      22.963   9.716  27.213  1.00  0.00     0.142 C 
BRANCH  13  14
HETATM   14  C8  UNL     1      24.122  10.595  26.791  1.00  0.00     0.114 C 
BRANCH  14  15
HETATM   15  C9  UNL     1      25.273  10.206  27.607  1.00  0.00    -0.104 C 
HETATM   16  C10 UNL     1      26.223   9.893  28.303  1.00  0.00    -0.095 C 
BRANCH  16  17
HETATM   17  C11 UNL     1      27.353   9.528  29.159  1.00  0.00     0.187 C 
BRANCH  17  18
HETATM   18  C12 UNL     1      27.834   8.181  28.877  1.00  0.00    -0.095 C 
HETATM   19  C13 UNL     1      28.250   7.076  28.652  1.00  0.00    -0.104 C 
BRANCH  19  20
HETATM   20  C14 UNL     1      28.775   5.742  28.393  1.00  0.00     0.114 C 
BRANCH  20  21
HETATM   21  C15 UNL     1      29.988   5.449  29.279  1.00  0.00     0.141 C 
BRANCH  21  22
HETATM   22  N5  UNL     1      31.184   5.336  28.497  1.00  0.00    -0.351 N 
HETATM   23  C16 UNL     1      32.237   4.505  28.737  1.00  0.00     0.108 A 
HETATM   24  C17 UNL     1      33.189   4.693  27.762  1.00  0.00     0.106 A 
HETATM   25  N6  UNL     1      32.709   5.632  26.945  1.00  0.00    -0.361 N 
HETATM   26  C18 UNL     1      31.510   6.018  27.380  1.00  0.00     0.182 A 
ATOM     27  H6  UNL     1      33.183   5.995  26.118  1.00  0.00     0.166 HD
ENDBRANCH  21  22
ENDBRANCH  20  21
ENDBRANCH  19  20
ENDBRANCH  17  18
ENDBRANCH  16  17
ENDBRANCH  14  15
ENDBRANCH  13  14
ENDBRANCH   9  13
BRANCH   4  28
HETATM   28  N3  UNL     1      17.864  12.785  27.912  1.00  0.00    -0.384 N 
ATOM     29  H32 UNL     1      17.505  13.696  27.625  1.00  0.00     0.157 HD
ATOM     30  H31 UNL     1      17.424  12.349  28.723  1.00  0.00     0.157 HD
ENDBRANCH   4  28
BRANCH   1  31
HETATM   31  N1  UNL     1      19.609  11.249  24.020  1.00  0.00    -0.234 N 
ATOM     32  H12 UNL     1      20.076  11.944  23.438  1.00  0.00     0.174 HD
ATOM     33  H11 UNL     1      19.073  10.474  23.632  1.00  0.00     0.174 HD
ENDBRANCH   1  31
TORSDOF 10
ENDMDL
MODEL 2
REMARK VINA RESULT: -7.559292800      1.377      2.354
REMARK  10 active torsions:
REMARK  status: ('A' for Active; 'I' for Inactive)
REMARK    1  A    between atoms: N1_1  and  C1_4 
REMARK    2  A    between atoms: C2_7  and  N3_8 
REMARK    3  A    between atoms: N4_15  and  C7_16 
REMARK    4  A    between atoms: C7_16  and  C8_17 
REMARK    5  A    between atoms: C8_17  and  C9_18 
REMARK    6  A    between atoms: C10_19  and  C11_20 
REMARK    7  A    between atoms: C11_20  and  C12_21 
REMARK    8  A    between atoms: C13_22  and  C14_23 
REMARK    9  A    between atoms: C14_23  and  C15_24 
REMARK   10  A    between atoms: C15_24  and  N5_25 
ROOT
HETATM    1  C1  UNL     1      19.581  11.127  26.102  1.00  0.00     0.679 A 
HETATM    2  N2  UNL     1      18.675  12.057  25.782  1.00  0.00    -0.176 N 
ATOM      3  H2  UNL     1      18.301  12.087  24.833  1.00  0.00     0.186 HD
HETATM    4  C2  UNL     1      18.239  12.967  26.703  1.00  0.00     0.128 A 
HETATM    5  C3  UNL     1      18.779  12.880  27.971  1.00  0.00     0.053 A 
HETATM    6  C4  UNL     1      18.353  13.802  28.917  1.00  0.00     0.020 A 
HETATM    7  C5  UNL     1      18.884  13.736  30.186  1.00  0.00     0.018 A 
HETATM    8  C6  UNL     1      19.807  12.752  30.428  1.00  0.00     0.092 A 
HETATM    9  N4  UNL     1      20.223  11.853  29.509  1.00  0.00    -0.341 N 
HETATM   10  C19 UNL     1      19.722  11.903  28.280  1.00  0.00     0.137 A 
HETATM   11  N7  UNL     1      20.112  11.028  27.314  1.00  0.00    -0.176 N 
ATOM     12  H7  UNL     1      20.802  10.305  27.519  1.00  0.00     0.186 HD
ENDROOT
BRANCH   9  13
HETATM   13  C7  UNL     1      21.185  10.846  29.879  1.00  0.00     0.142 C 
BRANCH  13  14
HETATM   14  C8  UNL     1      22.431  11.417  30.524  1.00  0.00     0.114 C 
BRANCH  14  15
HETATM   15  C9  UNL     1      23.544  11.153  29.612  1.00  0.00    -0.104 C 
HETATM   16  C10 UNL     1      24.457  10.927  28.836  1.00  0.00    -0.095 C 
BRANCH  16  17
HETATM   17  C11 UNL     1      25.537  10.648  27.887  1.00  0.00     0.187 C 
BRANCH  17  18
HETATM   18  C12 UNL     1      26.309   9.474  28.275  1.00  0.00    -0.095 C 
HETATM   19  C13 UNL     1      26.963   8.518  28.596  1.00  0.00    -0.104 C 
BRANCH  19  20
HETATM   20  C14 UNL     1      27.775   7.375  28.992  1.00  0.00     0.114 C 
BRANCH  20  21
HETATM   21  C15 UNL     1      29.232   7.788  29.213  1.00  0.00     0.141 C 
BRANCH  21  22
HETATM   22  N5  UNL     1      30.128   6.715  28.898  1.00  0.00    -0.351 N 
HETATM   23  C16 UNL     1      31.327   6.818  28.260  1.00  0.00     0.108 A 
HETATM   24  C17 UNL     1      31.885   5.566  28.146  1.00  0.00     0.106 A 
HETATM   25  N6  UNL     1      31.024   4.718  28.712  1.00  0.00    -0.361 N 
HETATM   26  C18 UNL     1      29.972   5.402  29.163  1.00  0.00     0.182 A 
ATOM     27  H6  UNL     1      31.149   3.709  28.787  1.00  0.00     0.166 HD
ENDBRANCH  21  22
ENDBRANCH  20  21
ENDBRANCH  19  20
ENDBRANCH  17  18
ENDBRANCH  16  17
ENDBRANCH  14  15
ENDBRANCH  13  14
ENDBRANCH   9  13
BRANCH   4  28
HETATM   28  N3  UNL     1      17.379  13.822  26.336  1.00  0.00    -0.384 N 
ATOM     29  H32 UNL     1      17.593  14.720  25.901  1.00  0.00     0.157 HD
ATOM     30  H31 UNL     1      16.393  13.603  26.482  1.00  0.00     0.157 HD
ENDBRANCH   4  28
BRANCH   1  31
HETATM   31  N1  UNL     1      19.966  10.280  25.191  1.00  0.00    -0.234 N 
ATOM     32  H12 UNL     1      20.895  10.398  24.787  1.00  0.00     0.174 HD
ATOM     33  H11 UNL     1      19.332   9.532  24.911  1.00  0.00     0.174 HD
ENDBRANCH   1  31
TORSDOF 10
ENDMDL
MODEL 3
REMARK VINA RESULT: -7.498256871      1.414      2.651
REMARK  10 active torsions:
REMARK  status: ('A' for Active; 'I' for Inactive)
REMARK    1  A    between atoms: N1_1  and  C1_4 
REMARK    2  A    between atoms: C2_7  and  N3_8 
REMARK    3  A    between atoms: N4_15  and  C7_16 
REMARK    4  A    between atoms: C7_16  and  C8_17 
REMARK    5  A    between atoms: C8_17  and  C9_18 
REMARK    6  A    between atoms: C10_19  and  C11_20 
REMARK    7  A    between atoms: C11_20  and  C12_21 
REMARK    8  A    between atoms: C13_22  and  C14_23 
REMARK    9  A    between atoms: C14_23  and  C15_24 
REMARK   10  A    between atoms: C15_24  and  N5_25 
ROOT
HETATM    1  C1  UNL     1      19.972  12.890  30.669  1.00  0.00     0.679 A 
HETATM    2  N2  UNL     1      18.727  13.164  30.266  1.00  0.00    -0.176 N 
ATOM      3  H2  UNL     1      18.081  13.622  30.908  1.00  0.00     0.186 HD
HETATM    4  C2  UNL     1      18.303  12.841  29.007  1.00  0.00     0.128 A 
HETATM    5  C3  UNL     1      19.219  12.221  28.180  1.00  0.00     0.053 A 
HETATM    6  C4  UNL     1      18.804  11.880  26.900  1.00  0.00     0.020 A 
HETATM    7  C5  UNL     1      19.701  11.256  26.062  1.00  0.00     0.018 A 
HETATM    8  C6  UNL     1      20.957  11.014  26.556  1.00  0.00     0.092 A 
HETATM    9  N4  UNL     1      21.363  11.345  27.801  1.00  0.00    -0.341 N 
HETATM   10  C19 UNL     1      20.510  11.947  28.623  1.00  0.00     0.137 A 
HETATM   11  N7  UNL     1      20.866  12.296  29.889  1.00  0.00    -0.176 N 
ATOM     12  H7  UNL     1      21.806  12.103  30.234  1.00  0.00     0.186 HD
ENDROOT
BRANCH   9  13
HETATM   13  C7  UNL     1      22.715  11.061  28.209  1.00  0.00     0.142 C 
BRANCH  13  14
HETATM   14  C8  UNL     1      23.455  10.156  27.246  1.00  0.00     0.114 C 
BRANCH  14  15
HETATM   15  C9  UNL     1      24.813   9.997  27.766  1.00  0.00    -0.104 C 
HETATM   16  C10 UNL     1      25.937   9.861  28.218  1.00  0.00    -0.095 C 
BRANCH  16  17
HETATM   17  C11 UNL     1      27.276   9.692  28.785  1.00  0.00     0.187 C 
BRANCH  17  18
HETATM   18  C12 UNL     1      27.762   8.326  28.629  1.00  0.00    -0.095 C 
HETATM   19  C13 UNL     1      28.179   7.205  28.513  1.00  0.00    -0.104 C 
BRANCH  19  20
HETATM   20  C14 UNL     1      28.702   5.851  28.390  1.00  0.00     0.114 C 
BRANCH  20  21
HETATM   21  C15 UNL     1      29.919   5.649  29.296  1.00  0.00     0.141 C 
BRANCH  21  22
HETATM   22  N5  UNL     1      31.114   5.465  28.526  1.00  0.00    -0.351 N 
HETATM   23  C16 UNL     1      32.127   4.594  28.793  1.00  0.00     0.108 A 
HETATM   24  C17 UNL     1      33.092   4.717  27.820  1.00  0.00     0.106 A 
HETATM   25  N6  UNL     1      32.659   5.657  26.977  1.00  0.00    -0.361 N 
HETATM   26  C18 UNL     1      31.476   6.106  27.396  1.00  0.00     0.182 A 
ATOM     27  H6  UNL     1      33.154   5.979  26.146  1.00  0.00     0.166 HD
ENDBRANCH  21  22
ENDBRANCH  20  21
ENDBRANCH  19  20
ENDBRANCH  17  18
ENDBRANCH  16  17
ENDBRANCH  14  15
ENDBRANCH  13  14
ENDBRANCH   9  13
BRANCH   4  28
HETATM   28  N3  UNL     1      17.112  13.127  28.687  1.00  0.00    -0.384 N 
ATOM     29  H32 UNL     1      16.502  13.760  29.206  1.00  0.00     0.157 HD
ATOM     30  H31 UNL     1      16.724  12.698  27.847  1.00  0.00     0.157 HD
ENDBRANCH   4  28
BRANCH   1  31
HETATM   31  N1  UNL     1      20.331  13.217  31.878  1.00  0.00    -0.234 N 
ATOM     32  H12 UNL     1      19.826  13.971  32.342  1.00  0.00     0.174 HD
ATOM     33  H11 UNL     1      21.100  12.713  32.318  1.00  0.00     0.174 HD
ENDBRANCH   1  31
TORSDOF 10
ENDMDL
MODEL 4
REMARK VINA RESULT: -7.308956927      6.084     10.166
REMARK  10 active torsions:
REMARK  status: ('A' for Active; 'I' for Inactive)
REMARK    1  A    between atoms: N1_1  and  C1_4 
REMARK    2  A    between atoms: C2_7  and  N3_8 
REMARK    3  A    between atoms: N4_15  and  C7_16 
REMARK    4  A    between atoms: C7_16  and  C8_17 
REMARK    5  A    between atoms: C8_17  and  C9_18 
REMARK    6  A    between atoms: C10_19  and  C11_20 
REMARK    7  A    between atoms: C11_20  and  C12_21 
REMARK    8  A    between atoms: C13_22  and  C14_23 
REMARK    9  A    between atoms: C14_23  and  C15_24 
REMARK   10  A    between atoms: C15_24  and  N5_25 
ROOT
HETATM    1  C1  UNL     1      31.165   3.594  29.920  1.00  0.00     0.679 A 
HETATM    2  N2  UNL     1      32.344   3.609  29.290  1.00  0.00    -0.176 N 
ATOM      3  H2  UNL     1      33.024   2.874  29.482  1.00  0.00     0.186 HD
HETATM    4  C2  UNL     1      32.654   4.592  28.392  1.00  0.00     0.128 A 
HETATM    5  C3  UNL     1      31.696   5.562  28.173  1.00  0.00     0.053 A 
HETATM    6  C4  UNL     1      31.998   6.572  27.270  1.00  0.00     0.020 A 
HETATM    7  C5  UNL     1      31.058   7.552  27.041  1.00  0.00     0.018 A 
HETATM    8  C6  UNL     1      29.876   7.460  27.729  1.00  0.00     0.092 A 
HETATM    9  N4  UNL     1      29.580   6.478  28.608  1.00  0.00    -0.341 N 
HETATM   10  C19 UNL     1      30.476   5.524  28.842  1.00  0.00     0.137 A 
HETATM   11  N7  UNL     1      30.232   4.517  29.723  1.00  0.00    -0.176 N 
ATOM     12  H7  UNL     1      29.345   4.471  30.225  1.00  0.00     0.186 HD
ENDROOT
BRANCH   9  13
HETATM   13  C7  UNL     1      28.296   6.468  29.262  1.00  0.00     0.142 C 
BRANCH  13  14
HETATM   14  C8  UNL     1      27.139   6.700  28.313  1.00  0.00     0.114 C 
BRANCH  14  15
HETATM   15  C9  UNL     1      26.803   8.122  28.387  1.00  0.00    -0.104 C 
HETATM   16  C10 UNL     1      26.539   9.311  28.434  1.00  0.00    -0.095 C 
BRANCH  16  17
HETATM   17  C11 UNL     1      26.239  10.744  28.472  1.00  0.00     0.187 C 
BRANCH  17  18
HETATM   18  C12 UNL     1      27.393  11.528  28.895  1.00  0.00    -0.095 C 
HETATM   19  C13 UNL     1      28.353  12.173  29.225  1.00  0.00    -0.104 C 
BRANCH  19  20
HETATM   20  C14 UNL     1      29.523  12.956  29.599  1.00  0.00     0.114 C 
BRANCH  20  21
HETATM   21  C15 UNL     1      29.885  12.732  31.069  1.00  0.00     0.141 C 
BRANCH  21  22
HETATM   22  N5  UNL     1      31.150  12.070  31.196  1.00  0.00    -0.351 N 
HETATM   23  C16 UNL     1      32.379  12.620  30.992  1.00  0.00     0.108 A 
HETATM   24  C17 UNL     1      33.342  11.662  31.213  1.00  0.00     0.106 A 
HETATM   25  N6  UNL     1      32.692  10.546  31.547  1.00  0.00    -0.361 N 
HETATM   26  C18 UNL     1      31.381  10.786  31.539  1.00  0.00     0.182 A 
ATOM     27  H6  UNL     1      33.128   9.653  31.773  1.00  0.00     0.166 HD
ENDBRANCH  21  22
ENDBRANCH  20  21
ENDBRANCH  19  20
ENDBRANCH  17  18
ENDBRANCH  16  17
ENDBRANCH  14  15
ENDBRANCH  13  14
ENDBRANCH   9  13
BRANCH   4  28
HETATM   28  N3  UNL     1      33.787   4.548  27.829  1.00  0.00    -0.384 N 
ATOM     29  H32 UNL     1      34.684   4.548  28.316  1.00  0.00     0.157 HD
ATOM     30  H31 UNL     1      33.816   4.509  26.810  1.00  0.00     0.157 HD
ENDBRANCH   4  28
BRANCH   1  31
HETATM   31  N1  UNL     1      30.913   2.637  30.768  1.00  0.00    -0.234 N 
ATOM     32  H12 UNL     1      31.536   2.526  31.567  1.00  0.00     0.174 HD
ATOM     33  H11 UNL     1      30.108   2.032  30.606  1.00  0.00     0.174 HD
ENDBRANCH   1  31
TORSDOF 10
ENDMDL
MODEL 5
REMARK VINA RESULT: -7.282864743      2.521     11.881
REMARK  10 active torsions:
REMARK  status: ('A' for Active; 'I' for Inactive)
REMARK    1  A    between atoms: N1_1  and  C1_4 
REMARK    2  A    between atoms: C2_7  and  N3_8 
REMARK    3  A    between atoms: N4_15  and  C7_16 
REMARK    4  A    between atoms: C7_16  and  C8_17 
REMARK    5  A    between atoms: C8_17  and  C9_18 
REMARK    6  A    between atoms: C10_19  and  C11_20 
REMARK    7  A    between atoms: C11_20  and  C12_21 
REMARK    8  A    between atoms: C13_22  and  C14_23 
REMARK    9  A    between atoms: C14_23  and  C15_24 
REMARK   10  A    between atoms: C15_24  and  N5_25 
ROOT
HETATM    1  C1  UNL     1      31.149   3.611  29.929  1.00  0.00     0.679 A 
HETATM    2  N2  UNL     1      32.330   3.601  29.302  1.00  0.00    -0.176 N 
ATOM      3  H2  UNL     1      32.994   2.852  29.497  1.00  0.00     0.186 HD
HETATM    4  C2  UNL     1      32.663   4.576  28.405  1.00  0.00     0.128 A 
HETATM    5  C3  UNL     1      31.727   5.566  28.181  1.00  0.00     0.053 A 
HETATM    6  C4  UNL     1      32.052   6.568  27.278  1.00  0.00     0.020 A 
HETATM    7  C5  UNL     1      31.134   7.568  27.046  1.00  0.00     0.018 A 
HETATM    8  C6  UNL     1      29.947   7.501  27.730  1.00  0.00     0.092 A 
HETATM    9  N4  UNL     1      29.629   6.526  28.609  1.00  0.00    -0.341 N 
HETATM   10  C19 UNL     1      30.504   5.554  28.846  1.00  0.00     0.137 A 
HETATM   11  N7  UNL     1      30.236   4.553  29.727  1.00  0.00    -0.176 N 
ATOM     12  H7  UNL     1      29.346   4.526  30.226  1.00  0.00     0.186 HD
ENDROOT
BRANCH   9  13
HETATM   13  C7  UNL     1      28.342   6.543  29.258  1.00  0.00     0.142 C 
BRANCH  13  14
HETATM   14  C8  UNL     1      27.183   6.643  28.289  1.00  0.00     0.114 C 
BRANCH  14  15
HETATM   15  C9  UNL     1      26.680   8.016  28.364  1.00  0.00    -0.104 C 
HETATM   16  C10 UNL     1      26.258   9.158  28.405  1.00  0.00    -0.095 C 
BRANCH  16  17
HETATM   17  C11 UNL     1      25.744  10.529  28.429  1.00  0.00     0.187 C 
BRANCH  17  18
HETATM   18  C12 UNL     1      24.488  10.624  29.164  1.00  0.00    -0.095 C 
HETATM   19  C13 UNL     1      23.457  10.723  29.773  1.00  0.00    -0.104 C 
BRANCH  19  20
HETATM   20  C14 UNL     1      22.211  10.867  30.514  1.00  0.00     0.114 C 
BRANCH  20  21
HETATM   21  C15 UNL     1      21.058  11.243  29.580  1.00  0.00     0.141 C 
BRANCH  21  22
HETATM   22  N5  UNL     1      20.271  12.306  30.130  1.00  0.00    -0.351 N 
HETATM   23  C16 UNL     1      20.662  13.199  31.081  1.00  0.00     0.108 A 
HETATM   24  C17 UNL     1      19.622  14.062  31.341  1.00  0.00     0.106 A 
HETATM   25  N6  UNL     1      18.616  13.687  30.550  1.00  0.00    -0.361 N 
HETATM   26  C18 UNL     1      19.000  12.638  29.824  1.00  0.00     0.182 A 
ATOM     27  H6  UNL     1      17.699  14.132  30.508  1.00  0.00     0.166 HD
ENDBRANCH  21  22
ENDBRANCH  20  21
ENDBRANCH  19  20
ENDBRANCH  17  18
ENDBRANCH  16  17
ENDBRANCH  14  15
ENDBRANCH  13  14
ENDBRANCH   9  13
BRANCH   4  28
HETATM   28  N3  UNL     1      33.798   4.508  27.845  1.00  0.00    -0.384 N 
ATOM     29  H32 UNL     1      33.959   4.562  26.839  1.00  0.00     0.157 HD
ATOM     30  H31 UNL     1      34.619   4.392  28.439  1.00  0.00     0.157 HD
ENDBRANCH   4  28
BRANCH   1  31
HETATM   31  N1  UNL     1      30.874   2.660  30.776  1.00  0.00    -0.234 N 
ATOM     32  H12 UNL     1      31.652   2.176  31.224  1.00  0.00     0.174 HD
ATOM     33  H11 UNL     1      29.898   2.430  30.962  1.00  0.00     0.174 HD
ENDBRANCH   1  31
TORSDOF 10
ENDMDL
