MODEL 1
REMARK VINA RESULT: -6.767207469      0.000      0.000
REMARK  11 active torsions:
REMARK  status: ('A' for Active; 'I' for Inactive)
REMARK    1  A    between atoms: O1_2  and  C2_3 
REMARK    2  A    between atoms: C7_10  and  C8_11 
REMARK    3  A    between atoms: C8_11  and  C9_12 
REMARK    4  A    between atoms: C9_12  and  C10_13 
REMARK    5  A    between atoms: C10_13  and  N1_14 
REMARK       I    between atoms: N1_14  and  C11_16 
REMARK       I    between atoms: C11_16  and  N5_24 
REMARK       I    between atoms: N2_17  and  C12_19 
REMARK    6  A    between atoms: N5_24  and  C13_26 
REMARK    7  A    between atoms: C13_26  and  C14_27 
REMARK    8  A    between atoms: C14_27  and  C15_28 
REMARK    9  A    between atoms: C15_28  and  O2_29 
REMARK   10  A    between atoms: O2_29  and  C16_30 
REMARK   11  A    between atoms: C16_30  and  C17_31 
ROOT
HETATM    1  N1  UNL     1      37.552  19.438  39.143  1.00  0.00    -0.226 N 
ATOM      2  H1  UNL     1      37.699  20.008  39.975  1.00  0.00     0.177 HD
HETATM    3  C11 UNL     1      37.875  19.954  37.842  1.00  0.00     0.676 C 
HETATM    4  N2  UNL     1      36.933  20.136  36.991  1.00  0.00    -0.164 N 
ATOM      5  H2  UNL     1      35.992  19.895  37.302  1.00  0.00     0.187 HD
HETATM    6  C12 UNL     1      37.046  20.624  35.691  1.00  0.00     0.200 C 
HETATM    7  N3  UNL     1      36.164  21.455  35.233  1.00  0.00    -0.373 N 
ATOM      8  H31 UNL     1      36.246  21.812  34.281  1.00  0.00     0.158 HD
ATOM      9  H32 UNL     1      35.422  21.694  35.891  1.00  0.00     0.158 HD
HETATM   10  N4  UNL     1      38.086  20.289  34.769  1.00  0.00    -0.063 NA
HETATM   11  N5  UNL     1      39.212  20.231  37.477  1.00  0.00    -0.226 N 
ATOM     12  H5  UNL     1      39.586  19.653  36.724  1.00  0.00     0.177 HD
ENDROOT
BRANCH   1  13
HETATM   13  C10 UNL     1      37.017  18.107  39.256  1.00  0.00     0.138 C 
BRANCH  13  14
HETATM   14  C9  UNL     1      35.518  18.049  39.162  1.00  0.00     0.025 C 
BRANCH  14  15
HETATM   15  C8  UNL     1      34.893  18.575  40.441  1.00  0.00     0.045 C 
BRANCH  15  16
HETATM   16  C7  UNL     1      33.800  17.711  40.940  1.00  0.00    -0.002 A 
HETATM   17  C2  UNL     1      32.482  17.950  40.566  1.00  0.00     0.076 A 
HETATM   18  C3  UNL     1      31.430  17.178  41.008  1.00  0.00     0.039 A 
HETATM   19  C4  UNL     1      31.694  16.128  41.855  1.00  0.00     0.024 A 
HETATM   20  C5  UNL     1      32.987  15.854  42.252  1.00  0.00     0.033 A 
HETATM   21 BR1  UNL     1      33.280  14.380  43.428  1.00  0.00    -0.049 Br
HETATM   22  C6  UNL     1      34.032  16.652  41.789  1.00  0.00     0.060 A 
HETATM   23 CL1  UNL     1      35.645  16.242  42.340  1.00  0.00    -0.082 Cl
BRANCH  17  24
HETATM   24  O1  UNL     1      32.224  19.001  39.719  1.00  0.00    -0.355 OA
HETATM   25  C1  UNL     1      30.893  19.371  39.449  1.00  0.00     0.210 C 
ENDBRANCH  17  24
ENDBRANCH  15  16
ENDBRANCH  14  15
ENDBRANCH  13  14
ENDBRANCH   1  13
BRANCH  11  26
HETATM   26  C13 UNL     1      40.108  21.194  38.000  1.00  0.00     0.140 C 
BRANCH  26  27
HETATM   27  C14 UNL     1      40.024  22.592  37.523  1.00  0.00     0.046 C 
BRANCH  27  28
HETATM   28  C15 UNL     1      41.211  23.147  36.809  1.00  0.00     0.169 C 
BRANCH  28  29
HETATM   29  O2  UNL     1      41.551  24.362  37.452  1.00  0.00    -0.389 OA
BRANCH  29  30
HETATM   30  C16 UNL     1      40.455  25.070  37.876  1.00  0.00     0.199 C 
BRANCH  30  31
HETATM   31  C17 UNL     1      40.769  26.113  38.925  1.00  0.00     0.248 C 
HETATM   32  F1  UNL     1      40.312  25.707  40.151  1.00  0.00    -0.253 F 
ENDBRANCH  30  31
ENDBRANCH  29  30
ENDBRANCH  28  29
ENDBRANCH  27  28
ENDBRANCH  26  27
ENDBRANCH  11  26
TORSDOF 11
ENDMDL
MODEL 2
REMARK VINA RESULT: -6.739988895      7.647     10.306
REMARK  11 active torsions:
REMARK  status: ('A' for Active; 'I' for Inactive)
REMARK    1  A    between atoms: O1_2  and  C2_3 
REMARK    2  A    between atoms: C7_10  and  C8_11 
REMARK    3  A    between atoms: C8_11  and  C9_12 
REMARK    4  A    between atoms: C9_12  and  C10_13 
REMARK    5  A    between atoms: C10_13  and  N1_14 
REMARK       I    between atoms: N1_14  and  C11_16 
REMARK       I    between atoms: C11_16  and  N5_24 
REMARK       I    between atoms: N2_17  and  C12_19 
REMARK    6  A    between atoms: N5_24  and  C13_26 
REMARK    7  A    between atoms: C13_26  and  C14_27 
REMARK    8  A    between atoms: C14_27  and  C15_28 
REMARK    9  A    between atoms: C15_28  and  O2_29 
REMARK   10  A    between atoms: O2_29  and  C16_30 
REMARK   11  A    between atoms: C16_30  and  C17_31 
ROOT
HETATM    1  N1  UNL     1      45.636  20.861  34.239  1.00  0.00    -0.226 N 
ATOM      2  H1  UNL     1      44.748  20.636  33.793  1.00  0.00     0.177 HD
HETATM    3  C11 UNL     1      46.848  20.220  33.810  1.00  0.00     0.676 C 
HETATM    4  N2  UNL     1      47.470  19.450  34.626  1.00  0.00    -0.164 N 
ATOM      5  H2  UNL     1      47.052  19.341  35.550  1.00  0.00     0.187 HD
HETATM    6  C12 UNL     1      48.649  18.744  34.396  1.00  0.00     0.200 C 
HETATM    7  N3  UNL     1      48.775  17.534  34.839  1.00  0.00    -0.373 N 
ATOM      8  H31 UNL     1      49.638  17.017  34.671  1.00  0.00     0.158 HD
ATOM      9  H32 UNL     1      47.964  17.179  35.345  1.00  0.00     0.158 HD
HETATM   10  N4  UNL     1      49.785  19.242  33.687  1.00  0.00    -0.063 NA
HETATM   11  N5  UNL     1      47.380  20.450  32.521  1.00  0.00    -0.226 N 
ATOM     12  H5  UNL     1      48.284  20.922  32.502  1.00  0.00     0.177 HD
ENDROOT
BRANCH   1  13
HETATM   13  C10 UNL     1      45.693  21.824  35.308  1.00  0.00     0.138 C 
BRANCH  13  14
HETATM   14  C9  UNL     1      44.383  22.513  35.567  1.00  0.00     0.025 C 
BRANCH  14  15
HETATM   15  C8  UNL     1      43.232  21.648  35.086  1.00  0.00     0.045 C 
BRANCH  15  16
HETATM   16  C7  UNL     1      42.405  21.127  36.197  1.00  0.00    -0.002 A 
HETATM   17  C2  UNL     1      41.450  21.933  36.807  1.00  0.00     0.076 A 
HETATM   18  C3  UNL     1      40.660  21.497  37.848  1.00  0.00     0.039 A 
HETATM   19  C4  UNL     1      40.824  20.209  38.302  1.00  0.00     0.024 A 
HETATM   20  C5  UNL     1      41.760  19.375  37.726  1.00  0.00     0.033 A 
HETATM   21 BR1  UNL     1      41.931  17.600  38.409  1.00  0.00    -0.049 Br
HETATM   22  C6  UNL     1      42.545  19.843  36.675  1.00  0.00     0.060 A 
HETATM   23 CL1  UNL     1      43.713  18.725  35.999  1.00  0.00    -0.082 Cl
BRANCH  17  24
HETATM   24  O1  UNL     1      41.291  23.218  36.348  1.00  0.00    -0.355 OA
HETATM   25  C1  UNL     1      40.641  24.173  37.152  1.00  0.00     0.210 C 
ENDBRANCH  17  24
ENDBRANCH  15  16
ENDBRANCH  14  15
ENDBRANCH  13  14
ENDBRANCH   1  13
BRANCH  11  26
HETATM   26  C13 UNL     1      46.844  20.121  31.253  1.00  0.00     0.140 C 
BRANCH  26  27
HETATM   27  C14 UNL     1      46.816  21.153  30.193  1.00  0.00     0.046 C 
BRANCH  27  28
HETATM   28  C15 UNL     1      45.651  22.085  30.171  1.00  0.00     0.169 C 
BRANCH  28  29
HETATM   29  O2  UNL     1      45.303  22.347  31.518  1.00  0.00    -0.389 OA
BRANCH  29  30
HETATM   30  C16 UNL     1      45.592  23.631  31.907  1.00  0.00     0.199 C 
BRANCH  30  31
HETATM   31  C17 UNL     1      45.619  24.623  30.767  1.00  0.00     0.248 C 
HETATM   32  F1  UNL     1      44.538  25.462  30.841  1.00  0.00    -0.253 F 
ENDBRANCH  30  31
ENDBRANCH  29  30
ENDBRANCH  28  29
ENDBRANCH  27  28
ENDBRANCH  26  27
ENDBRANCH  11  26
TORSDOF 11
ENDMDL
MODEL 3
REMARK VINA RESULT: -6.611714771      7.752     10.804
REMARK  11 active torsions:
REMARK  status: ('A' for Active; 'I' for Inactive)
REMARK    1  A    between atoms: O1_2  and  C2_3 
REMARK    2  A    between atoms: C7_10  and  C8_11 
REMARK    3  A    between atoms: C8_11  and  C9_12 
REMARK    4  A    between atoms: C9_12  and  C10_13 
REMARK    5  A    between atoms: C10_13  and  N1_14 
REMARK       I    between atoms: N1_14  and  C11_16 
REMARK       I    between atoms: C11_16  and  N5_24 
REMARK       I    between atoms: N2_17  and  C12_19 
REMARK    6  A    between atoms: N5_24  and  C13_26 
REMARK    7  A    between atoms: C13_26  and  C14_27 
REMARK    8  A    between atoms: C14_27  and  C15_28 
REMARK    9  A    between atoms: C15_28  and  O2_29 
REMARK   10  A    between atoms: O2_29  and  C16_30 
REMARK   11  A    between atoms: C16_30  and  C17_31 
ROOT
HETATM    1  N1  UNL     1      45.806  20.533  34.451  1.00  0.00    -0.226 N 
ATOM      2  H1  UNL     1      44.908  20.183  34.118  1.00  0.00     0.177 HD
HETATM    3  C11 UNL     1      47.033  19.971  33.959  1.00  0.00     0.676 C 
HETATM    4  N2  UNL     1      47.803  19.345  34.771  1.00  0.00    -0.164 N 
ATOM      5  H2  UNL     1      47.485  19.287  35.739  1.00  0.00     0.187 HD
HETATM    6  C12 UNL     1      49.023  18.735  34.486  1.00  0.00     0.200 C 
HETATM    7  N3  UNL     1      49.314  17.591  35.017  1.00  0.00    -0.373 N 
ATOM      8  H31 UNL     1      50.206  17.144  34.808  1.00  0.00     0.158 HD
ATOM      9  H32 UNL     1      48.593  17.211  35.631  1.00  0.00     0.158 HD
HETATM   10  N4  UNL     1      50.032  19.268  33.625  1.00  0.00    -0.063 NA
HETATM   11  N5  UNL     1      47.418  20.125  32.608  1.00  0.00    -0.226 N 
ATOM     12  H5  UNL     1      48.263  20.676  32.457  1.00  0.00     0.177 HD
ENDROOT
BRANCH   1  13
HETATM   13  C10 UNL     1      45.860  21.595  35.421  1.00  0.00     0.138 C 
BRANCH  13  14
HETATM   14  C9  UNL     1      44.543  22.287  35.630  1.00  0.00     0.025 C 
BRANCH  14  15
HETATM   15  C8  UNL     1      43.407  21.409  35.140  1.00  0.00     0.045 C 
BRANCH  15  16
HETATM   16  C7  UNL     1      42.521  20.955  36.235  1.00  0.00    -0.002 A 
HETATM   17  C2  UNL     1      41.621  21.833  36.828  1.00  0.00     0.076 A 
HETATM   18  C3  UNL     1      40.780  21.460  37.854  1.00  0.00     0.039 A 
HETATM   19  C4  UNL     1      40.835  20.164  38.311  1.00  0.00     0.024 A 
HETATM   20  C5  UNL     1      41.714  19.259  37.752  1.00  0.00     0.033 A 
HETATM   21 BR1  UNL     1      41.735  17.477  38.436  1.00  0.00    -0.049 Br
HETATM   22  C6  UNL     1      42.552  19.665  36.715  1.00  0.00     0.060 A 
HETATM   23 CL1  UNL     1      43.642  18.458  36.060  1.00  0.00    -0.082 Cl
BRANCH  17  24
HETATM   24  O1  UNL     1      41.570  23.126  36.366  1.00  0.00    -0.355 OA
HETATM   25  C1  UNL     1      40.869  24.104  37.098  1.00  0.00     0.210 C 
ENDBRANCH  17  24
ENDBRANCH  15  16
ENDBRANCH  14  15
ENDBRANCH  13  14
ENDBRANCH   1  13
BRANCH  11  26
HETATM   26  C13 UNL     1      46.805  19.627  31.434  1.00  0.00     0.140 C 
BRANCH  26  27
HETATM   27  C14 UNL     1      45.875  18.481  31.536  1.00  0.00     0.046 C 
BRANCH  27  28
HETATM   28  C15 UNL     1      46.458  17.111  31.446  1.00  0.00     0.169 C 
BRANCH  28  29
HETATM   29  O2  UNL     1      47.226  16.908  32.619  1.00  0.00    -0.389 OA
BRANCH  29  30
HETATM   30  C16 UNL     1      46.829  15.807  33.335  1.00  0.00     0.199 C 
BRANCH  30  31
HETATM   31  C17 UNL     1      45.771  16.102  34.374  1.00  0.00     0.248 C 
HETATM   32  F1  UNL     1      46.356  16.457  35.561  1.00  0.00    -0.253 F 
ENDBRANCH  30  31
ENDBRANCH  29  30
ENDBRANCH  28  29
ENDBRANCH  27  28
ENDBRANCH  26  27
ENDBRANCH  11  26
TORSDOF 11
ENDMDL
MODEL 4
REMARK VINA RESULT: -6.564766015      1.966      2.598
REMARK  11 active torsions:
REMARK  status: ('A' for Active; 'I' for Inactive)
REMARK    1  A    between atoms: O1_2  and  C2_3 
REMARK    2  A    between atoms: C7_10  and  C8_11 
REMARK    3  A    between atoms: C8_11  and  C9_12 
REMARK    4  A    between atoms: C9_12  and  C10_13 
REMARK    5  A    between atoms: C10_13  and  N1_14 
REMARK       I    between atoms: N1_14  and  C11_16 
REMARK       I    between atoms: C11_16  and  N5_24 
REMARK       I    between atoms: N2_17  and  C12_19 
REMARK    6  A    between atoms: N5_24  and  C13_26 
REMARK    7  A    between atoms: C13_26  and  C14_27 
REMARK    8  A    between atoms: C14_27  and  C15_28 
REMARK    9  A    between atoms: C15_28  and  O2_29 
REMARK   10  A    between atoms: O2_29  and  C16_30 
REMARK   11  A    between atoms: C16_30  and  C17_31 
ROOT
HETATM    1  N1  UNL     1      36.998  19.242  38.666  1.00  0.00    -0.226 N 
ATOM      2  H1  UNL     1      37.104  19.717  39.561  1.00  0.00     0.177 HD
HETATM    3  C11 UNL     1      37.448  19.866  37.453  1.00  0.00     0.676 C 
HETATM    4  N2  UNL     1      36.586  20.183  36.557  1.00  0.00    -0.164 N 
ATOM      5  H2  UNL     1      35.613  19.962  36.771  1.00  0.00     0.187 HD
HETATM    6  C12 UNL     1      36.824  20.791  35.327  1.00  0.00     0.200 C 
HETATM    7  N3  UNL     1      36.020  21.709  34.893  1.00  0.00    -0.373 N 
ATOM      8  H31 UNL     1      36.194  22.155  33.992  1.00  0.00     0.158 HD
ATOM      9  H32 UNL     1      35.240  21.921  35.515  1.00  0.00     0.158 HD
HETATM   10  N4  UNL     1      37.917  20.494  34.456  1.00  0.00    -0.063 NA
HETATM   11  N5  UNL     1      38.820  20.107  37.219  1.00  0.00    -0.226 N 
ATOM     12  H5  UNL     1      39.226  19.587  36.441  1.00  0.00     0.177 HD
ENDROOT
BRANCH   1  13
HETATM   13  C10 UNL     1      36.396  17.936  38.601  1.00  0.00     0.138 C 
BRANCH  13  14
HETATM   14  C9  UNL     1      36.674  17.083  39.807  1.00  0.00     0.025 C 
BRANCH  14  15
HETATM   15  C8  UNL     1      36.062  17.713  41.044  1.00  0.00     0.045 C 
BRANCH  15  16
HETATM   16  C7  UNL     1      34.763  17.106  41.413  1.00  0.00    -0.002 A 
HETATM   17  C2  UNL     1      34.716  15.957  42.195  1.00  0.00     0.076 A 
HETATM   18  C3  UNL     1      33.534  15.351  42.559  1.00  0.00     0.039 A 
HETATM   19  C4  UNL     1      32.351  15.907  42.131  1.00  0.00     0.024 A 
HETATM   20  C5  UNL     1      32.351  17.047  41.353  1.00  0.00     0.033 A 
HETATM   21 BR1  UNL     1      30.672  17.763  40.796  1.00  0.00    -0.049 Br
HETATM   22  C6  UNL     1      33.563  17.638  41.000  1.00  0.00     0.060 A 
HETATM   23 CL1  UNL     1      33.480  19.081  40.009  1.00  0.00    -0.082 Cl
BRANCH  17  24
HETATM   24  O1  UNL     1      35.901  15.407  42.620  1.00  0.00    -0.355 OA
HETATM   25  C1  UNL     1      36.267  14.117  42.192  1.00  0.00     0.210 C 
ENDBRANCH  17  24
ENDBRANCH  15  16
ENDBRANCH  14  15
ENDBRANCH  13  14
ENDBRANCH   1  13
BRANCH  11  26
HETATM   26  C13 UNL     1      39.715  20.963  37.905  1.00  0.00     0.140 C 
BRANCH  26  27
HETATM   27  C14 UNL     1      39.823  22.378  37.486  1.00  0.00     0.046 C 
BRANCH  27  28
HETATM   28  C15 UNL     1      41.083  22.800  36.808  1.00  0.00     0.169 C 
BRANCH  28  29
HETATM   29  O2  UNL     1      41.477  24.028  37.392  1.00  0.00    -0.389 OA
BRANCH  29  30
HETATM   30  C16 UNL     1      40.424  24.739  37.910  1.00  0.00     0.199 C 
BRANCH  30  31
HETATM   31  C17 UNL     1      40.740  25.442  39.211  1.00  0.00     0.248 C 
HETATM   32  F1  UNL     1      40.567  26.794  39.075  1.00  0.00    -0.253 F 
ENDBRANCH  30  31
ENDBRANCH  29  30
ENDBRANCH  28  29
ENDBRANCH  27  28
ENDBRANCH  26  27
ENDBRANCH  11  26
TORSDOF 11
ENDMDL
MODEL 5
REMARK VINA RESULT: -6.521933784      6.906      8.529
REMARK  11 active torsions:
REMARK  status: ('A' for Active; 'I' for Inactive)
REMARK    1  A    between atoms: O1_2  and  C2_3 
REMARK    2  A    between atoms: C7_10  and  C8_11 
REMARK    3  A    between atoms: C8_11  and  C9_12 
REMARK    4  A    between atoms: C9_12  and  C10_13 
REMARK    5  A    between atoms: C10_13  and  N1_14 
REMARK       I    between atoms: N1_14  and  C11_16 
REMARK       I    between atoms: C11_16  and  N5_24 
REMARK       I    between atoms: N2_17  and  C12_19 
REMARK    6  A    between atoms: N5_24  and  C13_26 
REMARK    7  A    between atoms: C13_26  and  C14_27 
REMARK    8  A    between atoms: C14_27  and  C15_28 
REMARK    9  A    between atoms: C15_28  and  O2_29 
REMARK   10  A    between atoms: O2_29  and  C16_30 
REMARK   11  A    between atoms: C16_30  and  C17_31 
ROOT
HETATM    1  N1  UNL     1      41.784  20.384  38.200  1.00  0.00    -0.226 N 
ATOM      2  H1  UNL     1      42.722  19.987  38.236  1.00  0.00     0.177 HD
HETATM    3  C11 UNL     1      41.563  21.673  37.606  1.00  0.00     0.676 C 
HETATM    4  N2  UNL     1      41.150  22.638  38.345  1.00  0.00    -0.164 N 
ATOM      5  H2  UNL     1      41.002  22.420  39.330  1.00  0.00     0.187 HD
HETATM    6  C12 UNL     1      40.881  23.949  37.957  1.00  0.00     0.200 C 
HETATM    7  N3  UNL     1      41.229  24.934  38.722  1.00  0.00    -0.373 N 
ATOM      8  H31 UNL     1      41.032  25.894  38.439  1.00  0.00     0.158 HD
ATOM      9  H32 UNL     1      41.692  24.658  39.588  1.00  0.00     0.158 HD
HETATM   10  N4  UNL     1      40.233  24.335  36.744  1.00  0.00    -0.063 NA
HETATM   11  N5  UNL     1      41.758  21.886  36.223  1.00  0.00    -0.226 N 
ATOM     12  H5  UNL     1      40.917  22.120  35.696  1.00  0.00     0.177 HD
ENDROOT
BRANCH   1  13
HETATM   13  C10 UNL     1      40.665  19.661  38.744  1.00  0.00     0.138 C 
BRANCH  13  14
HETATM   14  C9  UNL     1      40.984  18.236  39.099  1.00  0.00     0.025 C 
BRANCH  14  15
HETATM   15  C8  UNL     1      40.841  17.348  37.878  1.00  0.00     0.045 C 
BRANCH  15  16
HETATM   16  C7  UNL     1      42.114  17.177  37.142  1.00  0.00    -0.002 A 
HETATM   17  C2  UNL     1      42.364  17.903  35.982  1.00  0.00     0.076 A 
HETATM   18  C3  UNL     1      43.530  17.776  35.259  1.00  0.00     0.039 A 
HETATM   19  C4  UNL     1      44.486  16.893  35.704  1.00  0.00     0.024 A 
HETATM   20  C5  UNL     1      44.279  16.152  36.849  1.00  0.00     0.033 A 
HETATM   21 BR1  UNL     1      45.650  14.946  37.406  1.00  0.00    -0.049 Br
HETATM   22  C6  UNL     1      43.090  16.301  37.560  1.00  0.00     0.060 A 
HETATM   23 CL1  UNL     1      42.902  15.323  39.002  1.00  0.00    -0.082 Cl
BRANCH  17  24
HETATM   24  O1  UNL     1      41.405  18.784  35.544  1.00  0.00    -0.355 OA
HETATM   25  C1  UNL     1      40.954  18.723  34.212  1.00  0.00     0.210 C 
ENDBRANCH  17  24
ENDBRANCH  15  16
ENDBRANCH  14  15
ENDBRANCH  13  14
ENDBRANCH   1  13
BRANCH  11  26
HETATM   26  C13 UNL     1      42.950  21.822  35.462  1.00  0.00     0.140 C 
BRANCH  26  27
HETATM   27  C14 UNL     1      43.988  22.858  35.658  1.00  0.00     0.046 C 
BRANCH  27  28
HETATM   28  C15 UNL     1      45.392  22.501  35.301  1.00  0.00     0.169 C 
BRANCH  28  29
HETATM   29  O2  UNL     1      45.600  21.164  35.718  1.00  0.00    -0.389 OA
BRANCH  29  30
HETATM   30  C16 UNL     1      46.290  20.416  34.797  1.00  0.00     0.199 C 
BRANCH  30  31
HETATM   31  C17 UNL     1      47.439  19.629  35.386  1.00  0.00     0.248 C 
HETATM   32  F1  UNL     1      48.608  20.333  35.265  1.00  0.00    -0.253 F 
ENDBRANCH  30  31
ENDBRANCH  29  30
ENDBRANCH  28  29
ENDBRANCH  27  28
ENDBRANCH  26  27
ENDBRANCH  11  26
TORSDOF 11
ENDMDL
