MODEL 1
REMARK VINA RESULT: -7.350413103      0.000      0.000
REMARK  11 active torsions:
REMARK  status: ('A' for Active; 'I' for Inactive)
REMARK       I    between atoms: C1_2  and  N2_4 
REMARK    1  A    between atoms: C3_7  and  C4_8 
REMARK    2  A    between atoms: C4_8  and  C5_9 
REMARK    3  A    between atoms: C5_9  and  C6_10 
REMARK    4  A    between atoms: C6_10  and  N3_11 
REMARK    5  A    between atoms: N7_22  and  C10_23 
REMARK    6  A    between atoms: C10_23  and  C11_24 
REMARK    7  A    between atoms: C11_24  and  C12_25 
REMARK    8  A    between atoms: C12_25  and  C13_26 
REMARK    9  A    between atoms: C13_26  and  C14_27 
REMARK   10  A    between atoms: C14_27  and  C15_28 
REMARK   11  A    between atoms: C15_28  and  C16_29 
ROOT
HETATM    1  N1  UNL     1      43.343  22.014  36.171  1.00  0.00    -0.040 NA
HETATM    2  C1  UNL     1      42.822  20.922  35.433  1.00  0.00     0.334 C 
HETATM    3  O1  UNL     1      42.620  21.128  34.200  1.00  0.00    -0.251 OA
HETATM    4  N2  UNL     1      42.545  19.704  35.994  1.00  0.00    -0.299 N 
ATOM      5  H2  UNL     1      43.214  18.998  35.689  1.00  0.00     0.171 HD
HETATM    6  C2  UNL     1      41.701  19.219  36.773  1.00  0.00     0.121 C 
HETATM    7  C3  UNL     1      40.557  19.743  37.486  1.00  0.00     0.254 C 
HETATM    8  N6  UNL     1      40.929  19.718  38.917  1.00  0.00    -0.056 N 
ATOM      9  H61 UNL     1      40.267  20.239  39.493  1.00  0.00     0.278 HD
ATOM     10  H62 UNL     1      41.762  20.276  39.106  1.00  0.00     0.278 HD
HETATM   11  C8  UNL     1      41.079  18.347  39.367  1.00  0.00     0.336 C 
HETATM   12  C9  UNL     1      41.335  17.375  38.310  1.00  0.00     0.251 C 
HETATM   13  O2  UNL     1      41.025  16.175  38.461  1.00  0.00    -0.271 OA
HETATM   14  N7  UNL     1      41.944  17.811  37.106  1.00  0.00    -0.304 N 
ENDROOT
BRANCH  14  15
HETATM   15  C10 UNL     1      42.768  16.967  36.250  1.00  0.00     0.133 C 
BRANCH  15  16
HETATM   16  C11 UNL     1      44.081  16.678  36.846  1.00  0.00     0.020 C 
BRANCH  16  17
HETATM   17  C12 UNL     1      44.529  15.338  37.152  1.00  0.00     0.002 C 
BRANCH  17  18
HETATM   18  C13 UNL     1      44.537  14.281  36.119  1.00  0.00     0.000 C 
BRANCH  18  19
HETATM   19  C14 UNL     1      45.837  13.968  35.520  1.00  0.00     0.005 C 
BRANCH  19  20
HETATM   20  C15 UNL     1      45.960  14.415  34.076  1.00  0.00     0.040 C 
BRANCH  20  21
HETATM   21  C16 UNL     1      46.934  15.487  33.842  1.00  0.00    -0.035 A 
HETATM   22  C17 UNL     1      47.641  16.048  34.922  1.00  0.00     0.011 A 
HETATM   23  C18 UNL     1      48.490  17.105  34.772  1.00  0.00     0.026 A 
HETATM   24  C19 UNL     1      48.712  17.696  33.542  1.00  0.00     0.057 A 
HETATM   25 CL1  UNL     1      49.800  19.056  33.372  1.00  0.00    -0.082 Cl
HETATM   26  C20 UNL     1      48.035  17.165  32.469  1.00  0.00     0.078 A 
HETATM   27 CL2  UNL     1      48.303  17.894  30.897  1.00  0.00    -0.081 Cl
HETATM   28  C21 UNL     1      47.163  16.076  32.630  1.00  0.00     0.063 A 
HETATM   29 CL3  UNL     1      46.443  15.415  31.170  1.00  0.00    -0.082 Cl
ENDBRANCH  20  21
ENDBRANCH  19  20
ENDBRANCH  18  19
ENDBRANCH  17  18
ENDBRANCH  16  17
ENDBRANCH  15  16
ENDBRANCH  14  15
BRANCH   7  30
HETATM   30  C4  UNL     1      39.924  21.008  37.181  1.00  0.00     0.042 C 
BRANCH  30  31
HETATM   31  C5  UNL     1      40.134  22.203  38.008  1.00  0.00     0.022 C 
BRANCH  31  32
HETATM   32  C6  UNL     1      39.911  23.511  37.264  1.00  0.00     0.122 C 
BRANCH  32  33
HETATM   33  N3  UNL     1      39.228  24.483  38.094  1.00  0.00    -0.367 N 
HETATM   34  C7  UNL     1      39.860  25.516  38.562  1.00  0.00     0.196 C 
HETATM   35  N4  UNL     1      39.212  26.484  39.379  1.00  0.00    -0.067 NA
HETATM   36  N5  UNL     1      41.244  25.727  38.274  1.00  0.00    -0.067 NA
ATOM     37  H3  UNL     1      38.240  24.354  38.314  1.00  0.00     0.161 HD
ENDBRANCH  32  33
ENDBRANCH  31  32
ENDBRANCH  30  31
ENDBRANCH   7  30
TORSDOF 11
ENDMDL
MODEL 2
REMARK VINA RESULT: -7.162953104      2.832      5.394
REMARK  11 active torsions:
REMARK  status: ('A' for Active; 'I' for Inactive)
REMARK       I    between atoms: C1_2  and  N2_4 
REMARK    1  A    between atoms: C3_7  and  C4_8 
REMARK    2  A    between atoms: C4_8  and  C5_9 
REMARK    3  A    between atoms: C5_9  and  C6_10 
REMARK    4  A    between atoms: C6_10  and  N3_11 
REMARK    5  A    between atoms: N7_22  and  C10_23 
REMARK    6  A    between atoms: C10_23  and  C11_24 
REMARK    7  A    between atoms: C11_24  and  C12_25 
REMARK    8  A    between atoms: C12_25  and  C13_26 
REMARK    9  A    between atoms: C13_26  and  C14_27 
REMARK   10  A    between atoms: C14_27  and  C15_28 
REMARK   11  A    between atoms: C15_28  and  C16_29 
ROOT
HETATM    1  N1  UNL     1      39.394  24.488  36.911  1.00  0.00    -0.040 NA
HETATM    2  C1  UNL     1      39.734  23.473  37.841  1.00  0.00     0.334 C 
HETATM    3  O1  UNL     1      40.342  23.854  38.883  1.00  0.00    -0.251 OA
HETATM    4  N2  UNL     1      39.434  22.152  37.649  1.00  0.00    -0.299 N 
ATOM      5  H2  UNL     1      38.695  21.846  38.282  1.00  0.00     0.171 HD
HETATM    6  C2  UNL     1      39.812  21.218  36.915  1.00  0.00     0.121 C 
HETATM    7  C3  UNL     1      40.801  21.085  35.869  1.00  0.00     0.254 C 
HETATM    8  N6  UNL     1      40.039  20.888  34.617  1.00  0.00    -0.056 N 
ATOM      9  H61 UNL     1      40.632  20.970  33.791  1.00  0.00     0.278 HD
ATOM     10  H62 UNL     1      39.409  21.667  34.426  1.00  0.00     0.278 HD
HETATM   11  C8  UNL     1      39.337  19.619  34.658  1.00  0.00     0.336 C 
HETATM   12  C9  UNL     1      39.108  19.084  35.995  1.00  0.00     0.251 C 
HETATM   13  O2  UNL     1      38.963  17.856  36.172  1.00  0.00    -0.271 OA
HETATM   14  N7  UNL     1      39.050  19.978  37.095  1.00  0.00    -0.304 N 
ENDROOT
BRANCH  14  15
HETATM   15  C10 UNL     1      38.290  19.732  38.313  1.00  0.00     0.133 C 
BRANCH  15  16
HETATM   16  C11 UNL     1      38.867  18.651  39.126  1.00  0.00     0.020 C 
BRANCH  16  17
HETATM   17  C12 UNL     1      40.192  18.719  39.701  1.00  0.00     0.002 C 
BRANCH  17  18
HETATM   18  C13 UNL     1      41.379  18.282  38.935  1.00  0.00     0.000 C 
BRANCH  18  19
HETATM   19  C14 UNL     1      41.771  16.878  39.092  1.00  0.00     0.005 C 
BRANCH  19  20
HETATM   20  C15 UNL     1      41.670  16.077  37.808  1.00  0.00     0.040 C 
BRANCH  20  21
HETATM   21  C16 UNL     1      42.942  15.871  37.106  1.00  0.00    -0.035 A 
HETATM   22  C17 UNL     1      43.788  14.807  37.474  1.00  0.00     0.011 A 
HETATM   23  C18 UNL     1      45.019  14.624  36.916  1.00  0.00     0.026 A 
HETATM   24  C19 UNL     1      45.517  15.474  35.948  1.00  0.00     0.057 A 
HETATM   25 CL1  UNL     1      47.102  15.225  35.249  1.00  0.00    -0.082 Cl
HETATM   26  C20 UNL     1      44.710  16.521  35.568  1.00  0.00     0.078 A 
HETATM   27 CL2  UNL     1      45.317  17.613  34.338  1.00  0.00    -0.081 Cl
HETATM   28  C21 UNL     1      43.443  16.704  36.146  1.00  0.00     0.063 A 
HETATM   29 CL3  UNL     1      42.458  18.009  35.500  1.00  0.00    -0.082 Cl
ENDBRANCH  20  21
ENDBRANCH  19  20
ENDBRANCH  18  19
ENDBRANCH  17  18
ENDBRANCH  16  17
ENDBRANCH  15  16
ENDBRANCH  14  15
BRANCH   7  30
HETATM   30  C4  UNL     1      41.863  22.040  35.633  1.00  0.00     0.042 C 
BRANCH  30  31
HETATM   31  C5  UNL     1      43.273  21.637  35.563  1.00  0.00     0.022 C 
BRANCH  31  32
HETATM   32  C6  UNL     1      44.231  22.793  35.316  1.00  0.00     0.122 C 
BRANCH  32  33
HETATM   33  N3  UNL     1      45.230  22.449  34.324  1.00  0.00    -0.367 N 
HETATM   34  C7  UNL     1      45.093  22.822  33.088  1.00  0.00     0.196 C 
HETATM   35  N4  UNL     1      46.059  22.497  32.096  1.00  0.00    -0.067 NA
HETATM   36  N5  UNL     1      43.956  23.579  32.668  1.00  0.00    -0.067 NA
ATOM     37  H3  UNL     1      46.050  21.908  34.599  1.00  0.00     0.161 HD
ENDBRANCH  32  33
ENDBRANCH  31  32
ENDBRANCH  30  31
ENDBRANCH   7  30
TORSDOF 11
ENDMDL
MODEL 3
REMARK VINA RESULT: -7.086679507      4.441      7.307
REMARK  11 active torsions:
REMARK  status: ('A' for Active; 'I' for Inactive)
REMARK       I    between atoms: C1_2  and  N2_4 
REMARK    1  A    between atoms: C3_7  and  C4_8 
REMARK    2  A    between atoms: C4_8  and  C5_9 
REMARK    3  A    between atoms: C5_9  and  C6_10 
REMARK    4  A    between atoms: C6_10  and  N3_11 
REMARK    5  A    between atoms: N7_22  and  C10_23 
REMARK    6  A    between atoms: C10_23  and  C11_24 
REMARK    7  A    between atoms: C11_24  and  C12_25 
REMARK    8  A    between atoms: C12_25  and  C13_26 
REMARK    9  A    between atoms: C13_26  and  C14_27 
REMARK   10  A    between atoms: C14_27  and  C15_28 
REMARK   11  A    between atoms: C15_28  and  C16_29 
ROOT
HETATM    1  N1  UNL     1      42.576  18.675  33.107  1.00  0.00    -0.040 NA
HETATM    2  C1  UNL     1      42.852  18.126  34.384  1.00  0.00     0.334 C 
HETATM    3  O1  UNL     1      42.048  18.440  35.310  1.00  0.00    -0.251 OA
HETATM    4  N2  UNL     1      43.917  17.302  34.629  1.00  0.00    -0.299 N 
ATOM      5  H2  UNL     1      43.610  16.343  34.790  1.00  0.00     0.171 HD
HETATM    6  C2  UNL     1      45.157  17.398  34.711  1.00  0.00     0.121 C 
HETATM    7  C3  UNL     1      46.102  18.485  34.581  1.00  0.00     0.254 C 
HETATM    8  N6  UNL     1      46.862  18.211  33.342  1.00  0.00    -0.056 N 
ATOM      9  H61 UNL     1      47.426  19.011  33.055  1.00  0.00     0.278 HD
ATOM     10  H62 UNL     1      46.253  18.157  32.524  1.00  0.00     0.278 HD
HETATM   11  C8  UNL     1      47.661  17.012  33.504  1.00  0.00     0.336 C 
HETATM   12  C9  UNL     1      47.204  16.103  34.550  1.00  0.00     0.251 C 
HETATM   13  O2  UNL     1      48.004  15.322  35.107  1.00  0.00    -0.271 OA
HETATM   14  N7  UNL     1      45.837  16.117  34.926  1.00  0.00    -0.304 N 
ENDROOT
BRANCH  14  15
HETATM   15  C10 UNL     1      45.123  14.968  35.467  1.00  0.00     0.133 C 
BRANCH  15  16
HETATM   16  C11 UNL     1      45.063  14.985  36.936  1.00  0.00     0.020 C 
BRANCH  16  17
HETATM   17  C12 UNL     1      43.952  15.545  37.673  1.00  0.00     0.002 C 
BRANCH  17  18
HETATM   18  C13 UNL     1      43.186  14.726  38.636  1.00  0.00     0.000 C 
BRANCH  18  19
HETATM   19  C14 UNL     1      42.397  15.460  39.629  1.00  0.00     0.005 C 
BRANCH  19  20
HETATM   20  C15 UNL     1      40.924  15.551  39.282  1.00  0.00     0.040 C 
BRANCH  20  21
HETATM   21  C16 UNL     1      40.452  16.898  38.940  1.00  0.00    -0.035 A 
HETATM   22  C17 UNL     1      41.366  17.965  38.850  1.00  0.00     0.011 A 
HETATM   23  C18 UNL     1      40.971  19.251  38.623  1.00  0.00     0.026 A 
HETATM   24  C19 UNL     1      39.640  19.590  38.465  1.00  0.00     0.057 A 
HETATM   25 CL1  UNL     1      39.153  21.247  38.182  1.00  0.00    -0.082 Cl
HETATM   26  C20 UNL     1      38.727  18.565  38.546  1.00  0.00     0.078 A 
HETATM   27 CL2  UNL     1      37.032  18.969  38.345  1.00  0.00    -0.081 Cl
HETATM   28  C21 UNL     1      39.139  17.243  38.779  1.00  0.00     0.063 A 
HETATM   29 CL3  UNL     1      37.893  16.006  38.750  1.00  0.00    -0.082 Cl
ENDBRANCH  20  21
ENDBRANCH  19  20
ENDBRANCH  18  19
ENDBRANCH  17  18
ENDBRANCH  16  17
ENDBRANCH  15  16
ENDBRANCH  14  15
BRANCH   7  30
HETATM   30  C4  UNL     1      45.735  19.885  34.614  1.00  0.00     0.042 C 
BRANCH  30  31
HETATM   31  C5  UNL     1      45.564  20.674  33.388  1.00  0.00     0.022 C 
BRANCH  31  32
HETATM   32  C6  UNL     1      44.408  21.661  33.450  1.00  0.00     0.122 C 
BRANCH  32  33
HETATM   33  N3  UNL     1      43.491  21.336  34.525  1.00  0.00    -0.367 N 
HETATM   34  C7  UNL     1      43.244  22.194  35.468  1.00  0.00     0.196 C 
HETATM   35  N4  UNL     1      42.348  21.898  36.532  1.00  0.00    -0.067 NA
HETATM   36  N5  UNL     1      43.867  23.480  35.477  1.00  0.00    -0.067 NA
ATOM     37  H3  UNL     1      43.035  20.424  34.541  1.00  0.00     0.161 HD
ENDBRANCH  32  33
ENDBRANCH  31  32
ENDBRANCH  30  31
ENDBRANCH   7  30
TORSDOF 11
ENDMDL
MODEL 4
REMARK VINA RESULT: -7.061672309      5.318      7.458
REMARK  11 active torsions:
REMARK  status: ('A' for Active; 'I' for Inactive)
REMARK       I    between atoms: C1_2  and  N2_4 
REMARK    1  A    between atoms: C3_7  and  C4_8 
REMARK    2  A    between atoms: C4_8  and  C5_9 
REMARK    3  A    between atoms: C5_9  and  C6_10 
REMARK    4  A    between atoms: C6_10  and  N3_11 
REMARK    5  A    between atoms: N7_22  and  C10_23 
REMARK    6  A    between atoms: C10_23  and  C11_24 
REMARK    7  A    between atoms: C11_24  and  C12_25 
REMARK    8  A    between atoms: C12_25  and  C13_26 
REMARK    9  A    between atoms: C13_26  and  C14_27 
REMARK   10  A    between atoms: C14_27  and  C15_28 
REMARK   11  A    between atoms: C15_28  and  C16_29 
ROOT
HETATM    1  N1  UNL     1      39.424  24.488  38.783  1.00  0.00    -0.040 NA
HETATM    2  C1  UNL     1      39.669  24.105  37.441  1.00  0.00     0.334 C 
HETATM    3  O1  UNL     1      39.162  24.846  36.549  1.00  0.00    -0.251 OA
HETATM    4  N2  UNL     1      40.407  23.004  37.100  1.00  0.00    -0.299 N 
ATOM      5  H2  UNL     1      41.309  23.274  36.706  1.00  0.00     0.171 HD
HETATM    6  C2  UNL     1      40.285  21.764  37.138  1.00  0.00     0.121 C 
HETATM    7  C3  UNL     1      39.247  20.860  37.581  1.00  0.00     0.254 C 
HETATM    8  N6  UNL     1      39.786  20.186  38.782  1.00  0.00    -0.056 N 
ATOM      9  H61 UNL     1      39.067  19.664  39.283  1.00  0.00     0.278 HD
ATOM     10  H62 UNL     1      40.028  20.851  39.517  1.00  0.00     0.278 HD
HETATM   11  C8  UNL     1      40.911  19.347  38.417  1.00  0.00     0.336 C 
HETATM   12  C9  UNL     1      41.566  19.702  37.163  1.00  0.00     0.251 C 
HETATM   13  O2  UNL     1      42.195  18.844  36.509  1.00  0.00    -0.271 OA
HETATM   14  N7  UNL     1      41.479  21.038  36.695  1.00  0.00    -0.304 N 
ENDROOT
BRANCH  14  15
HETATM   15  C10 UNL     1      42.483  21.681  35.858  1.00  0.00     0.133 C 
BRANCH  15  16
HETATM   16  C11 UNL     1      42.327  21.343  34.435  1.00  0.00     0.020 C 
BRANCH  16  17
HETATM   17  C12 UNL     1      43.318  21.670  33.434  1.00  0.00     0.002 C 
BRANCH  17  18
HETATM   18  C13 UNL     1      44.311  22.741  33.664  1.00  0.00     0.000 C 
BRANCH  18  19
HETATM   19  C14 UNL     1      44.777  23.460  32.476  1.00  0.00     0.005 C 
BRANCH  19  20
HETATM   20  C15 UNL     1      43.655  23.889  31.551  1.00  0.00     0.040 C 
BRANCH  20  21
HETATM   21  C16 UNL     1      44.092  24.526  30.303  1.00  0.00    -0.035 A 
HETATM   22  C17 UNL     1      45.448  24.857  30.116  1.00  0.00     0.011 A 
HETATM   23  C18 UNL     1      45.893  25.528  29.015  1.00  0.00     0.026 A 
HETATM   24  C19 UNL     1      45.036  25.929  28.007  1.00  0.00     0.057 A 
HETATM   25 CL1  UNL     1      45.626  26.796  26.606  1.00  0.00    -0.082 Cl
HETATM   26  C20 UNL     1      43.706  25.617  28.165  1.00  0.00     0.078 A 
HETATM   27 CL2  UNL     1      42.599  26.111  26.898  1.00  0.00    -0.081 Cl
HETATM   28  C21 UNL     1      43.254  24.924  29.300  1.00  0.00     0.063 A 
HETATM   29 CL3  UNL     1      41.554  24.484  29.336  1.00  0.00    -0.082 Cl
ENDBRANCH  20  21
ENDBRANCH  19  20
ENDBRANCH  18  19
ENDBRANCH  17  18
ENDBRANCH  16  17
ENDBRANCH  15  16
ENDBRANCH  14  15
BRANCH   7  30
HETATM   30  C4  UNL     1      37.879  21.259  37.833  1.00  0.00     0.042 C 
BRANCH  30  31
HETATM   31  C5  UNL     1      36.770  20.823  36.976  1.00  0.00     0.022 C 
BRANCH  31  32
HETATM   32  C6  UNL     1      36.368  19.371  37.183  1.00  0.00     0.122 C 
BRANCH  32  33
HETATM   33  N3  UNL     1      35.716  19.179  38.463  1.00  0.00    -0.367 N 
HETATM   34  C7  UNL     1      36.286  18.482  39.399  1.00  0.00     0.196 C 
HETATM   35  N4  UNL     1      35.667  18.279  40.664  1.00  0.00    -0.067 NA
HETATM   36  N5  UNL     1      37.568  17.884  39.197  1.00  0.00    -0.067 NA
ATOM     37  H3  UNL     1      34.800  19.595  38.631  1.00  0.00     0.161 HD
ENDBRANCH  32  33
ENDBRANCH  31  32
ENDBRANCH  30  31
ENDBRANCH   7  30
TORSDOF 11
ENDMDL
MODEL 5
REMARK VINA RESULT: -6.973841388      6.911     10.646
REMARK  11 active torsions:
REMARK  status: ('A' for Active; 'I' for Inactive)
REMARK       I    between atoms: C1_2  and  N2_4 
REMARK    1  A    between atoms: C3_7  and  C4_8 
REMARK    2  A    between atoms: C4_8  and  C5_9 
REMARK    3  A    between atoms: C5_9  and  C6_10 
REMARK    4  A    between atoms: C6_10  and  N3_11 
REMARK    5  A    between atoms: N7_22  and  C10_23 
REMARK    6  A    between atoms: C10_23  and  C11_24 
REMARK    7  A    between atoms: C11_24  and  C12_25 
REMARK    8  A    between atoms: C12_25  and  C13_26 
REMARK    9  A    between atoms: C13_26  and  C14_27 
REMARK   10  A    between atoms: C14_27  and  C15_28 
REMARK   11  A    between atoms: C15_28  and  C16_29 
ROOT
HETATM    1  N1  UNL     1      39.410  24.132  36.790  1.00  0.00    -0.040 NA
HETATM    2  C1  UNL     1      40.180  23.491  37.792  1.00  0.00     0.334 C 
HETATM    3  O1  UNL     1      40.583  24.226  38.741  1.00  0.00    -0.251 OA
HETATM    4  N2  UNL     1      40.484  22.157  37.763  1.00  0.00    -0.299 N 
ATOM      5  H2  UNL     1      39.967  21.646  38.479  1.00  0.00     0.171 HD
HETATM    6  C2  UNL     1      41.216  21.392  37.105  1.00  0.00     0.121 C 
HETATM    7  C3  UNL     1      42.141  21.567  36.008  1.00  0.00     0.254 C 
HETATM    8  N6  UNL     1      41.514  20.903  34.845  1.00  0.00    -0.056 N 
ATOM      9  H61 UNL     1      41.994  21.127  33.972  1.00  0.00     0.278 HD
ATOM     10  H62 UNL     1      40.603  21.303  34.620  1.00  0.00     0.278 HD
HETATM   11  C8  UNL     1      41.439  19.473  35.071  1.00  0.00     0.336 C 
HETATM   12  C9  UNL     1      41.495  19.065  36.471  1.00  0.00     0.251 C 
HETATM   13  O2  UNL     1      41.906  17.929  36.786  1.00  0.00    -0.271 OA
HETATM   14  N7  UNL     1      41.077  19.979  37.471  1.00  0.00    -0.304 N 
ENDROOT
BRANCH  14  15
HETATM   15  C10 UNL     1      40.528  19.586  38.762  1.00  0.00     0.133 C 
BRANCH  15  16
HETATM   16  C11 UNL     1      39.089  19.289  38.693  1.00  0.00     0.020 C 
BRANCH  16  17
HETATM   17  C12 UNL     1      38.472  18.205  39.423  1.00  0.00     0.002 C 
BRANCH  17  18
HETATM   18  C13 UNL     1      37.361  17.425  38.837  1.00  0.00     0.000 C 
BRANCH  18  19
HETATM   19  C14 UNL     1      36.044  18.068  38.840  1.00  0.00     0.005 C 
BRANCH  19  20
HETATM   20  C15 UNL     1      35.647  18.623  40.195  1.00  0.00     0.040 C 
BRANCH  20  21
HETATM   21  C16 UNL     1      34.675  17.810  40.935  1.00  0.00    -0.035 A 
HETATM   22  C17 UNL     1      35.119  16.830  41.842  1.00  0.00     0.011 A 
HETATM   23  C18 UNL     1      34.262  15.988  42.489  1.00  0.00     0.026 A 
HETATM   24  C19 UNL     1      32.895  16.044  42.293  1.00  0.00     0.057 A 
HETATM   25 CL1  UNL     1      31.813  14.951  43.126  1.00  0.00    -0.082 Cl
HETATM   26  C20 UNL     1      32.434  16.995  41.412  1.00  0.00     0.078 A 
HETATM   27 CL2  UNL     1      30.703  17.090  41.149  1.00  0.00    -0.081 Cl
HETATM   28  C21 UNL     1      33.322  17.860  40.750  1.00  0.00     0.063 A 
HETATM   29 CL3  UNL     1      32.608  19.105  39.737  1.00  0.00    -0.082 Cl
ENDBRANCH  20  21
ENDBRANCH  19  20
ENDBRANCH  18  19
ENDBRANCH  17  18
ENDBRANCH  16  17
ENDBRANCH  15  16
ENDBRANCH  14  15
BRANCH   7  30
HETATM   30  C4  UNL     1      42.672  22.848  35.594  1.00  0.00     0.042 C 
BRANCH  30  31
HETATM   31  C5  UNL     1      44.101  23.049  35.325  1.00  0.00     0.022 C 
BRANCH  31  32
HETATM   32  C6  UNL     1      44.614  22.275  34.120  1.00  0.00     0.122 C 
BRANCH  32  33
HETATM   33  N3  UNL     1      46.006  21.905  34.281  1.00  0.00    -0.367 N 
HETATM   34  C7  UNL     1      46.331  20.739  34.752  1.00  0.00     0.196 C 
HETATM   35  N4  UNL     1      47.690  20.353  34.920  1.00  0.00    -0.067 NA
HETATM   36  N5  UNL     1      45.332  19.789  35.126  1.00  0.00    -0.067 NA
ATOM     37  H3  UNL     1      46.738  22.566  34.022  1.00  0.00     0.161 HD
ENDBRANCH  32  33
ENDBRANCH  31  32
ENDBRANCH  30  31
ENDBRANCH   7  30
TORSDOF 11
ENDMDL
