MODEL 1
REMARK VINA RESULT: -4.662266900      0.000      0.000
REMARK  3 active torsions:
REMARK  status: ('A' for Active; 'I' for Inactive)
REMARK    1  A    between atoms: C4_5  and  N2_6 
REMARK    2  A    between atoms: N2_6  and  N3_8 
REMARK    3  A    between atoms: N3_8  and  N4_9 
ROOT
HETATM    1  N2  UNL     1      10.870  33.327  26.857  1.00  0.00    -0.219 N 
ATOM      2  H2  UNL     1      10.930  32.818  27.739  1.00  0.00     0.199 HD
ENDROOT
BRANCH   1   3
HETATM    3  C4  UNL     1      11.197  32.687  25.605  1.00  0.00     0.342 A 
HETATM    4  N1  UNL     1      11.488  31.292  25.548  1.00  0.00    -0.046 N 
HETATM    5  C1  UNL     1      12.578  30.911  24.675  1.00  0.00     0.274 C 
HETATM    6  C2  UNL     1      11.280  30.420  26.660  1.00  0.00     0.274 C 
HETATM    7  C3  UNL     1      10.246  31.767  24.934  1.00  0.00     0.296 A 
ENDBRANCH   1   3
BRANCH   1   8
HETATM    8  N3  UNL     1      10.482  34.622  26.825  1.00  0.00    -0.246 NA
BRANCH   8   9
HETATM    9  N4  UNL     1      10.149  35.698  26.816  1.00  0.00    -0.261 N 
ATOM     10  H42 UNL     1       9.962  34.839  26.299  1.00  0.00     0.193 HD
ATOM     11  H41 UNL     1       9.859  36.676  26.821  1.00  0.00     0.193 HD
ENDBRANCH   8   9
ENDBRANCH   1   8
TORSDOF 3
ENDMDL
MODEL 2
REMARK VINA RESULT: -4.567061254      0.764      1.475
REMARK  3 active torsions:
REMARK  status: ('A' for Active; 'I' for Inactive)
REMARK    1  A    between atoms: C4_5  and  N2_6 
REMARK    2  A    between atoms: N2_6  and  N3_8 
REMARK    3  A    between atoms: N3_8  and  N4_9 
ROOT
HETATM    1  N2  UNL     1      11.148  33.310  26.537  1.00  0.00    -0.219 N 
ATOM      2  H2  UNL     1      12.128  33.150  26.772  1.00  0.00     0.199 HD
ENDROOT
BRANCH   1   3
HETATM    3  C4  UNL     1      10.318  32.238  26.042  1.00  0.00     0.342 A 
HETATM    4  N1  UNL     1      10.839  31.262  25.141  1.00  0.00    -0.046 N 
HETATM    5  C1  UNL     1       9.955  30.863  24.066  1.00  0.00     0.274 C 
HETATM    6  C2  UNL     1      12.230  31.165  24.838  1.00  0.00     0.274 C 
HETATM    7  C3  UNL     1      10.503  30.840  26.503  1.00  0.00     0.296 A 
ENDBRANCH   1   3
BRANCH   1   8
HETATM    8  N3  UNL     1      10.588  34.533  26.678  1.00  0.00    -0.246 NA
BRANCH   8   9
HETATM    9  N4  UNL     1      10.140  35.559  26.799  1.00  0.00    -0.261 N 
ATOM     10  H42 UNL     1       9.917  34.680  26.331  1.00  0.00     0.193 HD
ATOM     11  H41 UNL     1       9.748  36.493  26.917  1.00  0.00     0.193 HD
ENDBRANCH   8   9
ENDBRANCH   1   8
TORSDOF 3
ENDMDL
MODEL 3
REMARK VINA RESULT: -4.505217525      2.913      3.598
REMARK  3 active torsions:
REMARK  status: ('A' for Active; 'I' for Inactive)
REMARK    1  A    between atoms: C4_5  and  N2_6 
REMARK    2  A    between atoms: N2_6  and  N3_8 
REMARK    3  A    between atoms: N3_8  and  N4_9 
ROOT
HETATM    1  N2  UNL     1       8.011  30.382  26.161  1.00  0.00    -0.219 N 
ATOM      2  H2  UNL     1       8.167  29.416  25.871  1.00  0.00     0.199 HD
ENDROOT
BRANCH   1   3
HETATM    3  C4  UNL     1       8.693  31.474  25.508  1.00  0.00     0.342 A 
HETATM    4  N1  UNL     1      10.091  31.684  25.697  1.00  0.00    -0.046 N 
HETATM    5  C1  UNL     1      10.506  33.063  25.842  1.00  0.00     0.274 C 
HETATM    6  C2  UNL     1      10.925  30.736  26.363  1.00  0.00     0.274 C 
HETATM    7  C3  UNL     1       9.628  31.238  24.380  1.00  0.00     0.296 A 
ENDBRANCH   1   3
BRANCH   1   8
HETATM    8  N3  UNL     1       7.160  30.677  27.170  1.00  0.00    -0.246 NA
BRANCH   8   9
HETATM    9  N4  UNL     1       6.439  30.910  28.003  1.00  0.00    -0.261 N 
ATOM     10  H42 UNL     1       6.435  30.425  27.105  1.00  0.00     0.193 HD
ATOM     11  H41 UNL     1       5.798  31.129  28.765  1.00  0.00     0.193 HD
ENDBRANCH   8   9
ENDBRANCH   1   8
TORSDOF 3
ENDMDL
MODEL 4
REMARK VINA RESULT: -4.498425067      3.042      3.625
REMARK  3 active torsions:
REMARK  status: ('A' for Active; 'I' for Inactive)
REMARK    1  A    between atoms: C4_5  and  N2_6 
REMARK    2  A    between atoms: N2_6  and  N3_8 
REMARK    3  A    between atoms: N3_8  and  N4_9 
ROOT
HETATM    1  N2  UNL     1       7.945  30.458  26.166  1.00  0.00    -0.219 N 
ATOM      2  H2  UNL     1       7.869  29.603  25.615  1.00  0.00     0.199 HD
ENDROOT
BRANCH   1   3
HETATM    3  C4  UNL     1       8.918  31.472  25.836  1.00  0.00     0.342 A 
HETATM    4  N1  UNL     1       9.987  31.198  24.932  1.00  0.00    -0.046 N 
HETATM    5  C1  UNL     1      11.275  31.749  25.294  1.00  0.00     0.274 C 
HETATM    6  C2  UNL     1      10.046  30.000  24.158  1.00  0.00     0.274 C 
HETATM    7  C3  UNL     1       8.936  32.124  24.503  1.00  0.00     0.296 A 
ENDBRANCH   1   3
BRANCH   1   8
HETATM    8  N3  UNL     1       7.137  30.675  27.229  1.00  0.00    -0.246 NA
BRANCH   8   9
HETATM    9  N4  UNL     1       6.449  30.853  28.102  1.00  0.00    -0.261 N 
ATOM     10  H42 UNL     1       7.196  30.210  27.840  1.00  0.00     0.193 HD
ATOM     11  H41 UNL     1       5.818  31.027  28.884  1.00  0.00     0.193 HD
ENDBRANCH   8   9
ENDBRANCH   1   8
TORSDOF 3
ENDMDL
MODEL 5
REMARK VINA RESULT: -4.439462427      3.299      3.889
REMARK  3 active torsions:
REMARK  status: ('A' for Active; 'I' for Inactive)
REMARK    1  A    between atoms: C4_5  and  N2_6 
REMARK    2  A    between atoms: N2_6  and  N3_8 
REMARK    3  A    between atoms: N3_8  and  N4_9 
ROOT
HETATM    1  N2  UNL     1       7.461  31.314  26.036  1.00  0.00    -0.219 N 
ATOM      2  H2  UNL     1       7.516  30.553  25.359  1.00  0.00     0.199 HD
ENDROOT
BRANCH   1   3
HETATM    3  C4  UNL     1       8.268  32.501  25.887  1.00  0.00     0.342 A 
HETATM    4  N1  UNL     1       9.487  32.473  25.148  1.00  0.00    -0.046 N 
HETATM    5  C1  UNL     1      10.586  33.224  25.718  1.00  0.00     0.274 C 
HETATM    6  C2  UNL     1       9.878  31.350  24.358  1.00  0.00     0.274 C 
HETATM    7  C3  UNL     1       8.357  33.220  24.592  1.00  0.00     0.296 A 
ENDBRANCH   1   3
BRANCH   1   8
HETATM    8  N3  UNL     1       6.630  31.240  27.100  1.00  0.00    -0.246 NA
BRANCH   8   9
HETATM    9  N4  UNL     1       5.940  31.158  27.986  1.00  0.00    -0.261 N 
ATOM     10  H42 UNL     1       6.283  30.564  27.231  1.00  0.00     0.193 HD
ATOM     11  H41 UNL     1       5.317  31.102  28.792  1.00  0.00     0.193 HD
ENDBRANCH   8   9
ENDBRANCH   1   8
TORSDOF 3
ENDMDL
