MODEL 1
REMARK VINA RESULT: -8.436312832      0.000      0.000
REMARK  12 active torsions:
REMARK  status: ('A' for Active; 'I' for Inactive)
REMARK    1  A    between atoms: C2_2  and  C3_3 
REMARK    2  A    between atoms: C3_3  and  C4_4 
REMARK    3  A    between atoms: C4_4  and  C5_5 
REMARK    4  A    between atoms: C5_5  and  N1_6 
REMARK    5  A    between atoms: C6_8  and  O1_9 
REMARK    6  A    between atoms: C6_8  and  C7_11 
REMARK    7  A    between atoms: C11_15  and  N2_16 
REMARK       I    between atoms: N2_16  and  C12_18 
REMARK       I    between atoms: C12_18  and  N3_20 
REMARK    8  A    between atoms: N3_20  and  C13_22 
REMARK    9  A    between atoms: C13_22  and  C14_23 
REMARK   10  A    between atoms: C13_22  and  C17_27 
REMARK   11  A    between atoms: C14_23  and  C15_24 
REMARK   12  A    between atoms: C15_24  and  S1_25 
ROOT
HETATM    1  C7  UNL     1      -3.115  36.006  69.879  1.00  0.00     0.028 C 
HETATM    2  C8  UNL     1      -3.442  37.116  68.896  1.00  0.00     0.023 C 
HETATM    3  C9  UNL     1      -2.048  37.328  68.299  1.00  0.00     0.001 C 
HETATM    4  C10 UNL     1      -1.838  36.182  67.356  1.00  0.00     0.036 C 
HETATM    5  C11 UNL     1      -1.889  34.822  67.993  1.00  0.00     0.042 C 
HETATM    6  C18 UNL     1      -0.540  34.305  68.407  1.00  0.00     0.118 C 
HETATM    7  C19 UNL     1       0.510  35.300  68.698  1.00  0.00     0.305 C 
HETATM    8  F1  UNL     1       1.301  34.781  69.744  1.00  0.00    -0.198 F 
HETATM    9  F2  UNL     1       1.454  35.399  67.657  1.00  0.00    -0.198 F 
HETATM   10  C20 UNL     1       0.086  36.620  69.164  1.00  0.00     0.202 C 
HETATM   11  O5  UNL     1       1.070  37.372  69.303  1.00  0.00    -0.291 OA
HETATM   12  C21 UNL     1      -1.172  37.287  69.503  1.00  0.00     0.067 C 
HETATM   13  C22 UNL     1      -1.935  36.603  70.614  1.00  0.00     0.030 C 
HETATM   14  C23 UNL     1      -2.804  34.738  69.185  1.00  0.00     0.049 C 
ENDROOT
BRANCH   5  15
HETATM   15  N2  UNL     1      -2.431  33.928  66.991  1.00  0.00    -0.334 N 
HETATM   16  C12 UNL     1      -1.857  33.639  65.732  1.00  0.00     0.317 C 
HETATM   17  O2  UNL     1      -0.780  34.190  65.419  1.00  0.00    -0.247 OA
HETATM   18  N3  UNL     1      -2.465  32.739  64.806  1.00  0.00    -0.329 N 
ATOM     19  H3  UNL     1      -3.346  32.289  65.054  1.00  0.00     0.165 HD
ATOM     20  H2  UNL     1      -3.312  33.463  67.215  1.00  0.00     0.165 HD
BRANCH  18  21
HETATM   21  C13 UNL     1      -1.867  32.453  63.539  1.00  0.00     0.188 C 
BRANCH  21  22
HETATM   22  C14 UNL     1      -1.702  30.970  63.290  1.00  0.00     0.046 C 
BRANCH  22  23
HETATM   23  C15 UNL     1      -2.507  30.142  64.267  1.00  0.00     0.076 C 
BRANCH  23  24
HETATM   24  S1  UNL     1      -1.485  29.344  65.502  1.00  0.00    -0.173 SA
HETATM   25  C16 UNL     1      -0.435  28.116  64.683  1.00  0.00     0.089 C 
ENDBRANCH  23  24
ENDBRANCH  22  23
ENDBRANCH  21  22
BRANCH  21  26
HETATM   26  C17 UNL     1      -2.719  32.983  62.438  1.00  0.00     0.196 C 
HETATM   27  O3  UNL     1      -3.968  32.963  62.563  1.00  0.00    -0.646 OA
HETATM   28  O4  UNL     1      -2.196  33.507  61.265  1.00  0.00    -0.646 OA
ENDBRANCH  21  26
ENDBRANCH  18  21
ENDBRANCH   5  15
BRANCH   1  29
HETATM   29  C6  UNL     1      -4.278  35.805  70.755  1.00  0.00     0.120 C 
HETATM   30  N1  UNL     1      -4.148  35.512  71.997  1.00  0.00    -0.374 N 
ATOM     31  H1  UNL     1      -3.201  35.421  72.366  1.00  0.00     0.161 HD
BRANCH  30  32
HETATM   32  C5  UNL     1      -5.258  35.301  72.920  1.00  0.00     0.121 C 
BRANCH  32  33
HETATM   33  C4  UNL     1      -4.864  34.495  74.099  1.00  0.00     0.020 C 
BRANCH  33  34
HETATM   34  C3  UNL     1      -5.852  34.295  75.170  1.00  0.00     0.001 C 
BRANCH  34  35
HETATM   35  C2  UNL     1      -7.275  34.608  74.936  1.00  0.00    -0.004 C 
HETATM   36  C1  UNL     1      -8.298  33.932  75.763  1.00  0.00     0.005 C 
ENDBRANCH  34  35
ENDBRANCH  33  34
ENDBRANCH  32  33
ENDBRANCH  30  32
BRANCH  29  37
HETATM   37  O1  UNL     1      -5.552  35.934  70.239  1.00  0.00    -0.349 OA
ATOM     38  H1  UNL     1      -5.649  36.091  69.307  1.00  0.00     0.219 HD
ENDBRANCH  29  37
ENDBRANCH   1  29
TORSDOF 12
ENDMDL
MODEL 2
REMARK VINA RESULT: -8.434413195      5.217      9.597
REMARK  12 active torsions:
REMARK  status: ('A' for Active; 'I' for Inactive)
REMARK    1  A    between atoms: C2_2  and  C3_3 
REMARK    2  A    between atoms: C3_3  and  C4_4 
REMARK    3  A    between atoms: C4_4  and  C5_5 
REMARK    4  A    between atoms: C5_5  and  N1_6 
REMARK    5  A    between atoms: C6_8  and  O1_9 
REMARK    6  A    between atoms: C6_8  and  C7_11 
REMARK    7  A    between atoms: C11_15  and  N2_16 
REMARK       I    between atoms: N2_16  and  C12_18 
REMARK       I    between atoms: C12_18  and  N3_20 
REMARK    8  A    between atoms: N3_20  and  C13_22 
REMARK    9  A    between atoms: C13_22  and  C14_23 
REMARK   10  A    between atoms: C13_22  and  C17_27 
REMARK   11  A    between atoms: C14_23  and  C15_24 
REMARK   12  A    between atoms: C15_24  and  S1_25 
ROOT
HETATM    1  C7  UNL     1      -1.965  33.249  62.310  1.00  0.00     0.028 C 
HETATM    2  C8  UNL     1      -1.945  31.908  63.020  1.00  0.00     0.023 C 
HETATM    3  C9  UNL     1      -0.998  32.258  64.171  1.00  0.00     0.001 C 
HETATM    4  C10 UNL     1      -1.819  33.064  65.133  1.00  0.00     0.036 C 
HETATM    5  C11 UNL     1      -2.385  34.336  64.569  1.00  0.00     0.042 C 
HETATM    6  C18 UNL     1      -1.515  35.537  64.811  1.00  0.00     0.118 C 
HETATM    7  C19 UNL     1      -0.070  35.304  64.997  1.00  0.00     0.305 C 
HETATM    8  F1  UNL     1       0.609  36.399  64.424  1.00  0.00    -0.198 F 
HETATM    9  F2  UNL     1       0.317  35.410  66.347  1.00  0.00    -0.198 F 
HETATM   10  C20 UNL     1       0.516  34.123  64.363  1.00  0.00     0.202 C 
HETATM   11  O5  UNL     1       1.721  34.019  64.662  1.00  0.00    -0.291 OA
HETATM   12  C21 UNL     1       0.068  33.040  63.485  1.00  0.00     0.067 C 
HETATM   13  C22 UNL     1      -0.485  33.527  62.165  1.00  0.00     0.030 C 
HETATM   14  C23 UNL     1      -2.688  34.271  63.096  1.00  0.00     0.049 C 
ENDROOT
BRANCH   5  15
HETATM   15  N2  UNL     1      -3.650  34.547  65.242  1.00  0.00    -0.334 N 
HETATM   16  C12 UNL     1      -4.884  33.944  64.908  1.00  0.00     0.317 C 
HETATM   17  O2  UNL     1      -4.927  33.149  63.945  1.00  0.00    -0.247 OA
HETATM   18  N3  UNL     1      -6.084  34.212  65.633  1.00  0.00    -0.329 N 
ATOM     19  H3  UNL     1      -6.057  34.863  66.417  1.00  0.00     0.165 HD
ATOM     20  H2  UNL     1      -3.650  35.192  66.033  1.00  0.00     0.165 HD
BRANCH  18  21
HETATM   21  C13 UNL     1      -7.322  33.589  65.285  1.00  0.00     0.188 C 
BRANCH  21  22
HETATM   22  C14 UNL     1      -8.354  33.678  66.388  1.00  0.00     0.046 C 
BRANCH  22  23
HETATM   23  C15 UNL     1      -9.744  33.352  65.886  1.00  0.00     0.076 C 
BRANCH  23  24
HETATM   24  S1  UNL     1     -11.025  33.823  67.046  1.00  0.00    -0.173 SA
HETATM   25  C16 UNL     1     -12.639  33.428  66.321  1.00  0.00     0.089 C 
ENDBRANCH  23  24
ENDBRANCH  22  23
ENDBRANCH  21  22
BRANCH  21  26
HETATM   26  C17 UNL     1      -7.912  34.250  64.088  1.00  0.00     0.196 C 
HETATM   27  O3  UNL     1      -8.305  35.439  64.174  1.00  0.00    -0.646 OA
HETATM   28  O4  UNL     1      -8.051  33.612  62.865  1.00  0.00    -0.646 OA
ENDBRANCH  21  26
ENDBRANCH  18  21
ENDBRANCH   5  15
BRANCH   1  29
HETATM   29  C6  UNL     1      -2.632  33.076  61.012  1.00  0.00     0.120 C 
HETATM   30  N1  UNL     1      -2.055  33.381  59.907  1.00  0.00    -0.374 N 
ATOM     31  H1  UNL     1      -1.106  33.753  59.955  1.00  0.00     0.161 HD
BRANCH  30  32
HETATM   32  C5  UNL     1      -2.660  33.234  58.588  1.00  0.00     0.121 C 
BRANCH  32  33
HETATM   33  C4  UNL     1      -2.219  34.289  57.646  1.00  0.00     0.020 C 
BRANCH  33  34
HETATM   34  C3  UNL     1      -2.872  34.368  56.330  1.00  0.00     0.001 C 
BRANCH  34  35
HETATM   35  C2  UNL     1      -4.171  33.707  56.104  1.00  0.00    -0.004 C 
HETATM   36  C1  UNL     1      -4.993  34.128  54.949  1.00  0.00     0.005 C 
ENDBRANCH  34  35
ENDBRANCH  33  34
ENDBRANCH  32  33
ENDBRANCH  30  32
BRANCH  29  37
HETATM   37  O1  UNL     1      -3.916  32.570  60.966  1.00  0.00    -0.349 OA
ATOM     38  H1  UNL     1      -4.640  33.156  61.153  1.00  0.00     0.219 HD
ENDBRANCH  29  37
ENDBRANCH   1  29
TORSDOF 12
ENDMDL
MODEL 3
REMARK VINA RESULT: -8.431392577      3.577      9.798
REMARK  12 active torsions:
REMARK  status: ('A' for Active; 'I' for Inactive)
REMARK    1  A    between atoms: C2_2  and  C3_3 
REMARK    2  A    between atoms: C3_3  and  C4_4 
REMARK    3  A    between atoms: C4_4  and  C5_5 
REMARK    4  A    between atoms: C5_5  and  N1_6 
REMARK    5  A    between atoms: C6_8  and  O1_9 
REMARK    6  A    between atoms: C6_8  and  C7_11 
REMARK    7  A    between atoms: C11_15  and  N2_16 
REMARK       I    between atoms: N2_16  and  C12_18 
REMARK       I    between atoms: C12_18  and  N3_20 
REMARK    8  A    between atoms: N3_20  and  C13_22 
REMARK    9  A    between atoms: C13_22  and  C14_23 
REMARK   10  A    between atoms: C13_22  and  C17_27 
REMARK   11  A    between atoms: C14_23  and  C15_24 
REMARK   12  A    between atoms: C15_24  and  S1_25 
ROOT
HETATM    1  C7  UNL     1      -1.338  32.872  62.309  1.00  0.00     0.028 C 
HETATM    2  C8  UNL     1      -1.767  31.703  63.178  1.00  0.00     0.023 C 
HETATM    3  C9  UNL     1      -0.522  31.592  64.064  1.00  0.00     0.001 C 
HETATM    4  C10 UNL     1      -0.630  32.717  65.048  1.00  0.00     0.036 C 
HETATM    5  C11 UNL     1      -0.668  34.090  64.437  1.00  0.00     0.042 C 
HETATM    6  C18 UNL     1       0.684  34.738  64.339  1.00  0.00     0.118 C 
HETATM    7  C19 UNL     1       1.861  33.850  64.270  1.00  0.00     0.305 C 
HETATM    8  F1  UNL     1       2.808  34.473  63.431  1.00  0.00    -0.198 F 
HETATM    9  F2  UNL     1       2.560  33.796  65.492  1.00  0.00    -0.198 F 
HETATM   10  C20 UNL     1       1.674  32.514  63.701  1.00  0.00     0.202 C 
HETATM   11  O5  UNL     1       2.730  31.857  63.770  1.00  0.00    -0.291 OA
HETATM   12  C21 UNL     1       0.587  31.753  63.083  1.00  0.00     0.067 C 
HETATM   13  C22 UNL     1       0.024  32.407  61.843  1.00  0.00     0.030 C 
HETATM   14  C23 UNL     1      -1.305  34.136  63.074  1.00  0.00     0.049 C 
ENDROOT
BRANCH   5  15
HETATM   15  N2  UNL     1      -1.496  34.896  65.309  1.00  0.00    -0.334 N 
HETATM   16  C12 UNL     1      -1.358  35.021  66.711  1.00  0.00     0.317 C 
HETATM   17  O2  UNL     1      -0.447  34.389  67.287  1.00  0.00    -0.247 OA
HETATM   18  N3  UNL     1      -2.224  35.845  67.492  1.00  0.00    -0.329 N 
ATOM     19  H3  UNL     1      -2.972  36.360  67.029  1.00  0.00     0.165 HD
ATOM     20  H2  UNL     1      -2.251  35.424  64.871  1.00  0.00     0.165 HD
BRANCH  18  21
HETATM   21  C13 UNL     1      -2.066  35.964  68.907  1.00  0.00     0.188 C 
BRANCH  21  22
HETATM   22  C14 UNL     1      -2.297  37.373  69.406  1.00  0.00     0.046 C 
BRANCH  22  23
HETATM   23  C15 UNL     1      -1.095  37.910  70.152  1.00  0.00     0.076 C 
BRANCH  23  24
HETATM   24  S1  UNL     1       0.377  36.922  69.891  1.00  0.00    -0.173 SA
HETATM   25  C16 UNL     1       1.071  36.476  71.504  1.00  0.00     0.089 C 
ENDBRANCH  23  24
ENDBRANCH  22  23
ENDBRANCH  21  22
BRANCH  21  26
HETATM   26  C17 UNL     1      -3.049  35.092  69.609  1.00  0.00     0.196 C 
HETATM   27  O3  UNL     1      -2.637  34.262  70.457  1.00  0.00    -0.646 OA
HETATM   28  O4  UNL     1      -4.413  35.150  69.373  1.00  0.00    -0.646 OA
ENDBRANCH  21  26
ENDBRANCH  18  21
ENDBRANCH   5  15
BRANCH   1  29
HETATM   29  C6  UNL     1      -2.296  33.001  61.202  1.00  0.00     0.120 C 
HETATM   30  N1  UNL     1      -1.914  33.230  59.999  1.00  0.00    -0.374 N 
ATOM     31  H1  UNL     1      -0.912  33.321  59.829  1.00  0.00     0.161 HD
BRANCH  30  32
HETATM   32  C5  UNL     1      -2.811  33.369  58.857  1.00  0.00     0.121 C 
BRANCH  32  33
HETATM   33  C4  UNL     1      -2.233  34.216  57.788  1.00  0.00     0.020 C 
BRANCH  33  34
HETATM   34  C3  UNL     1      -2.848  34.172  56.452  1.00  0.00     0.001 C 
BRANCH  34  35
HETATM   35  C2  UNL     1      -4.212  33.637  56.279  1.00  0.00    -0.004 C 
HETATM   36  C1  UNL     1      -4.985  34.030  55.082  1.00  0.00     0.005 C 
ENDBRANCH  34  35
ENDBRANCH  33  34
ENDBRANCH  32  33
ENDBRANCH  30  32
BRANCH  29  37
HETATM   37  O1  UNL     1      -3.648  32.874  61.451  1.00  0.00    -0.349 OA
ATOM     38  H1  UNL     1      -3.997  32.007  61.626  1.00  0.00     0.219 HD
ENDBRANCH  29  37
ENDBRANCH   1  29
TORSDOF 12
ENDMDL
MODEL 4
REMARK VINA RESULT: -8.413509940      3.751      9.938
REMARK  12 active torsions:
REMARK  status: ('A' for Active; 'I' for Inactive)
REMARK    1  A    between atoms: C2_2  and  C3_3 
REMARK    2  A    between atoms: C3_3  and  C4_4 
REMARK    3  A    between atoms: C4_4  and  C5_5 
REMARK    4  A    between atoms: C5_5  and  N1_6 
REMARK    5  A    between atoms: C6_8  and  O1_9 
REMARK    6  A    between atoms: C6_8  and  C7_11 
REMARK    7  A    between atoms: C11_15  and  N2_16 
REMARK       I    between atoms: N2_16  and  C12_18 
REMARK       I    between atoms: C12_18  and  N3_20 
REMARK    8  A    between atoms: N3_20  and  C13_22 
REMARK    9  A    between atoms: C13_22  and  C14_23 
REMARK   10  A    between atoms: C13_22  and  C17_27 
REMARK   11  A    between atoms: C14_23  and  C15_24 
REMARK   12  A    between atoms: C15_24  and  S1_25 
ROOT
HETATM    1  C7  UNL     1      -1.362  32.889  62.274  1.00  0.00     0.028 C 
HETATM    2  C8  UNL     1      -1.780  31.708  63.130  1.00  0.00     0.023 C 
HETATM    3  C9  UNL     1      -0.546  31.613  64.032  1.00  0.00     0.001 C 
HETATM    4  C10 UNL     1      -0.688  32.731  65.021  1.00  0.00     0.036 C 
HETATM    5  C11 UNL     1      -0.742  34.106  64.418  1.00  0.00     0.042 C 
HETATM    6  C18 UNL     1       0.599  34.779  64.342  1.00  0.00     0.118 C 
HETATM    7  C19 UNL     1       1.793  33.913  64.283  1.00  0.00     0.305 C 
HETATM    8  F1  UNL     1       2.740  34.559  63.462  1.00  0.00    -0.198 F 
HETATM    9  F2  UNL     1       2.477  33.864  65.514  1.00  0.00    -0.198 F 
HETATM   10  C20 UNL     1       1.638  32.578  63.704  1.00  0.00     0.202 C 
HETATM   11  O5  UNL     1       2.705  31.940  63.783  1.00  0.00    -0.291 OA
HETATM   12  C21 UNL     1       0.573  31.801  63.066  1.00  0.00     0.067 C 
HETATM   13  C22 UNL     1       0.015  32.453  61.823  1.00  0.00     0.030 C 
HETATM   14  C23 UNL     1      -1.362  34.150  63.047  1.00  0.00     0.049 C 
ENDROOT
BRANCH   5  15
HETATM   15  N2  UNL     1      -1.597  34.892  65.284  1.00  0.00    -0.334 N 
HETATM   16  C12 UNL     1      -1.437  35.067  66.678  1.00  0.00     0.317 C 
HETATM   17  O2  UNL     1      -0.481  34.504  67.252  1.00  0.00    -0.247 OA
HETATM   18  N3  UNL     1      -2.332  35.865  67.453  1.00  0.00    -0.329 N 
ATOM     19  H3  UNL     1      -3.118  36.323  66.991  1.00  0.00     0.165 HD
ATOM     20  H2  UNL     1      -2.389  35.363  64.846  1.00  0.00     0.165 HD
BRANCH  18  21
HETATM   21  C13 UNL     1      -2.153  36.036  68.860  1.00  0.00     0.188 C 
BRANCH  21  22
HETATM   22  C14 UNL     1      -2.475  37.439  69.326  1.00  0.00     0.046 C 
BRANCH  22  23
HETATM   23  C15 UNL     1      -2.612  38.399  68.165  1.00  0.00     0.076 C 
BRANCH  23  24
HETATM   24  S1  UNL     1      -1.359  39.679  68.176  1.00  0.00    -0.173 SA
HETATM   25  C16 UNL     1      -2.146  41.267  67.797  1.00  0.00     0.089 C 
ENDBRANCH  23  24
ENDBRANCH  22  23
ENDBRANCH  21  22
BRANCH  21  26
HETATM   26  C17 UNL     1      -3.054  35.116  69.609  1.00  0.00     0.196 C 
HETATM   27  O3  UNL     1      -2.570  34.100  70.165  1.00  0.00    -0.646 OA
HETATM   28  O4  UNL     1      -4.419  35.326  69.727  1.00  0.00    -0.646 OA
ENDBRANCH  21  26
ENDBRANCH  18  21
ENDBRANCH   5  15
BRANCH   1  29
HETATM   29  C6  UNL     1      -2.307  33.009  61.155  1.00  0.00     0.120 C 
HETATM   30  N1  UNL     1      -1.911  33.231  59.955  1.00  0.00    -0.374 N 
ATOM     31  H1  UNL     1      -0.908  33.324  59.796  1.00  0.00     0.161 HD
BRANCH  30  32
HETATM   32  C5  UNL     1      -2.795  33.359  58.801  1.00  0.00     0.121 C 
BRANCH  32  33
HETATM   33  C4  UNL     1      -2.240  34.261  57.765  1.00  0.00     0.020 C 
BRANCH  33  34
HETATM   34  C3  UNL     1      -2.863  34.260  56.433  1.00  0.00     0.001 C 
BRANCH  34  35
HETATM   35  C2  UNL     1      -4.205  33.680  56.239  1.00  0.00    -0.004 C 
HETATM   36  C1  UNL     1      -4.995  34.089  55.059  1.00  0.00     0.005 C 
ENDBRANCH  34  35
ENDBRANCH  33  34
ENDBRANCH  32  33
ENDBRANCH  30  32
BRANCH  29  37
HETATM   37  O1  UNL     1      -3.661  32.878  61.388  1.00  0.00    -0.349 OA
ATOM     38  H1  UNL     1      -4.065  33.441  62.039  1.00  0.00     0.219 HD
ENDBRANCH  29  37
ENDBRANCH   1  29
TORSDOF 12
ENDMDL
MODEL 5
REMARK VINA RESULT: -8.361107753      1.544      1.873
REMARK  12 active torsions:
REMARK  status: ('A' for Active; 'I' for Inactive)
REMARK    1  A    between atoms: C2_2  and  C3_3 
REMARK    2  A    between atoms: C3_3  and  C4_4 
REMARK    3  A    between atoms: C4_4  and  C5_5 
REMARK    4  A    between atoms: C5_5  and  N1_6 
REMARK    5  A    between atoms: C6_8  and  O1_9 
REMARK    6  A    between atoms: C6_8  and  C7_11 
REMARK    7  A    between atoms: C11_15  and  N2_16 
REMARK       I    between atoms: N2_16  and  C12_18 
REMARK       I    between atoms: C12_18  and  N3_20 
REMARK    8  A    between atoms: N3_20  and  C13_22 
REMARK    9  A    between atoms: C13_22  and  C14_23 
REMARK   10  A    between atoms: C13_22  and  C17_27 
REMARK   11  A    between atoms: C14_23  and  C15_24 
REMARK   12  A    between atoms: C15_24  and  S1_25 
ROOT
HETATM    1  C7  UNL     1      -2.901  36.214  69.932  1.00  0.00     0.028 C 
HETATM    2  C8  UNL     1      -3.293  37.324  68.974  1.00  0.00     0.023 C 
HETATM    3  C9  UNL     1      -1.897  37.736  68.497  1.00  0.00     0.001 C 
HETATM    4  C10 UNL     1      -1.476  36.674  67.526  1.00  0.00     0.036 C 
HETATM    5  C11 UNL     1      -1.401  35.287  68.101  1.00  0.00     0.042 C 
HETATM    6  C18 UNL     1      -0.032  34.918  68.597  1.00  0.00     0.118 C 
HETATM    7  C19 UNL     1       0.861  36.018  69.012  1.00  0.00     0.305 C 
HETATM    8  F1  UNL     1       1.632  35.547  70.094  1.00  0.00    -0.198 F 
HETATM    9  F2  UNL     1       1.857  36.285  68.052  1.00  0.00    -0.198 F 
HETATM   10  C20 UNL     1       0.241  37.251  69.497  1.00  0.00     0.202 C 
HETATM   11  O5  UNL     1       1.110  38.110  69.744  1.00  0.00    -0.291 OA
HETATM   12  C21 UNL     1      -1.113  37.741  69.764  1.00  0.00     0.067 C 
HETATM   13  C22 UNL     1      -1.862  36.913  70.782  1.00  0.00     0.030 C 
HETATM   14  C23 UNL     1      -2.383  35.031  69.213  1.00  0.00     0.049 C 
ENDROOT
BRANCH   5  15
HETATM   15  N2  UNL     1      -1.753  34.386  67.023  1.00  0.00    -0.334 N 
HETATM   16  C12 UNL     1      -1.110  34.297  65.767  1.00  0.00     0.317 C 
HETATM   17  O2  UNL     1      -0.144  35.053  65.527  1.00  0.00    -0.247 OA
HETATM   18  N3  UNL     1      -1.526  33.372  64.762  1.00  0.00    -0.329 N 
ATOM     19  H3  UNL     1      -2.316  32.756  64.949  1.00  0.00     0.165 HD
ATOM     20  H2  UNL     1      -2.538  33.756  67.186  1.00  0.00     0.165 HD
BRANCH  18  21
HETATM   21  C13 UNL     1      -0.861  33.292  63.499  1.00  0.00     0.188 C 
BRANCH  21  22
HETATM   22  C14 UNL     1      -0.699  31.869  63.012  1.00  0.00     0.046 C 
BRANCH  22  23
HETATM   23  C15 UNL     1       0.718  31.585  62.565  1.00  0.00     0.076 C 
BRANCH  23  24
HETATM   24  S1  UNL     1       1.919  32.656  63.354  1.00  0.00    -0.173 SA
HETATM   25  C16 UNL     1       2.845  33.536  62.069  1.00  0.00     0.089 C 
ENDBRANCH  23  24
ENDBRANCH  22  23
ENDBRANCH  21  22
BRANCH  21  26
HETATM   26  C17 UNL     1      -1.642  34.018  62.459  1.00  0.00     0.196 C 
HETATM   27  O3  UNL     1      -1.286  35.172  62.119  1.00  0.00    -0.646 OA
HETATM   28  O4  UNL     1      -2.756  33.477  61.837  1.00  0.00    -0.646 OA
ENDBRANCH  21  26
ENDBRANCH  18  21
ENDBRANCH   5  15
BRANCH   1  29
HETATM   29  C6  UNL     1      -4.090  35.828  70.704  1.00  0.00     0.120 C 
HETATM   30  N1  UNL     1      -4.022  35.536  71.952  1.00  0.00    -0.374 N 
ATOM     31  H1  UNL     1      -3.106  35.578  72.400  1.00  0.00     0.161 HD
BRANCH  30  32
HETATM   32  C5  UNL     1      -5.161  35.146  72.775  1.00  0.00     0.121 C 
BRANCH  32  33
HETATM   33  C4  UNL     1      -4.749  34.667  74.115  1.00  0.00     0.020 C 
BRANCH  33  34
HETATM   34  C3  UNL     1      -5.798  34.291  75.075  1.00  0.00     0.001 C 
BRANCH  34  35
HETATM   35  C2  UNL     1      -7.210  34.612  74.797  1.00  0.00    -0.004 C 
HETATM   36  C1  UNL     1      -8.257  34.034  75.667  1.00  0.00     0.005 C 
ENDBRANCH  34  35
ENDBRANCH  33  34
ENDBRANCH  32  33
ENDBRANCH  30  32
BRANCH  29  37
HETATM   37  O1  UNL     1      -5.321  35.777  70.083  1.00  0.00    -0.349 OA
ATOM     38  H1  UNL     1      -5.864  36.557  70.089  1.00  0.00     0.219 HD
ENDBRANCH  29  37
ENDBRANCH   1  29
TORSDOF 12
ENDMDL
