MODEL 1
REMARK VINA RESULT: -5.754568431      0.000      0.000
REMARK  3 active torsions:
REMARK  status: ('A' for Active; 'I' for Inactive)
REMARK    1  A    between atoms: C7_7  and  O1_8 
REMARK    2  A    between atoms: C8_10  and  O2_11 
REMARK    3  A    between atoms: C9_13  and  O3_14 
ROOT
HETATM    1  C1  UNL     1      15.655  16.711  20.967  1.00  0.00     0.015 C 
HETATM    2  C2  UNL     1      15.780  16.609  19.486  1.00  0.00    -0.037 A 
HETATM    3  C3  UNL     1      17.111  17.142  18.947  1.00  0.00     0.015 C 
HETATM    4  C4  UNL     1      15.344  15.232  18.935  1.00  0.00     0.022 A 
HETATM    5  C5  UNL     1      14.698  16.501  18.552  1.00  0.00    -0.002 A 
HETATM    6  C6  UNL     1      14.836  16.928  17.125  1.00  0.00     0.047 C 
HETATM    7  C7  UNL     1      13.507  16.531  16.510  1.00  0.00     0.150 C 
HETATM    8  C8  UNL     1      12.613  16.090  17.616  1.00  0.00     0.176 C 
HETATM    9  C9  UNL     1      13.253  16.747  18.843  1.00  0.00     0.158 C 
ENDROOT
BRANCH   9  10
HETATM   10  O3  UNL     1      12.803  16.209  20.020  1.00  0.00    -0.392 OA
ATOM     11  H3  UNL     1      12.036  15.654  19.938  1.00  0.00     0.210 HD
ENDBRANCH   9  10
BRANCH   7  12
HETATM   12  O1  UNL     1      12.921  17.586  15.829  1.00  0.00    -0.393 OA
ATOM     13  H1  UNL     1      13.180  17.604  14.915  1.00  0.00     0.210 HD
ENDBRANCH   7  12
BRANCH   8  14
HETATM   14  O2  UNL     1      11.295  16.418  17.473  1.00  0.00    -0.390 OA
ATOM     15  H2  UNL     1      10.741  15.736  17.113  1.00  0.00     0.210 HD
ENDBRANCH   8  14
TORSDOF 3
ENDMDL
MODEL 2
REMARK VINA RESULT: -5.527131132      1.415      1.878
REMARK  3 active torsions:
REMARK  status: ('A' for Active; 'I' for Inactive)
REMARK    1  A    between atoms: C7_7  and  O1_8 
REMARK    2  A    between atoms: C8_10  and  O2_11 
REMARK    3  A    between atoms: C9_13  and  O3_14 
ROOT
HETATM    1  C1  UNL     1      14.004  16.572  19.760  1.00  0.00     0.015 C 
HETATM    2  C2  UNL     1      14.496  16.501  18.356  1.00  0.00    -0.037 A 
HETATM    3  C3  UNL     1      15.967  16.901  18.202  1.00  0.00     0.015 C 
HETATM    4  C4  UNL     1      14.084  15.197  17.634  1.00  0.00     0.022 A 
HETATM    5  C5  UNL     1      13.686  16.540  17.173  1.00  0.00    -0.002 A 
HETATM    6  C6  UNL     1      14.228  16.991  15.855  1.00  0.00     0.047 C 
HETATM    7  C7  UNL     1      13.071  16.761  14.901  1.00  0.00     0.150 C 
HETATM    8  C8  UNL     1      11.883  16.389  15.718  1.00  0.00     0.176 C 
HETATM    9  C9  UNL     1      12.246  16.934  17.102  1.00  0.00     0.158 C 
ENDROOT
BRANCH   9  10
HETATM   10  O3  UNL     1      11.457  16.414  18.094  1.00  0.00    -0.392 OA
ATOM     11  H3  UNL     1      11.767  15.597  18.465  1.00  0.00     0.210 HD
ENDBRANCH   9  10
BRANCH   7  12
HETATM   12  O1  UNL     1      12.786  17.894  14.155  1.00  0.00    -0.393 OA
ATOM     13  H1  UNL     1      12.565  17.678  13.256  1.00  0.00     0.210 HD
ENDBRANCH   7  12
BRANCH   8  14
HETATM   14  O2  UNL     1      10.685  16.863  15.265  1.00  0.00    -0.390 OA
ATOM     15  H2  UNL     1       9.925  16.340  15.493  1.00  0.00     0.210 HD
ENDBRANCH   8  14
TORSDOF 3
ENDMDL
MODEL 3
REMARK VINA RESULT: -5.380030336      2.878      4.698
REMARK  3 active torsions:
REMARK  status: ('A' for Active; 'I' for Inactive)
REMARK    1  A    between atoms: C7_7  and  O1_8 
REMARK    2  A    between atoms: C8_10  and  O2_11 
REMARK    3  A    between atoms: C9_13  and  O3_14 
ROOT
HETATM    1  C1  UNL     1      13.464  16.564  18.051  1.00  0.00     0.015 C 
HETATM    2  C2  UNL     1      14.255  16.339  19.293  1.00  0.00    -0.037 A 
HETATM    3  C3  UNL     1      13.397  16.261  20.560  1.00  0.00     0.015 C 
HETATM    4  C4  UNL     1      15.316  15.224  19.142  1.00  0.00     0.022 A 
HETATM    5  C5  UNL     1      15.649  16.623  19.471  1.00  0.00    -0.002 A 
HETATM    6  C6  UNL     1      16.241  16.878  20.820  1.00  0.00     0.047 C 
HETATM    7  C7  UNL     1      17.725  17.016  20.532  1.00  0.00     0.150 C 
HETATM    8  C8  UNL     1      17.896  17.034  19.053  1.00  0.00     0.176 C 
HETATM    9  C9  UNL     1      16.505  17.444  18.562  1.00  0.00     0.158 C 
ENDROOT
BRANCH   9  10
HETATM   10  O3  UNL     1      16.327  17.199  17.226  1.00  0.00    -0.392 OA
ATOM     11  H3  UNL     1      16.999  17.561  16.660  1.00  0.00     0.210 HD
ENDBRANCH   9  10
BRANCH   7  12
HETATM   12  O1  UNL     1      18.249  18.178  21.076  1.00  0.00    -0.393 OA
ATOM     13  H1  UNL     1      19.075  18.019  21.518  1.00  0.00     0.210 HD
ENDBRANCH   7  12
BRANCH   8  14
HETATM   14  O2  UNL     1      18.882  17.855  18.585  1.00  0.00    -0.390 OA
ATOM     15  H2  UNL     1      19.768  17.605  18.819  1.00  0.00     0.210 HD
ENDBRANCH   8  14
TORSDOF 3
ENDMDL
MODEL 4
REMARK VINA RESULT: -5.277232236      1.290      1.640
REMARK  3 active torsions:
REMARK  status: ('A' for Active; 'I' for Inactive)
REMARK    1  A    between atoms: C7_7  and  O1_8 
REMARK    2  A    between atoms: C8_10  and  O2_11 
REMARK    3  A    between atoms: C9_13  and  O3_14 
ROOT
HETATM    1  C1  UNL     1      13.878  16.269  20.241  1.00  0.00     0.015 C 
HETATM    2  C2  UNL     1      14.697  16.298  18.997  1.00  0.00    -0.037 A 
HETATM    3  C3  UNL     1      16.031  17.033  19.160  1.00  0.00     0.015 C 
HETATM    4  C4  UNL     1      14.778  14.924  18.293  1.00  0.00     0.022 A 
HETATM    5  C5  UNL     1      14.209  16.128  17.659  1.00  0.00    -0.002 A 
HETATM    6  C6  UNL     1      14.936  16.677  16.474  1.00  0.00     0.047 C 
HETATM    7  C7  UNL     1      14.126  16.167  15.297  1.00  0.00     0.150 C 
HETATM    8  C8  UNL     1      12.892  15.534  15.842  1.00  0.00     0.176 C 
HETATM    9  C9  UNL     1      12.778  16.169  17.230  1.00  0.00     0.158 C 
ENDROOT
BRANCH   9  10
HETATM   10  O3  UNL     1      11.912  15.490  18.047  1.00  0.00    -0.392 OA
ATOM     11  H3  UNL     1      10.995  15.571  17.813  1.00  0.00     0.210 HD
ENDBRANCH   9  10
BRANCH   7  12
HETATM   12  O1  UNL     1      13.780  17.189  14.428  1.00  0.00    -0.393 OA
ATOM     13  H1  UNL     1      12.984  16.991  13.949  1.00  0.00     0.210 HD
ENDBRANCH   7  12
BRANCH   8  14
HETATM   14  O2  UNL     1      11.764  15.704  15.092  1.00  0.00    -0.390 OA
ATOM     15  H2  UNL     1      11.302  14.907  14.860  1.00  0.00     0.210 HD
ENDBRANCH   8  14
TORSDOF 3
ENDMDL
MODEL 5
REMARK VINA RESULT: -5.247865783      2.946      5.027
REMARK  3 active torsions:
REMARK  status: ('A' for Active; 'I' for Inactive)
REMARK    1  A    between atoms: C7_7  and  O1_8 
REMARK    2  A    between atoms: C8_10  and  O2_11 
REMARK    3  A    between atoms: C9_13  and  O3_14 
ROOT
HETATM    1  C1  UNL     1      14.572  16.771  17.353  1.00  0.00     0.015 C 
HETATM    2  C2  UNL     1      14.645  16.474  18.811  1.00  0.00    -0.037 A 
HETATM    3  C3  UNL     1      13.275  16.418  19.494  1.00  0.00     0.015 C 
HETATM    4  C4  UNL     1      15.600  15.304  19.144  1.00  0.00     0.022 A 
HETATM    5  C5  UNL     1      15.785  16.673  19.659  1.00  0.00    -0.002 A 
HETATM    6  C6  UNL     1      15.651  16.865  21.136  1.00  0.00     0.047 C 
HETATM    7  C7  UNL     1      17.090  16.923  21.614  1.00  0.00     0.150 C 
HETATM    8  C8  UNL     1      17.963  16.963  20.408  1.00  0.00     0.176 C 
HETATM    9  C9  UNL     1      17.007  17.464  19.322  1.00  0.00     0.158 C 
ENDROOT
BRANCH   9  10
HETATM   10  O3  UNL     1      17.496  17.258  18.058  1.00  0.00    -0.392 OA
ATOM     11  H3  UNL     1      18.444  17.248  17.993  1.00  0.00     0.210 HD
ENDBRANCH   9  10
BRANCH   7  12
HETATM   12  O1  UNL     1      17.327  18.041  22.398  1.00  0.00    -0.393 OA
ATOM     13  H1  UNL     1      17.037  17.911  23.293  1.00  0.00     0.210 HD
ENDBRANCH   7  12
BRANCH   8  14
HETATM   14  O2  UNL     1      19.083  17.736  20.518  1.00  0.00    -0.390 OA
ATOM     15  H2  UNL     1      19.909  17.277  20.416  1.00  0.00     0.210 HD
ENDBRANCH   8  14
TORSDOF 3
ENDMDL
