MODEL 1
REMARK VINA RESULT: -4.848889722      0.000      0.000
REMARK  2 active torsions:
REMARK  status: ('A' for Active; 'I' for Inactive)
REMARK    1  A    between atoms: C2_2  and  C3_3 
REMARK    2  A    between atoms: C3_3  and  O1_4 
ROOT
HETATM    1  C3  UNL     1      15.893 -11.651  45.551  1.00  0.00     0.316 C 
HETATM    2  N1  UNL     1      15.364 -10.578  44.767  1.00  0.00    -0.282 N 
ATOM      3  H1  UNL     1      14.921 -10.806  43.877  1.00  0.00     0.185 HD
HETATM    4  N2  UNL     1      15.413  -9.405  45.103  1.00  0.00    -0.326 N 
ATOM      5  H2  UNL     1      15.010  -8.702  44.482  1.00  0.00     0.180 HD
HETATM    6  C4  UNL     1      16.002  -8.979  46.313  1.00  0.00     0.062 C 
HETATM    7  C5  UNL     1      15.164  -7.832  46.917  1.00  0.00     0.041 C 
HETATM    8  C6  UNL     1      17.332  -8.305  45.984  1.00  0.00     0.041 C 
HETATM    9  C7  UNL     1      16.151 -10.094  47.275  1.00  0.00     0.270 C 
HETATM   10  N3  UNL     1      15.556 -11.345  46.927  1.00  0.00    -0.020 N 
ATOM     11  H31 UNL     1      15.817 -12.093  47.568  1.00  0.00     0.283 HD
ATOM     12  H32 UNL     1      14.550 -11.359  47.094  1.00  0.00     0.283 HD
ENDROOT
BRANCH   1  13
HETATM   13  C2  UNL     1      15.263 -12.929  45.068  1.00  0.00     0.090 C 
HETATM   14  C1  UNL     1      14.261 -12.728  43.974  1.00  0.00     0.012 C 
ENDBRANCH   1  13
BRANCH   1  15
HETATM   15  O1  UNL     1      17.267 -11.798  45.363  1.00  0.00    -0.348 OA
ATOM     16  H1  UNL     1      17.373 -12.441  44.671  1.00  0.00     0.214 HD
ENDBRANCH   1  15
TORSDOF 2
ENDMDL
MODEL 2
REMARK VINA RESULT: -4.846607530      1.228      3.935
REMARK  2 active torsions:
REMARK  status: ('A' for Active; 'I' for Inactive)
REMARK    1  A    between atoms: C2_2  and  C3_3 
REMARK    2  A    between atoms: C3_3  and  O1_4 
ROOT
HETATM    1  C3  UNL     1      15.917  -9.270  46.533  1.00  0.00     0.316 C 
HETATM    2  N1  UNL     1      15.442 -10.424  47.231  1.00  0.00    -0.282 N 
ATOM      3  H1  UNL     1      15.071 -10.297  48.173  1.00  0.00     0.185 HD
HETATM    4  N2  UNL     1      15.454 -11.553  46.763  1.00  0.00    -0.326 N 
ATOM      5  H2  UNL     1      15.096 -12.320  47.331  1.00  0.00     0.180 HD
HETATM    6  C4  UNL     1      15.944 -11.839  45.471  1.00  0.00     0.062 C 
HETATM    7  C5  UNL     1      15.052 -12.912  44.809  1.00  0.00     0.041 C 
HETATM    8  C6  UNL     1      17.290 -12.545  45.617  1.00  0.00     0.041 C 
HETATM    9  C7  UNL     1      16.027 -10.623  44.631  1.00  0.00     0.270 C 
HETATM   10  N3  UNL     1      15.472  -9.420  45.162  1.00  0.00    -0.020 N 
ATOM     11  H31 UNL     1      15.688  -8.604  44.590  1.00  0.00     0.283 HD
ATOM     12  H32 UNL     1      14.455  -9.388  45.076  1.00  0.00     0.283 HD
ENDROOT
BRANCH   1  13
HETATM   13  C2  UNL     1      15.337  -8.055  47.203  1.00  0.00     0.090 C 
HETATM   14  C1  UNL     1      15.390  -6.820  46.358  1.00  0.00     0.012 C 
ENDBRANCH   1  13
BRANCH   1  15
HETATM   15  O1  UNL     1      17.303  -9.144  46.629  1.00  0.00    -0.348 OA
ATOM     16  H1  UNL     1      17.666  -9.657  45.916  1.00  0.00     0.214 HD
ENDBRANCH   1  15
TORSDOF 2
ENDMDL
MODEL 3
REMARK VINA RESULT: -4.805419501      1.232      1.400
REMARK  2 active torsions:
REMARK  status: ('A' for Active; 'I' for Inactive)
REMARK    1  A    between atoms: C2_2  and  C3_3 
REMARK    2  A    between atoms: C3_3  and  O1_4 
ROOT
HETATM    1  C3  UNL     1      16.440 -10.619  45.246  1.00  0.00     0.316 C 
HETATM    2  N1  UNL     1      15.276  -9.804  45.086  1.00  0.00    -0.282 N 
ATOM      3  H1  UNL     1      14.431 -10.239  44.716  1.00  0.00     0.185 HD
HETATM    4  N2  UNL     1      15.237  -8.615  45.367  1.00  0.00    -0.326 N 
ATOM      5  H2  UNL     1      14.364  -8.108  45.221  1.00  0.00     0.180 HD
HETATM    6  C4  UNL     1      16.347  -7.915  45.885  1.00  0.00     0.062 C 
HETATM    7  C5  UNL     1      15.868  -6.915  46.960  1.00  0.00     0.041 C 
HETATM    8  C6  UNL     1      16.895  -7.009  44.784  1.00  0.00     0.041 C 
HETATM    9  C7  UNL     1      17.372  -8.832  46.430  1.00  0.00     0.270 C 
HETATM   10  N3  UNL     1      17.039 -10.218  46.504  1.00  0.00    -0.020 N 
ATOM     11  H31 UNL     1      17.838 -10.799  46.758  1.00  0.00     0.283 HD
ATOM     12  H32 UNL     1      16.445 -10.436  47.305  1.00  0.00     0.283 HD
ENDROOT
BRANCH   1  13
HETATM   13  C2  UNL     1      15.999 -12.057  45.243  1.00  0.00     0.090 C 
HETATM   14  C1  UNL     1      14.817 -12.320  44.365  1.00  0.00     0.012 C 
ENDBRANCH   1  13
BRANCH   1  15
HETATM   15  O1  UNL     1      17.320 -10.478  44.173  1.00  0.00    -0.348 OA
ATOM     16  H1  UNL     1      18.083 -10.026  44.512  1.00  0.00     0.214 HD
ENDBRANCH   1  15
TORSDOF 2
ENDMDL
MODEL 4
REMARK VINA RESULT: -4.722997527      2.065      4.336
REMARK  2 active torsions:
REMARK  status: ('A' for Active; 'I' for Inactive)
REMARK    1  A    between atoms: C2_2  and  C3_3 
REMARK    2  A    between atoms: C3_3  and  O1_4 
ROOT
HETATM    1  C3  UNL     1      15.783 -11.303  45.693  1.00  0.00     0.316 C 
HETATM    2  N1  UNL     1      14.819 -12.150  45.063  1.00  0.00    -0.282 N 
ATOM      3  H1  UNL     1      14.032 -11.711  44.585  1.00  0.00     0.185 HD
HETATM    4  N2  UNL     1      14.885 -13.370  45.064  1.00  0.00    -0.326 N 
ATOM      5  H2  UNL     1      14.153 -13.899  44.589  1.00  0.00     0.180 HD
HETATM    6  C4  UNL     1      15.929 -14.079  45.694  1.00  0.00     0.062 C 
HETATM    7  C5  UNL     1      16.321 -15.296  44.828  1.00  0.00     0.041 C 
HETATM    8  C6  UNL     1      15.373 -14.719  46.964  1.00  0.00     0.041 C 
HETATM    9  C7  UNL     1      17.101 -13.214  45.958  1.00  0.00     0.270 C 
HETATM   10  N3  UNL     1      17.077 -11.894  45.417  1.00  0.00    -0.020 N 
ATOM     11  H31 UNL     1      17.848 -11.319  45.755  1.00  0.00     0.283 HD
ATOM     12  H32 UNL     1      17.310 -11.874  44.423  1.00  0.00     0.283 HD
ENDROOT
BRANCH   1  13
HETATM   13  C2  UNL     1      15.636  -9.924  45.110  1.00  0.00     0.090 C 
HETATM   14  C1  UNL     1      16.897  -9.118  45.149  1.00  0.00     0.012 C 
ENDBRANCH   1  13
BRANCH   1  15
HETATM   15  O1  UNL     1      15.541 -11.176  47.061  1.00  0.00    -0.348 OA
ATOM     16  H1  UNL     1      14.694 -10.754  47.143  1.00  0.00     0.214 HD
ENDBRANCH   1  15
TORSDOF 2
ENDMDL
MODEL 5
REMARK VINA RESULT: -4.575746428      6.627      7.673
REMARK  2 active torsions:
REMARK  status: ('A' for Active; 'I' for Inactive)
REMARK    1  A    between atoms: C2_2  and  C3_3 
REMARK    2  A    between atoms: C3_3  and  O1_4 
ROOT
HETATM    1  C3  UNL     1      12.208 -14.271  40.030  1.00  0.00     0.316 C 
HETATM    2  N1  UNL     1      10.911 -14.810  40.294  1.00  0.00    -0.282 N 
ATOM      3  H1  UNL     1      10.625 -15.646  39.784  1.00  0.00     0.185 HD
HETATM    4  N2  UNL     1      10.125 -14.327  41.096  1.00  0.00    -0.326 N 
ATOM      5  H2  UNL     1       9.218 -14.777  41.223  1.00  0.00     0.180 HD
HETATM    6  C4  UNL     1      10.420 -13.174  41.855  1.00  0.00     0.062 C 
HETATM    7  C5  UNL     1       9.854 -13.339  43.281  1.00  0.00     0.041 C 
HETATM    8  C6  UNL     1       9.607 -12.011  41.288  1.00  0.00     0.041 C 
HETATM    9  C7  UNL     1      11.872 -12.891  41.887  1.00  0.00     0.270 C 
HETATM   10  N3  UNL     1      12.743 -13.868  41.315  1.00  0.00    -0.020 N 
ATOM     11  H31 UNL     1      13.707 -13.542  41.252  1.00  0.00     0.283 HD
ATOM     12  H32 UNL     1      12.902 -14.661  41.938  1.00  0.00     0.283 HD
ENDROOT
BRANCH   1  13
HETATM   13  C2  UNL     1      13.028 -15.345  39.370  1.00  0.00     0.090 C 
HETATM   14  C1  UNL     1      14.296 -15.666  40.099  1.00  0.00     0.012 C 
ENDBRANCH   1  13
BRANCH   1  15
HETATM   15  O1  UNL     1      12.151 -13.211  39.125  1.00  0.00    -0.348 OA
ATOM     16  H1  UNL     1      12.311 -12.422  39.629  1.00  0.00     0.214 HD
ENDBRANCH   1  15
TORSDOF 2
ENDMDL
