MODEL 1
REMARK VINA RESULT: -8.416426520      0.000      0.000
REMARK  19 active torsions:
REMARK  status: ('A' for Active; 'I' for Inactive)
REMARK       I    between atoms: N1_1  and  C1_4 
REMARK       I    between atoms: C1_4  and  N3_6 
REMARK    1  A    between atoms: N3_6  and  C2_8 
REMARK    2  A    between atoms: C2_8  and  C3_9 
REMARK    3  A    between atoms: C3_9  and  C4_10 
REMARK    4  A    between atoms: C4_10  and  N4_11 
REMARK       I    between atoms: N4_11  and  C5_12 
REMARK    5  A    between atoms: C5_12  and  C6_14 
REMARK    6  A    between atoms: C6_14  and  C7_15 
REMARK    7  A    between atoms: C8_17  and  N5_18 
REMARK    8  A    between atoms: N5_18  and  C9_20 
REMARK    9  A    between atoms: C9_20  and  O2_21 
REMARK   10  A    between atoms: C9_20  and  N6_23 
REMARK   11  A    between atoms: N6_23  and  C10_25 
REMARK   12  A    between atoms: C10_25  and  C11_26 
REMARK   13  A    between atoms: C11_26  and  N7_27 
REMARK   14  A    between atoms: C11_26  and  C12_30 
REMARK   15  A    between atoms: C20_40  and  C21_41 
REMARK   16  A    between atoms: C21_41  and  C22_42 
REMARK   17  A    between atoms: C22_42  and  C23_43 
REMARK   18  A    between atoms: C23_43  and  C24_44 
REMARK   19  A    between atoms: C24_44  and  N8_45 
ROOT
HETATM    1  C7  UNL     1      34.512 -10.597  -0.238  1.00  0.00     0.004 A 
HETATM    2  S1  UNL     1      35.432  -9.548   0.753  1.00  0.00    -0.076 SA
HETATM    3  C8  UNL     1      35.862 -10.135   2.257  1.00  0.00     0.080 A 
HETATM    4  C18 UNL     1      35.373 -11.428   2.503  1.00  0.00     0.080 A 
HETATM    5  C19 UNL     1      34.609 -12.169   1.656  1.00  0.00     0.126 A 
HETATM    6  F1  UNL     1      34.243 -13.449   2.062  1.00  0.00    -0.205 F 
HETATM    7  C20 UNL     1      34.177 -11.851   0.407  1.00  0.00    -0.006 A 
ENDROOT
BRANCH   3   8
HETATM    8  N5  UNL     1      36.570  -9.552   3.084  1.00  0.00    -0.317 N 
ATOM      9  H5  UNL     1      37.569  -9.747   3.047  1.00  0.00     0.170 HD
BRANCH   8  10
HETATM   10  C9  UNL     1      36.152  -8.665   4.050  1.00  0.00     0.217 C 
BRANCH  10  11
HETATM   11  O2  UNL     1      36.085  -9.123   5.274  1.00  0.00    -0.333 OA
ATOM     12  H2  UNL     1      35.667  -8.560   5.915  1.00  0.00     0.220 HD
ENDBRANCH  10  11
BRANCH  10  13
HETATM   13  N6  UNL     1      35.830  -7.339   3.870  1.00  0.00    -0.354 N 
ATOM     14  H6  UNL     1      34.916  -6.941   4.088  1.00  0.00     0.163 HD
BRANCH  13  15
HETATM   15  C10 UNL     1      36.926  -6.578   3.339  1.00  0.00     0.152 C 
BRANCH  15  16
HETATM   16  C11 UNL     1      36.497  -5.189   2.733  1.00  0.00     0.125 C 
BRANCH  16  17
HETATM   17  N7  UNL     1      36.330  -4.226   3.695  1.00  0.00    -0.421 N 
ATOM     18  H72 UNL     1      36.373  -4.324   4.710  1.00  0.00     0.150 HD
ATOM     19  H71 UNL     1      35.476  -3.685   3.562  1.00  0.00     0.150 HD
ENDBRANCH  16  17
BRANCH  16  20
HETATM   20  C12 UNL     1      37.279  -5.125   1.506  1.00  0.00    -0.034 A 
HETATM   21  C13 UNL     1      37.408  -3.987   0.773  1.00  0.00     0.011 A 
HETATM   22  C14 UNL     1      38.249  -3.916  -0.341  1.00  0.00     0.019 A 
HETATM   23  C15 UNL     1      39.009  -4.985  -0.743  1.00  0.00     0.011 A 
HETATM   24 BR1  UNL     1      40.173  -4.841  -2.207  1.00  0.00    -0.051 Br
HETATM   25  C16 UNL     1      38.887  -6.173   0.012  1.00  0.00     0.019 A 
HETATM   26  C17 UNL     1      38.036  -6.214   1.080  1.00  0.00     0.011 A 
ENDBRANCH  16  20
ENDBRANCH  15  16
ENDBRANCH  13  15
ENDBRANCH  10  13
ENDBRANCH   8  10
ENDBRANCH   3   8
BRANCH   1  27
HETATM   27  C6  UNL     1      34.510 -10.424  -1.651  1.00  0.00     0.165 C 
BRANCH  27  28
HETATM   28  C5  UNL     1      33.352  -9.187  -1.561  1.00  0.00     0.291 C 
HETATM   29  N4  UNL     1      34.014  -8.249  -2.354  1.00  0.00    -0.415 NA
HETATM   30  O1  UNL     1      32.434  -9.293  -0.962  1.00  0.00    -0.257 OA
BRANCH  29  31
HETATM   31  C4  UNL     1      34.624  -7.362  -3.095  1.00  0.00     0.223 C 
BRANCH  31  32
HETATM   32  C3  UNL     1      35.126  -6.469  -1.898  1.00  0.00     0.053 C 
BRANCH  32  33
HETATM   33  C2  UNL     1      34.381  -5.293  -1.680  1.00  0.00     0.125 C 
BRANCH  33  34
HETATM   34  N3  UNL     1      33.474  -5.660  -0.553  1.00  0.00    -0.365 N 
HETATM   35  C1  UNL     1      33.023  -4.491   0.016  1.00  0.00     0.181 C 
HETATM   36  N1  UNL     1      34.041  -3.737   0.535  1.00  0.00    -0.374 N 
HETATM   37  N2  UNL     1      31.723  -4.020   0.024  1.00  0.00    -0.064 NA
ATOM     38  H12 UNL     1      33.706  -2.870   0.956  1.00  0.00     0.158 HD
ATOM     39  H11 UNL     1      35.000  -4.083   0.529  1.00  0.00     0.158 HD
ATOM     40  H3  UNL     1      33.233  -6.606  -0.257  1.00  0.00     0.162 HD
ENDBRANCH  33  34
ENDBRANCH  32  33
ENDBRANCH  31  32
ENDBRANCH  29  31
ENDBRANCH  27  28
ENDBRANCH   1  27
BRANCH   7  41
HETATM   41  C21 UNL     1      33.210 -12.624  -0.388  1.00  0.00     0.043 C 
BRANCH  41  42
HETATM   42  C22 UNL     1      33.598 -13.893  -1.029  1.00  0.00     0.010 C 
BRANCH  42  43
HETATM   43  C23 UNL     1      32.940 -13.848  -2.400  1.00  0.00     0.047 C 
BRANCH  43  44
HETATM   44  C24 UNL     1      33.654 -14.305  -3.562  1.00  0.00     0.088 C 
BRANCH  44  45
HETATM   45  N8  UNL     1      32.957 -14.467  -4.789  1.00  0.00    -0.283 N 
HETATM   46  C25 UNL     1      32.453 -15.732  -5.097  1.00  0.00     0.116 A 
HETATM   47  C26 UNL     1      31.727 -15.642  -6.218  1.00  0.00     0.038 A 
HETATM   48  C27 UNL     1      31.784 -14.307  -6.597  1.00  0.00     0.109 A 
HETATM   49  N9  UNL     1      32.538 -13.658  -5.709  1.00  0.00    -0.306 N 
ATOM     50  H9  UNL     1      32.756 -12.662  -5.750  1.00  0.00     0.186 HD
ENDBRANCH  44  45
ENDBRANCH  43  44
ENDBRANCH  42  43
ENDBRANCH  41  42
ENDBRANCH   7  41
TORSDOF 19
ENDMDL
MODEL 2
REMARK VINA RESULT: -8.286428175      3.424      4.852
REMARK  19 active torsions:
REMARK  status: ('A' for Active; 'I' for Inactive)
REMARK       I    between atoms: N1_1  and  C1_4 
REMARK       I    between atoms: C1_4  and  N3_6 
REMARK    1  A    between atoms: N3_6  and  C2_8 
REMARK    2  A    between atoms: C2_8  and  C3_9 
REMARK    3  A    between atoms: C3_9  and  C4_10 
REMARK    4  A    between atoms: C4_10  and  N4_11 
REMARK       I    between atoms: N4_11  and  C5_12 
REMARK    5  A    between atoms: C5_12  and  C6_14 
REMARK    6  A    between atoms: C6_14  and  C7_15 
REMARK    7  A    between atoms: C8_17  and  N5_18 
REMARK    8  A    between atoms: N5_18  and  C9_20 
REMARK    9  A    between atoms: C9_20  and  O2_21 
REMARK   10  A    between atoms: C9_20  and  N6_23 
REMARK   11  A    between atoms: N6_23  and  C10_25 
REMARK   12  A    between atoms: C10_25  and  C11_26 
REMARK   13  A    between atoms: C11_26  and  N7_27 
REMARK   14  A    between atoms: C11_26  and  C12_30 
REMARK   15  A    between atoms: C20_40  and  C21_41 
REMARK   16  A    between atoms: C21_41  and  C22_42 
REMARK   17  A    between atoms: C22_42  and  C23_43 
REMARK   18  A    between atoms: C23_43  and  C24_44 
REMARK   19  A    between atoms: C24_44  and  N8_45 
ROOT
HETATM    1  C7  UNL     1      34.359  -8.969  -3.958  1.00  0.00     0.004 A 
HETATM    2  S1  UNL     1      34.382  -8.842  -2.252  1.00  0.00    -0.076 SA
HETATM    3  C8  UNL     1      34.118 -10.255  -1.398  1.00  0.00     0.080 A 
HETATM    4  C18 UNL     1      33.886 -11.363  -2.228  1.00  0.00     0.080 A 
HETATM    5  C19 UNL     1      33.849 -11.350  -3.589  1.00  0.00     0.126 A 
HETATM    6  F1  UNL     1      33.636 -12.560  -4.244  1.00  0.00    -0.205 F 
HETATM    7  C20 UNL     1      34.045 -10.303  -4.431  1.00  0.00    -0.006 A 
ENDROOT
BRANCH   3   8
HETATM    8  N5  UNL     1      34.154 -10.373  -0.170  1.00  0.00    -0.317 N 
ATOM      9  H5  UNL     1      33.330 -10.777   0.273  1.00  0.00     0.170 HD
BRANCH   8  10
HETATM   10  C9  UNL     1      35.189 -10.019   0.664  1.00  0.00     0.217 C 
BRANCH  10  11
HETATM   11  O2  UNL     1      36.317 -10.661   0.501  1.00  0.00    -0.333 OA
ATOM     12  H2  UNL     1      37.106 -10.208   0.776  1.00  0.00     0.220 HD
ENDBRANCH  10  11
BRANCH  10  13
HETATM   13  N6  UNL     1      35.173  -9.038   1.630  1.00  0.00    -0.354 N 
ATOM     14  H6  UNL     1      34.391  -8.400   1.779  1.00  0.00     0.163 HD
BRANCH  13  15
HETATM   15  C10 UNL     1      36.382  -9.014   2.405  1.00  0.00     0.152 C 
BRANCH  15  16
HETATM   16  C11 UNL     1      36.329  -8.025   3.629  1.00  0.00     0.125 C 
BRANCH  16  17
HETATM   17  N7  UNL     1      36.591  -8.650   4.821  1.00  0.00    -0.421 N 
ATOM     18  H72 UNL     1      36.024  -9.335   5.320  1.00  0.00     0.150 HD
ATOM     19  H71 UNL     1      36.843  -7.992   5.559  1.00  0.00     0.150 HD
ENDBRANCH  16  17
BRANCH  16  20
HETATM   20  C12 UNL     1      36.931  -6.816   3.082  1.00  0.00    -0.034 A 
HETATM   21  C13 UNL     1      37.955  -6.842   2.188  1.00  0.00     0.011 A 
HETATM   22  C14 UNL     1      38.447  -5.678   1.592  1.00  0.00     0.019 A 
HETATM   23  C15 UNL     1      37.908  -4.445   1.859  1.00  0.00     0.011 A 
HETATM   24 BR1  UNL     1      38.550  -2.907   0.998  1.00  0.00    -0.051 Br
HETATM   25  C16 UNL     1      36.839  -4.404   2.783  1.00  0.00     0.019 A 
HETATM   26  C17 UNL     1      36.401  -5.559   3.366  1.00  0.00     0.011 A 
ENDBRANCH  16  20
ENDBRANCH  15  16
ENDBRANCH  13  15
ENDBRANCH  10  13
ENDBRANCH   8  10
ENDBRANCH   3   8
BRANCH   1  27
HETATM   27  C6  UNL     1      35.029  -7.998  -4.755  1.00  0.00     0.165 C 
BRANCH  27  28
HETATM   28  C5  UNL     1      33.806  -6.850  -4.496  1.00  0.00     0.291 C 
HETATM   29  N4  UNL     1      34.627  -5.738  -4.308  1.00  0.00    -0.415 NA
HETATM   30  O1  UNL     1      32.741  -7.129  -4.485  1.00  0.00    -0.257 OA
BRANCH  29  31
HETATM   31  C4  UNL     1      35.386  -4.688  -4.129  1.00  0.00     0.223 C 
BRANCH  31  32
HETATM   32  C3  UNL     1      34.271  -3.797  -3.461  1.00  0.00     0.053 C 
BRANCH  32  33
HETATM   33  C2  UNL     1      34.447  -3.558  -2.084  1.00  0.00     0.125 C 
BRANCH  33  34
HETATM   34  N3  UNL     1      33.741  -4.704  -1.439  1.00  0.00    -0.365 N 
HETATM   35  C1  UNL     1      33.240  -4.261  -0.236  1.00  0.00     0.181 C 
HETATM   36  N1  UNL     1      34.226  -3.851   0.620  1.00  0.00    -0.374 N 
HETATM   37  N2  UNL     1      31.908  -4.132   0.110  1.00  0.00    -0.064 NA
ATOM     38  H12 UNL     1      33.855  -3.523   1.511  1.00  0.00     0.158 HD
ATOM     39  H11 UNL     1      35.209  -3.946   0.364  1.00  0.00     0.158 HD
ATOM     40  H3  UNL     1      33.646  -5.645  -1.822  1.00  0.00     0.162 HD
ENDBRANCH  33  34
ENDBRANCH  32  33
ENDBRANCH  31  32
ENDBRANCH  29  31
ENDBRANCH  27  28
ENDBRANCH   1  27
BRANCH   7  41
HETATM   41  C21 UNL     1      33.820 -10.319  -5.885  1.00  0.00     0.043 C 
BRANCH  41  42
HETATM   42  C22 UNL     1      32.467 -10.153  -6.444  1.00  0.00     0.010 C 
BRANCH  42  43
HETATM   43  C23 UNL     1      32.687  -9.479  -7.791  1.00  0.00     0.047 C 
BRANCH  43  44
HETATM   44  C24 UNL     1      32.698  -8.044  -7.890  1.00  0.00     0.088 C 
BRANCH  44  45
HETATM   45  N8  UNL     1      31.488  -7.324  -7.703  1.00  0.00    -0.283 N 
HETATM   46  C25 UNL     1      30.570  -7.296  -8.755  1.00  0.00     0.116 A 
HETATM   47  C26 UNL     1      29.456  -6.684  -8.334  1.00  0.00     0.038 A 
HETATM   48  C27 UNL     1      29.693  -6.338  -7.011  1.00  0.00     0.109 A 
HETATM   49  N9  UNL     1      30.925  -6.739  -6.695  1.00  0.00    -0.306 N 
ATOM     50  H9  UNL     1      31.364  -6.604  -5.783  1.00  0.00     0.186 HD
ENDBRANCH  44  45
ENDBRANCH  43  44
ENDBRANCH  42  43
ENDBRANCH  41  42
ENDBRANCH   7  41
TORSDOF 19
ENDMDL
MODEL 3
REMARK VINA RESULT: -8.104129301      3.686      5.163
REMARK  19 active torsions:
REMARK  status: ('A' for Active; 'I' for Inactive)
REMARK       I    between atoms: N1_1  and  C1_4 
REMARK       I    between atoms: C1_4  and  N3_6 
REMARK    1  A    between atoms: N3_6  and  C2_8 
REMARK    2  A    between atoms: C2_8  and  C3_9 
REMARK    3  A    between atoms: C3_9  and  C4_10 
REMARK    4  A    between atoms: C4_10  and  N4_11 
REMARK       I    between atoms: N4_11  and  C5_12 
REMARK    5  A    between atoms: C5_12  and  C6_14 
REMARK    6  A    between atoms: C6_14  and  C7_15 
REMARK    7  A    between atoms: C8_17  and  N5_18 
REMARK    8  A    between atoms: N5_18  and  C9_20 
REMARK    9  A    between atoms: C9_20  and  O2_21 
REMARK   10  A    between atoms: C9_20  and  N6_23 
REMARK   11  A    between atoms: N6_23  and  C10_25 
REMARK   12  A    between atoms: C10_25  and  C11_26 
REMARK   13  A    between atoms: C11_26  and  N7_27 
REMARK   14  A    between atoms: C11_26  and  C12_30 
REMARK   15  A    between atoms: C20_40  and  C21_41 
REMARK   16  A    between atoms: C21_41  and  C22_42 
REMARK   17  A    between atoms: C22_42  and  C23_43 
REMARK   18  A    between atoms: C23_43  and  C24_44 
REMARK   19  A    between atoms: C24_44  and  N8_45 
ROOT
HETATM    1  C7  UNL     1      34.287  -8.807  -3.891  1.00  0.00     0.004 A 
HETATM    2  S1  UNL     1      34.299  -8.757  -2.181  1.00  0.00    -0.076 SA
HETATM    3  C8  UNL     1      34.152 -10.225  -1.394  1.00  0.00     0.080 A 
HETATM    4  C18 UNL     1      34.013 -11.309  -2.275  1.00  0.00     0.080 A 
HETATM    5  C19 UNL     1      33.976 -11.237  -3.633  1.00  0.00     0.126 A 
HETATM    6  F1  UNL     1      33.864 -12.429  -4.344  1.00  0.00    -0.205 F 
HETATM    7  C20 UNL     1      34.085 -10.140  -4.426  1.00  0.00    -0.006 A 
ENDROOT
BRANCH   3   8
HETATM    8  N5  UNL     1      34.198 -10.395  -0.172  1.00  0.00    -0.317 N 
ATOM      9  H5  UNL     1      33.393 -10.855   0.254  1.00  0.00     0.170 HD
BRANCH   8  10
HETATM   10  C9  UNL     1      35.218 -10.032   0.676  1.00  0.00     0.217 C 
BRANCH  10  11
HETATM   11  O2  UNL     1      36.334 -10.707   0.570  1.00  0.00    -0.333 OA
ATOM     12  H2  UNL     1      36.834 -10.828   1.369  1.00  0.00     0.220 HD
ENDBRANCH  10  11
BRANCH  10  13
HETATM   13  N6  UNL     1      35.200  -9.012   1.601  1.00  0.00    -0.354 N 
ATOM     14  H6  UNL     1      34.415  -8.373   1.727  1.00  0.00     0.163 HD
BRANCH  13  15
HETATM   15  C10 UNL     1      36.412  -8.950   2.368  1.00  0.00     0.152 C 
BRANCH  15  16
HETATM   16  C11 UNL     1      36.336  -7.962   3.592  1.00  0.00     0.125 C 
BRANCH  16  17
HETATM   17  N7  UNL     1      36.583  -8.586   4.787  1.00  0.00    -0.421 N 
ATOM     18  H72 UNL     1      35.921  -8.853   5.516  1.00  0.00     0.150 HD
ATOM     19  H71 UNL     1      37.326  -8.132   5.319  1.00  0.00     0.150 HD
ENDBRANCH  16  17
BRANCH  16  20
HETATM   20  C12 UNL     1      36.940  -6.749   3.055  1.00  0.00    -0.034 A 
HETATM   21  C13 UNL     1      38.019  -6.768   2.228  1.00  0.00     0.011 A 
HETATM   22  C14 UNL     1      38.518  -5.604   1.636  1.00  0.00     0.019 A 
HETATM   23  C15 UNL     1      37.931  -4.381   1.838  1.00  0.00     0.011 A 
HETATM   24 BR1  UNL     1      38.587  -2.846   0.983  1.00  0.00    -0.051 Br
HETATM   25  C16 UNL     1      36.806  -4.348   2.693  1.00  0.00     0.019 A 
HETATM   26  C17 UNL     1      36.361  -5.501   3.275  1.00  0.00     0.011 A 
ENDBRANCH  16  20
ENDBRANCH  15  16
ENDBRANCH  13  15
ENDBRANCH  10  13
ENDBRANCH   8  10
ENDBRANCH   3   8
BRANCH   1  27
HETATM   27  C6  UNL     1      34.875  -7.749  -4.641  1.00  0.00     0.165 C 
BRANCH  27  28
HETATM   28  C5  UNL     1      33.524  -6.749  -4.408  1.00  0.00     0.291 C 
HETATM   29  N4  UNL     1      34.197  -5.633  -3.912  1.00  0.00    -0.415 NA
HETATM   30  O1  UNL     1      32.501  -7.099  -4.618  1.00  0.00    -0.257 OA
BRANCH  29  31
HETATM   31  C4  UNL     1      34.816  -4.580  -3.445  1.00  0.00     0.223 C 
BRANCH  31  32
HETATM   32  C3  UNL     1      34.927  -5.102  -1.963  1.00  0.00     0.053 C 
BRANCH  32  33
HETATM   33  C2  UNL     1      36.207  -4.991  -1.388  1.00  0.00     0.125 C 
BRANCH  33  34
HETATM   34  N3  UNL     1      37.079  -5.753  -2.329  1.00  0.00    -0.365 N 
HETATM   35  C1  UNL     1      38.341  -5.208  -2.264  1.00  0.00     0.181 C 
HETATM   36  N1  UNL     1      38.363  -3.896  -2.653  1.00  0.00    -0.374 N 
HETATM   37  N2  UNL     1      39.485  -5.821  -1.787  1.00  0.00    -0.064 NA
ATOM     38  H12 UNL     1      39.299  -3.492  -2.604  1.00  0.00     0.158 HD
ATOM     39  H11 UNL     1      37.519  -3.444  -3.004  1.00  0.00     0.158 HD
ATOM     40  H3  UNL     1      36.791  -6.537  -2.916  1.00  0.00     0.162 HD
ENDBRANCH  33  34
ENDBRANCH  32  33
ENDBRANCH  31  32
ENDBRANCH  29  31
ENDBRANCH  27  28
ENDBRANCH   1  27
BRANCH   7  41
HETATM   41  C21 UNL     1      33.863 -10.107  -5.880  1.00  0.00     0.043 C 
BRANCH  41  42
HETATM   42  C22 UNL     1      32.533 -10.391  -6.450  1.00  0.00     0.010 C 
BRANCH  42  43
HETATM   43  C23 UNL     1      32.547  -9.714  -7.813  1.00  0.00     0.047 C 
BRANCH  43  44
HETATM   44  C24 UNL     1      32.630  -8.281  -7.911  1.00  0.00     0.088 C 
BRANCH  44  45
HETATM   45  N8  UNL     1      31.446  -7.506  -7.791  1.00  0.00    -0.283 N 
HETATM   46  C25 UNL     1      30.803  -7.102  -8.963  1.00  0.00     0.116 A 
HETATM   47  C26 UNL     1      29.652  -6.503  -8.635  1.00  0.00     0.038 A 
HETATM   48  C27 UNL     1      29.588  -6.543  -7.248  1.00  0.00     0.109 A 
HETATM   49  N9  UNL     1      30.691  -7.147  -6.803  1.00  0.00    -0.306 N 
ATOM     50  H9  UNL     1      30.909  -7.305  -5.818  1.00  0.00     0.186 HD
ENDBRANCH  44  45
ENDBRANCH  43  44
ENDBRANCH  42  43
ENDBRANCH  41  42
ENDBRANCH   7  41
TORSDOF 19
ENDMDL
MODEL 4
REMARK VINA RESULT: -8.074980732      4.337      5.937
REMARK  19 active torsions:
REMARK  status: ('A' for Active; 'I' for Inactive)
REMARK       I    between atoms: N1_1  and  C1_4 
REMARK       I    between atoms: C1_4  and  N3_6 
REMARK    1  A    between atoms: N3_6  and  C2_8 
REMARK    2  A    between atoms: C2_8  and  C3_9 
REMARK    3  A    between atoms: C3_9  and  C4_10 
REMARK    4  A    between atoms: C4_10  and  N4_11 
REMARK       I    between atoms: N4_11  and  C5_12 
REMARK    5  A    between atoms: C5_12  and  C6_14 
REMARK    6  A    between atoms: C6_14  and  C7_15 
REMARK    7  A    between atoms: C8_17  and  N5_18 
REMARK    8  A    between atoms: N5_18  and  C9_20 
REMARK    9  A    between atoms: C9_20  and  O2_21 
REMARK   10  A    between atoms: C9_20  and  N6_23 
REMARK   11  A    between atoms: N6_23  and  C10_25 
REMARK   12  A    between atoms: C10_25  and  C11_26 
REMARK   13  A    between atoms: C11_26  and  N7_27 
REMARK   14  A    between atoms: C11_26  and  C12_30 
REMARK   15  A    between atoms: C20_40  and  C21_41 
REMARK   16  A    between atoms: C21_41  and  C22_42 
REMARK   17  A    between atoms: C22_42  and  C23_43 
REMARK   18  A    between atoms: C23_43  and  C24_44 
REMARK   19  A    between atoms: C24_44  and  N8_45 
ROOT
HETATM    1  C7  UNL     1      33.770  -7.128  -3.982  1.00  0.00     0.004 A 
HETATM    2  S1  UNL     1      34.240  -7.731  -2.450  1.00  0.00    -0.076 SA
HETATM    3  C8  UNL     1      33.278  -8.933  -1.799  1.00  0.00     0.080 A 
HETATM    4  C18 UNL     1      32.184  -9.265  -2.614  1.00  0.00     0.080 A 
HETATM    5  C19 UNL     1      31.875  -8.692  -3.809  1.00  0.00     0.126 A 
HETATM    6  F1  UNL     1      30.762  -9.176  -4.492  1.00  0.00    -0.205 F 
HETATM    7  C20 UNL     1      32.542  -7.717  -4.479  1.00  0.00    -0.006 A 
ENDROOT
BRANCH   3   8
HETATM    8  N5  UNL     1      33.488  -9.529  -0.738  1.00  0.00    -0.317 N 
ATOM      9  H5  UNL     1      32.707 -10.056  -0.349  1.00  0.00     0.170 HD
BRANCH   8  10
HETATM   10  C9  UNL     1      34.664  -9.558  -0.024  1.00  0.00     0.217 C 
BRANCH  10  11
HETATM   11  O2  UNL     1      35.465 -10.565  -0.258  1.00  0.00    -0.333 OA
ATOM     12  H2  UNL     1      36.332 -10.516   0.126  1.00  0.00     0.220 HD
ENDBRANCH  10  11
BRANCH  10  13
HETATM   13  N6  UNL     1      35.102  -8.621   0.885  1.00  0.00    -0.354 N 
ATOM     14  H6  UNL     1      34.699  -7.688   0.978  1.00  0.00     0.163 HD
BRANCH  13  15
HETATM   15  C10 UNL     1      36.189  -9.105   1.687  1.00  0.00     0.152 C 
BRANCH  15  16
HETATM   16  C11 UNL     1      36.325  -8.375   3.076  1.00  0.00     0.125 C 
BRANCH  16  17
HETATM   17  N7  UNL     1      36.682  -9.231   4.086  1.00  0.00    -0.421 N 
ATOM     18  H72 UNL     1      36.190  -9.432   4.956  1.00  0.00     0.150 HD
ATOM     19  H71 UNL     1      37.640  -9.080   4.404  1.00  0.00     0.150 HD
ENDBRANCH  16  17
BRANCH  16  20
HETATM   20  C12 UNL     1      36.926  -7.101   2.705  1.00  0.00    -0.034 A 
HETATM   21  C13 UNL     1      37.984  -7.006   1.857  1.00  0.00     0.011 A 
HETATM   22  C14 UNL     1      38.478  -5.771   1.426  1.00  0.00     0.019 A 
HETATM   23  C15 UNL     1      37.908  -4.587   1.819  1.00  0.00     0.011 A 
HETATM   24 BR1  UNL     1      38.557  -2.948   1.178  1.00  0.00    -0.051 Br
HETATM   25  C16 UNL     1      36.805  -4.672   2.698  1.00  0.00     0.019 A 
HETATM   26  C17 UNL     1      36.364  -5.895   3.118  1.00  0.00     0.011 A 
ENDBRANCH  16  20
ENDBRANCH  15  16
ENDBRANCH  13  15
ENDBRANCH  10  13
ENDBRANCH   8  10
ENDBRANCH   3   8
BRANCH   1  27
HETATM   27  C6  UNL     1      34.728  -6.498  -4.825  1.00  0.00     0.165 C 
BRANCH  27  28
HETATM   28  C5  UNL     1      34.408  -4.973  -4.153  1.00  0.00     0.291 C 
HETATM   29  N4  UNL     1      35.571  -4.853  -3.392  1.00  0.00    -0.415 NA
HETATM   30  O1  UNL     1      33.473  -4.430  -4.364  1.00  0.00    -0.257 OA
BRANCH  29  31
HETATM   31  C4  UNL     1      36.657  -4.728  -2.674  1.00  0.00     0.223 C 
BRANCH  31  32
HETATM   32  C3  UNL     1      36.425  -3.217  -2.292  1.00  0.00     0.053 C 
BRANCH  32  33
HETATM   33  C2  UNL     1      35.636  -3.008  -1.145  1.00  0.00     0.125 C 
BRANCH  33  34
HETATM   34  N3  UNL     1      35.337  -4.392  -0.671  1.00  0.00    -0.365 N 
HETATM   35  C1  UNL     1      34.053  -4.395  -0.176  1.00  0.00     0.181 C 
HETATM   36  N1  UNL     1      33.905  -3.552   0.893  1.00  0.00    -0.374 N 
HETATM   37  N2  UNL     1      32.965  -5.071  -0.696  1.00  0.00    -0.064 NA
ATOM     38  H12 UNL     1      32.953  -3.554   1.260  1.00  0.00     0.158 HD
ATOM     39  H11 UNL     1      34.707  -3.052   1.276  1.00  0.00     0.158 HD
ATOM     40  H3  UNL     1      35.970  -5.191  -0.708  1.00  0.00     0.162 HD
ENDBRANCH  33  34
ENDBRANCH  32  33
ENDBRANCH  31  32
ENDBRANCH  29  31
ENDBRANCH  27  28
ENDBRANCH   1  27
BRANCH   7  41
HETATM   41  C21 UNL     1      32.061  -7.020  -5.682  1.00  0.00     0.043 C 
BRANCH  41  42
HETATM   42  C22 UNL     1      31.867  -7.744  -6.951  1.00  0.00     0.010 C 
BRANCH  42  43
HETATM   43  C23 UNL     1      30.391  -7.565  -7.275  1.00  0.00     0.047 C 
BRANCH  43  44
HETATM   44  C24 UNL     1      29.941  -6.399  -7.988  1.00  0.00     0.088 C 
BRANCH  44  45
HETATM   45  N8  UNL     1      29.909  -6.420  -9.408  1.00  0.00    -0.283 N 
HETATM   46  C25 UNL     1      28.996  -5.586 -10.057  1.00  0.00     0.116 A 
HETATM   47  C26 UNL     1      29.214  -5.658 -11.376  1.00  0.00     0.038 A 
HETATM   48  C27 UNL     1      30.274  -6.542 -11.535  1.00  0.00     0.109 A 
HETATM   49  N9  UNL     1      30.639  -6.968 -10.325  1.00  0.00    -0.306 N 
ATOM     50  H9  UNL     1      31.391  -7.635 -10.147  1.00  0.00     0.186 HD
ENDBRANCH  44  45
ENDBRANCH  43  44
ENDBRANCH  42  43
ENDBRANCH  41  42
ENDBRANCH   7  41
TORSDOF 19
ENDMDL
MODEL 5
REMARK VINA RESULT: -8.048329444      3.901      6.195
REMARK  19 active torsions:
REMARK  status: ('A' for Active; 'I' for Inactive)
REMARK       I    between atoms: N1_1  and  C1_4 
REMARK       I    between atoms: C1_4  and  N3_6 
REMARK    1  A    between atoms: N3_6  and  C2_8 
REMARK    2  A    between atoms: C2_8  and  C3_9 
REMARK    3  A    between atoms: C3_9  and  C4_10 
REMARK    4  A    between atoms: C4_10  and  N4_11 
REMARK       I    between atoms: N4_11  and  C5_12 
REMARK    5  A    between atoms: C5_12  and  C6_14 
REMARK    6  A    between atoms: C6_14  and  C7_15 
REMARK    7  A    between atoms: C8_17  and  N5_18 
REMARK    8  A    between atoms: N5_18  and  C9_20 
REMARK    9  A    between atoms: C9_20  and  O2_21 
REMARK   10  A    between atoms: C9_20  and  N6_23 
REMARK   11  A    between atoms: N6_23  and  C10_25 
REMARK   12  A    between atoms: C10_25  and  C11_26 
REMARK   13  A    between atoms: C11_26  and  N7_27 
REMARK   14  A    between atoms: C11_26  and  C12_30 
REMARK   15  A    between atoms: C20_40  and  C21_41 
REMARK   16  A    between atoms: C21_41  and  C22_42 
REMARK   17  A    between atoms: C22_42  and  C23_43 
REMARK   18  A    between atoms: C23_43  and  C24_44 
REMARK   19  A    between atoms: C24_44  and  N8_45 
ROOT
HETATM    1  C7  UNL     1      33.451  -8.456  -2.531  1.00  0.00     0.004 A 
HETATM    2  S1  UNL     1      33.633  -6.778  -2.811  1.00  0.00    -0.076 SA
HETATM    3  C8  UNL     1      34.411  -5.906  -1.615  1.00  0.00     0.080 A 
HETATM    4  C18 UNL     1      34.789  -6.695  -0.517  1.00  0.00     0.080 A 
HETATM    5  C19 UNL     1      34.560  -8.029  -0.374  1.00  0.00     0.126 A 
HETATM    6  F1  UNL     1      35.040  -8.650   0.776  1.00  0.00    -0.205 F 
HETATM    7  C20 UNL     1      33.954  -8.882  -1.239  1.00  0.00    -0.006 A 
ENDROOT
BRANCH   3   8
HETATM    8  N5  UNL     1      34.685  -4.703  -1.663  1.00  0.00    -0.317 N 
ATOM      9  H5  UNL     1      34.727  -4.282  -2.590  1.00  0.00     0.170 HD
BRANCH   8  10
HETATM   10  C9  UNL     1      34.941  -3.871  -0.598  1.00  0.00     0.217 C 
BRANCH  10  11
HETATM   11  O2  UNL     1      34.048  -3.855   0.359  1.00  0.00    -0.333 OA
ATOM     12  H2  UNL     1      33.163  -3.616   0.109  1.00  0.00     0.220 HD
ENDBRANCH  10  11
BRANCH  10  13
HETATM   13  N6  UNL     1      36.052  -3.078  -0.417  1.00  0.00    -0.354 N 
ATOM     14  H6  UNL     1      36.014  -2.066  -0.291  1.00  0.00     0.163 HD
BRANCH  13  15
HETATM   15  C10 UNL     1      37.271  -3.837  -0.426  1.00  0.00     0.152 C 
BRANCH  15  16
HETATM   16  C11 UNL     1      38.136  -3.660   0.879  1.00  0.00     0.125 C 
BRANCH  16  17
HETATM   17  N7  UNL     1      38.200  -2.355   1.293  1.00  0.00    -0.421 N 
ATOM     18  H72 UNL     1      38.969  -1.867   1.752  1.00  0.00     0.150 HD
ATOM     19  H71 UNL     1      37.397  -2.086   1.863  1.00  0.00     0.150 HD
ENDBRANCH  16  17
BRANCH  16  20
HETATM   20  C12 UNL     1      37.787  -4.845   1.651  1.00  0.00    -0.034 A 
HETATM   21  C13 UNL     1      36.899  -4.818   2.681  1.00  0.00     0.011 A 
HETATM   22  C14 UNL     1      36.494  -5.983   3.339  1.00  0.00     0.019 A 
HETATM   23  C15 UNL     1      36.953  -7.221   2.968  1.00  0.00     0.011 A 
HETATM   24 BR1  UNL     1      36.346  -8.771   3.832  1.00  0.00    -0.051 Br
HETATM   25  C16 UNL     1      37.873  -7.263   1.896  1.00  0.00     0.019 A 
HETATM   26  C17 UNL     1      38.266  -6.103   1.292  1.00  0.00     0.011 A 
ENDBRANCH  16  20
ENDBRANCH  15  16
ENDBRANCH  13  15
ENDBRANCH  10  13
ENDBRANCH   8  10
ENDBRANCH   3   8
BRANCH   1  27
HETATM   27  C6  UNL     1      33.267  -9.347  -3.627  1.00  0.00     0.165 C 
BRANCH  27  28
HETATM   28  C5  UNL     1      31.596  -9.054  -3.666  1.00  0.00     0.291 C 
HETATM   29  N4  UNL     1      31.469  -8.864  -5.042  1.00  0.00    -0.415 NA
HETATM   30  O1  UNL     1      30.990  -9.029  -2.747  1.00  0.00    -0.257 OA
BRANCH  29  31
HETATM   31  C4  UNL     1      31.337  -8.685  -6.331  1.00  0.00     0.223 C 
BRANCH  31  32
HETATM   32  C3  UNL     1      30.815  -7.201  -6.233  1.00  0.00     0.053 C 
BRANCH  32  33
HETATM   33  C2  UNL     1      31.172  -6.373  -7.315  1.00  0.00     0.125 C 
BRANCH  33  34
HETATM   34  N3  UNL     1      29.890  -5.696  -7.672  1.00  0.00    -0.365 N 
HETATM   35  C1  UNL     1      29.973  -5.315  -8.992  1.00  0.00     0.181 C 
HETATM   36  N1  UNL     1      30.987  -4.423  -9.214  1.00  0.00    -0.374 N 
HETATM   37  N2  UNL     1      29.217  -5.799 -10.044  1.00  0.00    -0.064 NA
ATOM     38  H12 UNL     1      31.048  -4.140 -10.192  1.00  0.00     0.158 HD
ATOM     39  H11 UNL     1      31.544  -4.066  -8.438  1.00  0.00     0.158 HD
ATOM     40  H3  UNL     1      29.096  -5.543  -7.050  1.00  0.00     0.162 HD
ENDBRANCH  33  34
ENDBRANCH  32  33
ENDBRANCH  31  32
ENDBRANCH  29  31
ENDBRANCH  27  28
ENDBRANCH   1  27
BRANCH   7  41
HETATM   41  C21 UNL     1      33.583 -10.276  -0.950  1.00  0.00     0.043 C 
BRANCH  41  42
HETATM   42  C22 UNL     1      34.598 -11.344  -0.938  1.00  0.00     0.010 C 
BRANCH  42  43
HETATM   43  C23 UNL     1      34.868 -11.601   0.538  1.00  0.00     0.047 C 
BRANCH  43  44
HETATM   44  C24 UNL     1      34.238 -12.707   1.208  1.00  0.00     0.088 C 
BRANCH  44  45
HETATM   45  N8  UNL     1      34.238 -12.752   2.628  1.00  0.00    -0.283 N 
HETATM   46  C25 UNL     1      34.677 -13.924   3.249  1.00  0.00     0.116 A 
HETATM   47  C26 UNL     1      34.723 -13.716   4.570  1.00  0.00     0.038 A 
HETATM   48  C27 UNL     1      34.313 -12.403   4.760  1.00  0.00     0.109 A 
HETATM   49  N9  UNL     1      34.030 -11.883   3.564  1.00  0.00    -0.306 N 
ATOM     50  H9  UNL     1      33.696 -10.931   3.409  1.00  0.00     0.186 HD
ENDBRANCH  44  45
ENDBRANCH  43  44
ENDBRANCH  42  43
ENDBRANCH  41  42
ENDBRANCH   7  41
TORSDOF 19
ENDMDL
