MODEL 1
REMARK VINA RESULT: -9.968325372      0.000      0.000
REMARK  6 active torsions:
REMARK  status: ('A' for Active; 'I' for Inactive)
REMARK    1  A    between atoms: C4_4  and  C5_5 
REMARK    2  A    between atoms: C5_5  and  C6_6 
REMARK    3  A    between atoms: C11_11  and  O1_12 
REMARK    4  A    between atoms: O1_12  and  C12_13 
REMARK    5  A    between atoms: C12_13  and  C13_14 
REMARK    6  A    between atoms: C13_14  and  C14_15 
ROOT
HETATM    1  C6  UNL     1      31.762  18.874  48.775  1.00  0.00    -0.021 A 
HETATM    2  C7  UNL     1      30.480  18.415  48.663  1.00  0.00     0.010 A 
HETATM    3  C8  UNL     1      29.715  18.187  49.771  1.00  0.00     0.001 A 
HETATM    4  C9  UNL     1      30.272  18.433  51.000  1.00  0.00     0.003 A 
HETATM    5  C10 UNL     1      31.584  18.904  51.125  1.00  0.00     0.037 A 
HETATM    6  C11 UNL     1      32.361  19.137  50.018  1.00  0.00     0.075 A 
ENDROOT
BRANCH   6   7
HETATM    7  O1  UNL     1      33.639  19.589  50.044  1.00  0.00    -0.350 OA
BRANCH   7   8
HETATM    8  C12 UNL     1      34.770  19.195  50.701  1.00  0.00     0.180 C 
BRANCH   8   9
HETATM    9  C13 UNL     1      35.086  20.073  51.885  1.00  0.00     0.067 C 
BRANCH   9  10
HETATM   10  C14 UNL     1      35.031  19.206  53.119  1.00  0.00    -0.028 A 
HETATM   11  C15 UNL     1      33.927  18.955  53.917  1.00  0.00     0.096 A 
HETATM   12  N1  UNL     1      34.256  18.134  54.929  1.00  0.00    -0.365 N 
HETATM   13  C16 UNL     1      35.561  17.863  54.779  1.00  0.00     0.042 A 
ATOM     14  H1  UNL     1      33.638  17.788  55.664  1.00  0.00     0.165 HD
HETATM   15  C17 UNL     1      36.433  17.071  55.532  1.00  0.00     0.030 A 
HETATM   16  C21 UNL     1      36.072  18.500  53.680  1.00  0.00    -0.002 A 
HETATM   17  C18 UNL     1      37.748  16.960  55.154  1.00  0.00     0.002 A 
HETATM   18  C19 UNL     1      38.265  17.599  54.050  1.00  0.00     0.001 A 
HETATM   19  C20 UNL     1      37.402  18.379  53.310  1.00  0.00     0.014 A 
ENDBRANCH   9  10
ENDBRANCH   8   9
ENDBRANCH   7   8
ENDBRANCH   6   7
BRANCH   1  20
HETATM   20  C5  UNL     1      32.595  19.122  47.570  1.00  0.00     0.080 C 
BRANCH  20  21
HETATM   21  C4  UNL     1      31.914  20.064  46.640  1.00  0.00    -0.054 A 
HETATM   22  C3  UNL     1      31.688  21.343  47.034  1.00  0.00     0.007 A 
HETATM   23  C2  UNL     1      31.060  22.227  46.189  1.00  0.00     0.001 A 
HETATM   24  C1  UNL     1      30.645  21.848  44.934  1.00  0.00     0.000 A 
HETATM   25  C23 UNL     1      30.887  20.539  44.558  1.00  0.00     0.001 A 
HETATM   26  C22 UNL     1      31.511  19.656  45.394  1.00  0.00     0.007 A 
ENDBRANCH  20  21
ENDBRANCH   1  20
TORSDOF 6
ENDMDL
MODEL 2
REMARK VINA RESULT: -9.754634922      1.578      3.040
REMARK  6 active torsions:
REMARK  status: ('A' for Active; 'I' for Inactive)
REMARK    1  A    between atoms: C4_4  and  C5_5 
REMARK    2  A    between atoms: C5_5  and  C6_6 
REMARK    3  A    between atoms: C11_11  and  O1_12 
REMARK    4  A    between atoms: O1_12  and  C12_13 
REMARK    5  A    between atoms: C12_13  and  C13_14 
REMARK    6  A    between atoms: C13_14  and  C14_15 
ROOT
HETATM    1  C6  UNL     1      31.798  20.037  46.355  1.00  0.00    -0.021 A 
HETATM    2  C7  UNL     1      31.775  19.673  45.039  1.00  0.00     0.010 A 
HETATM    3  C8  UNL     1      31.958  18.372  44.666  1.00  0.00     0.001 A 
HETATM    4  C9  UNL     1      32.167  17.442  45.652  1.00  0.00     0.003 A 
HETATM    5  C10 UNL     1      32.192  17.806  47.004  1.00  0.00     0.037 A 
HETATM    6  C11 UNL     1      32.007  19.109  47.390  1.00  0.00     0.075 A 
ENDROOT
BRANCH   6   7
HETATM    7  O1  UNL     1      32.019  19.551  48.671  1.00  0.00    -0.350 OA
BRANCH   7   8
HETATM    8  C12 UNL     1      32.617  19.115  49.819  1.00  0.00     0.180 C 
BRANCH   8   9
HETATM    9  C13 UNL     1      32.928  20.240  50.772  1.00  0.00     0.067 C 
BRANCH   9  10
HETATM   10  C14 UNL     1      33.484  19.626  52.033  1.00  0.00    -0.028 A 
HETATM   11  C15 UNL     1      32.811  19.399  53.222  1.00  0.00     0.096 A 
HETATM   12  N1  UNL     1      33.629  18.835  54.126  1.00  0.00    -0.365 N 
HETATM   13  C16 UNL     1      34.818  18.702  53.519  1.00  0.00     0.042 A 
ATOM     14  H1  UNL     1      33.394  18.563  55.081  1.00  0.00     0.165 HD
HETATM   15  C17 UNL     1      36.034  18.181  53.972  1.00  0.00     0.030 A 
HETATM   16  C21 UNL     1      34.770  19.175  52.235  1.00  0.00    -0.002 A 
HETATM   17  C18 UNL     1      37.120  18.162  53.132  1.00  0.00     0.002 A 
HETATM   18  C19 UNL     1      37.075  18.636  51.841  1.00  0.00     0.001 A 
HETATM   19  C20 UNL     1      35.873  19.148  51.397  1.00  0.00     0.014 A 
ENDBRANCH   9  10
ENDBRANCH   8   9
ENDBRANCH   7   8
ENDBRANCH   6   7
BRANCH   1  20
HETATM   20  C5  UNL     1      31.598  21.452  46.763  1.00  0.00     0.080 C 
BRANCH  20  21
HETATM   21  C4  UNL     1      30.248  21.932  46.362  1.00  0.00    -0.054 A 
HETATM   22  C3  UNL     1      30.139  22.918  45.435  1.00  0.00     0.007 A 
HETATM   23  C2  UNL     1      28.900  23.375  45.053  1.00  0.00     0.001 A 
HETATM   24  C1  UNL     1      27.746  22.854  45.590  1.00  0.00     0.000 A 
HETATM   25  C23 UNL     1      27.885  21.851  46.532  1.00  0.00     0.001 A 
HETATM   26  C22 UNL     1      29.115  21.393  46.917  1.00  0.00     0.007 A 
ENDBRANCH  20  21
ENDBRANCH   1  20
TORSDOF 6
ENDMDL
MODEL 3
REMARK VINA RESULT: -9.678612430      1.709      3.089
REMARK  6 active torsions:
REMARK  status: ('A' for Active; 'I' for Inactive)
REMARK    1  A    between atoms: C4_4  and  C5_5 
REMARK    2  A    between atoms: C5_5  and  C6_6 
REMARK    3  A    between atoms: C11_11  and  O1_12 
REMARK    4  A    between atoms: O1_12  and  C12_13 
REMARK    5  A    between atoms: C12_13  and  C13_14 
REMARK    6  A    between atoms: C13_14  and  C14_15 
ROOT
HETATM    1  C6  UNL     1      31.740  20.197  47.013  1.00  0.00    -0.021 A 
HETATM    2  C7  UNL     1      31.756  19.742  45.725  1.00  0.00     0.010 A 
HETATM    3  C8  UNL     1      32.014  18.431  45.446  1.00  0.00     0.001 A 
HETATM    4  C9  UNL     1      32.257  17.584  46.497  1.00  0.00     0.003 A 
HETATM    5  C10 UNL     1      32.243  18.041  47.820  1.00  0.00     0.037 A 
HETATM    6  C11 UNL     1      31.983  19.356  48.112  1.00  0.00     0.075 A 
ENDROOT
BRANCH   6   7
HETATM    7  O1  UNL     1      31.952  19.885  49.360  1.00  0.00    -0.350 OA
BRANCH   7   8
HETATM    8  C12 UNL     1      32.241  19.399  50.604  1.00  0.00     0.180 C 
BRANCH   8   9
HETATM    9  C13 UNL     1      33.052  20.366  51.427  1.00  0.00     0.067 C 
BRANCH   9  10
HETATM   10  C14 UNL     1      34.424  19.766  51.609  1.00  0.00    -0.028 A 
HETATM   11  C15 UNL     1      35.461  19.755  50.691  1.00  0.00     0.096 A 
HETATM   12  N1  UNL     1      36.536  19.130  51.203  1.00  0.00    -0.365 N 
HETATM   13  C16 UNL     1      36.187  18.745  52.439  1.00  0.00     0.042 A 
ATOM     14  H1  UNL     1      37.434  18.979  50.743  1.00  0.00     0.165 HD
HETATM   15  C17 UNL     1      36.899  18.059  53.428  1.00  0.00     0.030 A 
HETATM   16  C21 UNL     1      34.901  19.116  52.726  1.00  0.00    -0.002 A 
HETATM   17  C18 UNL     1      36.297  17.785  54.632  1.00  0.00     0.002 A 
HETATM   18  C19 UNL     1      35.005  18.156  54.923  1.00  0.00     0.001 A 
HETATM   19  C20 UNL     1      34.306  18.833  53.945  1.00  0.00     0.014 A 
ENDBRANCH   9  10
ENDBRANCH   8   9
ENDBRANCH   7   8
ENDBRANCH   6   7
BRANCH   1  20
HETATM   20  C5  UNL     1      31.459  21.624  47.319  1.00  0.00     0.080 C 
BRANCH  20  21
HETATM   21  C4  UNL     1      30.200  22.068  46.661  1.00  0.00    -0.054 A 
HETATM   22  C3  UNL     1      29.016  21.539  47.062  1.00  0.00     0.007 A 
HETATM   23  C2  UNL     1      27.842  21.936  46.466  1.00  0.00     0.001 A 
HETATM   24  C1  UNL     1      27.831  22.870  45.457  1.00  0.00     0.000 A 
HETATM   25  C23 UNL     1      29.051  23.393  45.067  1.00  0.00     0.001 A 
HETATM   26  C22 UNL     1      30.221  23.001  45.657  1.00  0.00     0.007 A 
ENDBRANCH  20  21
ENDBRANCH   1  20
TORSDOF 6
ENDMDL
MODEL 4
REMARK VINA RESULT: -9.676104390      2.210      4.516
REMARK  6 active torsions:
REMARK  status: ('A' for Active; 'I' for Inactive)
REMARK    1  A    between atoms: C4_4  and  C5_5 
REMARK    2  A    between atoms: C5_5  and  C6_6 
REMARK    3  A    between atoms: C11_11  and  O1_12 
REMARK    4  A    between atoms: O1_12  and  C12_13 
REMARK    5  A    between atoms: C12_13  and  C13_14 
REMARK    6  A    between atoms: C13_14  and  C14_15 
ROOT
HETATM    1  C6  UNL     1      30.825  19.469  44.660  1.00  0.00    -0.021 A 
HETATM    2  C7  UNL     1      30.962  19.758  43.332  1.00  0.00     0.010 A 
HETATM    3  C8  UNL     1      31.845  19.070  42.550  1.00  0.00     0.001 A 
HETATM    4  C9  UNL     1      32.592  18.081  43.137  1.00  0.00     0.003 A 
HETATM    5  C10 UNL     1      32.459  17.778  44.497  1.00  0.00     0.037 A 
HETATM    6  C11 UNL     1      31.574  18.461  45.292  1.00  0.00     0.075 A 
ENDROOT
BRANCH   6   7
HETATM    7  O1  UNL     1      31.382  18.238  46.615  1.00  0.00    -0.350 OA
BRANCH   7   8
HETATM    8  C12 UNL     1      32.219  17.990  47.666  1.00  0.00     0.180 C 
BRANCH   8   9
HETATM    9  C13 UNL     1      32.804  19.250  48.248  1.00  0.00     0.067 C 
BRANCH   9  10
HETATM   10  C14 UNL     1      32.634  19.180  49.746  1.00  0.00    -0.028 A 
HETATM   11  C15 UNL     1      31.461  18.951  50.445  1.00  0.00     0.096 A 
HETATM   12  N1  UNL     1      31.693  18.957  51.769  1.00  0.00    -0.365 N 
HETATM   13  C16 UNL     1      33.007  19.187  51.914  1.00  0.00     0.042 A 
ATOM     14  H1  UNL     1      31.009  18.815  52.513  1.00  0.00     0.165 HD
HETATM   15  C17 UNL     1      33.805  19.298  53.057  1.00  0.00     0.030 A 
HETATM   16  C21 UNL     1      33.619  19.329  50.698  1.00  0.00    -0.002 A 
HETATM   17  C18 UNL     1      35.150  19.541  52.925  1.00  0.00     0.002 A 
HETATM   18  C19 UNL     1      35.768  19.684  51.705  1.00  0.00     0.001 A 
HETATM   19  C20 UNL     1      34.977  19.573  50.579  1.00  0.00     0.014 A 
ENDBRANCH   9  10
ENDBRANCH   8   9
ENDBRANCH   7   8
ENDBRANCH   6   7
BRANCH   1  20
HETATM   20  C5  UNL     1      29.865  20.216  45.512  1.00  0.00     0.080 C 
BRANCH  20  21
HETATM   21  C4  UNL     1      30.255  21.647  45.621  1.00  0.00    -0.054 A 
HETATM   22  C3  UNL     1      29.457  22.599  45.073  1.00  0.00     0.007 A 
HETATM   23  C2  UNL     1      29.802  23.927  45.163  1.00  0.00     0.001 A 
HETATM   24  C1  UNL     1      30.951  24.329  45.802  1.00  0.00     0.000 A 
HETATM   25  C23 UNL     1      31.746  23.339  46.351  1.00  0.00     0.001 A 
HETATM   26  C22 UNL     1      31.409  22.017  46.265  1.00  0.00     0.007 A 
ENDBRANCH  20  21
ENDBRANCH   1  20
TORSDOF 6
ENDMDL
MODEL 5
REMARK VINA RESULT: -9.553079582      2.911      8.599
REMARK  6 active torsions:
REMARK  status: ('A' for Active; 'I' for Inactive)
REMARK    1  A    between atoms: C4_4  and  C5_5 
REMARK    2  A    between atoms: C5_5  and  C6_6 
REMARK    3  A    between atoms: C11_11  and  O1_12 
REMARK    4  A    between atoms: O1_12  and  C12_13 
REMARK    5  A    between atoms: C12_13  and  C13_14 
REMARK    6  A    between atoms: C13_14  and  C14_15 
ROOT
HETATM    1  C6  UNL     1      31.723  19.609  50.407  1.00  0.00    -0.021 A 
HETATM    2  C7  UNL     1      30.964  18.958  51.338  1.00  0.00     0.010 A 
HETATM    3  C8  UNL     1      29.897  18.192  50.965  1.00  0.00     0.001 A 
HETATM    4  C9  UNL     1      29.608  18.096  49.628  1.00  0.00     0.003 A 
HETATM    5  C10 UNL     1      30.380  18.759  48.666  1.00  0.00     0.037 A 
HETATM    6  C11 UNL     1      31.456  19.529  49.030  1.00  0.00     0.075 A 
ENDROOT
BRANCH   6   7
HETATM    7  O1  UNL     1      32.255  20.207  48.170  1.00  0.00    -0.350 OA
BRANCH   7   8
HETATM    8  C12 UNL     1      32.929  19.865  47.031  1.00  0.00     0.180 C 
BRANCH   8   9
HETATM    9  C13 UNL     1      32.489  18.534  46.478  1.00  0.00     0.067 C 
BRANCH   9  10
HETATM   10  C14 UNL     1      32.049  18.759  45.052  1.00  0.00    -0.028 A 
HETATM   11  C15 UNL     1      32.642  18.260  43.904  1.00  0.00     0.096 A 
HETATM   12  N1  UNL     1      31.974  18.670  42.813  1.00  0.00    -0.365 N 
HETATM   13  C16 UNL     1      30.961  19.427  43.261  1.00  0.00     0.042 A 
ATOM     14  H1  UNL     1      32.193  18.451  41.841  1.00  0.00     0.165 HD
HETATM   15  C17 UNL     1      29.948  20.111  42.581  1.00  0.00     0.030 A 
HETATM   16  C21 UNL     1      30.972  19.505  44.628  1.00  0.00    -0.002 A 
HETATM   17  C18 UNL     1      29.016  20.826  43.293  1.00  0.00     0.002 A 
HETATM   18  C19 UNL     1      29.024  20.907  44.666  1.00  0.00     0.001 A 
HETATM   19  C20 UNL     1      30.025  20.230  45.333  1.00  0.00     0.014 A 
ENDBRANCH   9  10
ENDBRANCH   8   9
ENDBRANCH   7   8
ENDBRANCH   6   7
BRANCH   1  20
HETATM   20  C5  UNL     1      32.885  20.441  50.812  1.00  0.00     0.080 C 
BRANCH  20  21
HETATM   21  C4  UNL     1      33.825  19.661  51.662  1.00  0.00    -0.054 A 
HETATM   22  C3  UNL     1      34.961  19.161  51.113  1.00  0.00     0.007 A 
HETATM   23  C2  UNL     1      35.841  18.437  51.883  1.00  0.00     0.001 A 
HETATM   24  C1  UNL     1      35.601  18.200  53.216  1.00  0.00     0.000 A 
HETATM   25  C23 UNL     1      34.436  18.720  53.749  1.00  0.00     0.001 A 
HETATM   26  C22 UNL     1      33.557  19.440  52.989  1.00  0.00     0.007 A 
ENDBRANCH  20  21
ENDBRANCH   1  20
TORSDOF 6
ENDMDL
