MODEL 1
REMARK VINA RESULT: -9.095824663      0.000      0.000
REMARK  6 active torsions:
REMARK  status: ('A' for Active; 'I' for Inactive)
REMARK    1  A    between atoms: C4_4  and  C5_5 
REMARK    2  A    between atoms: C5_5  and  C6_6 
REMARK    3  A    between atoms: C6_6  and  C7_7 
REMARK    4  A    between atoms: C7_7  and  C8_8 
REMARK    5  A    between atoms: C8_8  and  C9_9 
REMARK    6  A    between atoms: C8_8  and  C15_15 
ROOT
HETATM    1  C8  UNL     1      30.956  18.840  46.947  1.00  0.00     0.054 C 
ENDROOT
BRANCH   1   2
HETATM    2  C7  UNL     1      32.228  18.402  46.303  1.00  0.00     0.014 C 
BRANCH   2   3
HETATM    3  C6  UNL     1      32.042  17.508  45.115  1.00  0.00     0.006 C 
BRANCH   3   4
HETATM    4  C5  UNL     1      32.549  18.124  43.832  1.00  0.00     0.038 C 
BRANCH   4   5
HETATM    5  C4  UNL     1      31.529  19.099  43.366  1.00  0.00    -0.058 A 
HETATM    6  C3  UNL     1      30.186  18.801  43.259  1.00  0.00     0.007 A 
HETATM    7  C2  UNL     1      29.247  19.710  42.825  1.00  0.00     0.001 A 
HETATM    8  C1  UNL     1      29.653  20.998  42.474  1.00  0.00     0.000 A 
HETATM    9  C23 UNL     1      30.983  21.316  42.572  1.00  0.00     0.001 A 
HETATM   10  C22 UNL     1      31.896  20.391  43.007  1.00  0.00     0.007 A 
ENDBRANCH   4   5
ENDBRANCH   3   4
ENDBRANCH   2   3
ENDBRANCH   1   2
BRANCH   1  11
HETATM   11  C9  UNL     1      30.736  20.269  46.598  1.00  0.00    -0.050 A 
HETATM   12  C10 UNL     1      31.806  21.142  46.449  1.00  0.00     0.008 A 
HETATM   13  C11 UNL     1      31.627  22.480  46.112  1.00  0.00     0.001 A 
HETATM   14  C12 UNL     1      30.357  22.988  45.912  1.00  0.00     0.000 A 
HETATM   15  C13 UNL     1      29.301  22.114  46.062  1.00  0.00     0.001 A 
HETATM   16  C14 UNL     1      29.479  20.790  46.395  1.00  0.00     0.008 A 
ENDBRANCH   1  11
BRANCH   1  17
HETATM   17  C15 UNL     1      30.920  18.712  48.408  1.00  0.00    -0.020 A 
HETATM   18  C16 UNL     1      29.850  18.305  49.215  1.00  0.00     0.098 A 
HETATM   19  N1  UNL     1      30.285  18.326  50.481  1.00  0.00    -0.351 N 
HETATM   20  C17 UNL     1      31.568  18.720  50.569  1.00  0.00     0.115 A 
ATOM     21  H1  UNL     1      29.711  18.074  51.285  1.00  0.00     0.166 HD
HETATM   22  N2  UNL     1      32.419  18.895  51.621  1.00  0.00    -0.352 N 
HETATM   23  C21 UNL     1      31.970  18.964  49.262  1.00  0.00     0.016 A 
HETATM   24  C18 UNL     1      33.668  19.305  51.464  1.00  0.00     0.089 A 
ATOM     25  H2  UNL     1      32.079  18.704  52.564  1.00  0.00     0.166 HD
HETATM   26  C19 UNL     1      34.117  19.561  50.196  1.00  0.00     0.018 A 
HETATM   27  C20 UNL     1      33.286  19.396  49.102  1.00  0.00     0.017 A 
ENDBRANCH   1  17
TORSDOF 6
ENDMDL
MODEL 2
REMARK VINA RESULT: -8.967206277      0.878      2.019
REMARK  6 active torsions:
REMARK  status: ('A' for Active; 'I' for Inactive)
REMARK    1  A    between atoms: C4_4  and  C5_5 
REMARK    2  A    between atoms: C5_5  and  C6_6 
REMARK    3  A    between atoms: C6_6  and  C7_7 
REMARK    4  A    between atoms: C7_7  and  C8_8 
REMARK    5  A    between atoms: C8_8  and  C9_9 
REMARK    6  A    between atoms: C8_8  and  C15_15 
ROOT
HETATM    1  C8  UNL     1      31.632  19.260  46.580  1.00  0.00     0.054 C 
ENDROOT
BRANCH   1   2
HETATM    2  C7  UNL     1      32.664  19.013  45.531  1.00  0.00     0.014 C 
BRANCH   2   3
HETATM    3  C6  UNL     1      32.342  17.879  44.605  1.00  0.00     0.006 C 
BRANCH   3   4
HETATM    4  C5  UNL     1      32.404  18.277  43.149  1.00  0.00     0.038 C 
BRANCH   4   5
HETATM    5  C4  UNL     1      31.392  19.343  42.930  1.00  0.00    -0.058 A 
HETATM    6  C3  UNL     1      31.714  20.633  42.561  1.00  0.00     0.007 A 
HETATM    7  C2  UNL     1      30.770  21.615  42.361  1.00  0.00     0.001 A 
HETATM    8  C1  UNL     1      29.419  21.312  42.535  1.00  0.00     0.000 A 
HETATM    9  C23 UNL     1      29.076  20.036  42.902  1.00  0.00     0.001 A 
HETATM   10  C22 UNL     1      30.037  19.078  43.094  1.00  0.00     0.007 A 
ENDBRANCH   4   5
ENDBRANCH   3   4
ENDBRANCH   2   3
ENDBRANCH   1   2
BRANCH   1  11
HETATM   11  C9  UNL     1      31.021  20.589  46.313  1.00  0.00    -0.050 A 
HETATM   12  C10 UNL     1      31.809  21.693  46.013  1.00  0.00     0.008 A 
HETATM   13  C11 UNL     1      31.260  22.944  45.749  1.00  0.00     0.001 A 
HETATM   14  C12 UNL     1      29.890  23.128  45.778  1.00  0.00     0.000 A 
HETATM   15  C13 UNL     1      29.115  22.027  46.076  1.00  0.00     0.001 A 
HETATM   16  C14 UNL     1      29.660  20.789  46.337  1.00  0.00     0.008 A 
ENDBRANCH   1  11
BRANCH   1  17
HETATM   17  C15 UNL     1      32.131  19.251  47.960  1.00  0.00    -0.020 A 
HETATM   18  C16 UNL     1      33.420  19.552  48.415  1.00  0.00     0.098 A 
HETATM   19  N1  UNL     1      33.403  19.426  49.749  1.00  0.00    -0.351 N 
HETATM   20  C17 UNL     1      32.191  19.063  50.207  1.00  0.00     0.115 A 
ATOM     21  H1  UNL     1      34.213  19.586  50.347  1.00  0.00     0.166 HD
HETATM   22  N2  UNL     1      31.704  18.816  51.457  1.00  0.00    -0.352 N 
HETATM   23  C21 UNL     1      31.387  18.952  49.079  1.00  0.00     0.016 A 
HETATM   24  C18 UNL     1      30.447  18.459  51.672  1.00  0.00     0.089 A 
ATOM     25  H2  UNL     1      32.332  18.910  52.256  1.00  0.00     0.166 HD
HETATM   26  C19 UNL     1      29.611  18.334  50.595  1.00  0.00     0.018 A 
HETATM   27  C20 UNL     1      30.066  18.575  49.311  1.00  0.00     0.017 A 
ENDBRANCH   1  17
TORSDOF 6
ENDMDL
MODEL 3
REMARK VINA RESULT: -8.555979023      1.321      3.046
REMARK  6 active torsions:
REMARK  status: ('A' for Active; 'I' for Inactive)
REMARK    1  A    between atoms: C4_4  and  C5_5 
REMARK    2  A    between atoms: C5_5  and  C6_6 
REMARK    3  A    between atoms: C6_6  and  C7_7 
REMARK    4  A    between atoms: C7_7  and  C8_8 
REMARK    5  A    between atoms: C8_8  and  C9_9 
REMARK    6  A    between atoms: C8_8  and  C15_15 
ROOT
HETATM    1  C8  UNL     1      31.010  20.369  48.752  1.00  0.00     0.054 C 
ENDROOT
BRANCH   1   2
HETATM    2  C7  UNL     1      29.545  20.618  48.625  1.00  0.00     0.014 C 
BRANCH   2   3
HETATM    3  C6  UNL     1      29.190  21.753  47.712  1.00  0.00     0.006 C 
BRANCH   3   4
HETATM    4  C5  UNL     1      28.254  21.340  46.600  1.00  0.00     0.038 C 
BRANCH   4   5
HETATM    5  C4  UNL     1      29.025  21.369  45.329  1.00  0.00    -0.058 A 
HETATM    6  C3  UNL     1      28.961  20.373  44.378  1.00  0.00     0.007 A 
HETATM    7  C2  UNL     1      29.679  20.408  43.203  1.00  0.00     0.001 A 
HETATM    8  C1  UNL     1      30.516  21.494  42.946  1.00  0.00     0.000 A 
HETATM    9  C23 UNL     1      30.596  22.497  43.878  1.00  0.00     0.001 A 
HETATM   10  C22 UNL     1      29.869  22.435  45.039  1.00  0.00     0.007 A 
ENDBRANCH   4   5
ENDBRANCH   3   4
ENDBRANCH   2   3
ENDBRANCH   1   2
BRANCH   1  11
HETATM   11  C9  UNL     1      31.477  19.743  47.485  1.00  0.00    -0.050 A 
HETATM   12  C10 UNL     1      31.019  18.492  47.093  1.00  0.00     0.008 A 
HETATM   13  C11 UNL     1      31.433  17.891  45.908  1.00  0.00     0.001 A 
HETATM   14  C12 UNL     1      32.326  18.534  45.072  1.00  0.00     0.000 A 
HETATM   15  C13 UNL     1      32.775  19.776  45.468  1.00  0.00     0.001 A 
HETATM   16  C14 UNL     1      32.365  20.370  46.642  1.00  0.00     0.008 A 
ENDBRANCH   1  11
BRANCH   1  17
HETATM   17  C15 UNL     1      31.401  19.498  49.866  1.00  0.00    -0.020 A 
HETATM   18  C16 UNL     1      30.579  18.688  50.660  1.00  0.00     0.098 A 
HETATM   19  N1  UNL     1      31.376  18.065  51.537  1.00  0.00    -0.351 N 
HETATM   20  C17 UNL     1      32.668  18.406  51.380  1.00  0.00     0.115 A 
ATOM     21  H1  UNL     1      31.043  17.408  52.243  1.00  0.00     0.166 HD
HETATM   22  N2  UNL     1      33.813  18.043  52.026  1.00  0.00    -0.352 N 
HETATM   23  C21 UNL     1      32.685  19.311  50.326  1.00  0.00     0.016 A 
HETATM   24  C18 UNL     1      35.001  18.524  51.692  1.00  0.00     0.089 A 
ATOM     25  H2  UNL     1      33.752  17.375  52.795  1.00  0.00     0.166 HD
HETATM   26  C19 UNL     1      35.075  19.420  50.659  1.00  0.00     0.018 A 
HETATM   27  C20 UNL     1      33.937  19.815  49.979  1.00  0.00     0.017 A 
ENDBRANCH   1  17
TORSDOF 6
ENDMDL
MODEL 4
REMARK VINA RESULT: -8.551506375      1.558      3.584
REMARK  6 active torsions:
REMARK  status: ('A' for Active; 'I' for Inactive)
REMARK    1  A    between atoms: C4_4  and  C5_5 
REMARK    2  A    between atoms: C5_5  and  C6_6 
REMARK    3  A    between atoms: C6_6  and  C7_7 
REMARK    4  A    between atoms: C7_7  and  C8_8 
REMARK    5  A    between atoms: C8_8  and  C9_9 
REMARK    6  A    between atoms: C8_8  and  C15_15 
ROOT
HETATM    1  C8  UNL     1      32.141  20.162  49.132  1.00  0.00     0.054 C 
ENDROOT
BRANCH   1   2
HETATM    2  C7  UNL     1      30.740  20.615  49.368  1.00  0.00     0.014 C 
BRANCH   2   3
HETATM    3  C6  UNL     1      30.291  21.724  48.465  1.00  0.00     0.006 C 
BRANCH   3   4
HETATM    4  C5  UNL     1      29.155  21.316  47.556  1.00  0.00     0.038 C 
BRANCH   4   5
HETATM    5  C4  UNL     1      29.603  21.521  46.155  1.00  0.00    -0.058 A 
HETATM    6  C3  UNL     1      30.328  22.619  45.742  1.00  0.00     0.007 A 
HETATM    7  C2  UNL     1      30.740  22.802  44.440  1.00  0.00     0.001 A 
HETATM    8  C1  UNL     1      30.417  21.843  43.479  1.00  0.00     0.000 A 
HETATM    9  C23 UNL     1      29.696  20.743  43.868  1.00  0.00     0.001 A 
HETATM   10  C22 UNL     1      29.300  20.587  45.170  1.00  0.00     0.007 A 
ENDBRANCH   4   5
ENDBRANCH   3   4
ENDBRANCH   2   3
ENDBRANCH   1   2
BRANCH   1  11
HETATM   11  C9  UNL     1      32.190  19.506  47.798  1.00  0.00    -0.050 A 
HETATM   12  C10 UNL     1      31.514  18.317  47.560  1.00  0.00     0.008 A 
HETATM   13  C11 UNL     1      31.535  17.690  46.317  1.00  0.00     0.001 A 
HETATM   14  C12 UNL     1      32.240  18.244  45.266  1.00  0.00     0.000 A 
HETATM   15  C13 UNL     1      32.907  19.426  45.511  1.00  0.00     0.001 A 
HETATM   16  C14 UNL     1      32.886  20.045  46.741  1.00  0.00     0.008 A 
ENDBRANCH   1  11
BRANCH   1  17
HETATM   17  C15 UNL     1      32.669  19.220  50.126  1.00  0.00    -0.020 A 
HETATM   18  C16 UNL     1      31.983  18.204  50.803  1.00  0.00     0.098 A 
HETATM   19  N1  UNL     1      32.874  17.594  51.597  1.00  0.00    -0.351 N 
HETATM   20  C17 UNL     1      34.100  18.137  51.493  1.00  0.00     0.115 A 
ATOM     21  H1  UNL     1      32.648  16.811  52.210  1.00  0.00     0.166 HD
HETATM   22  N2  UNL     1      35.294  17.863  52.093  1.00  0.00    -0.352 N 
HETATM   23  C21 UNL     1      33.972  19.163  50.565  1.00  0.00     0.016 A 
HETATM   24  C18 UNL     1      36.395  18.551  51.831  1.00  0.00     0.089 A 
ATOM     25  H2  UNL     1      35.340  17.100  52.769  1.00  0.00     0.166 HD
HETATM   26  C19 UNL     1      36.325  19.574  50.924  1.00  0.00     0.018 A 
HETATM   27  C20 UNL     1      35.134  19.884  50.295  1.00  0.00     0.017 A 
ENDBRANCH   1  17
TORSDOF 6
ENDMDL
MODEL 5
REMARK VINA RESULT: -8.508455284      1.558      3.387
REMARK  6 active torsions:
REMARK  status: ('A' for Active; 'I' for Inactive)
REMARK    1  A    between atoms: C4_4  and  C5_5 
REMARK    2  A    between atoms: C5_5  and  C6_6 
REMARK    3  A    between atoms: C6_6  and  C7_7 
REMARK    4  A    between atoms: C7_7  and  C8_8 
REMARK    5  A    between atoms: C8_8  and  C9_9 
REMARK    6  A    between atoms: C8_8  and  C15_15 
ROOT
HETATM    1  C8  UNL     1      32.167  20.175  49.126  1.00  0.00     0.054 C 
ENDROOT
BRANCH   1   2
HETATM    2  C7  UNL     1      30.786  20.680  49.378  1.00  0.00     0.014 C 
BRANCH   2   3
HETATM    3  C6  UNL     1      30.341  21.756  48.433  1.00  0.00     0.006 C 
BRANCH   3   4
HETATM    4  C5  UNL     1      29.179  21.330  47.566  1.00  0.00     0.038 C 
BRANCH   4   5
HETATM    5  C4  UNL     1      29.592  21.495  46.148  1.00  0.00    -0.058 A 
HETATM    6  C3  UNL     1      29.301  20.578  45.160  1.00  0.00     0.007 A 
HETATM    7  C2  UNL     1      29.688  20.738  43.847  1.00  0.00     0.001 A 
HETATM    8  C1  UNL     1      30.410  21.875  43.481  1.00  0.00     0.000 A 
HETATM    9  C23 UNL     1      30.712  22.800  44.448  1.00  0.00     0.001 A 
HETATM   10  C22 UNL     1      30.313  22.614  45.746  1.00  0.00     0.007 A 
ENDBRANCH   4   5
ENDBRANCH   3   4
ENDBRANCH   2   3
ENDBRANCH   1   2
BRANCH   1  11
HETATM   11  C9  UNL     1      32.169  19.494  47.804  1.00  0.00    -0.050 A 
HETATM   12  C10 UNL     1      32.860  20.029  46.724  1.00  0.00     0.008 A 
HETATM   13  C11 UNL     1      32.887  19.405  45.481  1.00  0.00     0.001 A 
HETATM   14  C12 UNL     1      32.214  18.214  45.280  1.00  0.00     0.000 A 
HETATM   15  C13 UNL     1      31.531  17.690  46.357  1.00  0.00     0.001 A 
HETATM   16  C14 UNL     1      31.506  18.308  47.588  1.00  0.00     0.008 A 
ENDBRANCH   1  11
BRANCH   1  17
HETATM   17  C15 UNL     1      32.680  19.235  50.129  1.00  0.00    -0.020 A 
HETATM   18  C16 UNL     1      31.981  18.229  50.808  1.00  0.00     0.098 A 
HETATM   19  N1  UNL     1      32.861  17.616  51.610  1.00  0.00    -0.351 N 
HETATM   20  C17 UNL     1      34.093  18.146  51.508  1.00  0.00     0.115 A 
ATOM     21  H1  UNL     1      32.625  16.838  52.226  1.00  0.00     0.166 HD
HETATM   22  N2  UNL     1      35.281  17.864  52.116  1.00  0.00    -0.352 N 
HETATM   23  C21 UNL     1      33.980  19.168  50.574  1.00  0.00     0.016 A 
HETATM   24  C18 UNL     1      36.391  18.539  51.856  1.00  0.00     0.089 A 
ATOM     25  H2  UNL     1      35.317  17.104  52.797  1.00  0.00     0.166 HD
HETATM   26  C19 UNL     1      36.336  19.558  50.943  1.00  0.00     0.018 A 
HETATM   27  C20 UNL     1      35.150  19.876  50.305  1.00  0.00     0.017 A 
ENDBRANCH   1  17
TORSDOF 6
ENDMDL
