MODEL 1
REMARK VINA RESULT: -6.636801519      0.000      0.000
REMARK  9 active torsions:
REMARK  status: ('A' for Active; 'I' for Inactive)
REMARK       I    between atoms: C2_2  and  N1_4 
REMARK    1  A    between atoms: C3_5  and  C4_6 
REMARK       I    between atoms: C4_6  and  N2_8 
REMARK    2  A    between atoms: N2_8  and  C5_10 
REMARK    3  A    between atoms: C5_10  and  C6_11 
REMARK    4  A    between atoms: C6_11  and  C7_12 
REMARK    5  A    between atoms: C7_12  and  C8_13 
REMARK    6  A    between atoms: C8_13  and  N3_14 
REMARK       I    between atoms: N3_14  and  C9_16 
REMARK    7  A    between atoms: C14_23  and  N5_24 
REMARK    8  A    between atoms: N5_24  and  C15_25 
REMARK    9  A    between atoms: C15_25  and  C16_26 
ROOT
HETATM    1  C1  UNL     1       2.864   7.646  24.037  1.00  0.00     0.117 C 
HETATM    2  C2  UNL     1       3.268   6.345  23.463  1.00  0.00     0.217 C 
HETATM    3  O1  UNL     1       2.638   5.352  23.923  1.00  0.00    -0.274 OA
HETATM    4  N1  UNL     1       4.292   6.268  22.468  1.00  0.00    -0.332 N 
HETATM    5  C3  UNL     1       4.981   7.480  22.073  1.00  0.00     0.180 C 
HETATM    6  C10 UNL     1       5.858   7.124  20.945  1.00  0.00     0.042 C 
HETATM    7  C11 UNL     1       5.425   5.762  20.524  1.00  0.00     0.013 C 
HETATM    8  C12 UNL     1       4.306   5.841  19.514  1.00  0.00     0.009 C 
HETATM    9  C13 UNL     1       3.218   4.935  20.038  1.00  0.00     0.036 C 
HETATM   10  C14 UNL     1       3.728   4.216  21.237  1.00  0.00     0.214 C 
HETATM   11  C23 UNL     1       4.799   5.124  21.730  1.00  0.00     0.123 C 
ENDROOT
BRANCH   5  12
HETATM   12  C4  UNL     1       5.775   8.024  23.233  1.00  0.00     0.240 C 
HETATM   13  O2  UNL     1       5.709   9.203  23.619  1.00  0.00    -0.271 OA
HETATM   14  N2  UNL     1       6.634   7.129  23.902  1.00  0.00    -0.359 N 
ATOM     15  H2  UNL     1       6.700   6.159  23.594  1.00  0.00     0.162 HD
BRANCH  14  16
HETATM   16  C5  UNL     1       7.418   7.584  25.015  1.00  0.00     0.122 C 
BRANCH  16  17
HETATM   17  C6  UNL     1       8.860   7.703  24.601  1.00  0.00     0.021 C 
BRANCH  17  18
HETATM   18  C7  UNL     1       9.215   9.081  24.112  1.00  0.00     0.021 C 
BRANCH  18  19
HETATM   19  C8  UNL     1       9.245   9.163  22.610  1.00  0.00     0.124 C 
BRANCH  19  20
HETATM   20  N3  UNL     1       8.290  10.075  22.045  1.00  0.00    -0.345 N 
HETATM   21  C9  UNL     1       8.009  10.101  20.661  1.00  0.00     0.328 C 
HETATM   22  N4  UNL     1       7.055  11.025  20.143  1.00  0.00    -0.040 NA
HETATM   23  O3  UNL     1       8.552   9.348  19.818  1.00  0.00    -0.251 OA
ATOM     24  H3  UNL     1       7.801  10.724  22.662  1.00  0.00     0.163 HD
ENDBRANCH  19  20
ENDBRANCH  18  19
ENDBRANCH  17  18
ENDBRANCH  16  17
ENDBRANCH  14  16
ENDBRANCH   5  12
BRANCH  10  25
HETATM   25  N5  UNL     1       4.074   2.834  21.084  1.00  0.00    -0.047 N 
HETATM   26  C17 UNL     1       4.642   2.432  22.393  1.00  0.00     0.243 C 
HETATM   27  C18 UNL     1       3.605   1.646  23.116  1.00  0.00     0.014 C 
HETATM   28  C19 UNL     1       3.707   0.223  22.534  1.00  0.00     0.008 C 
HETATM   29  C22 UNL     1       2.324   2.054  22.427  1.00  0.00     0.039 C 
HETATM   30  C20 UNL     1       3.325   0.501  21.090  1.00  0.00     0.034 C 
HETATM   31  C21 UNL     1       2.933   1.980  21.018  1.00  0.00     0.192 C 
BRANCH  25  32
HETATM   32  C15 UNL     1       5.057   2.492  20.131  1.00  0.00     0.351 C 
BRANCH  32  33
HETATM   33  C16 UNL     1       6.397   2.130  20.574  1.00  0.00     0.199 C 
HETATM   34  O4  UNL     1       7.277   3.049  20.405  1.00  0.00    -0.647 OA
HETATM   35  O5  UNL     1       6.859   0.981  21.134  1.00  0.00    -0.647 OA
ENDBRANCH  32  33
ENDBRANCH  25  32
ENDBRANCH  10  25
TORSDOF 9
ENDMDL
MODEL 2
REMARK VINA RESULT: -6.579732545      3.562      8.068
REMARK  9 active torsions:
REMARK  status: ('A' for Active; 'I' for Inactive)
REMARK       I    between atoms: C2_2  and  N1_4 
REMARK    1  A    between atoms: C3_5  and  C4_6 
REMARK       I    between atoms: C4_6  and  N2_8 
REMARK    2  A    between atoms: N2_8  and  C5_10 
REMARK    3  A    between atoms: C5_10  and  C6_11 
REMARK    4  A    between atoms: C6_11  and  C7_12 
REMARK    5  A    between atoms: C7_12  and  C8_13 
REMARK    6  A    between atoms: C8_13  and  N3_14 
REMARK       I    between atoms: N3_14  and  C9_16 
REMARK    7  A    between atoms: C14_23  and  N5_24 
REMARK    8  A    between atoms: N5_24  and  C15_25 
REMARK    9  A    between atoms: C15_25  and  C16_26 
ROOT
HETATM    1  C1  UNL     1       3.758   4.629  17.698  1.00  0.00     0.117 C 
HETATM    2  C2  UNL     1       4.623   5.315  18.682  1.00  0.00     0.217 C 
HETATM    3  O1  UNL     1       5.126   6.397  18.271  1.00  0.00    -0.274 OA
HETATM    4  N1  UNL     1       4.838   4.760  19.982  1.00  0.00    -0.332 N 
HETATM    5  C3  UNL     1       4.249   3.476  20.304  1.00  0.00     0.180 C 
HETATM    6  C10 UNL     1       4.508   3.235  21.733  1.00  0.00     0.042 C 
HETATM    7  C11 UNL     1       4.987   4.539  22.273  1.00  0.00     0.013 C 
HETATM    8  C12 UNL     1       3.828   5.397  22.717  1.00  0.00     0.009 C 
HETATM    9  C13 UNL     1       4.031   6.737  22.050  1.00  0.00     0.036 C 
HETATM   10  C14 UNL     1       5.348   6.732  21.358  1.00  0.00     0.214 C 
HETATM   11  C23 UNL     1       5.584   5.283  21.113  1.00  0.00     0.123 C 
ENDROOT
BRANCH   5  12
HETATM   12  C4  UNL     1       4.862   2.398  19.449  1.00  0.00     0.240 C 
HETATM   13  O2  UNL     1       4.204   1.499  18.898  1.00  0.00    -0.271 OA
HETATM   14  N2  UNL     1       6.261   2.428  19.276  1.00  0.00    -0.359 N 
ATOM     15  H2  UNL     1       6.814   3.159  19.723  1.00  0.00     0.162 HD
BRANCH  14  16
HETATM   16  C5  UNL     1       6.907   1.429  18.472  1.00  0.00     0.122 C 
BRANCH  16  17
HETATM   17  C6  UNL     1       7.842   0.620  19.330  1.00  0.00     0.021 C 
BRANCH  17  18
HETATM   18  C7  UNL     1       9.243   0.576  18.785  1.00  0.00     0.021 C 
BRANCH  18  19
HETATM   19  C8  UNL     1       9.332  -0.200  17.499  1.00  0.00     0.124 C 
BRANCH  19  20
HETATM   20  N3  UNL     1      10.411  -1.146  17.450  1.00  0.00    -0.345 N 
HETATM   21  C9  UNL     1      10.367  -2.288  16.619  1.00  0.00     0.328 C 
HETATM   22  N4  UNL     1      11.461  -3.203  16.604  1.00  0.00    -0.040 NA
HETATM   23  O3  UNL     1       9.406  -2.574  15.866  1.00  0.00    -0.251 OA
ATOM     24  H3  UNL     1      11.234  -0.990  18.033  1.00  0.00     0.163 HD
ENDBRANCH  19  20
ENDBRANCH  18  19
ENDBRANCH  17  18
ENDBRANCH  16  17
ENDBRANCH  14  16
ENDBRANCH   5  12
BRANCH  10  25
HETATM   25  N5  UNL     1       6.419   7.466  21.965  1.00  0.00    -0.047 N 
HETATM   26  C17 UNL     1       7.658   6.817  21.473  1.00  0.00     0.243 C 
HETATM   27  C18 UNL     1       8.238   7.688  20.414  1.00  0.00     0.014 C 
HETATM   28  C19 UNL     1       9.007   8.783  21.178  1.00  0.00     0.008 C 
HETATM   29  C22 UNL     1       7.062   8.533  19.984  1.00  0.00     0.039 C 
HETATM   30  C20 UNL     1       7.858   9.449  21.914  1.00  0.00     0.034 C 
HETATM   31  C21 UNL     1       6.574   8.776  21.421  1.00  0.00     0.192 C 
BRANCH  25  32
HETATM   32  C15 UNL     1       6.526   7.452  23.372  1.00  0.00     0.351 C 
BRANCH  32  33
HETATM   33  C16 UNL     1       5.976   8.555  24.149  1.00  0.00     0.199 C 
HETATM   34  O4  UNL     1       6.809   9.098  24.960  1.00  0.00    -0.647 OA
HETATM   35  O5  UNL     1       4.730   9.097  24.149  1.00  0.00    -0.647 OA
ENDBRANCH  32  33
ENDBRANCH  25  32
ENDBRANCH  10  25
TORSDOF 9
ENDMDL
MODEL 3
REMARK VINA RESULT: -6.550906350      2.318      3.059
REMARK  9 active torsions:
REMARK  status: ('A' for Active; 'I' for Inactive)
REMARK       I    between atoms: C2_2  and  N1_4 
REMARK    1  A    between atoms: C3_5  and  C4_6 
REMARK       I    between atoms: C4_6  and  N2_8 
REMARK    2  A    between atoms: N2_8  and  C5_10 
REMARK    3  A    between atoms: C5_10  and  C6_11 
REMARK    4  A    between atoms: C6_11  and  C7_12 
REMARK    5  A    between atoms: C7_12  and  C8_13 
REMARK    6  A    between atoms: C8_13  and  N3_14 
REMARK       I    between atoms: N3_14  and  C9_16 
REMARK    7  A    between atoms: C14_23  and  N5_24 
REMARK    8  A    between atoms: N5_24  and  C15_25 
REMARK    9  A    between atoms: C15_25  and  C16_26 
ROOT
HETATM    1  C1  UNL     1       3.410   7.772  24.009  1.00  0.00     0.117 C 
HETATM    2  C2  UNL     1       3.687   6.464  23.379  1.00  0.00     0.217 C 
HETATM    3  O1  UNL     1       3.104   5.486  23.926  1.00  0.00    -0.274 OA
HETATM    4  N1  UNL     1       4.549   6.364  22.243  1.00  0.00    -0.332 N 
HETATM    5  C3  UNL     1       5.206   7.559  21.752  1.00  0.00     0.180 C 
HETATM    6  C10 UNL     1       5.894   7.186  20.506  1.00  0.00     0.042 C 
HETATM    7  C11 UNL     1       5.365   5.839  20.151  1.00  0.00     0.013 C 
HETATM    8  C12 UNL     1       4.111   5.956  19.319  1.00  0.00     0.009 C 
HETATM    9  C13 UNL     1       3.087   5.077  19.998  1.00  0.00     0.036 C 
HETATM   10  C14 UNL     1       3.750   4.337  21.106  1.00  0.00     0.214 C 
HETATM   11  C23 UNL     1       4.908   5.211  21.436  1.00  0.00     0.123 C 
ENDROOT
BRANCH   5  12
HETATM   12  C4  UNL     1       6.179   8.073  22.782  1.00  0.00     0.240 C 
HETATM   13  O2  UNL     1       6.042   9.155  23.378  1.00  0.00    -0.271 OA
HETATM   14  N2  UNL     1       7.299   7.268  23.069  1.00  0.00    -0.359 N 
ATOM     15  H2  UNL     1       7.425   6.378  22.586  1.00  0.00     0.162 HD
BRANCH  14  16
HETATM   16  C5  UNL     1       8.263   7.700  24.041  1.00  0.00     0.122 C 
BRANCH  16  17
HETATM   17  C6  UNL     1       9.297   8.568  23.374  1.00  0.00     0.021 C 
BRANCH  17  18
HETATM   18  C7  UNL     1      10.183   9.282  24.358  1.00  0.00     0.021 C 
BRANCH  18  19
HETATM   19  C8  UNL     1      10.507   8.431  25.555  1.00  0.00     0.124 C 
BRANCH  19  20
HETATM   20  N3  UNL     1      11.893   8.072  25.672  1.00  0.00    -0.345 N 
HETATM   21  C9  UNL     1      12.384   7.335  26.773  1.00  0.00     0.328 C 
HETATM   22  N4  UNL     1      13.769   7.003  26.848  1.00  0.00    -0.040 NA
HETATM   23  O3  UNL     1      11.675   6.936  27.726  1.00  0.00    -0.251 OA
ATOM     24  H3  UNL     1      12.541   8.358  24.938  1.00  0.00     0.163 HD
ENDBRANCH  19  20
ENDBRANCH  18  19
ENDBRANCH  17  18
ENDBRANCH  16  17
ENDBRANCH  14  16
ENDBRANCH   5  12
BRANCH  10  25
HETATM   25  N5  UNL     1       4.029   2.947  20.900  1.00  0.00    -0.047 N 
HETATM   26  C17 UNL     1       4.781   2.523  22.106  1.00  0.00     0.243 C 
HETATM   27  C18 UNL     1       3.846   1.762  22.979  1.00  0.00     0.014 C 
HETATM   28  C19 UNL     1       3.818   0.340  22.387  1.00  0.00     0.008 C 
HETATM   29  C22 UNL     1       2.486   2.208  22.496  1.00  0.00     0.039 C 
HETATM   30  C20 UNL     1       3.225   0.635  21.020  1.00  0.00     0.034 C 
HETATM   31  C21 UNL     1       2.869   2.124  21.010  1.00  0.00     0.192 C 
BRANCH  25  32
HETATM   32  C15 UNL     1       4.844   2.583  19.807  1.00  0.00     0.351 C 
BRANCH  32  33
HETATM   33  C16 UNL     1       6.236   2.218  20.034  1.00  0.00     0.199 C 
HETATM   34  O4  UNL     1       6.491   0.971  19.866  1.00  0.00    -0.647 OA
HETATM   35  O5  UNL     1       7.301   2.983  20.390  1.00  0.00    -0.647 OA
ENDBRANCH  32  33
ENDBRANCH  25  32
ENDBRANCH  10  25
TORSDOF 9
ENDMDL
MODEL 4
REMARK VINA RESULT: -6.524111960      1.029      1.053
REMARK  9 active torsions:
REMARK  status: ('A' for Active; 'I' for Inactive)
REMARK       I    between atoms: C2_2  and  N1_4 
REMARK    1  A    between atoms: C3_5  and  C4_6 
REMARK       I    between atoms: C4_6  and  N2_8 
REMARK    2  A    between atoms: N2_8  and  C5_10 
REMARK    3  A    between atoms: C5_10  and  C6_11 
REMARK    4  A    between atoms: C6_11  and  C7_12 
REMARK    5  A    between atoms: C7_12  and  C8_13 
REMARK    6  A    between atoms: C8_13  and  N3_14 
REMARK       I    between atoms: N3_14  and  C9_16 
REMARK    7  A    between atoms: C14_23  and  N5_24 
REMARK    8  A    between atoms: N5_24  and  C15_25 
REMARK    9  A    between atoms: C15_25  and  C16_26 
ROOT
HETATM    1  C1  UNL     1       2.223   7.401  24.622  1.00  0.00     0.117 C 
HETATM    2  C2  UNL     1       2.733   6.178  23.968  1.00  0.00     0.217 C 
HETATM    3  O1  UNL     1       2.285   5.100  24.450  1.00  0.00    -0.274 OA
HETATM    4  N1  UNL     1       3.655   6.258  22.878  1.00  0.00    -0.332 N 
HETATM    5  C3  UNL     1       4.139   7.560  22.462  1.00  0.00     0.180 C 
HETATM    6  C10 UNL     1       4.939   7.348  21.245  1.00  0.00     0.042 C 
HETATM    7  C11 UNL     1       4.646   5.950  20.818  1.00  0.00     0.013 C 
HETATM    8  C12 UNL     1       3.433   5.904  19.923  1.00  0.00     0.009 C 
HETATM    9  C13 UNL     1       2.527   4.850  20.516  1.00  0.00     0.036 C 
HETATM   10  C14 UNL     1       3.242   4.179  21.635  1.00  0.00     0.214 C 
HETATM   11  C23 UNL     1       4.231   5.209  22.056  1.00  0.00     0.123 C 
ENDROOT
BRANCH   5  12
HETATM   12  C4  UNL     1       4.967   8.178  23.559  1.00  0.00     0.240 C 
HETATM   13  O2  UNL     1       4.617   9.180  24.204  1.00  0.00    -0.271 OA
HETATM   14  N2  UNL     1       6.203   7.569  23.855  1.00  0.00    -0.359 N 
ATOM     15  H2  UNL     1       6.504   6.746  23.333  1.00  0.00     0.162 HD
BRANCH  14  16
HETATM   16  C5  UNL     1       7.039   8.108  24.891  1.00  0.00     0.122 C 
BRANCH  16  17
HETATM   17  C6  UNL     1       8.371   7.406  24.879  1.00  0.00     0.021 C 
BRANCH  17  18
HETATM   18  C7  UNL     1       9.533   8.359  24.959  1.00  0.00     0.021 C 
BRANCH  18  19
HETATM   19  C8  UNL     1       9.472   9.424  23.899  1.00  0.00     0.124 C 
BRANCH  19  20
HETATM   20  N3  UNL     1       9.722   8.952  22.566  1.00  0.00    -0.345 N 
HETATM   21  C9  UNL     1       8.756   9.058  21.541  1.00  0.00     0.328 C 
HETATM   22  N4  UNL     1       9.047   8.573  20.232  1.00  0.00    -0.040 NA
HETATM   23  O3  UNL     1       7.618   9.562  21.695  1.00  0.00    -0.251 OA
ATOM     24  H3  UNL     1      10.625   8.526  22.353  1.00  0.00     0.163 HD
ENDBRANCH  19  20
ENDBRANCH  18  19
ENDBRANCH  17  18
ENDBRANCH  16  17
ENDBRANCH  14  16
ENDBRANCH   5  12
BRANCH  10  25
HETATM   25  N5  UNL     1       3.747   2.858  21.401  1.00  0.00    -0.047 N 
HETATM   26  C17 UNL     1       4.313   2.427  22.702  1.00  0.00     0.243 C 
HETATM   27  C18 UNL     1       3.348   1.480  23.325  1.00  0.00     0.014 C 
HETATM   28  C19 UNL     1       3.630   0.124  22.651  1.00  0.00     0.008 C 
HETATM   29  C22 UNL     1       2.053   1.793  22.614  1.00  0.00     0.039 C 
HETATM   30  C20 UNL     1       3.266   0.463  21.216  1.00  0.00     0.034 C 
HETATM   31  C21 UNL     1       2.713   1.890  21.230  1.00  0.00     0.192 C 
BRANCH  25  32
HETATM   32  C15 UNL     1       4.794   2.697  20.469  1.00  0.00     0.351 C 
BRANCH  32  33
HETATM   33  C16 UNL     1       6.142   2.405  20.938  1.00  0.00     0.199 C 
HETATM   34  O4  UNL     1       6.945   3.405  20.897  1.00  0.00    -0.647 OA
HETATM   35  O5  UNL     1       6.678   1.250  21.412  1.00  0.00    -0.647 OA
ENDBRANCH  32  33
ENDBRANCH  25  32
ENDBRANCH  10  25
TORSDOF 9
ENDMDL
MODEL 5
REMARK VINA RESULT: -6.389262822      2.269      2.931
REMARK  9 active torsions:
REMARK  status: ('A' for Active; 'I' for Inactive)
REMARK       I    between atoms: C2_2  and  N1_4 
REMARK    1  A    between atoms: C3_5  and  C4_6 
REMARK       I    between atoms: C4_6  and  N2_8 
REMARK    2  A    between atoms: N2_8  and  C5_10 
REMARK    3  A    between atoms: C5_10  and  C6_11 
REMARK    4  A    between atoms: C6_11  and  C7_12 
REMARK    5  A    between atoms: C7_12  and  C8_13 
REMARK    6  A    between atoms: C8_13  and  N3_14 
REMARK       I    between atoms: N3_14  and  C9_16 
REMARK    7  A    between atoms: C14_23  and  N5_24 
REMARK    8  A    between atoms: N5_24  and  C15_25 
REMARK    9  A    between atoms: C15_25  and  C16_26 
ROOT
HETATM    1  C1  UNL     1       1.125   6.524  25.227  1.00  0.00     0.117 C 
HETATM    2  C2  UNL     1       1.892   5.755  24.223  1.00  0.00     0.217 C 
HETATM    3  O1  UNL     1       2.145   4.564  24.557  1.00  0.00    -0.274 OA
HETATM    4  N1  UNL     1       2.288   6.355  22.987  1.00  0.00    -0.332 N 
HETATM    5  C3  UNL     1       1.987   7.754  22.756  1.00  0.00     0.180 C 
HETATM    6  C10 UNL     1       2.371   8.048  21.365  1.00  0.00     0.042 C 
HETATM    7  C11 UNL     1       2.612   6.720  20.733  1.00  0.00     0.013 C 
HETATM    8  C12 UNL     1       1.333   6.154  20.167  1.00  0.00     0.009 C 
HETATM    9  C13 UNL     1       1.226   4.753  20.720  1.00  0.00     0.036 C 
HETATM   10  C14 UNL     1       2.475   4.435  21.464  1.00  0.00     0.214 C 
HETATM   11  C23 UNL     1       2.980   5.782  21.846  1.00  0.00     0.123 C 
ENDROOT
BRANCH   5  12
HETATM   12  C4  UNL     1       2.752   8.614  23.728  1.00  0.00     0.240 C 
HETATM   13  O2  UNL     1       2.244   9.555  24.361  1.00  0.00    -0.271 OA
HETATM   14  N2  UNL     1       4.117   8.319  23.916  1.00  0.00    -0.359 N 
ATOM     15  H2  UNL     1       4.547   7.549  23.402  1.00  0.00     0.162 HD
BRANCH  14  16
HETATM   16  C5  UNL     1       4.902   9.100  24.829  1.00  0.00     0.122 C 
BRANCH  16  17
HETATM   17  C6  UNL     1       6.360   8.770  24.651  1.00  0.00     0.021 C 
BRANCH  17  18
HETATM   18  C7  UNL     1       6.884   9.162  23.297  1.00  0.00     0.021 C 
BRANCH  18  19
HETATM   19  C8  UNL     1       8.388   9.168  23.247  1.00  0.00     0.124 C 
BRANCH  19  20
HETATM   20  N3  UNL     1       9.025   8.901  24.506  1.00  0.00    -0.345 N 
HETATM   21  C9  UNL     1      10.406   9.124  24.707  1.00  0.00     0.328 C 
HETATM   22  N4  UNL     1      10.998   8.842  25.973  1.00  0.00    -0.040 NA
HETATM   23  O3  UNL     1      11.183   9.566  23.829  1.00  0.00    -0.251 OA
ATOM     24  H3  UNL     1       8.465   8.538  25.277  1.00  0.00     0.163 HD
ENDBRANCH  19  20
ENDBRANCH  18  19
ENDBRANCH  17  18
ENDBRANCH  16  17
ENDBRANCH  14  16
ENDBRANCH   5  12
BRANCH  10  25
HETATM   25  N5  UNL     1       3.412   3.549  20.839  1.00  0.00    -0.047 N 
HETATM   26  C17 UNL     1       4.658   3.685  21.631  1.00  0.00     0.243 C 
HETATM   27  C18 UNL     1       4.770   2.488  22.509  1.00  0.00     0.014 C 
HETATM   28  C19 UNL     1       5.358   1.386  21.606  1.00  0.00     0.008 C 
HETATM   29  C22 UNL     1       3.353   1.968  22.563  1.00  0.00     0.039 C 
HETATM   30  C20 UNL     1       4.240   1.256  20.587  1.00  0.00     0.034 C 
HETATM   31  C21 UNL     1       3.108   2.172  21.060  1.00  0.00     0.192 C 
BRANCH  25  32
HETATM   32  C15 UNL     1       3.790   3.807  19.504  1.00  0.00     0.351 C 
BRANCH  32  33
HETATM   33  C16 UNL     1       5.099   4.379  19.222  1.00  0.00     0.199 C 
HETATM   34  O4  UNL     1       5.884   3.606  18.564  1.00  0.00    -0.647 OA
HETATM   35  O5  UNL     1       5.617   5.594  19.541  1.00  0.00    -0.647 OA
ENDBRANCH  32  33
ENDBRANCH  25  32
ENDBRANCH  10  25
TORSDOF 9
ENDMDL
