MODEL 1
REMARK VINA RESULT: -6.888818937      0.000      0.000
REMARK  9 active torsions:
REMARK  status: ('A' for Active; 'I' for Inactive)
REMARK    1  A    between atoms: C2_2  and  C3_3 
REMARK    2  A    between atoms: C3_3  and  C4_4 
REMARK    3  A    between atoms: C4_4  and  C5_5 
REMARK    4  A    between atoms: N4_13  and  C8_14 
REMARK    5  A    between atoms: C8_14  and  C9_15 
REMARK       I    between atoms: C9_15  and  N5_17 
REMARK    6  A    between atoms: N5_17  and  C10_19 
REMARK    7  A    between atoms: C10_19  and  C11_20 
REMARK    8  A    between atoms: C11_20  and  N6_21 
REMARK    9  A    between atoms: C14_26  and  N7_27 
ROOT
HETATM    1  C5  UNL     1       5.874   6.821  20.396  1.00  0.00     0.056 A 
HETATM    2  N1  UNL     1       5.631   5.791  19.546  1.00  0.00    -0.352 N 
ATOM      3  H1  UNL     1       6.150   5.601  18.687  1.00  0.00     0.166 HD
HETATM    4  C6  UNL     1       4.615   5.069  20.004  1.00  0.00     0.185 A 
HETATM    5  N2  UNL     1       4.164   5.585  21.143  1.00  0.00    -0.325 N 
HETATM    6  C7  UNL     1       4.934   6.675  21.406  1.00  0.00     0.152 A 
HETATM    7  N3  UNL     1       4.825   7.569  22.557  1.00  0.00    -0.199 N 
ATOM      8  H3  UNL     1       5.467   8.362  22.519  1.00  0.00     0.195 HD
HETATM    9  N4  UNL     1       4.037   7.559  23.677  1.00  0.00     0.026 N 
HETATM   10  C13 UNL     1       2.842   8.334  23.798  1.00  0.00     0.299 C 
HETATM   11  C14 UNL     1       1.578   7.601  24.153  1.00  0.00     0.220 C 
HETATM   12  C21 UNL     1       1.277   6.299  23.374  1.00  0.00     0.063 C 
HETATM   13  C22 UNL     1       2.501   6.114  22.599  1.00  0.00     0.094 C 
HETATM   14  C23 UNL     1       2.317   7.090  21.522  1.00  0.00     0.072 C 
HETATM   15  N8  UNL     1       2.154   7.850  20.640  1.00  0.00    -0.196 NA
HETATM   16  C24 UNL     1       3.004   4.963  21.846  1.00  0.00     0.158 C 
HETATM   17  C25 UNL     1       3.509   6.239  23.640  1.00  0.00     0.291 C 
ENDROOT
BRANCH  11  18
HETATM   18  N7  UNL     1       0.451   8.472  24.259  1.00  0.00    -0.065 N 
HETATM   19  C15 UNL     1       0.600   9.758  23.606  1.00  0.00     0.273 C 
HETATM   20  C16 UNL     1       0.185   8.862  25.664  1.00  0.00     0.237 C 
HETATM   21  C17 UNL     1      -0.600   7.818  26.393  1.00  0.00     0.028 C 
HETATM   22  C18 UNL     1      -2.063   8.011  25.967  1.00  0.00     0.003 C 
HETATM   23  C19 UNL     1      -2.008   8.450  24.518  1.00  0.00     0.028 C 
HETATM   24  C20 UNL     1      -0.796   7.842  23.835  1.00  0.00     0.237 C 
ENDBRANCH  11  18
BRANCH   9  25
HETATM   25  C8  UNL     1       4.860   7.694  24.857  1.00  0.00     0.367 C 
BRANCH  25  26
HETATM   26  C9  UNL     1       6.243   8.124  24.689  1.00  0.00     0.246 C 
HETATM   27  O1  UNL     1       6.541   9.223  24.195  1.00  0.00    -0.272 OA
HETATM   28  N5  UNL     1       7.334   7.285  25.092  1.00  0.00    -0.358 N 
ATOM     29  H5  UNL     1       7.141   6.370  25.499  1.00  0.00     0.162 HD
BRANCH  28  30
HETATM   30  C10 UNL     1       8.686   7.711  24.930  1.00  0.00     0.150 C 
BRANCH  30  31
HETATM   31  C11 UNL     1       9.550   7.595  26.156  1.00  0.00     0.251 C 
BRANCH  31  32
HETATM   32  N6  UNL     1      10.764   8.369  25.867  1.00  0.00    -0.077 N 
HETATM   33  C12 UNL     1      10.537   9.195  24.702  1.00  0.00     0.267 C 
ATOM     34  H62 UNL     1      11.076   8.914  26.672  1.00  0.00     0.276 HD
ATOM     35  H61 UNL     1      11.587   7.775  25.766  1.00  0.00     0.276 HD
ENDBRANCH  31  32
ENDBRANCH  30  31
ENDBRANCH  28  30
ENDBRANCH  25  26
ENDBRANCH   9  25
BRANCH   1  36
HETATM   36  C4  UNL     1       6.905   7.855  20.246  1.00  0.00     0.061 C 
BRANCH  36  37
HETATM   37  C3  UNL     1       8.125   7.552  21.063  1.00  0.00     0.006 C 
BRANCH  37  38
HETATM   38  C2  UNL     1       8.880   8.826  21.426  1.00  0.00    -0.004 C 
HETATM   39  C1  UNL     1       8.048  10.032  21.040  1.00  0.00     0.005 C 
ENDBRANCH  37  38
ENDBRANCH  36  37
ENDBRANCH   1  36
TORSDOF 9
ENDMDL
MODEL 2
REMARK VINA RESULT: -6.861847161      2.669      6.730
REMARK  9 active torsions:
REMARK  status: ('A' for Active; 'I' for Inactive)
REMARK    1  A    between atoms: C2_2  and  C3_3 
REMARK    2  A    between atoms: C3_3  and  C4_4 
REMARK    3  A    between atoms: C4_4  and  C5_5 
REMARK    4  A    between atoms: N4_13  and  C8_14 
REMARK    5  A    between atoms: C8_14  and  C9_15 
REMARK       I    between atoms: C9_15  and  N5_17 
REMARK    6  A    between atoms: N5_17  and  C10_19 
REMARK    7  A    between atoms: C10_19  and  C11_20 
REMARK    8  A    between atoms: C11_20  and  N6_21 
REMARK    9  A    between atoms: C14_26  and  N7_27 
ROOT
HETATM    1  C5  UNL     1       3.321   7.246  22.887  1.00  0.00     0.056 A 
HETATM    2  N1  UNL     1       2.174   7.724  22.342  1.00  0.00    -0.352 N 
ATOM      3  H1  UNL     1       1.458   8.252  22.842  1.00  0.00     0.166 HD
HETATM    4  C6  UNL     1       2.127   7.397  21.055  1.00  0.00     0.185 A 
HETATM    5  N2  UNL     1       3.214   6.711  20.717  1.00  0.00    -0.325 N 
HETATM    6  C7  UNL     1       3.971   6.607  21.843  1.00  0.00     0.152 A 
HETATM    7  N3  UNL     1       5.267   5.942  21.970  1.00  0.00    -0.199 N 
ATOM      8  H3  UNL     1       5.626   5.931  22.925  1.00  0.00     0.195 HD
HETATM    9  N4  UNL     1       6.096   5.331  21.068  1.00  0.00     0.026 N 
HETATM   10  C13 UNL     1       6.132   3.915  20.873  1.00  0.00     0.299 C 
HETATM   11  C14 UNL     1       5.924   3.406  19.474  1.00  0.00     0.220 C 
HETATM   12  C21 UNL     1       4.748   4.012  18.672  1.00  0.00     0.063 C 
HETATM   13  C22 UNL     1       4.289   5.079  19.557  1.00  0.00     0.094 C 
HETATM   14  C23 UNL     1       3.536   4.325  20.561  1.00  0.00     0.072 C 
HETATM   15  N8  UNL     1       2.904   3.724  21.349  1.00  0.00    -0.196 NA
HETATM   16  C24 UNL     1       3.386   6.207  19.323  1.00  0.00     0.158 C 
HETATM   17  C25 UNL     1       5.542   5.766  19.833  1.00  0.00     0.291 C 
ENDROOT
BRANCH  11  18
HETATM   18  N7  UNL     1       5.992   1.981  19.394  1.00  0.00    -0.065 N 
HETATM   19  C15 UNL     1       4.892   1.275  20.021  1.00  0.00     0.273 C 
HETATM   20  C16 UNL     1       7.167   1.443  20.119  1.00  0.00     0.237 C 
HETATM   21  C17 UNL     1       8.411   1.510  19.291  1.00  0.00     0.028 C 
HETATM   22  C18 UNL     1       8.345   0.319  18.325  1.00  0.00     0.003 C 
HETATM   23  C19 UNL     1       6.878   0.152  17.987  1.00  0.00     0.028 C 
HETATM   24  C20 UNL     1       6.177   1.498  18.029  1.00  0.00     0.237 C 
ENDBRANCH  11  18
BRANCH   9  25
HETATM   25  C8  UNL     1       7.432   5.868  21.189  1.00  0.00     0.367 C 
BRANCH  25  26
HETATM   26  C9  UNL     1       7.621   7.082  21.975  1.00  0.00     0.246 C 
HETATM   27  O1  UNL     1       7.424   8.214  21.504  1.00  0.00    -0.272 OA
HETATM   28  N5  UNL     1       8.048   7.021  23.342  1.00  0.00    -0.358 N 
ATOM     29  H5  UNL     1       8.228   6.114  23.773  1.00  0.00     0.162 HD
BRANCH  28  30
HETATM   30  C10 UNL     1       8.227   8.211  24.108  1.00  0.00     0.150 C 
BRANCH  30  31
HETATM   31  C11 UNL     1       9.380   8.190  25.073  1.00  0.00     0.251 C 
BRANCH  31  32
HETATM   32  N6  UNL     1       8.950   7.342  26.193  1.00  0.00    -0.077 N 
HETATM   33  C12 UNL     1      10.100   7.000  27.001  1.00  0.00     0.267 C 
ATOM     34  H62 UNL     1       8.207   7.775  26.743  1.00  0.00     0.276 HD
ATOM     35  H61 UNL     1       8.438   6.517  25.880  1.00  0.00     0.276 HD
ENDBRANCH  31  32
ENDBRANCH  30  31
ENDBRANCH  28  30
ENDBRANCH  25  26
ENDBRANCH   9  25
BRANCH   1  36
HETATM   36  C4  UNL     1       3.747   7.383  24.286  1.00  0.00     0.061 C 
BRANCH  36  37
HETATM   37  C3  UNL     1       4.441   8.687  24.535  1.00  0.00     0.006 C 
BRANCH  37  38
HETATM   38  C2  UNL     1       3.630   9.580  25.469  1.00  0.00    -0.004 C 
HETATM   39  C1  UNL     1       2.310   8.906  25.788  1.00  0.00     0.005 C 
ENDBRANCH  37  38
ENDBRANCH  36  37
ENDBRANCH   1  36
TORSDOF 9
ENDMDL
MODEL 3
REMARK VINA RESULT: -6.692920894      2.346      6.589
REMARK  9 active torsions:
REMARK  status: ('A' for Active; 'I' for Inactive)
REMARK    1  A    between atoms: C2_2  and  C3_3 
REMARK    2  A    between atoms: C3_3  and  C4_4 
REMARK    3  A    between atoms: C4_4  and  C5_5 
REMARK    4  A    between atoms: N4_13  and  C8_14 
REMARK    5  A    between atoms: C8_14  and  C9_15 
REMARK       I    between atoms: C9_15  and  N5_17 
REMARK    6  A    between atoms: N5_17  and  C10_19 
REMARK    7  A    between atoms: C10_19  and  C11_20 
REMARK    8  A    between atoms: C11_20  and  N6_21 
REMARK    9  A    between atoms: C14_26  and  N7_27 
ROOT
HETATM    1  C5  UNL     1       3.106   8.048  22.943  1.00  0.00     0.056 A 
HETATM    2  N1  UNL     1       2.050   8.577  22.273  1.00  0.00    -0.352 N 
ATOM      3  H1  UNL     1       1.328   9.168  22.685  1.00  0.00     0.166 HD
HETATM    4  C6  UNL     1       2.104   8.205  20.999  1.00  0.00     0.185 A 
HETATM    5  N2  UNL     1       3.169   7.439  20.790  1.00  0.00    -0.325 N 
HETATM    6  C7  UNL     1       3.808   7.329  21.987  1.00  0.00     0.152 A 
HETATM    7  N3  UNL     1       5.038   6.588  22.260  1.00  0.00    -0.199 N 
ATOM      8  H3  UNL     1       5.303   6.590  23.245  1.00  0.00     0.195 HD
HETATM    9  N4  UNL     1       5.906   5.892  21.462  1.00  0.00     0.026 N 
HETATM   10  C13 UNL     1       5.865   4.471  21.317  1.00  0.00     0.299 C 
HETATM   11  C14 UNL     1       5.757   3.923  19.921  1.00  0.00     0.220 C 
HETATM   12  C21 UNL     1       4.706   4.572  18.989  1.00  0.00     0.063 C 
HETATM   13  C22 UNL     1       4.238   5.699  19.792  1.00  0.00     0.094 C 
HETATM   14  C23 UNL     1       3.344   5.033  20.742  1.00  0.00     0.072 C 
HETATM   15  N8  UNL     1       2.602   4.503  21.483  1.00  0.00    -0.196 NA
HETATM   16  C24 UNL     1       3.439   6.873  19.435  1.00  0.00     0.158 C 
HETATM   17  C25 UNL     1       5.502   6.315  20.166  1.00  0.00     0.291 C 
ENDROOT
BRANCH  11  18
HETATM   18  N7  UNL     1       5.736   2.495  19.892  1.00  0.00    -0.065 N 
HETATM   19  C15 UNL     1       4.707   1.876  20.703  1.00  0.00     0.273 C 
HETATM   20  C16 UNL     1       6.976   1.914  20.460  1.00  0.00     0.237 C 
HETATM   21  C17 UNL     1       8.085   1.879  19.457  1.00  0.00     0.028 C 
HETATM   22  C18 UNL     1       7.814   0.661  18.563  1.00  0.00     0.003 C 
HETATM   23  C19 UNL     1       6.306   0.570  18.450  1.00  0.00     0.028 C 
HETATM   24  C20 UNL     1       5.692   1.955  18.537  1.00  0.00     0.237 C 
ENDBRANCH  11  18
BRANCH   9  25
HETATM   25  C8  UNL     1       7.258   6.347  21.695  1.00  0.00     0.367 C 
BRANCH  25  26
HETATM   26  C9  UNL     1       7.471   7.408  22.673  1.00  0.00     0.246 C 
HETATM   27  O1  UNL     1       7.162   8.589  22.448  1.00  0.00    -0.272 OA
HETATM   28  N5  UNL     1       8.055   7.130  23.953  1.00  0.00    -0.358 N 
ATOM     29  H5  UNL     1       8.330   6.175  24.184  1.00  0.00     0.162 HD
BRANCH  28  30
HETATM   30  C10 UNL     1       8.258   8.171  24.908  1.00  0.00     0.150 C 
BRANCH  30  31
HETATM   31  C11 UNL     1       9.573   8.129  25.637  1.00  0.00     0.251 C 
BRANCH  31  32
HETATM   32  N6  UNL     1       9.319   7.394  26.882  1.00  0.00    -0.077 N 
HETATM   33  C12 UNL     1      10.539   6.748  27.312  1.00  0.00     0.267 C 
ATOM     34  H62 UNL     1       8.920   7.989  27.609  1.00  0.00     0.276 HD
ATOM     35  H61 UNL     1       8.544   6.736  26.792  1.00  0.00     0.276 HD
ENDBRANCH  31  32
ENDBRANCH  30  31
ENDBRANCH  28  30
ENDBRANCH  25  26
ENDBRANCH   9  25
BRANCH   1  36
HETATM   36  C4  UNL     1       3.405   8.210  24.371  1.00  0.00     0.061 C 
BRANCH  36  37
HETATM   37  C3  UNL     1       2.237   8.763  25.129  1.00  0.00     0.006 C 
BRANCH  37  38
HETATM   38  C2  UNL     1       1.265   7.660  25.536  1.00  0.00    -0.004 C 
HETATM   39  C1  UNL     1       0.047   8.280  26.191  1.00  0.00     0.005 C 
ENDBRANCH  37  38
ENDBRANCH  36  37
ENDBRANCH   1  36
TORSDOF 9
ENDMDL
MODEL 4
REMARK VINA RESULT: -6.616769516      3.104      4.864
REMARK  9 active torsions:
REMARK  status: ('A' for Active; 'I' for Inactive)
REMARK    1  A    between atoms: C2_2  and  C3_3 
REMARK    2  A    between atoms: C3_3  and  C4_4 
REMARK    3  A    between atoms: C4_4  and  C5_5 
REMARK    4  A    between atoms: N4_13  and  C8_14 
REMARK    5  A    between atoms: C8_14  and  C9_15 
REMARK       I    between atoms: C9_15  and  N5_17 
REMARK    6  A    between atoms: N5_17  and  C10_19 
REMARK    7  A    between atoms: C10_19  and  C11_20 
REMARK    8  A    between atoms: C11_20  and  N6_21 
REMARK    9  A    between atoms: C14_26  and  N7_27 
ROOT
HETATM    1  C5  UNL     1       6.834   2.167  20.533  1.00  0.00     0.056 A 
HETATM    2  N1  UNL     1       6.273   1.167  21.260  1.00  0.00    -0.352 N 
ATOM      3  H1  UNL     1       6.580   0.195  21.261  1.00  0.00     0.166 HD
HETATM    4  C6  UNL     1       5.261   1.653  21.971  1.00  0.00     0.185 A 
HETATM    5  N2  UNL     1       5.124   2.955  21.743  1.00  0.00    -0.325 N 
HETATM    6  C7  UNL     1       6.094   3.295  20.851  1.00  0.00     0.152 A 
HETATM    7  N3  UNL     1       6.352   4.625  20.300  1.00  0.00    -0.199 N 
ATOM      8  H3  UNL     1       7.092   4.637  19.597  1.00  0.00     0.195 HD
HETATM    9  N4  UNL     1       5.801   5.856  20.534  1.00  0.00     0.026 N 
HETATM   10  C13 UNL     1       4.790   6.431  19.702  1.00  0.00     0.299 C 
HETATM   11  C14 UNL     1       3.517   6.872  20.369  1.00  0.00     0.220 C 
HETATM   12  C21 UNL     1       2.869   5.887  21.371  1.00  0.00     0.063 C 
HETATM   13  C22 UNL     1       3.876   4.834  21.462  1.00  0.00     0.094 C 
HETATM   14  C23 UNL     1       3.648   4.100  20.215  1.00  0.00     0.072 C 
HETATM   15  N8  UNL     1       3.443   3.491  19.231  1.00  0.00    -0.196 NA
HETATM   16  C24 UNL     1       4.036   3.728  22.409  1.00  0.00     0.158 C 
HETATM   17  C25 UNL     1       5.072   5.618  21.731  1.00  0.00     0.291 C 
ENDROOT
BRANCH  11  18
HETATM   18  N7  UNL     1       2.585   7.441  19.449  1.00  0.00    -0.065 N 
HETATM   19  C15 UNL     1       2.984   7.394  18.056  1.00  0.00     0.273 C 
HETATM   20  C16 UNL     1       2.403   8.894  19.675  1.00  0.00     0.237 C 
HETATM   21  C17 UNL     1       1.427   9.170  20.775  1.00  0.00     0.028 C 
HETATM   22  C18 UNL     1       0.031   8.997  20.159  1.00  0.00     0.003 C 
HETATM   23  C19 UNL     1       0.170   7.879  19.146  1.00  0.00     0.028 C 
HETATM   24  C20 UNL     1       1.238   6.898  19.596  1.00  0.00     0.237 C 
ENDBRANCH  11  18
BRANCH   9  25
HETATM   25  C8  UNL     1       6.845   6.815  20.812  1.00  0.00     0.367 C 
BRANCH  25  26
HETATM   26  C9  UNL     1       6.821   7.511  22.094  1.00  0.00     0.246 C 
HETATM   27  O1  UNL     1       6.240   8.598  22.247  1.00  0.00    -0.272 OA
HETATM   28  N5  UNL     1       7.475   6.964  23.247  1.00  0.00    -0.358 N 
ATOM     29  H5  UNL     1       7.969   6.075  23.170  1.00  0.00     0.162 HD
BRANCH  28  30
HETATM   30  C10 UNL     1       7.445   7.646  24.500  1.00  0.00     0.150 C 
BRANCH  30  31
HETATM   31  C11 UNL     1       8.787   8.037  25.053  1.00  0.00     0.251 C 
BRANCH  31  32
HETATM   32  N6  UNL     1       8.945   7.275  26.299  1.00  0.00    -0.077 N 
HETATM   33  C12 UNL     1      10.326   7.334  26.722  1.00  0.00     0.267 C 
ATOM     34  H62 UNL     1       8.304   7.587  27.028  1.00  0.00     0.276 HD
ATOM     35  H61 UNL     1       8.608   6.316  26.211  1.00  0.00     0.276 HD
ENDBRANCH  31  32
ENDBRANCH  30  31
ENDBRANCH  28  30
ENDBRANCH  25  26
ENDBRANCH   9  25
BRANCH   1  36
HETATM   36  C4  UNL     1       7.969   2.044  19.610  1.00  0.00     0.061 C 
BRANCH  36  37
HETATM   37  C3  UNL     1       8.239   0.618  19.240  1.00  0.00     0.006 C 
BRANCH  37  38
HETATM   38  C2  UNL     1       9.610   0.462  18.590  1.00  0.00    -0.004 C 
HETATM   39  C1  UNL     1       9.511  -0.517  17.437  1.00  0.00     0.005 C 
ENDBRANCH  37  38
ENDBRANCH  36  37
ENDBRANCH   1  36
TORSDOF 9
ENDMDL
MODEL 5
REMARK VINA RESULT: -6.587765015      2.618      6.586
REMARK  9 active torsions:
REMARK  status: ('A' for Active; 'I' for Inactive)
REMARK    1  A    between atoms: C2_2  and  C3_3 
REMARK    2  A    between atoms: C3_3  and  C4_4 
REMARK    3  A    between atoms: C4_4  and  C5_5 
REMARK    4  A    between atoms: N4_13  and  C8_14 
REMARK    5  A    between atoms: C8_14  and  C9_15 
REMARK       I    between atoms: C9_15  and  N5_17 
REMARK    6  A    between atoms: N5_17  and  C10_19 
REMARK    7  A    between atoms: C10_19  and  C11_20 
REMARK    8  A    between atoms: C11_20  and  N6_21 
REMARK    9  A    between atoms: C14_26  and  N7_27 
ROOT
HETATM    1  C5  UNL     1       1.729   6.506  24.701  1.00  0.00     0.056 A 
HETATM    2  N1  UNL     1       0.434   6.142  24.882  1.00  0.00    -0.352 N 
ATOM      3  H1  UNL     1      -0.160   6.442  25.656  1.00  0.00     0.166 HD
HETATM    4  C6  UNL     1       0.060   5.335  23.895  1.00  0.00     0.185 A 
HETATM    5  N2  UNL     1       1.070   5.144  23.052  1.00  0.00    -0.325 N 
HETATM    6  C7  UNL     1       2.118   5.865  23.535  1.00  0.00     0.152 A 
HETATM    7  N3  UNL     1       3.451   5.976  22.945  1.00  0.00    -0.199 N 
ATOM      8  H3  UNL     1       4.102   6.521  23.512  1.00  0.00     0.195 HD
HETATM    9  N4  UNL     1       4.004   5.498  21.788  1.00  0.00     0.026 N 
HETATM   10  C13 UNL     1       4.801   4.313  21.734  1.00  0.00     0.299 C 
HETATM   11  C14 UNL     1       4.382   3.242  20.766  1.00  0.00     0.220 C 
HETATM   12  C21 UNL     1       2.882   2.862  20.744  1.00  0.00     0.063 C 
HETATM   13  C22 UNL     1       2.297   3.862  21.633  1.00  0.00     0.094 C 
HETATM   14  C23 UNL     1       2.664   3.336  22.949  1.00  0.00     0.072 C 
HETATM   15  N8  UNL     1       2.929   2.896  24.007  1.00  0.00    -0.196 NA
HETATM   16  C24 UNL     1       0.906   4.252  21.867  1.00  0.00     0.158 C 
HETATM   17  C25 UNL     1       2.848   5.086  21.070  1.00  0.00     0.291 C 
ENDROOT
BRANCH  11  18
HETATM   18  N7  UNL     1       5.254   2.111  20.787  1.00  0.00    -0.065 N 
HETATM   19  C15 UNL     1       4.889   1.067  21.724  1.00  0.00     0.273 C 
HETATM   20  C16 UNL     1       6.618   2.474  21.236  1.00  0.00     0.237 C 
HETATM   21  C17 UNL     1       7.440   3.039  20.122  1.00  0.00     0.028 C 
HETATM   22  C18 UNL     1       7.931   1.837  19.303  1.00  0.00     0.003 C 
HETATM   23  C19 UNL     1       6.806   0.824  19.357  1.00  0.00     0.028 C 
HETATM   24  C20 UNL     1       5.469   1.535  19.463  1.00  0.00     0.237 C 
ENDBRANCH  11  18
BRANCH   9  25
HETATM   25  C8  UNL     1       4.636   6.576  21.064  1.00  0.00     0.367 C 
BRANCH  25  26
HETATM   26  C9  UNL     1       6.022   6.903  21.381  1.00  0.00     0.246 C 
HETATM   27  O1  UNL     1       6.439   6.959  22.550  1.00  0.00    -0.272 OA
HETATM   28  N5  UNL     1       6.975   7.179  20.346  1.00  0.00    -0.358 N 
ATOM     29  H5  UNL     1       6.679   7.150  19.370  1.00  0.00     0.162 HD
BRANCH  28  30
HETATM   30  C10 UNL     1       8.330   7.494  20.661  1.00  0.00     0.150 C 
BRANCH  30  31
HETATM   31  C11 UNL     1       8.667   8.959  20.668  1.00  0.00     0.251 C 
BRANCH  31  32
HETATM   32  N6  UNL     1       9.759   9.116  21.638  1.00  0.00    -0.077 N 
HETATM   33  C12 UNL     1       9.276   8.781  22.958  1.00  0.00     0.267 C 
ATOM     34  H62 UNL     1      10.586   8.576  21.380  1.00  0.00     0.276 HD
ATOM     35  H61 UNL     1      10.177  10.046  21.603  1.00  0.00     0.276 HD
ENDBRANCH  31  32
ENDBRANCH  30  31
ENDBRANCH  28  30
ENDBRANCH  25  26
ENDBRANCH   9  25
BRANCH   1  36
HETATM   36  C4  UNL     1       2.522   7.379  25.576  1.00  0.00     0.061 C 
BRANCH  36  37
HETATM   37  C3  UNL     1       2.278   8.830  25.288  1.00  0.00     0.006 C 
BRANCH  37  38
HETATM   38  C2  UNL     1       3.549   9.654  25.470  1.00  0.00    -0.004 C 
HETATM   39  C1  UNL     1       4.711   8.937  24.814  1.00  0.00     0.005 C 
ENDBRANCH  37  38
ENDBRANCH  36  37
ENDBRANCH   1  36
TORSDOF 9
ENDMDL
