MODEL 1
REMARK VINA RESULT: -6.622440568      0.000      0.000
REMARK  9 active torsions:
REMARK  status: ('A' for Active; 'I' for Inactive)
REMARK    1  A    between atoms: C2_2  and  N1_3 
REMARK    2  A    between atoms: N1_3  and  C3_4 
REMARK    3  A    between atoms: C3_4  and  C4_5 
REMARK       I    between atoms: C4_5  and  N2_7 
REMARK    4  A    between atoms: N2_7  and  C5_9 
REMARK    5  A    between atoms: C7_11  and  C8_12 
REMARK       I    between atoms: C8_12  and  N3_14 
REMARK    6  A    between atoms: C9_16  and  C10_17 
REMARK    7  A    between atoms: C9_16  and  C14_21 
REMARK    8  A    between atoms: C10_17  and  C11_18 
REMARK    9  A    between atoms: C18_27  and  C19_28 
ROOT
HETATM    1  C5  UNL     1      13.048  -7.319  22.175  1.00  0.00     0.090 C 
HETATM    2  C6  UNL     1      13.778  -7.053  20.887  1.00  0.00     0.039 C 
HETATM    3  C7  UNL     1      14.793  -5.991  21.166  1.00  0.00     0.080 C 
HETATM    4  C15 UNL     1      14.090  -4.738  21.616  1.00  0.00     0.019 C 
HETATM    5  C16 UNL     1      13.143  -4.911  22.752  1.00  0.00    -0.006 C 
HETATM    6  C17 UNL     1      11.859  -4.117  22.435  1.00  0.00     0.019 C 
HETATM    7  C18 UNL     1      11.424  -5.392  21.688  1.00  0.00     0.082 C 
HETATM    8  C20 UNL     1      12.285  -6.127  22.666  1.00  0.00     0.025 C 
ENDROOT
BRANCH   1   9
HETATM    9  N2  UNL     1      12.228  -8.508  22.143  1.00  0.00    -0.355 N 
HETATM   10  C4  UNL     1      12.696  -9.775  21.748  1.00  0.00     0.244 C 
HETATM   11  O1  UNL     1      13.885  -9.908  21.400  1.00  0.00    -0.272 OA
ATOM     12  H2  UNL     1      11.251  -8.424  22.422  1.00  0.00     0.162 HD
BRANCH  10  13
HETATM   13  C3  UNL     1      11.787 -10.933  21.747  1.00  0.00     0.339 C 
BRANCH  13  14
HETATM   14  N1  UNL     1      11.913 -11.794  22.903  1.00  0.00    -0.059 N 
HETATM   15  C21 UNL     1      11.043 -11.235  23.926  1.00  0.00     0.238 C 
HETATM   16  C22 UNL     1       9.638 -11.652  23.542  1.00  0.00     0.029 C 
HETATM   17  C23 UNL     1       9.864 -13.024  22.954  1.00  0.00     0.029 C 
HETATM   18  C24 UNL     1      11.330 -13.079  22.562  1.00  0.00     0.238 C 
BRANCH  14  19
HETATM   19  C2  UNL     1      13.279 -11.889  23.307  1.00  0.00     0.233 C 
HETATM   20  C1  UNL     1      13.626 -13.161  24.052  1.00  0.00     0.035 C 
ENDBRANCH  14  19
ENDBRANCH  13  14
ENDBRANCH  10  13
ENDBRANCH   1   9
BRANCH   3  21
HETATM   21  C8  UNL     1      15.604  -5.636  19.973  1.00  0.00     0.226 C 
HETATM   22  O2  UNL     1      16.027  -6.593  19.258  1.00  0.00    -0.273 OA
HETATM   23  N3  UNL     1      15.916  -4.327  19.604  1.00  0.00    -0.326 N 
HETATM   24  C9  UNL     1      15.593  -3.786  18.478  1.00  0.00     0.077 C 
ATOM     25  H3  UNL     1      16.437  -3.758  20.272  1.00  0.00     0.168 HD
BRANCH  24  26
HETATM   26  C10 UNL     1      14.835  -4.531  17.444  1.00  0.00     0.067 C 
BRANCH  26  27
HETATM   27  C11 UNL     1      13.360  -4.288  17.528  1.00  0.00    -0.009 A 
HETATM   28  C12 UNL     1      12.533  -5.177  16.592  1.00  0.00     0.005 A 
HETATM   29  C13 UNL     1      12.412  -5.271  18.102  1.00  0.00     0.005 A 
ENDBRANCH  26  27
ENDBRANCH  24  26
BRANCH  24  30
HETATM   30  C14 UNL     1      16.000  -2.417  18.239  1.00  0.00     0.277 C 
HETATM   31  N4  UNL     1      15.369  -1.549  17.311  1.00  0.00    -0.056 NA
HETATM   32  O3  UNL     1      16.980  -1.957  18.897  1.00  0.00    -0.270 OA
ENDBRANCH  24  30
ENDBRANCH   3  21
BRANCH   7  33
HETATM   33  C19 UNL     1       9.980  -5.564  21.814  1.00  0.00     0.235 C 
HETATM   34  N5  UNL     1       9.077  -4.513  21.521  1.00  0.00    -0.062 NA
HETATM   35  O4  UNL     1       9.518  -6.665  22.188  1.00  0.00    -0.276 OA
ENDBRANCH   7  33
TORSDOF 9
ENDMDL
MODEL 2
REMARK VINA RESULT: -6.600848034      0.693      1.475
REMARK  9 active torsions:
REMARK  status: ('A' for Active; 'I' for Inactive)
REMARK    1  A    between atoms: C2_2  and  N1_3 
REMARK    2  A    between atoms: N1_3  and  C3_4 
REMARK    3  A    between atoms: C3_4  and  C4_5 
REMARK       I    between atoms: C4_5  and  N2_7 
REMARK    4  A    between atoms: N2_7  and  C5_9 
REMARK    5  A    between atoms: C7_11  and  C8_12 
REMARK       I    between atoms: C8_12  and  N3_14 
REMARK    6  A    between atoms: C9_16  and  C10_17 
REMARK    7  A    between atoms: C9_16  and  C14_21 
REMARK    8  A    between atoms: C10_17  and  C11_18 
REMARK    9  A    between atoms: C18_27  and  C19_28 
ROOT
HETATM    1  C5  UNL     1      13.071  -7.434  22.091  1.00  0.00     0.090 C 
HETATM    2  C6  UNL     1      13.796  -7.130  20.808  1.00  0.00     0.039 C 
HETATM    3  C7  UNL     1      14.813  -6.077  21.114  1.00  0.00     0.080 C 
HETATM    4  C15 UNL     1      14.113  -4.838  21.604  1.00  0.00     0.019 C 
HETATM    5  C16 UNL     1      13.172  -5.043  22.738  1.00  0.00    -0.006 C 
HETATM    6  C17 UNL     1      11.886  -4.240  22.451  1.00  0.00     0.019 C 
HETATM    7  C18 UNL     1      11.447  -5.492  21.669  1.00  0.00     0.082 C 
HETATM    8  C20 UNL     1      12.311  -6.256  22.620  1.00  0.00     0.025 C 
ENDROOT
BRANCH   1   9
HETATM    9  N2  UNL     1      12.250  -8.620  22.027  1.00  0.00    -0.355 N 
HETATM   10  C4  UNL     1      12.743  -9.902  21.719  1.00  0.00     0.244 C 
HETATM   11  O1  UNL     1      13.957 -10.051  21.481  1.00  0.00    -0.272 OA
ATOM     12  H2  UNL     1      11.253  -8.524  22.217  1.00  0.00     0.162 HD
BRANCH  10  13
HETATM   13  C3  UNL     1      11.830 -11.056  21.678  1.00  0.00     0.339 C 
BRANCH  13  14
HETATM   14  N1  UNL     1      11.685 -11.750  22.939  1.00  0.00    -0.059 N 
HETATM   15  C21 UNL     1      11.230 -13.093  22.618  1.00  0.00     0.238 C 
HETATM   16  C22 UNL     1      12.459 -13.840  22.141  1.00  0.00     0.029 C 
HETATM   17  C23 UNL     1      13.544 -13.250  23.010  1.00  0.00     0.029 C 
HETATM   18  C24 UNL     1      13.011 -11.918  23.506  1.00  0.00     0.238 C 
BRANCH  14  19
HETATM   19  C2  UNL     1      10.796 -11.038  23.800  1.00  0.00     0.233 C 
HETATM   20  C1  UNL     1       9.992 -11.915  24.737  1.00  0.00     0.035 C 
ENDBRANCH  14  19
ENDBRANCH  13  14
ENDBRANCH  10  13
ENDBRANCH   1   9
BRANCH   3  21
HETATM   21  C8  UNL     1      15.619  -5.688  19.927  1.00  0.00     0.226 C 
HETATM   22  O2  UNL     1      16.051  -6.625  19.192  1.00  0.00    -0.273 OA
HETATM   23  N3  UNL     1      15.918  -4.369  19.588  1.00  0.00    -0.326 N 
HETATM   24  C9  UNL     1      15.587  -3.806  18.475  1.00  0.00     0.077 C 
ATOM     25  H3  UNL     1      16.434  -3.810  20.267  1.00  0.00     0.168 HD
BRANCH  24  26
HETATM   26  C10 UNL     1      14.835  -4.535  17.425  1.00  0.00     0.067 C 
BRANCH  26  27
HETATM   27  C11 UNL     1      13.365  -4.258  17.475  1.00  0.00    -0.009 A 
HETATM   28  C12 UNL     1      12.529  -5.192  16.594  1.00  0.00     0.005 A 
HETATM   29  C13 UNL     1      12.392  -5.180  18.105  1.00  0.00     0.005 A 
ENDBRANCH  26  27
ENDBRANCH  24  26
BRANCH  24  30
HETATM   30  C14 UNL     1      15.980  -2.428  18.265  1.00  0.00     0.277 C 
HETATM   31  N4  UNL     1      15.443  -1.591  17.254  1.00  0.00    -0.056 NA
HETATM   32  O3  UNL     1      16.860  -1.930  19.030  1.00  0.00    -0.270 OA
ENDBRANCH  24  30
ENDBRANCH   3  21
BRANCH   7  33
HETATM   33  C19 UNL     1      10.003  -5.666  21.796  1.00  0.00     0.235 C 
HETATM   34  N5  UNL     1       9.421  -6.943  21.981  1.00  0.00    -0.062 NA
HETATM   35  O4  UNL     1       9.252  -4.667  21.741  1.00  0.00    -0.276 OA
ENDBRANCH   7  33
TORSDOF 9
ENDMDL
MODEL 3
REMARK VINA RESULT: -6.473074223      2.598      5.560
REMARK  9 active torsions:
REMARK  status: ('A' for Active; 'I' for Inactive)
REMARK    1  A    between atoms: C2_2  and  N1_3 
REMARK    2  A    between atoms: N1_3  and  C3_4 
REMARK    3  A    between atoms: C3_4  and  C4_5 
REMARK       I    between atoms: C4_5  and  N2_7 
REMARK    4  A    between atoms: N2_7  and  C5_9 
REMARK    5  A    between atoms: C7_11  and  C8_12 
REMARK       I    between atoms: C8_12  and  N3_14 
REMARK    6  A    between atoms: C9_16  and  C10_17 
REMARK    7  A    between atoms: C9_16  and  C14_21 
REMARK    8  A    between atoms: C10_17  and  C11_18 
REMARK    9  A    between atoms: C18_27  and  C19_28 
ROOT
HETATM    1  C5  UNL     1      12.440 -10.944  21.467  1.00  0.00     0.090 C 
HETATM    2  C6  UNL     1      12.650  -9.483  21.755  1.00  0.00     0.039 C 
HETATM    3  C7  UNL     1      11.906  -8.715  20.708  1.00  0.00     0.080 C 
HETATM    4  C15 UNL     1      12.470  -9.049  19.353  1.00  0.00     0.019 C 
HETATM    5  C16 UNL     1      12.539 -10.500  19.031  1.00  0.00    -0.006 C 
HETATM    6  C17 UNL     1      13.906 -10.786  18.375  1.00  0.00     0.019 C 
HETATM    7  C18 UNL     1      14.411 -10.935  19.823  1.00  0.00     0.082 C 
HETATM    8  C20 UNL     1      13.016 -11.364  20.149  1.00  0.00     0.025 C 
ENDROOT
BRANCH   1   9
HETATM    9  N2  UNL     1      12.862 -11.814  22.540  1.00  0.00    -0.355 N 
HETATM   10  C4  UNL     1      12.132 -12.936  22.975  1.00  0.00     0.244 C 
HETATM   11  O1  UNL     1      11.054 -13.220  22.419  1.00  0.00    -0.272 OA
ATOM     12  H2  UNL     1      13.741 -11.602  23.012  1.00  0.00     0.162 HD
BRANCH  10  13
HETATM   13  C3  UNL     1      12.641 -13.768  24.079  1.00  0.00     0.339 C 
BRANCH  13  14
HETATM   14  N1  UNL     1      13.612 -14.763  23.680  1.00  0.00    -0.059 N 
HETATM   15  C21 UNL     1      14.914 -14.121  23.766  1.00  0.00     0.238 C 
HETATM   16  C22 UNL     1      15.268 -14.103  25.239  1.00  0.00     0.029 C 
HETATM   17  C23 UNL     1      14.676 -15.406  25.721  1.00  0.00     0.029 C 
HETATM   18  C24 UNL     1      13.627 -15.798  24.698  1.00  0.00     0.238 C 
BRANCH  14  19
HETATM   19  C2  UNL     1      13.308 -15.263  22.378  1.00  0.00     0.233 C 
HETATM   20  C1  UNL     1      12.778 -16.681  22.358  1.00  0.00     0.035 C 
ENDBRANCH  14  19
ENDBRANCH  13  14
ENDBRANCH  10  13
ENDBRANCH   1   9
BRANCH   3  21
HETATM   21  C8  UNL     1      12.016  -7.244  20.881  1.00  0.00     0.226 C 
HETATM   22  O2  UNL     1      11.056  -6.658  21.464  1.00  0.00    -0.273 OA
HETATM   23  N3  UNL     1      13.103  -6.487  20.442  1.00  0.00    -0.326 N 
HETATM   24  C9  UNL     1      13.852  -5.768  21.208  1.00  0.00     0.077 C 
ATOM     25  H3  UNL     1      13.321  -6.505  19.446  1.00  0.00     0.168 HD
BRANCH  24  26
HETATM   26  C10 UNL     1      13.616  -5.680  22.670  1.00  0.00     0.067 C 
BRANCH  26  27
HETATM   27  C11 UNL     1      13.516  -4.266  23.151  1.00  0.00    -0.009 A 
HETATM   28  C12 UNL     1      12.988  -4.136  24.584  1.00  0.00     0.005 A 
HETATM   29  C13 UNL     1      14.395  -3.709  24.205  1.00  0.00     0.005 A 
ENDBRANCH  26  27
ENDBRANCH  24  26
BRANCH  24  30
HETATM   30  C14 UNL     1      14.939  -5.030  20.600  1.00  0.00     0.277 C 
HETATM   31  N4  UNL     1      14.776  -4.105  19.537  1.00  0.00    -0.056 NA
HETATM   32  O3  UNL     1      16.113  -5.216  21.038  1.00  0.00    -0.270 OA
ENDBRANCH  24  30
ENDBRANCH   3  21
BRANCH   7  33
HETATM   33  C19 UNL     1      15.451 -11.957  19.875  1.00  0.00     0.235 C 
HETATM   34  N5  UNL     1      16.662 -11.824  19.155  1.00  0.00    -0.062 NA
HETATM   35  O4  UNL     1      15.277 -12.981  20.573  1.00  0.00    -0.276 OA
ENDBRANCH   7  33
TORSDOF 9
ENDMDL
MODEL 4
REMARK VINA RESULT: -6.468183093      3.003      5.523
REMARK  9 active torsions:
REMARK  status: ('A' for Active; 'I' for Inactive)
REMARK    1  A    between atoms: C2_2  and  N1_3 
REMARK    2  A    between atoms: N1_3  and  C3_4 
REMARK    3  A    between atoms: C3_4  and  C4_5 
REMARK       I    between atoms: C4_5  and  N2_7 
REMARK    4  A    between atoms: N2_7  and  C5_9 
REMARK    5  A    between atoms: C7_11  and  C8_12 
REMARK       I    between atoms: C8_12  and  N3_14 
REMARK    6  A    between atoms: C9_16  and  C10_17 
REMARK    7  A    between atoms: C9_16  and  C14_21 
REMARK    8  A    between atoms: C10_17  and  C11_18 
REMARK    9  A    between atoms: C18_27  and  C19_28 
ROOT
HETATM    1  C5  UNL     1      12.889  -9.593  21.615  1.00  0.00     0.090 C 
HETATM    2  C6  UNL     1      12.904  -8.213  22.212  1.00  0.00     0.039 C 
HETATM    3  C7  UNL     1      12.018  -7.356  21.365  1.00  0.00     0.080 C 
HETATM    4  C15 UNL     1      12.568  -7.306  19.964  1.00  0.00     0.019 C 
HETATM    5  C16 UNL     1      12.826  -8.629  19.333  1.00  0.00    -0.006 C 
HETATM    6  C17 UNL     1      14.192  -8.566  18.619  1.00  0.00     0.019 C 
HETATM    7  C18 UNL     1      14.771  -8.946  19.995  1.00  0.00     0.082 C 
HETATM    8  C20 UNL     1      13.464  -9.633  20.232  1.00  0.00     0.025 C 
ENDROOT
BRANCH   1   9
HETATM    9  N2  UNL     1      13.471 -10.602  22.470  1.00  0.00    -0.355 N 
HETATM   10  C4  UNL     1      12.816 -11.791  22.842  1.00  0.00     0.244 C 
HETATM   11  O1  UNL     1      11.664 -12.012  22.423  1.00  0.00    -0.272 OA
ATOM     12  H2  UNL     1      14.414 -10.443  22.826  1.00  0.00     0.162 HD
BRANCH  10  13
HETATM   13  C3  UNL     1      13.489 -12.764  23.718  1.00  0.00     0.339 C 
BRANCH  13  14
HETATM   14  N1  UNL     1      14.074 -13.891  23.023  1.00  0.00    -0.059 N 
HETATM   15  C21 UNL     1      15.241 -14.287  23.796  1.00  0.00     0.238 C 
HETATM   16  C22 UNL     1      14.704 -15.064  24.980  1.00  0.00     0.029 C 
HETATM   17  C23 UNL     1      13.518 -15.779  24.379  1.00  0.00     0.029 C 
HETATM   18  C24 UNL     1      13.148 -15.004  23.127  1.00  0.00     0.238 C 
BRANCH  14  19
HETATM   19  C2  UNL     1      14.377 -13.541  21.672  1.00  0.00     0.233 C 
HETATM   20  C1  UNL     1      14.095 -14.632  20.662  1.00  0.00     0.035 C 
ENDBRANCH  14  19
ENDBRANCH  13  14
ENDBRANCH  10  13
ENDBRANCH   1   9
BRANCH   3  21
HETATM   21  C8  UNL     1      11.929  -5.955  21.853  1.00  0.00     0.226 C 
HETATM   22  O2  UNL     1      10.772  -5.509  22.114  1.00  0.00    -0.273 OA
HETATM   23  N3  UNL     1      13.032  -5.121  22.034  1.00  0.00    -0.326 N 
HETATM   24  C9  UNL     1      13.366  -4.582  23.158  1.00  0.00     0.077 C 
ATOM     25  H3  UNL     1      13.616  -4.925  21.222  1.00  0.00     0.168 HD
BRANCH  24  26
HETATM   26  C10 UNL     1      12.581  -4.809  24.396  1.00  0.00     0.067 C 
BRANCH  26  27
HETATM   27  C11 UNL     1      12.519  -3.594  25.267  1.00  0.00    -0.009 A 
HETATM   28  C12 UNL     1      11.561  -3.733  26.456  1.00  0.00     0.005 A 
HETATM   29  C13 UNL     1      13.057  -3.562  26.647  1.00  0.00     0.005 A 
ENDBRANCH  26  27
ENDBRANCH  24  26
BRANCH  24  30
HETATM   30  C14 UNL     1      14.536  -3.730  23.184  1.00  0.00     0.277 C 
HETATM   31  N4  UNL     1      15.471  -3.692  24.250  1.00  0.00    -0.056 NA
HETATM   32  O3  UNL     1      14.746  -2.966  22.195  1.00  0.00    -0.270 OA
ENDBRANCH  24  30
ENDBRANCH   3  21
BRANCH   7  33
HETATM   33  C19 UNL     1      15.945  -9.794  19.814  1.00  0.00     0.235 C 
HETATM   34  N5  UNL     1      15.830 -11.152  19.432  1.00  0.00    -0.062 NA
HETATM   35  O4  UNL     1      17.087  -9.317  19.998  1.00  0.00    -0.276 OA
ENDBRANCH   7  33
TORSDOF 9
ENDMDL
MODEL 5
REMARK VINA RESULT: -6.460993836      2.682      5.344
REMARK  9 active torsions:
REMARK  status: ('A' for Active; 'I' for Inactive)
REMARK    1  A    between atoms: C2_2  and  N1_3 
REMARK    2  A    between atoms: N1_3  and  C3_4 
REMARK    3  A    between atoms: C3_4  and  C4_5 
REMARK       I    between atoms: C4_5  and  N2_7 
REMARK    4  A    between atoms: N2_7  and  C5_9 
REMARK    5  A    between atoms: C7_11  and  C8_12 
REMARK       I    between atoms: C8_12  and  N3_14 
REMARK    6  A    between atoms: C9_16  and  C10_17 
REMARK    7  A    between atoms: C9_16  and  C14_21 
REMARK    8  A    between atoms: C10_17  and  C11_18 
REMARK    9  A    between atoms: C18_27  and  C19_28 
ROOT
HETATM    1  C5  UNL     1      12.950  -7.925  20.372  1.00  0.00     0.090 C 
HETATM    2  C6  UNL     1      12.942  -6.896  21.468  1.00  0.00     0.039 C 
HETATM    3  C7  UNL     1      12.657  -5.573  20.831  1.00  0.00     0.080 C 
HETATM    4  C15 UNL     1      13.749  -5.252  19.845  1.00  0.00     0.019 C 
HETATM    5  C16 UNL     1      14.024  -6.307  18.832  1.00  0.00    -0.006 C 
HETATM    6  C17 UNL     1      15.553  -6.460  18.696  1.00  0.00     0.019 C 
HETATM    7  C18 UNL     1      15.420  -7.431  19.884  1.00  0.00     0.082 C 
HETATM    8  C20 UNL     1      14.041  -7.697  19.371  1.00  0.00     0.025 C 
ENDROOT
BRANCH   1   9
HETATM    9  N2  UNL     1      12.935  -9.286  20.853  1.00  0.00    -0.355 N 
HETATM   10  C4  UNL     1      11.816 -10.136  20.775  1.00  0.00     0.244 C 
HETATM   11  O1  UNL     1      10.761  -9.714  20.265  1.00  0.00    -0.272 OA
ATOM     12  H2  UNL     1      13.787  -9.654  21.276  1.00  0.00     0.162 HD
BRANCH  10  13
HETATM   13  C3  UNL     1      11.893 -11.512  21.292  1.00  0.00     0.339 C 
BRANCH  13  14
HETATM   14  N1  UNL     1      11.812 -11.615  22.733  1.00  0.00    -0.059 N 
HETATM   15  C21 UNL     1      11.705 -13.034  23.037  1.00  0.00     0.238 C 
HETATM   16  C22 UNL     1      13.107 -13.591  22.894  1.00  0.00     0.029 C 
HETATM   17  C23 UNL     1      13.955 -12.445  23.391  1.00  0.00     0.029 C 
HETATM   18  C24 UNL     1      13.093 -11.201  23.278  1.00  0.00     0.238 C 
BRANCH  14  19
HETATM   19  C2  UNL     1      10.718 -10.843  23.228  1.00  0.00     0.233 C 
HETATM   20  C1  UNL     1       9.925 -11.512  24.330  1.00  0.00     0.035 C 
ENDBRANCH  14  19
ENDBRANCH  13  14
ENDBRANCH  10  13
ENDBRANCH   1   9
BRANCH   3  21
HETATM   21  C8  UNL     1      12.606  -4.456  21.810  1.00  0.00     0.226 C 
HETATM   22  O2  UNL     1      11.474  -3.929  22.024  1.00  0.00    -0.273 OA
HETATM   23  N3  UNL     1      13.720  -3.968  22.493  1.00  0.00    -0.326 N 
HETATM   24  C9  UNL     1      13.841  -3.948  23.778  1.00  0.00     0.077 C 
ATOM     25  H3  UNL     1      14.493  -3.600  21.938  1.00  0.00     0.168 HD
BRANCH  24  26
HETATM   26  C10 UNL     1      12.772  -4.460  24.669  1.00  0.00     0.067 C 
BRANCH  26  27
HETATM   27  C11 UNL     1      12.384  -3.473  25.726  1.00  0.00    -0.009 A 
HETATM   28  C12 UNL     1      11.378  -4.021  26.744  1.00  0.00     0.005 A 
HETATM   29  C13 UNL     1      12.784  -3.612  27.145  1.00  0.00     0.005 A 
ENDBRANCH  26  27
ENDBRANCH  24  26
BRANCH  24  30
HETATM   30  C14 UNL     1      15.057  -3.398  24.339  1.00  0.00     0.277 C 
HETATM   31  N4  UNL     1      15.686  -3.889  25.511  1.00  0.00    -0.056 NA
HETATM   32  O3  UNL     1      15.601  -2.416  23.751  1.00  0.00    -0.270 OA
ENDBRANCH  24  30
ENDBRANCH   3  21
BRANCH   7  33
HETATM   33  C19 UNL     1      16.399  -8.505  19.750  1.00  0.00     0.235 C 
HETATM   34  N5  UNL     1      16.502  -9.274  18.566  1.00  0.00    -0.062 NA
HETATM   35  O4  UNL     1      17.172  -8.760  20.700  1.00  0.00    -0.276 OA
ENDBRANCH   7  33
TORSDOF 9
ENDMDL
