MODEL 1
REMARK VINA RESULT: -8.534831883      0.000      0.000
REMARK  10 active torsions:
REMARK  status: ('A' for Active; 'I' for Inactive)
REMARK    1  A    between atoms: C2_2  and  N1_4 
REMARK    2  A    between atoms: N1_4  and  C4_5 
REMARK    3  A    between atoms: N1_4  and  C11_22 
REMARK    4  A    between atoms: C4_5  and  C5_6 
REMARK    5  A    between atoms: C5_6  and  N2_7 
REMARK    6  A    between atoms: N2_7  and  C6_9 
REMARK    7  A    between atoms: C6_9  and  C9_12 
REMARK    8  A    between atoms: C9_12  and  C10_13 
REMARK    9  A    between atoms: C11_22  and  C12_23 
REMARK       I    between atoms: C12_23  and  N7_25 
REMARK   10  A    between atoms: N7_25  and  C13_27 
ROOT
HETATM    1  N1  UNL     1      13.367  19.904  30.388  1.00  0.00    -0.379 N 
ENDROOT
BRANCH   1   2
HETATM    2  C2  UNL     1      13.451  20.501  29.140  1.00  0.00     0.075 C 
HETATM    3  C1  UNL     1      12.149  20.696  28.402  1.00  0.00     0.032 C 
HETATM    4  C3  UNL     1      14.397  19.864  28.134  1.00  0.00     0.032 C 
ENDBRANCH   1   2
BRANCH   1   5
HETATM    5  C4  UNL     1      12.939  18.598  30.576  1.00  0.00     0.078 C 
BRANCH   5   6
HETATM    6  C5  UNL     1      13.209  17.981  31.911  1.00  0.00     0.159 C 
BRANCH   6   7
HETATM    7  N2  UNL     1      14.337  17.108  31.993  1.00  0.00    -0.409 N 
ATOM      8  H2  UNL     1      14.997  16.995  31.224  1.00  0.00     0.154 HD
BRANCH   7   9
HETATM    9  C6  UNL     1      14.477  16.405  33.229  1.00  0.00     0.025 C 
HETATM   10  C7  UNL     1      15.905  16.306  33.712  1.00  0.00     0.038 C 
HETATM   11  C8  UNL     1      13.634  16.975  34.345  1.00  0.00     0.038 C 
BRANCH   9  12
HETATM   12  C9  UNL     1      13.947  14.984  32.975  1.00  0.00     0.109 C 
BRANCH  12  13
HETATM   13  C10 UNL     1      14.735  14.278  31.941  1.00  0.00     0.115 A 
HETATM   14  N3  UNL     1      15.794  13.468  32.074  1.00  0.00    -0.272 N 
HETATM   15  N4  UNL     1      16.168  13.062  30.874  1.00  0.00    -0.227 N 
ATOM     16  H3  UNL     1      16.237  13.207  32.955  1.00  0.00     0.190 HD
HETATM   17  N5  UNL     1      15.387  13.581  29.961  1.00  0.00    -0.227 N 
ATOM     18  H4  UNL     1      16.950  12.435  30.687  1.00  0.00     0.210 HD
HETATM   19  N6  UNL     1      14.501  14.331  30.598  1.00  0.00    -0.272 N 
ATOM     20  H5  UNL     1      15.450  13.436  28.954  1.00  0.00     0.210 HD
ATOM     21  H6  UNL     1      13.756  14.866  30.152  1.00  0.00     0.190 HD
ENDBRANCH  12  13
ENDBRANCH   9  12
ENDBRANCH   7   9
ENDBRANCH   6   7
ENDBRANCH   5   6
ENDBRANCH   1   5
BRANCH   1  22
HETATM   22  C11 UNL     1      13.580  20.674  31.575  1.00  0.00     0.225 C 
BRANCH  22  23
HETATM   23  C12 UNL     1      14.817  21.445  31.650  1.00  0.00     0.241 C 
HETATM   24  O1  UNL     1      14.644  22.733  31.640  1.00  0.00    -0.271 OA
HETATM   25  N7  UNL     1      16.117  21.042  31.732  1.00  0.00    -0.307 N 
ATOM     26  H7  UNL     1      16.712  21.844  31.937  1.00  0.00     0.170 HD
BRANCH  25  27
HETATM   27  C13 UNL     1      16.810  20.024  31.639  1.00  0.00     0.178 A 
HETATM   28  N8  UNL     1      16.683  18.986  30.802  1.00  0.00    -0.336 N 
HETATM   29  C14 UNL     1      17.531  17.943  30.812  1.00  0.00     0.060 A 
ATOM     30  H8  UNL     1      15.915  18.986  30.132  1.00  0.00     0.168 HD
HETATM   31  C15 UNL     1      17.318  16.905  29.893  1.00  0.00     0.032 A 
HETATM   32  C19 UNL     1      18.576  17.875  31.677  1.00  0.00     0.062 A 
HETATM   33  C16 UNL     1      18.155  15.811  29.852  1.00  0.00     0.002 A 
HETATM   34  C17 UNL     1      19.217  15.764  30.746  1.00  0.00     0.002 A 
HETATM   35  C18 UNL     1      19.424  16.791  31.651  1.00  0.00     0.032 A 
HETATM   36  N9  UNL     1      18.737  18.901  32.536  1.00  0.00    -0.318 N 
HETATM   37  C20 UNL     1      17.899  19.943  32.535  1.00  0.00     0.290 A 
ATOM     38  H9  UNL     1      19.512  18.882  33.198  1.00  0.00     0.169 HD
HETATM   39  O2  UNL     1      18.109  20.869  33.367  1.00  0.00    -0.264 OA
ENDBRANCH  25  27
ENDBRANCH  22  23
ENDBRANCH   1  22
TORSDOF 10
ENDMDL
MODEL 2
REMARK VINA RESULT: -8.528051879      2.580      6.222
REMARK  10 active torsions:
REMARK  status: ('A' for Active; 'I' for Inactive)
REMARK    1  A    between atoms: C2_2  and  N1_4 
REMARK    2  A    between atoms: N1_4  and  C4_5 
REMARK    3  A    between atoms: N1_4  and  C11_22 
REMARK    4  A    between atoms: C4_5  and  C5_6 
REMARK    5  A    between atoms: C5_6  and  N2_7 
REMARK    6  A    between atoms: N2_7  and  C6_9 
REMARK    7  A    between atoms: C6_9  and  C9_12 
REMARK    8  A    between atoms: C9_12  and  C10_13 
REMARK    9  A    between atoms: C11_22  and  C12_23 
REMARK       I    between atoms: C12_23  and  N7_25 
REMARK   10  A    between atoms: N7_25  and  C13_27 
ROOT
HETATM    1  N1  UNL     1      17.749  17.271  30.727  1.00  0.00    -0.379 N 
ENDROOT
BRANCH   1   2
HETATM    2  C2  UNL     1      17.142  16.971  29.516  1.00  0.00     0.075 C 
HETATM    3  C1  UNL     1      16.481  15.618  29.417  1.00  0.00     0.032 C 
HETATM    4  C3  UNL     1      17.998  17.099  28.267  1.00  0.00     0.032 C 
ENDBRANCH   1   2
BRANCH   1   5
HETATM    5  C4  UNL     1      17.170  18.095  31.680  1.00  0.00     0.078 C 
BRANCH   5   6
HETATM    6  C5  UNL     1      15.759  17.795  32.071  1.00  0.00     0.159 C 
BRANCH   6   7
HETATM    7  N2  UNL     1      14.875  18.913  32.176  1.00  0.00    -0.409 N 
ATOM      8  H2  UNL     1      15.009  19.651  32.867  1.00  0.00     0.154 HD
BRANCH   7   9
HETATM    9  C6  UNL     1      13.792  18.925  31.245  1.00  0.00     0.025 C 
HETATM   10  C7  UNL     1      13.299  17.547  30.871  1.00  0.00     0.038 C 
HETATM   11  C8  UNL     1      12.611  19.746  31.706  1.00  0.00     0.038 C 
BRANCH   9  12
HETATM   12  C9  UNL     1      14.325  19.615  29.978  1.00  0.00     0.109 C 
BRANCH  12  13
HETATM   13  C10 UNL     1      14.691  21.026  30.231  1.00  0.00     0.115 A 
HETATM   14  N3  UNL     1      15.672  21.534  30.988  1.00  0.00    -0.272 N 
HETATM   15  N4  UNL     1      15.624  22.852  30.912  1.00  0.00    -0.227 N 
ATOM     16  H3  UNL     1      16.344  20.994  31.534  1.00  0.00     0.190 HD
HETATM   17  N5  UNL     1      14.644  23.221  30.129  1.00  0.00    -0.227 N 
ATOM     18  H4  UNL     1      16.259  23.489  31.393  1.00  0.00     0.210 HD
HETATM   19  N6  UNL     1      14.059  22.112  29.700  1.00  0.00    -0.272 N 
ATOM     20  H5  UNL     1      14.380  24.178  29.893  1.00  0.00     0.210 HD
ATOM     21  H6  UNL     1      13.258  22.077  29.070  1.00  0.00     0.190 HD
ENDBRANCH  12  13
ENDBRANCH   9  12
ENDBRANCH   7   9
ENDBRANCH   6   7
ENDBRANCH   5   6
ENDBRANCH   1   5
BRANCH   1  22
HETATM   22  C11 UNL     1      19.092  16.853  30.986  1.00  0.00     0.225 C 
BRANCH  22  23
HETATM   23  C12 UNL     1      19.287  15.465  31.392  1.00  0.00     0.241 C 
HETATM   24  O1  UNL     1      20.263  14.862  30.780  1.00  0.00    -0.271 OA
HETATM   25  N7  UNL     1      18.622  14.698  32.302  1.00  0.00    -0.307 N 
ATOM     26  H7  UNL     1      19.129  13.826  32.451  1.00  0.00     0.170 HD
BRANCH  25  27
HETATM   27  C13 UNL     1      17.606  14.713  33.005  1.00  0.00     0.178 A 
HETATM   28  N8  UNL     1      16.366  14.303  32.710  1.00  0.00    -0.336 N 
HETATM   29  C14 UNL     1      15.354  14.373  33.592  1.00  0.00     0.060 A 
ATOM     30  H8  UNL     1      16.182  13.924  31.782  1.00  0.00     0.168 HD
HETATM   31  C15 UNL     1      14.091  13.914  33.191  1.00  0.00     0.032 A 
HETATM   32  C19 UNL     1      15.526  14.867  34.845  1.00  0.00     0.062 A 
HETATM   33  C16 UNL     1      13.015  13.956  34.051  1.00  0.00     0.002 A 
HETATM   34  C17 UNL     1      13.216  14.465  35.328  1.00  0.00     0.002 A 
HETATM   35  C18 UNL     1      14.464  14.916  35.720  1.00  0.00     0.032 A 
HETATM   36  N9  UNL     1      16.761  15.290  35.180  1.00  0.00    -0.318 N 
HETATM   37  C20 UNL     1      17.775  15.226  34.310  1.00  0.00     0.290 A 
ATOM     38  H9  UNL     1      16.926  15.666  36.113  1.00  0.00     0.169 HD
HETATM   39  O2  UNL     1      18.905  15.640  34.691  1.00  0.00    -0.264 OA
ENDBRANCH  25  27
ENDBRANCH  22  23
ENDBRANCH   1  22
TORSDOF 10
ENDMDL
MODEL 3
REMARK VINA RESULT: -8.507882395      2.366      6.190
REMARK  10 active torsions:
REMARK  status: ('A' for Active; 'I' for Inactive)
REMARK    1  A    between atoms: C2_2  and  N1_4 
REMARK    2  A    between atoms: N1_4  and  C4_5 
REMARK    3  A    between atoms: N1_4  and  C11_22 
REMARK    4  A    between atoms: C4_5  and  C5_6 
REMARK    5  A    between atoms: C5_6  and  N2_7 
REMARK    6  A    between atoms: N2_7  and  C6_9 
REMARK    7  A    between atoms: C6_9  and  C9_12 
REMARK    8  A    between atoms: C9_12  and  C10_13 
REMARK    9  A    between atoms: C11_22  and  C12_23 
REMARK       I    between atoms: C12_23  and  N7_25 
REMARK   10  A    between atoms: N7_25  and  C13_27 
ROOT
HETATM    1  N1  UNL     1      17.538  16.019  30.045  1.00  0.00    -0.379 N 
ENDROOT
BRANCH   1   2
HETATM    2  C2  UNL     1      16.704  14.985  30.446  1.00  0.00     0.075 C 
HETATM    3  C1  UNL     1      17.374  13.802  31.100  1.00  0.00     0.032 C 
HETATM    4  C3  UNL     1      15.778  14.399  29.392  1.00  0.00     0.032 C 
ENDBRANCH   1   2
BRANCH   1   5
HETATM    5  C4  UNL     1      17.283  16.810  28.935  1.00  0.00     0.078 C 
BRANCH   5   6
HETATM    6  C5  UNL     1      16.545  18.089  29.168  1.00  0.00     0.159 C 
BRANCH   6   7
HETATM    7  N2  UNL     1      15.878  18.220  30.424  1.00  0.00    -0.409 N 
ATOM      8  H2  UNL     1      16.368  18.132  31.314  1.00  0.00     0.154 HD
BRANCH   7   9
HETATM    9  C6  UNL     1      14.477  18.484  30.347  1.00  0.00     0.025 C 
HETATM   10  C7  UNL     1      14.047  19.102  29.037  1.00  0.00     0.038 C 
HETATM   11  C8  UNL     1      13.619  17.267  30.605  1.00  0.00     0.038 C 
BRANCH   9  12
HETATM   12  C9  UNL     1      14.165  19.475  31.482  1.00  0.00     0.109 C 
BRANCH  12  13
HETATM   13  C10 UNL     1      14.640  20.840  31.166  1.00  0.00     0.115 A 
HETATM   14  N3  UNL     1      13.993  21.862  30.590  1.00  0.00    -0.272 N 
HETATM   15  N4  UNL     1      14.814  22.894  30.515  1.00  0.00    -0.227 N 
ATOM     16  H3  UNL     1      13.026  21.847  30.264  1.00  0.00     0.190 HD
HETATM   17  N5  UNL     1      15.978  22.579  31.024  1.00  0.00    -0.227 N 
ATOM     18  H4  UNL     1      14.577  23.803  30.119  1.00  0.00     0.210 HD
HETATM   19  N6  UNL     1      15.890  21.321  31.430  1.00  0.00    -0.272 N 
ATOM     20  H5  UNL     1      16.795  23.184  31.094  1.00  0.00     0.210 HD
ATOM     21  H6  UNL     1      16.641  20.792  31.871  1.00  0.00     0.190 HD
ENDBRANCH  12  13
ENDBRANCH   9  12
ENDBRANCH   7   9
ENDBRANCH   6   7
ENDBRANCH   5   6
ENDBRANCH   1   5
BRANCH   1  22
HETATM   22  C11 UNL     1      18.800  16.221  30.687  1.00  0.00     0.225 C 
BRANCH  22  23
HETATM   23  C12 UNL     1      18.824  17.126  31.831  1.00  0.00     0.241 C 
HETATM   24  O1  UNL     1      19.705  18.077  31.741  1.00  0.00    -0.271 OA
HETATM   25  N7  UNL     1      18.077  17.144  32.972  1.00  0.00    -0.307 N 
ATOM     26  H7  UNL     1      18.245  18.014  33.477  1.00  0.00     0.170 HD
BRANCH  25  27
HETATM   27  C13 UNL     1      17.265  16.452  33.594  1.00  0.00     0.178 A 
HETATM   28  N8  UNL     1      15.927  16.500  33.582  1.00  0.00    -0.336 N 
HETATM   29  C14 UNL     1      15.168  15.665  34.313  1.00  0.00     0.060 A 
ATOM     30  H8  UNL     1      15.466  17.196  32.996  1.00  0.00     0.168 HD
HETATM   31  C15 UNL     1      13.774  15.791  34.229  1.00  0.00     0.032 A 
HETATM   32  C19 UNL     1      15.714  14.716  35.115  1.00  0.00     0.062 A 
HETATM   33  C16 UNL     1      12.942  14.963  34.951  1.00  0.00     0.002 A 
HETATM   34  C17 UNL     1      13.523  13.998  35.765  1.00  0.00     0.002 A 
HETATM   35  C18 UNL     1      14.900  13.877  35.844  1.00  0.00     0.032 A 
HETATM   36  N9  UNL     1      17.058  14.636  35.155  1.00  0.00    -0.318 N 
HETATM   37  C20 UNL     1      17.822  15.461  34.433  1.00  0.00     0.290 A 
ATOM     38  H9  UNL     1      17.501  13.933  35.746  1.00  0.00     0.169 HD
HETATM   39  O2  UNL     1      19.075  15.330  34.518  1.00  0.00    -0.264 OA
ENDBRANCH  25  27
ENDBRANCH  22  23
ENDBRANCH   1  22
TORSDOF 10
ENDMDL
MODEL 4
REMARK VINA RESULT: -8.448022591      1.181      1.505
REMARK  10 active torsions:
REMARK  status: ('A' for Active; 'I' for Inactive)
REMARK    1  A    between atoms: C2_2  and  N1_4 
REMARK    2  A    between atoms: N1_4  and  C4_5 
REMARK    3  A    between atoms: N1_4  and  C11_22 
REMARK    4  A    between atoms: C4_5  and  C5_6 
REMARK    5  A    between atoms: C5_6  and  N2_7 
REMARK    6  A    between atoms: N2_7  and  C6_9 
REMARK    7  A    between atoms: C6_9  and  C9_12 
REMARK    8  A    between atoms: C9_12  and  C10_13 
REMARK    9  A    between atoms: C11_22  and  C12_23 
REMARK       I    between atoms: C12_23  and  N7_25 
REMARK   10  A    between atoms: N7_25  and  C13_27 
ROOT
HETATM    1  N1  UNL     1      13.295  19.753  30.616  1.00  0.00    -0.379 N 
ENDROOT
BRANCH   1   2
HETATM    2  C2  UNL     1      13.218  20.248  29.324  1.00  0.00     0.075 C 
HETATM    3  C1  UNL     1      11.834  20.359  28.732  1.00  0.00     0.032 C 
HETATM    4  C3  UNL     1      14.058  19.551  28.267  1.00  0.00     0.032 C 
ENDBRANCH   1   2
BRANCH   1   5
HETATM    5  C4  UNL     1      12.986  18.441  30.945  1.00  0.00     0.078 C 
BRANCH   5   6
HETATM    6  C5  UNL     1      13.545  17.913  32.227  1.00  0.00     0.159 C 
BRANCH   6   7
HETATM    7  N2  UNL     1      14.311  16.711  32.141  1.00  0.00    -0.409 N 
ATOM      8  H2  UNL     1      14.605  16.314  31.248  1.00  0.00     0.154 HD
BRANCH   7   9
HETATM    9  C6  UNL     1      14.639  16.103  33.391  1.00  0.00     0.025 C 
HETATM   10  C7  UNL     1      15.983  16.525  33.937  1.00  0.00     0.038 C 
HETATM   11  C8  UNL     1      13.597  16.329  34.462  1.00  0.00     0.038 C 
BRANCH   9  12
HETATM   12  C9  UNL     1      14.668  14.586  33.136  1.00  0.00     0.109 C 
BRANCH  12  13
HETATM   13  C10 UNL     1      13.383  14.095  32.593  1.00  0.00     0.115 A 
HETATM   14  N3  UNL     1      12.811  14.325  31.403  1.00  0.00    -0.272 N 
HETATM   15  N4  UNL     1      11.664  13.672  31.353  1.00  0.00    -0.227 N 
ATOM     16  H3  UNL     1      13.196  14.908  30.659  1.00  0.00     0.190 HD
HETATM   17  N5  UNL     1      11.468  13.022  32.471  1.00  0.00    -0.227 N 
ATOM     18  H4  UNL     1      11.024  13.674  30.558  1.00  0.00     0.210 HD
HETATM   19  N6  UNL     1      12.514  13.270  33.245  1.00  0.00    -0.272 N 
ATOM     20  H5  UNL     1      10.665  12.439  32.703  1.00  0.00     0.210 HD
ATOM     21  H6  UNL     1      12.650  12.900  34.186  1.00  0.00     0.190 HD
ENDBRANCH  12  13
ENDBRANCH   9  12
ENDBRANCH   7   9
ENDBRANCH   6   7
ENDBRANCH   5   6
ENDBRANCH   1   5
BRANCH   1  22
HETATM   22  C11 UNL     1      13.561  20.632  31.714  1.00  0.00     0.225 C 
BRANCH  22  23
HETATM   23  C12 UNL     1      14.803  21.396  31.665  1.00  0.00     0.241 C 
HETATM   24  O1  UNL     1      14.635  22.683  31.588  1.00  0.00    -0.271 OA
HETATM   25  N7  UNL     1      16.104  20.988  31.689  1.00  0.00    -0.307 N 
ATOM     26  H7  UNL     1      16.714  21.797  31.807  1.00  0.00     0.170 HD
BRANCH  25  27
HETATM   27  C13 UNL     1      16.786  19.961  31.614  1.00  0.00     0.178 A 
HETATM   28  N8  UNL     1      16.632  18.898  30.815  1.00  0.00    -0.336 N 
HETATM   29  C14 UNL     1      17.470  17.848  30.840  1.00  0.00     0.060 A 
ATOM     30  H8  UNL     1      15.849  18.885  30.161  1.00  0.00     0.168 HD
HETATM   31  C15 UNL     1      17.228  16.784  29.960  1.00  0.00     0.032 A 
HETATM   32  C19 UNL     1      18.532  17.798  31.685  1.00  0.00     0.062 A 
HETATM   33  C16 UNL     1      18.054  15.680  29.936  1.00  0.00     0.002 A 
HETATM   34  C17 UNL     1      19.134  15.652  30.809  1.00  0.00     0.002 A 
HETATM   35  C18 UNL     1      19.370  16.705  31.676  1.00  0.00     0.032 A 
HETATM   36  N9  UNL     1      18.721  18.850  32.506  1.00  0.00    -0.318 N 
HETATM   37  C20 UNL     1      17.893  19.899  32.489  1.00  0.00     0.290 A 
ATOM     38  H9  UNL     1      19.510  18.845  33.152  1.00  0.00     0.169 HD
HETATM   39  O2  UNL     1      18.129  20.849  33.286  1.00  0.00    -0.264 OA
ENDBRANCH  25  27
ENDBRANCH  22  23
ENDBRANCH   1  22
TORSDOF 10
ENDMDL
MODEL 5
REMARK VINA RESULT: -8.444760942      2.647      6.695
REMARK  10 active torsions:
REMARK  status: ('A' for Active; 'I' for Inactive)
REMARK    1  A    between atoms: C2_2  and  N1_4 
REMARK    2  A    between atoms: N1_4  and  C4_5 
REMARK    3  A    between atoms: N1_4  and  C11_22 
REMARK    4  A    between atoms: C4_5  and  C5_6 
REMARK    5  A    between atoms: C5_6  and  N2_7 
REMARK    6  A    between atoms: N2_7  and  C6_9 
REMARK    7  A    between atoms: C6_9  and  C9_12 
REMARK    8  A    between atoms: C9_12  and  C10_13 
REMARK    9  A    between atoms: C11_22  and  C12_23 
REMARK       I    between atoms: C12_23  and  N7_25 
REMARK   10  A    between atoms: N7_25  and  C13_27 
ROOT
HETATM    1  N1  UNL     1      18.335  17.454  30.954  1.00  0.00    -0.379 N 
ENDROOT
BRANCH   1   2
HETATM    2  C2  UNL     1      17.699  18.252  31.893  1.00  0.00     0.075 C 
HETATM    3  C1  UNL     1      18.558  19.280  32.589  1.00  0.00     0.032 C 
HETATM    4  C3  UNL     1      16.938  17.540  33.000  1.00  0.00     0.032 C 
ENDBRANCH   1   2
BRANCH   1   5
HETATM    5  C4  UNL     1      17.862  17.281  29.662  1.00  0.00     0.078 C 
BRANCH   5   6
HETATM    6  C5  UNL     1      16.381  17.347  29.467  1.00  0.00     0.159 C 
BRANCH   6   7
HETATM    7  N2  UNL     1      15.785  18.643  29.548  1.00  0.00    -0.409 N 
ATOM      8  H2  UNL     1      16.313  19.498  29.374  1.00  0.00     0.154 HD
BRANCH   7   9
HETATM    9  C6  UNL     1      14.399  18.657  29.892  1.00  0.00     0.025 C 
HETATM   10  C7  UNL     1      13.517  19.269  28.828  1.00  0.00     0.038 C 
HETATM   11  C8  UNL     1      13.850  17.294  30.241  1.00  0.00     0.038 C 
BRANCH   9  12
HETATM   12  C9  UNL     1      14.283  19.505  31.170  1.00  0.00     0.109 C 
BRANCH  12  13
HETATM   13  C10 UNL     1      14.721  20.900  30.947  1.00  0.00     0.115 A 
HETATM   14  N3  UNL     1      14.101  21.902  30.307  1.00  0.00    -0.272 N 
HETATM   15  N4  UNL     1      14.867  22.976  30.362  1.00  0.00    -0.227 N 
ATOM     16  H3  UNL     1      13.189  21.845  29.854  1.00  0.00     0.190 HD
HETATM   17  N5  UNL     1      15.968  22.709  31.017  1.00  0.00    -0.227 N 
ATOM     18  H4  UNL     1      14.635  23.881  29.954  1.00  0.00     0.210 HD
HETATM   19  N6  UNL     1      15.896  21.438  31.384  1.00  0.00    -0.272 N 
ATOM     20  H5  UNL     1      16.734  23.355  31.208  1.00  0.00     0.210 HD
ATOM     21  H6  UNL     1      16.610  20.939  31.914  1.00  0.00     0.190 HD
ENDBRANCH  12  13
ENDBRANCH   9  12
ENDBRANCH   7   9
ENDBRANCH   6   7
ENDBRANCH   5   6
ENDBRANCH   1   5
BRANCH   1  22
HETATM   22  C11 UNL     1      19.450  16.640  31.332  1.00  0.00     0.225 C 
BRANCH  22  23
HETATM   23  C12 UNL     1      19.362  15.216  31.028  1.00  0.00     0.241 C 
HETATM   24  O1  UNL     1      20.245  14.798  30.171  1.00  0.00    -0.271 OA
HETATM   25  N7  UNL     1      18.515  14.254  31.494  1.00  0.00    -0.307 N 
ATOM     26  H7  UNL     1      18.844  13.335  31.197  1.00  0.00     0.170 HD
BRANCH  25  27
HETATM   27  C13 UNL     1      17.481  14.130  32.157  1.00  0.00     0.178 A 
HETATM   28  N8  UNL     1      17.326  14.096  33.487  1.00  0.00    -0.336 N 
HETATM   29  C14 UNL     1      16.122  13.965  34.070  1.00  0.00     0.060 A 
ATOM     30  H8  UNL     1      18.152  14.172  34.079  1.00  0.00     0.168 HD
HETATM   31  C15 UNL     1      16.062  13.945  35.471  1.00  0.00     0.032 A 
HETATM   32  C19 UNL     1      14.980  13.858  33.343  1.00  0.00     0.062 A 
HETATM   33  C16 UNL     1      14.857  13.817  36.128  1.00  0.00     0.002 A 
HETATM   34  C17 UNL     1      13.702  13.709  35.363  1.00  0.00     0.002 A 
HETATM   35  C18 UNL     1      13.766  13.730  33.980  1.00  0.00     0.032 A 
HETATM   36  N9  UNL     1      15.095  13.888  32.001  1.00  0.00    -0.318 N 
HETATM   37  C20 UNL     1      16.287  14.017  31.411  1.00  0.00     0.290 A 
ATOM     38  H9  UNL     1      14.257  13.811  31.425  1.00  0.00     0.169 HD
HETATM   39  O2  UNL     1      16.320  14.037  30.149  1.00  0.00    -0.264 OA
ENDBRANCH  25  27
ENDBRANCH  22  23
ENDBRANCH   1  22
TORSDOF 10
ENDMDL
