MODEL 1
REMARK VINA RESULT: -6.125933496      0.000      0.000
REMARK  6 active torsions:
REMARK  status: ('A' for Active; 'I' for Inactive)
REMARK    1  A    between atoms: C1_2  and  C2_4 
REMARK    2  A    between atoms: N3_7  and  C3_8 
REMARK    3  A    between atoms: C3_8  and  C4_9 
REMARK    4  A    between atoms: C4_9  and  C5_10 
REMARK    5  A    between atoms: C5_10  and  C6_11 
REMARK    6  A    between atoms: C6_11  and  C7_12 
ROOT
HETATM    1  C2  UNL     1     -13.904 -22.723  14.803  1.00  0.00     0.182 A 
HETATM    2  N2  UNL     1     -12.932 -23.571  15.187  1.00  0.00    -0.285 N 
ATOM      3  H2  UNL     1     -13.154 -24.554  15.341  1.00  0.00     0.187 HD
HETATM    4  N3  UNL     1     -11.677 -23.140  15.368  1.00  0.00    -0.242 N 
HETATM    5  C9  UNL     1     -11.378 -21.844  15.166  1.00  0.00     0.344 A 
HETATM    6  O3  UNL     1     -10.198 -21.442  15.337  1.00  0.00    -0.245 OA
HETATM    7  N7  UNL     1     -12.301 -20.942  14.782  1.00  0.00    -0.272 N 
ATOM      8  H7  UNL     1     -12.061 -19.962  14.631  1.00  0.00     0.174 HD
HETATM    9  C10 UNL     1     -13.571 -21.401  14.603  1.00  0.00     0.282 A 
HETATM   10  O4  UNL     1     -14.479 -20.606  14.244  1.00  0.00    -0.265 OA
ENDROOT
BRANCH   4  11
HETATM   11  C3  UNL     1     -10.611 -24.026  15.779  1.00  0.00     0.154 C 
BRANCH  11  12
HETATM   12  C4  UNL     1     -10.757 -24.419  17.244  1.00  0.00     0.022 C 
BRANCH  12  13
HETATM   13  C5  UNL     1      -9.538 -24.121  18.035  1.00  0.00     0.009 C 
BRANCH  13  14
HETATM   14  C6  UNL     1      -9.601 -22.987  18.980  1.00  0.00     0.078 C 
BRANCH  14  15
HETATM   15  C7  UNL     1      -9.311 -21.650  18.444  1.00  0.00     0.099 A 
HETATM   16  N4  UNL     1     -10.185 -20.596  18.370  1.00  0.00    -0.285 N 
HETATM   17  N5  UNL     1      -9.572 -19.572  17.871  1.00  0.00    -0.250 N 
ATOM     18  H4  UNL     1     -11.163 -20.617  18.661  1.00  0.00     0.188 HD
HETATM   19  C8  UNL     1      -8.292 -19.863  17.588  1.00  0.00     0.340 A 
ATOM     20  H5  UNL     1     -10.005 -18.662  17.713  1.00  0.00     0.192 HD
HETATM   21  O2  UNL     1      -7.398 -19.136  17.100  1.00  0.00    -0.245 OA
HETATM   22  N6  UNL     1      -8.160 -21.174  17.960  1.00  0.00    -0.296 N 
ATOM     23  H6  UNL     1      -7.299 -21.715  17.877  1.00  0.00     0.172 HD
ENDBRANCH  14  15
ENDBRANCH  13  14
ENDBRANCH  12  13
ENDBRANCH  11  12
ENDBRANCH   4  11
BRANCH   1  24
HETATM   24  C1  UNL     1     -15.292 -23.177  14.599  1.00  0.00     0.288 C 
HETATM   25  N1  UNL     1     -16.134 -23.342  15.714  1.00  0.00    -0.056 NA
HETATM   26  O1  UNL     1     -15.748 -23.420  13.470  1.00  0.00    -0.269 OA
ENDBRANCH   1  24
TORSDOF 6
ENDMDL
MODEL 2
REMARK VINA RESULT: -6.083047819      1.271      1.698
REMARK  6 active torsions:
REMARK  status: ('A' for Active; 'I' for Inactive)
REMARK    1  A    between atoms: C1_2  and  C2_4 
REMARK    2  A    between atoms: N3_7  and  C3_8 
REMARK    3  A    between atoms: C3_8  and  C4_9 
REMARK    4  A    between atoms: C4_9  and  C5_10 
REMARK    5  A    between atoms: C5_10  and  C6_11 
REMARK    6  A    between atoms: C6_11  and  C7_12 
ROOT
HETATM    1  C2  UNL     1     -13.844 -22.317  15.764  1.00  0.00     0.182 A 
HETATM    2  N2  UNL     1     -12.874 -22.895  16.496  1.00  0.00    -0.285 N 
ATOM      3  H2  UNL     1     -13.118 -23.618  17.173  1.00  0.00     0.187 HD
HETATM    4  N3  UNL     1     -11.593 -22.532  16.349  1.00  0.00    -0.242 N 
HETATM    5  C9  UNL     1     -11.266 -21.577  15.459  1.00  0.00     0.344 A 
HETATM    6  O3  UNL     1     -10.062 -21.239  15.323  1.00  0.00    -0.245 OA
HETATM    7  N7  UNL     1     -12.185 -20.959  14.694  1.00  0.00    -0.272 N 
ATOM      8  H7  UNL     1     -11.923 -20.237  14.022  1.00  0.00     0.174 HD
HETATM    9  C10 UNL     1     -13.481 -21.343  14.859  1.00  0.00     0.282 A 
HETATM   10  O4  UNL     1     -14.386 -20.801  14.173  1.00  0.00    -0.265 OA
ENDROOT
BRANCH   4  11
HETATM   11  C3  UNL     1     -10.529 -23.133  17.121  1.00  0.00     0.154 C 
BRANCH  11  12
HETATM   12  C4  UNL     1     -10.799 -23.015  18.616  1.00  0.00     0.022 C 
BRANCH  12  13
HETATM   13  C5  UNL     1     -10.673 -21.620  19.106  1.00  0.00     0.009 C 
BRANCH  13  14
HETATM   14  C6  UNL     1      -9.360 -21.205  19.641  1.00  0.00     0.078 C 
BRANCH  14  15
HETATM   15  C7  UNL     1      -8.312 -20.877  18.665  1.00  0.00     0.099 A 
HETATM   16  N4  UNL     1      -7.050 -21.412  18.616  1.00  0.00    -0.285 N 
HETATM   17  N5  UNL     1      -6.416 -20.910  17.606  1.00  0.00    -0.250 N 
ATOM     18  H4  UNL     1      -6.672 -22.097  19.271  1.00  0.00     0.188 HD
HETATM   19  C8  UNL     1      -7.185 -20.036  16.936  1.00  0.00     0.340 A 
ATOM     20  H5  UNL     1      -5.457 -21.148  17.352  1.00  0.00     0.192 HD
HETATM   21  O2  UNL     1      -6.921 -19.359  15.918  1.00  0.00    -0.245 OA
HETATM   22  N6  UNL     1      -8.368 -20.038  17.626  1.00  0.00    -0.296 N 
ATOM     23  H6  UNL     1      -9.181 -19.475  17.381  1.00  0.00     0.172 HD
ENDBRANCH  14  15
ENDBRANCH  13  14
ENDBRANCH  12  13
ENDBRANCH  11  12
ENDBRANCH   4  11
BRANCH   1  24
HETATM   24  C1  UNL     1     -15.259 -22.702  15.911  1.00  0.00     0.288 C 
HETATM   25  N1  UNL     1     -16.040 -22.085  16.907  1.00  0.00    -0.056 NA
HETATM   26  O1  UNL     1     -15.792 -23.555  15.183  1.00  0.00    -0.269 OA
ENDBRANCH   1  24
TORSDOF 6
ENDMDL
MODEL 3
REMARK VINA RESULT: -5.972382892      2.167      6.098
REMARK  6 active torsions:
REMARK  status: ('A' for Active; 'I' for Inactive)
REMARK    1  A    between atoms: C1_2  and  C2_4 
REMARK    2  A    between atoms: N3_7  and  C3_8 
REMARK    3  A    between atoms: C3_8  and  C4_9 
REMARK    4  A    between atoms: C4_9  and  C5_10 
REMARK    5  A    between atoms: C5_10  and  C6_11 
REMARK    6  A    between atoms: C6_11  and  C7_12 
ROOT
HETATM    1  C2  UNL     1      -8.421 -20.814  17.044  1.00  0.00     0.182 A 
HETATM    2  N2  UNL     1      -8.715 -22.110  16.840  1.00  0.00    -0.285 N 
ATOM      3  H2  UNL     1      -8.093 -22.684  16.271  1.00  0.00     0.187 HD
HETATM    4  N3  UNL     1      -9.814 -22.658  17.375  1.00  0.00    -0.242 N 
HETATM    5  C9  UNL     1     -10.639 -21.907  18.128  1.00  0.00     0.344 A 
HETATM    6  O3  UNL     1     -11.670 -22.425  18.629  1.00  0.00    -0.245 OA
HETATM    7  N7  UNL     1     -10.405 -20.604  18.372  1.00  0.00    -0.272 N 
ATOM      8  H7  UNL     1     -11.039 -20.046  18.944  1.00  0.00     0.174 HD
HETATM    9  C10 UNL     1      -9.282 -20.067  17.818  1.00  0.00     0.282 A 
HETATM   10  O4  UNL     1      -9.010 -18.853  18.011  1.00  0.00    -0.265 OA
ENDROOT
BRANCH   4  11
HETATM   11  C3  UNL     1     -10.157 -24.048  17.175  1.00  0.00     0.154 C 
BRANCH  11  12
HETATM   12  C4  UNL     1     -10.446 -24.337  15.707  1.00  0.00     0.022 C 
BRANCH  12  13
HETATM   13  C5  UNL     1     -11.873 -24.133  15.359  1.00  0.00     0.009 C 
BRANCH  13  14
HETATM   14  C6  UNL     1     -12.285 -22.773  14.953  1.00  0.00     0.078 C 
BRANCH  14  15
HETATM   15  C7  UNL     1     -13.528 -22.248  15.535  1.00  0.00     0.099 A 
HETATM   16  N4  UNL     1     -14.431 -21.423  14.914  1.00  0.00    -0.285 N 
HETATM   17  N5  UNL     1     -15.417 -21.192  15.720  1.00  0.00    -0.250 N 
ATOM     18  H4  UNL     1     -14.340 -21.051  13.969  1.00  0.00     0.188 HD
HETATM   19  C8  UNL     1     -15.244 -21.825  16.892  1.00  0.00     0.340 A 
ATOM     20  H5  UNL     1     -16.221 -20.606  15.494  1.00  0.00     0.192 HD
HETATM   21  O2  UNL     1     -15.977 -21.840  17.906  1.00  0.00    -0.245 OA
HETATM   22  N6  UNL     1     -14.050 -22.478  16.743  1.00  0.00    -0.296 N 
ATOM     23  H6  UNL     1     -13.617 -23.062  17.459  1.00  0.00     0.172 HD
ENDBRANCH  14  15
ENDBRANCH  13  14
ENDBRANCH  12  13
ENDBRANCH  11  12
ENDBRANCH   4  11
BRANCH   1  24
HETATM   24  C1  UNL     1      -7.217 -20.191  16.464  1.00  0.00     0.288 C 
HETATM   25  N1  UNL     1      -5.973 -20.384  17.092  1.00  0.00    -0.056 NA
HETATM   26  O1  UNL     1      -7.261 -19.499  15.434  1.00  0.00    -0.269 OA
ENDBRANCH   1  24
TORSDOF 6
ENDMDL
MODEL 4
REMARK VINA RESULT: -5.935602785      1.808      5.847
REMARK  6 active torsions:
REMARK  status: ('A' for Active; 'I' for Inactive)
REMARK    1  A    between atoms: C1_2  and  C2_4 
REMARK    2  A    between atoms: N3_7  and  C3_8 
REMARK    3  A    between atoms: C3_8  and  C4_9 
REMARK    4  A    between atoms: C4_9  and  C5_10 
REMARK    5  A    between atoms: C5_10  and  C6_11 
REMARK    6  A    between atoms: C6_11  and  C7_12 
ROOT
HETATM    1  C2  UNL     1      -8.380 -21.562  17.506  1.00  0.00     0.182 A 
HETATM    2  N2  UNL     1      -8.700 -22.786  17.050  1.00  0.00    -0.285 N 
ATOM      3  H2  UNL     1      -8.168 -23.596  17.368  1.00  0.00     0.187 HD
HETATM    4  N3  UNL     1      -9.707 -22.955  16.183  1.00  0.00    -0.242 N 
HETATM    5  C9  UNL     1     -10.412 -21.890  15.759  1.00  0.00     0.344 A 
HETATM    6  O3  UNL     1     -11.357 -22.052  14.946  1.00  0.00    -0.245 OA
HETATM    7  N7  UNL     1     -10.146 -20.638  16.175  1.00  0.00    -0.272 N 
ATOM      8  H7  UNL     1     -10.689 -19.839  15.847  1.00  0.00     0.174 HD
HETATM    9  C10 UNL     1      -9.118 -20.488  17.057  1.00  0.00     0.282 A 
HETATM   10  O4  UNL     1      -8.822 -19.341  17.482  1.00  0.00    -0.265 OA
ENDROOT
BRANCH   4  11
HETATM   11  C3  UNL     1     -10.075 -24.257  15.674  1.00  0.00     0.154 C 
BRANCH  11  12
HETATM   12  C4  UNL     1     -11.013 -24.978  16.634  1.00  0.00     0.022 C 
BRANCH  12  13
HETATM   13  C5  UNL     1     -12.126 -25.662  15.931  1.00  0.00     0.009 C 
BRANCH  13  14
HETATM   14  C6  UNL     1     -13.502 -25.247  16.273  1.00  0.00     0.078 C 
BRANCH  14  15
HETATM   15  C7  UNL     1     -13.814 -23.814  16.177  1.00  0.00     0.099 A 
HETATM   16  N4  UNL     1     -13.681 -22.884  17.176  1.00  0.00    -0.285 N 
HETATM   17  N5  UNL     1     -14.019 -21.721  16.720  1.00  0.00    -0.250 N 
ATOM     18  H4  UNL     1     -13.367 -23.078  18.127  1.00  0.00     0.188 HD
HETATM   19  C8  UNL     1     -14.388 -21.794  15.430  1.00  0.00     0.340 A 
ATOM     20  H5  UNL     1     -14.007 -20.861  17.268  1.00  0.00     0.192 HD
HETATM   21  O2  UNL     1     -14.775 -20.889  14.658  1.00  0.00    -0.245 OA
HETATM   22  N6  UNL     1     -14.247 -23.121  15.120  1.00  0.00    -0.296 N 
ATOM     23  H6  UNL     1     -14.448 -23.525  14.205  1.00  0.00     0.172 HD
ENDBRANCH  14  15
ENDBRANCH  13  14
ENDBRANCH  12  13
ENDBRANCH  11  12
ENDBRANCH   4  11
BRANCH   1  24
HETATM   24  C1  UNL     1      -7.276 -21.354  18.460  1.00  0.00     0.288 C 
HETATM   25  N1  UNL     1      -7.483 -21.634  19.824  1.00  0.00    -0.056 NA
HETATM   26  O1  UNL     1      -6.162 -20.940  18.102  1.00  0.00    -0.269 OA
ENDBRANCH   1  24
TORSDOF 6
ENDMDL
MODEL 5
REMARK VINA RESULT: -5.928047180      2.346      6.691
REMARK  6 active torsions:
REMARK  status: ('A' for Active; 'I' for Inactive)
REMARK    1  A    between atoms: C1_2  and  C2_4 
REMARK    2  A    between atoms: N3_7  and  C3_8 
REMARK    3  A    between atoms: C3_8  and  C4_9 
REMARK    4  A    between atoms: C4_9  and  C5_10 
REMARK    5  A    between atoms: C5_10  and  C6_11 
REMARK    6  A    between atoms: C6_11  and  C7_12 
ROOT
HETATM    1  C2  UNL     1      -8.997 -20.956  17.693  1.00  0.00     0.182 A 
HETATM    2  N2  UNL     1      -9.557 -21.555  16.627  1.00  0.00    -0.285 N 
ATOM      3  H2  UNL     1      -9.066 -21.552  15.732  1.00  0.00     0.187 HD
HETATM    4  N3  UNL     1     -10.751 -22.155  16.724  1.00  0.00    -0.242 N 
HETATM    5  C9  UNL     1     -11.403 -22.162  17.901  1.00  0.00     0.344 A 
HETATM    6  O3  UNL     1     -12.523 -22.727  17.989  1.00  0.00    -0.245 OA
HETATM    7  N7  UNL     1     -10.901 -21.582  19.007  1.00  0.00    -0.272 N 
ATOM      8  H7  UNL     1     -11.405 -21.595  19.894  1.00  0.00     0.174 HD
HETATM    9  C10 UNL     1      -9.686 -20.978  18.887  1.00  0.00     0.282 A 
HETATM   10  O4  UNL     1      -9.164 -20.418  19.886  1.00  0.00    -0.265 OA
ENDROOT
BRANCH   4  11
HETATM   11  C3  UNL     1     -11.378 -22.807  15.597  1.00  0.00     0.154 C 
BRANCH  11  12
HETATM   12  C4  UNL     1     -11.960 -21.788  14.625  1.00  0.00     0.022 C 
BRANCH  12  13
HETATM   13  C5  UNL     1     -13.255 -22.226  14.052  1.00  0.00     0.009 C 
BRANCH  13  14
HETATM   14  C6  UNL     1     -14.453 -21.431  14.392  1.00  0.00     0.078 C 
BRANCH  14  15
HETATM   15  C7  UNL     1     -15.130 -21.746  15.657  1.00  0.00     0.099 A 
HETATM   16  N4  UNL     1     -14.729 -21.362  16.911  1.00  0.00    -0.285 N 
HETATM   17  N5  UNL     1     -15.585 -21.794  17.780  1.00  0.00    -0.250 N 
ATOM     18  H4  UNL     1     -13.890 -20.823  17.125  1.00  0.00     0.188 HD
HETATM   19  C8  UNL     1     -16.581 -22.472  17.185  1.00  0.00     0.340 A 
ATOM     20  H5  UNL     1     -15.514 -21.640  18.786  1.00  0.00     0.192 HD
HETATM   21  O2  UNL     1     -17.579 -23.031  17.690  1.00  0.00    -0.245 OA
HETATM   22  N6  UNL     1     -16.265 -22.423  15.853  1.00  0.00    -0.296 N 
ATOM     23  H6  UNL     1     -16.822 -22.846  15.111  1.00  0.00     0.172 HD
ENDBRANCH  14  15
ENDBRANCH  13  14
ENDBRANCH  12  13
ENDBRANCH  11  12
ENDBRANCH   4  11
BRANCH   1  24
HETATM   24  C1  UNL     1      -7.685 -20.290  17.607  1.00  0.00     0.288 C 
HETATM   25  N1  UNL     1      -6.535 -20.976  18.043  1.00  0.00    -0.056 NA
HETATM   26  O1  UNL     1      -7.555 -19.139  17.161  1.00  0.00    -0.269 OA
ENDBRANCH   1  24
TORSDOF 6
ENDMDL
