MODEL 1
REMARK VINA RESULT: -4.166043319      0.000      0.000
REMARK  3 active torsions:
REMARK  status: ('A' for Active; 'I' for Inactive)
REMARK    1  A    between atoms: N1_1  and  C1_5 
REMARK    2  A    between atoms: C1_5  and  C2_6 
REMARK    3  A    between atoms: C2_6  and  N2_7 
ROOT
HETATM    1  N2  UNL     1       9.580  -8.705  22.129  1.00  0.00    -0.361 N 
ATOM      2  H2  UNL     1      10.158  -8.473  21.322  1.00  0.00     0.162 HD
HETATM    3  C3  UNL     1       8.366  -9.059  21.973  1.00  0.00     0.171 C 
HETATM    4  N3  UNL     1       7.648  -9.185  20.721  1.00  0.00    -0.361 N 
ATOM      5  H3  UNL     1       7.790  -8.659  19.858  1.00  0.00     0.162 HD
HETATM    6  C4  UNL     1       6.681 -10.234  20.980  1.00  0.00     0.142 C 
HETATM    7  C5  UNL     1       6.213  -9.827  22.373  1.00  0.00     0.142 C 
HETATM    8  N4  UNL     1       7.466  -9.405  23.018  1.00  0.00    -0.361 N 
ATOM      9  H4  UNL     1       7.653  -9.368  24.020  1.00  0.00     0.162 HD
ENDROOT
BRANCH   1  10
HETATM   10  C2  UNL     1      10.124  -8.637  23.462  1.00  0.00     0.150 C 
BRANCH  10  11
HETATM   11  C1  UNL     1      11.583  -9.090  23.355  1.00  0.00     0.249 C 
BRANCH  11  12
HETATM   12  N1  UNL     1      11.930  -9.255  21.973  1.00  0.00    -0.078 N 
ATOM     13  H13 UNL     1      11.184  -8.949  21.348  1.00  0.00     0.274 HD
ATOM     14  H12 UNL     1      12.649  -8.596  21.675  1.00  0.00     0.274 HD
ATOM     15  H11 UNL     1      12.199 -10.223  21.806  1.00  0.00     0.274 HD
ENDBRANCH  11  12
ENDBRANCH  10  11
ENDBRANCH   1  10
TORSDOF 3
ENDMDL
MODEL 2
REMARK VINA RESULT: -4.136055218      1.306      1.444
REMARK  3 active torsions:
REMARK  status: ('A' for Active; 'I' for Inactive)
REMARK    1  A    between atoms: N1_1  and  C1_5 
REMARK    2  A    between atoms: C1_5  and  C2_6 
REMARK    3  A    between atoms: C2_6  and  N2_7 
ROOT
HETATM    1  N2  UNL     1      10.116  -8.853  22.242  1.00  0.00    -0.361 N 
ATOM      2  H2  UNL     1      10.246  -8.530  21.284  1.00  0.00     0.162 HD
HETATM    3  C3  UNL     1       8.952  -9.139  22.674  1.00  0.00     0.171 C 
HETATM    4  N3  UNL     1       7.705  -9.063  21.940  1.00  0.00    -0.361 N 
ATOM      5  H3  UNL     1       7.459  -8.426  21.182  1.00  0.00     0.162 HD
HETATM    6  C4  UNL     1       6.890 -10.105  22.534  1.00  0.00     0.142 C 
HETATM    7  C5  UNL     1       7.205  -9.882  24.009  1.00  0.00     0.142 C 
HETATM    8  N4  UNL     1       8.648  -9.598  23.986  1.00  0.00    -0.361 N 
ATOM      9  H4  UNL     1       9.303  -9.708  24.760  1.00  0.00     0.162 HD
ENDROOT
BRANCH   1  10
HETATM   10  C2  UNL     1      11.246  -8.991  23.126  1.00  0.00     0.150 C 
BRANCH  10  11
HETATM   11  C1  UNL     1      12.446  -9.332  22.240  1.00  0.00     0.249 C 
BRANCH  11  12
HETATM   12  N1  UNL     1      13.650  -9.240  23.014  1.00  0.00    -0.078 N 
ATOM     13  H13 UNL     1      13.858  -8.281  23.292  1.00  0.00     0.274 HD
ATOM     14  H12 UNL     1      13.541  -9.641  23.947  1.00  0.00     0.274 HD
ATOM     15  H11 UNL     1      14.418  -9.667  22.497  1.00  0.00     0.274 HD
ENDBRANCH  11  12
ENDBRANCH  10  11
ENDBRANCH   1  10
TORSDOF 3
ENDMDL
MODEL 3
REMARK VINA RESULT: -4.077093394      1.253      4.515
REMARK  3 active torsions:
REMARK  status: ('A' for Active; 'I' for Inactive)
REMARK    1  A    between atoms: N1_1  and  C1_5 
REMARK    2  A    between atoms: C1_5  and  C2_6 
REMARK    3  A    between atoms: C2_6  and  N2_7 
ROOT
HETATM    1  N2  UNL     1       9.450  -8.588  22.990  1.00  0.00    -0.361 N 
ATOM      2  H2  UNL     1       8.864  -8.485  23.818  1.00  0.00     0.162 HD
HETATM    3  C3  UNL     1      10.666  -8.951  23.100  1.00  0.00     0.171 C 
HETATM    4  N3  UNL     1      11.378  -9.256  24.324  1.00  0.00    -0.361 N 
ATOM      5  H3  UNL     1      11.226  -8.866  25.255  1.00  0.00     0.162 HD
HETATM    6  C4  UNL     1      12.356 -10.246  23.919  1.00  0.00     0.142 C 
HETATM    7  C5  UNL     1      12.829  -9.632  22.605  1.00  0.00     0.142 C 
HETATM    8  N4  UNL     1      11.575  -9.129  22.021  1.00  0.00    -0.361 N 
ATOM      9  H4  UNL     1      11.394  -8.944  21.035  1.00  0.00     0.162 HD
ENDROOT
BRANCH   1  10
HETATM   10  C2  UNL     1       8.912  -8.326  21.678  1.00  0.00     0.150 C 
BRANCH  10  11
HETATM   11  C1  UNL     1       7.563  -9.045  21.614  1.00  0.00     0.249 C 
BRANCH  11  12
HETATM   12  N1  UNL     1       7.474  -9.781  20.386  1.00  0.00    -0.078 N 
ATOM     13  H13 UNL     1       8.380 -10.140  20.084  1.00  0.00     0.274 HD
ATOM     14  H12 UNL     1       6.996 -10.675  20.505  1.00  0.00     0.274 HD
ATOM     15  H11 UNL     1       7.033  -9.199  19.674  1.00  0.00     0.274 HD
ENDBRANCH  11  12
ENDBRANCH  10  11
ENDBRANCH   1  10
TORSDOF 3
ENDMDL
MODEL 4
REMARK VINA RESULT: -4.075261325      1.955      5.062
REMARK  3 active torsions:
REMARK  status: ('A' for Active; 'I' for Inactive)
REMARK    1  A    between atoms: N1_1  and  C1_5 
REMARK    2  A    between atoms: C1_5  and  C2_6 
REMARK    3  A    between atoms: C2_6  and  N2_7 
ROOT
HETATM    1  N2  UNL     1      11.320  -8.797  23.460  1.00  0.00    -0.361 N 
ATOM      2  H2  UNL     1      11.499  -7.847  23.783  1.00  0.00     0.162 HD
HETATM    3  C3  UNL     1      12.287  -9.567  23.151  1.00  0.00     0.171 C 
HETATM    4  N3  UNL     1      13.701  -9.254  23.199  1.00  0.00    -0.361 N 
ATOM      5  H3  UNL     1      14.150  -8.347  23.069  1.00  0.00     0.162 HD
HETATM    6  C4  UNL     1      14.329 -10.531  23.478  1.00  0.00     0.142 C 
HETATM    7  C5  UNL     1      13.528 -11.432  22.543  1.00  0.00     0.142 C 
HETATM    8  N4  UNL     1      12.162 -10.907  22.691  1.00  0.00    -0.361 N 
ATOM      9  H4  UNL     1      11.293 -11.407  22.501  1.00  0.00     0.162 HD
ENDROOT
BRANCH   1  10
HETATM   10  C2  UNL     1       9.970  -9.288  23.347  1.00  0.00     0.150 C 
BRANCH  10  11
HETATM   11  C1  UNL     1       9.311  -8.482  22.224  1.00  0.00     0.249 C 
BRANCH  11  12
HETATM   12  N1  UNL     1       8.283  -9.272  21.612  1.00  0.00    -0.078 N 
ATOM     13  H13 UNL     1       8.645 -10.139  21.215  1.00  0.00     0.274 HD
ATOM     14  H12 UNL     1       7.649  -9.681  22.300  1.00  0.00     0.274 HD
ATOM     15  H11 UNL     1       7.790  -8.708  20.921  1.00  0.00     0.274 HD
ENDBRANCH  11  12
ENDBRANCH  10  11
ENDBRANCH   1  10
TORSDOF 3
ENDMDL
MODEL 5
REMARK VINA RESULT: -4.053397400      1.986      4.588
REMARK  3 active torsions:
REMARK  status: ('A' for Active; 'I' for Inactive)
REMARK    1  A    between atoms: N1_1  and  C1_5 
REMARK    2  A    between atoms: C1_5  and  C2_6 
REMARK    3  A    between atoms: C2_6  and  N2_7 
ROOT
HETATM    1  N2  UNL     1       5.918  -9.917  22.210  1.00  0.00    -0.361 N 
ATOM      2  H2  UNL     1       5.265 -10.228  21.492  1.00  0.00     0.162 HD
HETATM    3  C3  UNL     1       7.080  -9.502  21.890  1.00  0.00     0.171 C 
HETATM    4  N3  UNL     1       7.635  -9.408  20.555  1.00  0.00    -0.361 N 
ATOM      5  H3  UNL     1       7.427  -9.991  19.744  1.00  0.00     0.162 HD
HETATM    6  C4  UNL     1       8.556  -8.291  20.641  1.00  0.00     0.142 C 
HETATM    7  C5  UNL     1       9.211  -8.588  21.986  1.00  0.00     0.142 C 
HETATM    8  N4  UNL     1       8.072  -9.044  22.799  1.00  0.00    -0.361 N 
ATOM      9  H4  UNL     1       8.008  -9.034  23.817  1.00  0.00     0.162 HD
ENDROOT
BRANCH   1  10
HETATM   10  C2  UNL     1       5.541  -9.939  23.601  1.00  0.00     0.150 C 
BRANCH  10  11
HETATM   11  C1  UNL     1       4.463  -8.866  23.772  1.00  0.00     0.249 C 
BRANCH  11  12
HETATM   12  N1  UNL     1       3.284  -9.461  24.332  1.00  0.00    -0.078 N 
ATOM     13  H13 UNL     1       2.725  -8.789  24.857  1.00  0.00     0.274 HD
ATOM     14  H12 UNL     1       2.594  -9.697  23.618  1.00  0.00     0.274 HD
ATOM     15  H11 UNL     1       3.548 -10.268  24.896  1.00  0.00     0.274 HD
ENDBRANCH  11  12
ENDBRANCH  10  11
ENDBRANCH   1  10
TORSDOF 3
ENDMDL
