MODEL 1
REMARK VINA RESULT: -5.444327943      0.000      0.000
REMARK  12 active torsions:
REMARK  status: ('A' for Active; 'I' for Inactive)
REMARK    1  A    between atoms: N1_1  and  C1_5 
REMARK    2  A    between atoms: C1_5  and  C2_6 
REMARK    3  A    between atoms: C2_6  and  C3_7 
REMARK    4  A    between atoms: C3_7  and  C4_8 
REMARK    5  A    between atoms: C4_8  and  C5_9 
REMARK    6  A    between atoms: C5_9  and  N2_10 
REMARK    7  A    between atoms: N2_10  and  C6_12 
REMARK    8  A    between atoms: C7_13  and  O1_14 
REMARK    9  A    between atoms: C8_16  and  N3_17 
REMARK   10  A    between atoms: C9_21  and  O2_22 
REMARK   11  A    between atoms: O2_22  and  C10_23 
REMARK   12  A    between atoms: C13_29  and  O3_30 
ROOT
HETATM    1  C6  UNL     1      -2.160  15.102  10.373  1.00  0.00     0.139 C 
HETATM    2  C7  UNL     1      -2.339  13.753   9.695  1.00  0.00     0.176 C 
HETATM    3  C8  UNL     1      -0.984  13.422   9.093  1.00  0.00     0.245 C 
HETATM    4  C9  UNL     1      -0.179  14.658   9.197  1.00  0.00     0.185 C 
HETATM    5  C13 UNL     1      -1.178  15.758   9.403  1.00  0.00     0.174 C 
ENDROOT
BRANCH   1   6
HETATM    6  N2  UNL     1      -1.659  14.977  11.702  1.00  0.00    -0.412 N 
ATOM      7  H2  UNL     1      -0.749  15.350  11.973  1.00  0.00     0.153 HD
BRANCH   6   8
HETATM    8  C5  UNL     1      -2.506  14.298  12.633  1.00  0.00     0.114 C 
BRANCH   8   9
HETATM    9  C4  UNL     1      -3.636  15.148  13.149  1.00  0.00     0.019 C 
BRANCH   9  10
HETATM   10  C3  UNL     1      -3.156  16.456  13.756  1.00  0.00     0.003 C 
BRANCH  10  11
HETATM   11  C2  UNL     1      -3.901  17.592  13.066  1.00  0.00     0.027 C 
BRANCH  11  12
HETATM   12  C1  UNL     1      -3.005  18.772  12.798  1.00  0.00     0.229 C 
BRANCH  12  13
HETATM   13  N1  UNL     1      -1.869  18.437  11.958  1.00  0.00    -0.079 N 
ATOM     14  H13 UNL     1      -0.998  18.475  12.489  1.00  0.00     0.274 HD
ATOM     15  H12 UNL     1      -1.873  17.447  11.716  1.00  0.00     0.274 HD
ATOM     16  H11 UNL     1      -1.811  19.018  11.121  1.00  0.00     0.274 HD
ENDBRANCH  12  13
ENDBRANCH  11  12
ENDBRANCH  10  11
ENDBRANCH   9  10
ENDBRANCH   8   9
ENDBRANCH   6   8
ENDBRANCH   1   6
BRANCH   2  17
HETATM   17  O1  UNL     1      -3.283  13.927   8.686  1.00  0.00    -0.391 OA
ATOM     18  H1  UNL     1      -3.847  13.163   8.699  1.00  0.00     0.210 HD
ENDBRANCH   2  17
BRANCH   5  19
HETATM   19  O3  UNL     1      -0.639  16.930   9.874  1.00  0.00    -0.391 OA
ATOM     20  H3  UNL     1      -0.011  17.325   9.281  1.00  0.00     0.210 HD
ENDBRANCH   5  19
BRANCH   3  21
HETATM   21  N3  UNL     1      -0.457  12.316   9.871  1.00  0.00    -0.070 N 
ATOM     22  H33 UNL     1      -0.109  12.595  10.789  1.00  0.00     0.274 HD
ATOM     23  H32 UNL     1      -1.175  11.672  10.202  1.00  0.00     0.274 HD
ATOM     24  H31 UNL     1       0.251  11.870   9.287  1.00  0.00     0.274 HD
ENDBRANCH   3  21
BRANCH   4  25
HETATM   25  O2  UNL     1       0.699  14.889   8.165  1.00  0.00    -0.372 OA
BRANCH  25  26
HETATM   26  C10 UNL     1       2.026  14.724   8.440  1.00  0.00     0.173 C 
HETATM   27  C11 UNL     1       2.379  14.981   9.892  1.00  0.00     0.265 C 
HETATM   28  N4  UNL     1       2.514  16.388   9.572  1.00  0.00    -0.070 N 
HETATM   29  C12 UNL     1       2.789  16.011   8.207  1.00  0.00     0.265 C 
ATOM     30  H42 UNL     1       1.765  17.045   9.790  1.00  0.00     0.277 HD
ATOM     31  H41 UNL     1       3.165  16.980  10.089  1.00  0.00     0.277 HD
ENDBRANCH  25  26
ENDBRANCH   4  25
TORSDOF 12
ENDMDL
MODEL 2
REMARK VINA RESULT: -5.429260330      2.154      3.226
REMARK  12 active torsions:
REMARK  status: ('A' for Active; 'I' for Inactive)
REMARK    1  A    between atoms: N1_1  and  C1_5 
REMARK    2  A    between atoms: C1_5  and  C2_6 
REMARK    3  A    between atoms: C2_6  and  C3_7 
REMARK    4  A    between atoms: C3_7  and  C4_8 
REMARK    5  A    between atoms: C4_8  and  C5_9 
REMARK    6  A    between atoms: C5_9  and  N2_10 
REMARK    7  A    between atoms: N2_10  and  C6_12 
REMARK    8  A    between atoms: C7_13  and  O1_14 
REMARK    9  A    between atoms: C8_16  and  N3_17 
REMARK   10  A    between atoms: C9_21  and  O2_22 
REMARK   11  A    between atoms: O2_22  and  C10_23 
REMARK   12  A    between atoms: C13_29  and  O3_30 
ROOT
HETATM    1  C6  UNL     1      -1.353  15.665  11.161  1.00  0.00     0.139 C 
HETATM    2  C7  UNL     1       0.089  15.797  11.623  1.00  0.00     0.176 C 
HETATM    3  C8  UNL     1       0.838  16.392  10.443  1.00  0.00     0.245 C 
HETATM    4  C9  UNL     1      -0.094  16.328   9.296  1.00  0.00     0.185 C 
HETATM    5  C13 UNL     1      -1.129  15.316   9.690  1.00  0.00     0.174 C 
ENDROOT
BRANCH   1   6
HETATM    6  N2  UNL     1      -2.097  16.864  11.361  1.00  0.00    -0.412 N 
ATOM      7  H2  UNL     1      -1.887  17.721  10.848  1.00  0.00     0.153 HD
BRANCH   6   8
HETATM    8  C5  UNL     1      -3.154  16.797  12.321  1.00  0.00     0.114 C 
BRANCH   8   9
HETATM    9  C4  UNL     1      -3.333  15.430  12.926  1.00  0.00     0.019 C 
BRANCH   9  10
HETATM   10  C3  UNL     1      -3.156  15.428  14.435  1.00  0.00     0.003 C 
BRANCH  10  11
HETATM   11  C2  UNL     1      -1.882  14.657  14.756  1.00  0.00     0.027 C 
BRANCH  11  12
HETATM   12  C1  UNL     1      -0.744  15.573  15.119  1.00  0.00     0.229 C 
BRANCH  12  13
HETATM   13  N1  UNL     1       0.555  14.939  14.986  1.00  0.00    -0.079 N 
ATOM     14  H13 UNL     1       0.893  14.608  15.890  1.00  0.00     0.274 HD
ATOM     15  H12 UNL     1       0.477  14.046  14.500  1.00  0.00     0.274 HD
ATOM     16  H11 UNL     1       1.245  15.541  14.537  1.00  0.00     0.274 HD
ENDBRANCH  12  13
ENDBRANCH  11  12
ENDBRANCH  10  11
ENDBRANCH   9  10
ENDBRANCH   8   9
ENDBRANCH   6   8
ENDBRANCH   1   6
BRANCH   2  17
HETATM   17  O1  UNL     1       0.552  14.510  11.887  1.00  0.00    -0.391 OA
ATOM     18  H1  UNL     1       0.859  14.504  12.786  1.00  0.00     0.210 HD
ENDBRANCH   2  17
BRANCH   5  19
HETATM   19  O3  UNL     1      -2.274  15.356   8.934  1.00  0.00    -0.391 OA
ATOM     20  H3  UNL     1      -2.502  14.521   8.543  1.00  0.00     0.210 HD
ENDBRANCH   5  19
BRANCH   3  21
HETATM   21  N3  UNL     1       1.192  17.745  10.830  1.00  0.00    -0.070 N 
ATOM     22  H33 UNL     1       1.388  17.844  11.826  1.00  0.00     0.274 HD
ATOM     23  H32 UNL     1       2.109  18.037  10.493  1.00  0.00     0.274 HD
ATOM     24  H31 UNL     1       0.431  18.342  10.504  1.00  0.00     0.274 HD
ENDBRANCH   3  21
BRANCH   4  25
HETATM   25  O2  UNL     1       0.481  16.088   8.071  1.00  0.00    -0.372 OA
BRANCH  25  26
HETATM   26  C10 UNL     1       1.557  15.248   8.052  1.00  0.00     0.173 C 
HETATM   27  C11 UNL     1       2.458  15.446   6.849  1.00  0.00     0.265 C 
HETATM   28  N4  UNL     1       1.606  14.539   6.107  1.00  0.00    -0.070 N 
HETATM   29  C12 UNL     1       1.213  13.945   7.361  1.00  0.00     0.265 C 
ATOM     30  H42 UNL     1       0.905  14.896   5.458  1.00  0.00     0.277 HD
ATOM     31  H41 UNL     1       1.987  13.963   5.356  1.00  0.00     0.277 HD
ENDBRANCH  25  26
ENDBRANCH   4  25
TORSDOF 12
ENDMDL
MODEL 3
REMARK VINA RESULT: -5.368421803      2.865      3.593
REMARK  12 active torsions:
REMARK  status: ('A' for Active; 'I' for Inactive)
REMARK    1  A    between atoms: N1_1  and  C1_5 
REMARK    2  A    between atoms: C1_5  and  C2_6 
REMARK    3  A    between atoms: C2_6  and  C3_7 
REMARK    4  A    between atoms: C3_7  and  C4_8 
REMARK    5  A    between atoms: C4_8  and  C5_9 
REMARK    6  A    between atoms: C5_9  and  N2_10 
REMARK    7  A    between atoms: N2_10  and  C6_12 
REMARK    8  A    between atoms: C7_13  and  O1_14 
REMARK    9  A    between atoms: C8_16  and  N3_17 
REMARK   10  A    between atoms: C9_21  and  O2_22 
REMARK   11  A    between atoms: O2_22  and  C10_23 
REMARK   12  A    between atoms: C13_29  and  O3_30 
ROOT
HETATM    1  C6  UNL     1      -0.882  16.792  12.206  1.00  0.00     0.139 C 
HETATM    2  C7  UNL     1      -1.950  15.883  11.620  1.00  0.00     0.176 C 
HETATM    3  C8  UNL     1      -1.253  15.096  10.523  1.00  0.00     0.245 C 
HETATM    4  C9  UNL     1       0.063  15.744  10.332  1.00  0.00     0.185 C 
HETATM    5  C13 UNL     1      -0.080  17.106  10.943  1.00  0.00     0.174 C 
ENDROOT
BRANCH   1   6
HETATM    6  N2  UNL     1      -0.122  16.146  13.225  1.00  0.00    -0.412 N 
ATOM      7  H2  UNL     1       0.697  15.578  13.008  1.00  0.00     0.153 HD
BRANCH   6   8
HETATM    8  C5  UNL     1      -0.575  16.341  14.567  1.00  0.00     0.114 C 
BRANCH   8   9
HETATM    9  C4  UNL     1      -0.705  15.062  15.350  1.00  0.00     0.019 C 
BRANCH   9  10
HETATM   10  C3  UNL     1      -0.261  15.213  16.795  1.00  0.00     0.003 C 
BRANCH  10  11
HETATM   11  C2  UNL     1       0.974  14.342  16.998  1.00  0.00     0.027 C 
BRANCH  11  12
HETATM   12  C1  UNL     1       1.278  13.505  15.784  1.00  0.00     0.229 C 
BRANCH  12  13
HETATM   13  N1  UNL     1       2.460  13.955  15.071  1.00  0.00    -0.079 N 
ATOM     14  H13 UNL     1       2.372  13.779  14.071  1.00  0.00     0.274 HD
ATOM     15  H12 UNL     1       2.512  14.974  15.057  1.00  0.00     0.274 HD
ATOM     16  H11 UNL     1       3.322  13.551  15.439  1.00  0.00     0.274 HD
ENDBRANCH  12  13
ENDBRANCH  11  12
ENDBRANCH  10  11
ENDBRANCH   9  10
ENDBRANCH   8   9
ENDBRANCH   6   8
ENDBRANCH   1   6
BRANCH   2  17
HETATM   17  O1  UNL     1      -2.930  16.707  11.071  1.00  0.00    -0.391 OA
ATOM     18  H1  UNL     1      -3.770  16.319  11.284  1.00  0.00     0.210 HD
ENDBRANCH   2  17
BRANCH   5  19
HETATM   19  O3  UNL     1       1.112  17.741  11.192  1.00  0.00    -0.391 OA
ATOM     20  H3  UNL     1       1.031  18.684  11.277  1.00  0.00     0.210 HD
ENDBRANCH   5  19
BRANCH   3  21
HETATM   21  N3  UNL     1      -1.165  13.729  11.001  1.00  0.00    -0.070 N 
ATOM     22  H33 UNL     1      -1.345  13.636  12.000  1.00  0.00     0.274 HD
ATOM     23  H32 UNL     1      -1.931  13.137  10.681  1.00  0.00     0.274 HD
ATOM     24  H31 UNL     1      -0.244  13.389  10.720  1.00  0.00     0.274 HD
ENDBRANCH   3  21
BRANCH   4  25
HETATM   25  O2  UNL     1       0.540  15.760   9.043  1.00  0.00    -0.372 OA
BRANCH  25  26
HETATM   26  C10 UNL     1       1.619  14.965   8.778  1.00  0.00     0.173 C 
HETATM   27  C11 UNL     1       2.647  14.950   9.893  1.00  0.00     0.265 C 
HETATM   28  N4  UNL     1       3.245  16.134   9.309  1.00  0.00    -0.070 N 
HETATM   29  C12 UNL     1       2.690  15.738   8.037  1.00  0.00     0.265 C 
ATOM     30  H42 UNL     1       3.054  17.058   9.696  1.00  0.00     0.277 HD
ATOM     31  H41 UNL     1       4.244  16.314   9.407  1.00  0.00     0.277 HD
ENDBRANCH  25  26
ENDBRANCH   4  25
TORSDOF 12
ENDMDL
MODEL 4
REMARK VINA RESULT: -5.328281127      3.205      3.743
REMARK  12 active torsions:
REMARK  status: ('A' for Active; 'I' for Inactive)
REMARK    1  A    between atoms: N1_1  and  C1_5 
REMARK    2  A    between atoms: C1_5  and  C2_6 
REMARK    3  A    between atoms: C2_6  and  C3_7 
REMARK    4  A    between atoms: C3_7  and  C4_8 
REMARK    5  A    between atoms: C4_8  and  C5_9 
REMARK    6  A    between atoms: C5_9  and  N2_10 
REMARK    7  A    between atoms: N2_10  and  C6_12 
REMARK    8  A    between atoms: C7_13  and  O1_14 
REMARK    9  A    between atoms: C8_16  and  N3_17 
REMARK   10  A    between atoms: C9_21  and  O2_22 
REMARK   11  A    between atoms: O2_22  and  C10_23 
REMARK   12  A    between atoms: C13_29  and  O3_30 
ROOT
HETATM    1  C6  UNL     1      -0.992  16.903  12.368  1.00  0.00     0.139 C 
HETATM    2  C7  UNL     1      -2.196  16.167  11.803  1.00  0.00     0.176 C 
HETATM    3  C8  UNL     1      -1.686  15.452  10.563  1.00  0.00     0.245 C 
HETATM    4  C9  UNL     1      -0.335  15.995  10.307  1.00  0.00     0.185 C 
HETATM    5  C13 UNL     1      -0.282  17.286  11.070  1.00  0.00     0.174 C 
ENDROOT
BRANCH   1   6
HETATM    6  N2  UNL     1      -0.211  16.079  13.230  1.00  0.00    -0.412 N 
ATOM      7  H2  UNL     1       0.588  15.545  12.887  1.00  0.00     0.153 HD
BRANCH   6   8
HETATM    8  C5  UNL     1      -0.611  16.044  14.602  1.00  0.00     0.114 C 
BRANCH   8   9
HETATM    9  C4  UNL     1       0.152  15.042  15.427  1.00  0.00     0.019 C 
BRANCH   9  10
HETATM   10  C3  UNL     1      -0.547  14.705  16.733  1.00  0.00     0.003 C 
BRANCH  10  11
HETATM   11  C2  UNL     1       0.397  15.063  17.874  1.00  0.00     0.027 C 
BRANCH  11  12
HETATM   12  C1  UNL     1      -0.244  15.998  18.864  1.00  0.00     0.229 C 
BRANCH  12  13
HETATM   13  N1  UNL     1      -1.664  15.749  19.036  1.00  0.00    -0.079 N 
ATOM     14  H13 UNL     1      -1.848  14.753  19.158  1.00  0.00     0.274 HD
ATOM     15  H12 UNL     1      -1.987  16.089  19.942  1.00  0.00     0.274 HD
ATOM     16  H11 UNL     1      -2.229  16.134  18.279  1.00  0.00     0.274 HD
ENDBRANCH  12  13
ENDBRANCH  11  12
ENDBRANCH  10  11
ENDBRANCH   9  10
ENDBRANCH   8   9
ENDBRANCH   6   8
ENDBRANCH   1   6
BRANCH   2  17
HETATM   17  O1  UNL     1      -3.134  17.134  11.448  1.00  0.00    -0.391 OA
ATOM     18  H1  UNL     1      -3.985  16.803  11.708  1.00  0.00     0.210 HD
ENDBRANCH   2  17
BRANCH   5  19
HETATM   19  O3  UNL     1       0.986  17.778  11.260  1.00  0.00    -0.391 OA
ATOM     20  H3  UNL     1       1.637  17.383  10.692  1.00  0.00     0.210 HD
ENDBRANCH   5  19
BRANCH   3  21
HETATM   21  N3  UNL     1      -1.693  14.036  10.883  1.00  0.00    -0.070 N 
ATOM     22  H33 UNL     1      -0.817  13.708  11.290  1.00  0.00     0.274 HD
ATOM     23  H32 UNL     1      -2.293  13.801  11.674  1.00  0.00     0.274 HD
ATOM     24  H31 UNL     1      -1.947  13.552  10.022  1.00  0.00     0.274 HD
ENDBRANCH   3  21
BRANCH   4  25
HETATM   25  O2  UNL     1       0.021  16.115   8.985  1.00  0.00    -0.372 OA
BRANCH  25  26
HETATM   26  C10 UNL     1       1.016  15.293   8.540  1.00  0.00     0.173 C 
HETATM   27  C11 UNL     1       2.063  14.987   9.592  1.00  0.00     0.265 C 
HETATM   28  N4  UNL     1       2.753  16.202   9.208  1.00  0.00    -0.070 N 
HETATM   29  C12 UNL     1       2.135  16.094   7.908  1.00  0.00     0.265 C 
ATOM     30  H42 UNL     1       2.657  17.052   9.761  1.00  0.00     0.277 HD
ATOM     31  H41 UNL     1       3.767  16.275   9.297  1.00  0.00     0.277 HD
ENDBRANCH  25  26
ENDBRANCH   4  25
TORSDOF 12
ENDMDL
MODEL 5
REMARK VINA RESULT: -5.219423717      1.882      3.228
REMARK  12 active torsions:
REMARK  status: ('A' for Active; 'I' for Inactive)
REMARK    1  A    between atoms: N1_1  and  C1_5 
REMARK    2  A    between atoms: C1_5  and  C2_6 
REMARK    3  A    between atoms: C2_6  and  C3_7 
REMARK    4  A    between atoms: C3_7  and  C4_8 
REMARK    5  A    between atoms: C4_8  and  C5_9 
REMARK    6  A    between atoms: C5_9  and  N2_10 
REMARK    7  A    between atoms: N2_10  and  C6_12 
REMARK    8  A    between atoms: C7_13  and  O1_14 
REMARK    9  A    between atoms: C8_16  and  N3_17 
REMARK   10  A    between atoms: C9_21  and  O2_22 
REMARK   11  A    between atoms: O2_22  and  C10_23 
REMARK   12  A    between atoms: C13_29  and  O3_30 
ROOT
HETATM    1  C6  UNL     1      -1.332  15.913  11.157  1.00  0.00     0.139 C 
HETATM    2  C7  UNL     1       0.113  15.840  11.620  1.00  0.00     0.176 C 
HETATM    3  C8  UNL     1       0.940  16.312  10.436  1.00  0.00     0.245 C 
HETATM    4  C9  UNL     1       0.009  16.373   9.289  1.00  0.00     0.185 C 
HETATM    5  C13 UNL     1      -1.160  15.523   9.689  1.00  0.00     0.174 C 
ENDROOT
BRANCH   1   6
HETATM    6  N2  UNL     1      -1.897  17.208  11.347  1.00  0.00    -0.412 N 
ATOM      7  H2  UNL     1      -2.083  17.835  10.564  1.00  0.00     0.153 HD
BRANCH   6   8
HETATM    8  C5  UNL     1      -2.186  17.578  12.698  1.00  0.00     0.114 C 
BRANCH   8   9
HETATM    9  C4  UNL     1      -3.568  17.184  13.147  1.00  0.00     0.019 C 
BRANCH   9  10
HETATM   10  C3  UNL     1      -3.552  16.076  14.187  1.00  0.00     0.003 C 
BRANCH  10  11
HETATM   11  C2  UNL     1      -3.934  14.776  13.491  1.00  0.00     0.027 C 
BRANCH  11  12
HETATM   12  C1  UNL     1      -2.874  13.719  13.649  1.00  0.00     0.229 C 
BRANCH  12  13
HETATM   13  N1  UNL     1      -1.685  14.210  14.323  1.00  0.00    -0.079 N 
ATOM     14  H13 UNL     1      -1.915  14.975  14.957  1.00  0.00     0.274 HD
ATOM     15  H12 UNL     1      -1.343  13.529  15.001  1.00  0.00     0.274 HD
ATOM     16  H11 UNL     1      -0.947  14.483  13.675  1.00  0.00     0.274 HD
ENDBRANCH  12  13
ENDBRANCH  11  12
ENDBRANCH  10  11
ENDBRANCH   9  10
ENDBRANCH   8   9
ENDBRANCH   6   8
ENDBRANCH   1   6
BRANCH   2  17
HETATM   17  O1  UNL     1       0.387  14.502  11.894  1.00  0.00    -0.391 OA
ATOM     18  H1  UNL     1       1.189  14.481  12.403  1.00  0.00     0.210 HD
ENDBRANCH   2  17
BRANCH   5  19
HETATM   19  O3  UNL     1      -2.288  15.722   8.931  1.00  0.00    -0.391 OA
ATOM     20  H3  UNL     1      -2.190  15.453   8.025  1.00  0.00     0.210 HD
ENDBRANCH   5  19
BRANCH   3  21
HETATM   21  N3  UNL     1       1.485  17.603  10.813  1.00  0.00    -0.070 N 
ATOM     22  H33 UNL     1       2.337  17.847  10.310  1.00  0.00     0.274 HD
ATOM     23  H32 UNL     1       0.922  18.391  10.493  1.00  0.00     0.274 HD
ATOM     24  H31 UNL     1       1.605  17.575  11.826  1.00  0.00     0.274 HD
ENDBRANCH   3  21
BRANCH   4  25
HETATM   25  O2  UNL     1       0.544  16.044   8.066  1.00  0.00    -0.372 OA
BRANCH  25  26
HETATM   26  C10 UNL     1       1.650  15.243   8.076  1.00  0.00     0.173 C 
HETATM   27  C11 UNL     1       2.477  15.340   6.809  1.00  0.00     0.265 C 
HETATM   28  N4  UNL     1       1.623  14.329   6.217  1.00  0.00    -0.070 N 
HETATM   29  C12 UNL     1       1.321  13.862   7.548  1.00  0.00     0.265 C 
ATOM     30  H42 UNL     1       0.876  14.591   5.575  1.00  0.00     0.277 HD
ATOM     31  H41 UNL     1       1.987  13.689   5.511  1.00  0.00     0.277 HD
ENDBRANCH  25  26
ENDBRANCH   4  25
TORSDOF 12
ENDMDL
