MODEL 1
REMARK VINA RESULT: -7.663817430      0.000      0.000
REMARK  7 active torsions:
REMARK  status: ('A' for Active; 'I' for Inactive)
REMARK    1  A    between atoms: N1_1  and  N2_4 
REMARK    2  A    between atoms: N2_4  and  N3_5 
REMARK       I    between atoms: N3_5  and  C1_7 
REMARK       I    between atoms: C1_7  and  N5_11 
REMARK    3  A    between atoms: N5_11  and  C2_13 
REMARK    4  A    between atoms: C2_13  and  C3_14 
REMARK    5  A    between atoms: C2_13  and  C6_21 
REMARK    6  A    between atoms: C3_14  and  C4_15 
REMARK    7  A    between atoms: C4_15  and  N6_16 
REMARK       I    between atoms: C6_21  and  N9_23 
ROOT
HETATM    1  C2  UNL     1      27.825  18.287  63.605  1.00  0.00     0.193 C 
ENDROOT
BRANCH   1   2
HETATM    2  N5  UNL     1      29.095  18.824  64.124  1.00  0.00    -0.211 N 
HETATM    3  C1  UNL     1      29.543  20.117  63.772  1.00  0.00     0.699 C 
HETATM    4  N3  UNL     1      30.449  20.823  64.624  1.00  0.00    -0.046 N 
HETATM    5  N4  UNL     1      29.189  20.738  62.694  1.00  0.00    -0.233 N 
ATOM      6  H3  UNL     1      31.429  20.547  64.687  1.00  0.00     0.223 HD
ATOM      7  H42 UNL     1      29.513  21.672  62.440  1.00  0.00     0.174 HD
ATOM      8  H41 UNL     1      28.543  20.234  62.087  1.00  0.00     0.174 HD
ATOM      9  H5  UNL     1      29.662  18.252  64.749  1.00  0.00     0.178 HD
BRANCH   4  10
HETATM   10  N2  UNL     1      29.975  21.867  65.346  1.00  0.00    -0.229 NA
BRANCH  10  11
HETATM   11  N1  UNL     1      29.595  22.737  65.961  1.00  0.00    -0.260 N 
ATOM     12  H12 UNL     1      30.277  21.982  66.048  1.00  0.00     0.193 HD
ATOM     13  H11 UNL     1      29.241  23.525  66.502  1.00  0.00     0.193 HD
ENDBRANCH  10  11
ENDBRANCH   4  10
ENDBRANCH   1   2
BRANCH   1  14
HETATM   14  C3  UNL     1      26.833  18.429  64.738  1.00  0.00     0.055 C 
BRANCH  14  15
HETATM   15  C4  UNL     1      26.099  19.716  64.790  1.00  0.00     0.124 C 
BRANCH  15  16
HETATM   16  N6  UNL     1      24.690  19.530  64.460  1.00  0.00    -0.367 N 
HETATM   17  C5  UNL     1      23.744  19.922  65.222  1.00  0.00     0.196 C 
HETATM   18  N7  UNL     1      24.045  20.567  66.445  1.00  0.00    -0.067 NA
HETATM   19  N8  UNL     1      22.402  19.721  64.867  1.00  0.00    -0.067 NA
ATOM     20  H6  UNL     1      24.451  19.067  63.583  1.00  0.00     0.161 HD
ENDBRANCH  15  16
ENDBRANCH  14  15
ENDBRANCH   1  14
BRANCH   1  21
HETATM   21  C6  UNL     1      28.012  16.900  63.168  1.00  0.00     0.243 C 
HETATM   22  O1  UNL     1      28.960  16.263  63.714  1.00  0.00    -0.271 OA
HETATM   23  N9  UNL     1      27.234  16.225  62.199  1.00  0.00    -0.347 N 
HETATM   24  C7  UNL     1      26.142  16.798  61.453  1.00  0.00     0.153 C 
HETATM   25  C10 UNL     1      27.511  14.810  61.882  1.00  0.00     0.153 C 
HETATM   26  C8  UNL     1      26.523  16.674  59.970  1.00  0.00     0.252 C 
HETATM   27  N10 UNL     1      26.522  15.253  59.677  1.00  0.00    -0.072 N 
HETATM   28  C9  UNL     1      27.682  14.696  60.377  1.00  0.00     0.252 C 
ATOM     29 2H10 UNL     1      25.643  14.790  59.912  1.00  0.00     0.277 HD
ATOM     30 1H10 UNL     1      26.508  15.042  58.679  1.00  0.00     0.277 HD
ENDBRANCH   1  21
TORSDOF 7
ENDMDL
MODEL 2
REMARK VINA RESULT: -7.577260245      2.844      6.610
REMARK  7 active torsions:
REMARK  status: ('A' for Active; 'I' for Inactive)
REMARK    1  A    between atoms: N1_1  and  N2_4 
REMARK    2  A    between atoms: N2_4  and  N3_5 
REMARK       I    between atoms: N3_5  and  C1_7 
REMARK       I    between atoms: C1_7  and  N5_11 
REMARK    3  A    between atoms: N5_11  and  C2_13 
REMARK    4  A    between atoms: C2_13  and  C3_14 
REMARK    5  A    between atoms: C2_13  and  C6_21 
REMARK    6  A    between atoms: C3_14  and  C4_15 
REMARK    7  A    between atoms: C4_15  and  N6_16 
REMARK       I    between atoms: C6_21  and  N9_23 
ROOT
HETATM    1  C2  UNL     1      24.846  17.018  62.941  1.00  0.00     0.193 C 
ENDROOT
BRANCH   1   2
HETATM    2  N5  UNL     1      25.410  17.916  61.917  1.00  0.00    -0.211 N 
HETATM    3  C1  UNL     1      26.583  17.575  61.208  1.00  0.00     0.699 C 
HETATM    4  N3  UNL     1      26.838  18.142  59.921  1.00  0.00    -0.046 N 
HETATM    5  N4  UNL     1      27.485  16.760  61.649  1.00  0.00    -0.233 N 
ATOM      6  H3  UNL     1      27.117  19.120  59.827  1.00  0.00     0.223 HD
ATOM      7  H42 UNL     1      28.333  16.513  61.138  1.00  0.00     0.174 HD
ATOM      8  H41 UNL     1      27.303  16.355  62.567  1.00  0.00     0.174 HD
ATOM      9  H5  UNL     1      24.943  18.800  61.716  1.00  0.00     0.178 HD
BRANCH   4  10
HETATM   10  N2  UNL     1      26.702  17.353  58.828  1.00  0.00    -0.229 NA
BRANCH  10  11
HETATM   11  N1  UNL     1      26.573  16.704  57.911  1.00  0.00    -0.260 N 
ATOM     12  H12 UNL     1      26.303  17.635  58.230  1.00  0.00     0.193 HD
ATOM     13  H11 UNL     1      26.466  16.106  57.092  1.00  0.00     0.193 HD
ENDBRANCH  10  11
ENDBRANCH   4  10
ENDBRANCH   1   2
BRANCH   1  14
HETATM   14  C3  UNL     1      23.781  16.213  62.231  1.00  0.00     0.055 C 
BRANCH  14  15
HETATM   15  C4  UNL     1      24.092  14.778  62.025  1.00  0.00     0.124 C 
BRANCH  15  16
HETATM   16  N6  UNL     1      24.865  14.578  60.805  1.00  0.00    -0.367 N 
HETATM   17  C5  UNL     1      26.083  14.200  60.812  1.00  0.00     0.196 C 
HETATM   18  N7  UNL     1      26.739  13.955  62.042  1.00  0.00    -0.067 NA
HETATM   19  N8  UNL     1      26.791  14.022  59.613  1.00  0.00    -0.067 NA
ATOM     20  H6  UNL     1      24.412  14.749  59.907  1.00  0.00     0.161 HD
ENDBRANCH  15  16
ENDBRANCH  14  15
ENDBRANCH   1  14
BRANCH   1  21
HETATM   21  C6  UNL     1      24.327  17.807  64.062  1.00  0.00     0.243 C 
HETATM   22  O1  UNL     1      23.071  17.947  64.116  1.00  0.00    -0.271 OA
HETATM   23  N9  UNL     1      25.104  18.419  65.075  1.00  0.00    -0.347 N 
HETATM   24  C7  UNL     1      26.542  18.395  65.157  1.00  0.00     0.153 C 
HETATM   25  C10 UNL     1      24.444  19.156  66.170  1.00  0.00     0.153 C 
HETATM   26  C8  UNL     1      26.999  19.861  65.130  1.00  0.00     0.252 C 
HETATM   27  N10 UNL     1      26.524  20.447  66.370  1.00  0.00    -0.072 N 
HETATM   28  C9  UNL     1      25.068  20.538  66.242  1.00  0.00     0.252 C 
ATOM     29 2H10 UNL     1      26.829  19.941  67.202  1.00  0.00     0.277 HD
ATOM     30 1H10 UNL     1      26.970  21.336  66.598  1.00  0.00     0.277 HD
ENDBRANCH   1  21
TORSDOF 7
ENDMDL
MODEL 3
REMARK VINA RESULT: -7.385128124      2.202      3.117
REMARK  7 active torsions:
REMARK  status: ('A' for Active; 'I' for Inactive)
REMARK    1  A    between atoms: N1_1  and  N2_4 
REMARK    2  A    between atoms: N2_4  and  N3_5 
REMARK       I    between atoms: N3_5  and  C1_7 
REMARK       I    between atoms: C1_7  and  N5_11 
REMARK    3  A    between atoms: N5_11  and  C2_13 
REMARK    4  A    between atoms: C2_13  and  C3_14 
REMARK    5  A    between atoms: C2_13  and  C6_21 
REMARK    6  A    between atoms: C3_14  and  C4_15 
REMARK    7  A    between atoms: C4_15  and  N6_16 
REMARK       I    between atoms: C6_21  and  N9_23 
ROOT
HETATM    1  C2  UNL     1      26.138  17.971  63.830  1.00  0.00     0.193 C 
ENDROOT
BRANCH   1   2
HETATM    2  N5  UNL     1      26.114  19.027  62.801  1.00  0.00    -0.211 N 
HETATM    3  C1  UNL     1      27.292  19.423  62.130  1.00  0.00     0.699 C 
HETATM    4  N3  UNL     1      27.216  20.031  60.838  1.00  0.00    -0.046 N 
HETATM    5  N4  UNL     1      28.484  19.279  62.611  1.00  0.00    -0.233 N 
ATOM      6  H3  UNL     1      26.883  20.989  60.730  1.00  0.00     0.223 HD
ATOM      7  H42 UNL     1      29.335  19.566  62.127  1.00  0.00     0.174 HD
ATOM      8  H41 UNL     1      28.538  18.846  63.533  1.00  0.00     0.174 HD
ATOM      9  H5  UNL     1      25.230  19.479  62.569  1.00  0.00     0.178 HD
BRANCH   4  10
HETATM   10  N2  UNL     1      27.596  19.305  59.759  1.00  0.00    -0.229 NA
BRANCH  10  11
HETATM   11  N1  UNL     1      27.899  18.707  58.848  1.00  0.00    -0.260 N 
ATOM     12  H12 UNL     1      27.635  19.665  59.077  1.00  0.00     0.193 HD
ATOM     13  H11 UNL     1      28.173  18.152  58.038  1.00  0.00     0.193 HD
ENDBRANCH  10  11
ENDBRANCH   4  10
ENDBRANCH   1   2
BRANCH   1  14
HETATM   14  C3  UNL     1      27.051  18.489  64.918  1.00  0.00     0.055 C 
BRANCH  14  15
HETATM   15  C4  UNL     1      26.543  19.655  65.681  1.00  0.00     0.124 C 
BRANCH  15  16
HETATM   16  N6  UNL     1      25.181  19.425  66.146  1.00  0.00    -0.367 N 
HETATM   17  C5  UNL     1      24.166  19.992  65.621  1.00  0.00     0.196 C 
HETATM   18  N7  UNL     1      24.340  20.889  64.539  1.00  0.00    -0.067 NA
HETATM   19  N8  UNL     1      22.871  19.744  66.101  1.00  0.00    -0.067 NA
ATOM     20  H6  UNL     1      25.032  18.783  66.924  1.00  0.00     0.161 HD
ENDBRANCH  15  16
ENDBRANCH  14  15
ENDBRANCH   1  14
BRANCH   1  21
HETATM   21  C6  UNL     1      26.597  16.711  63.238  1.00  0.00     0.243 C 
HETATM   22  O1  UNL     1      27.844  16.504  63.255  1.00  0.00    -0.271 OA
HETATM   23  N9  UNL     1      25.770  15.720  62.656  1.00  0.00    -0.347 N 
HETATM   24  C7  UNL     1      24.338  15.799  62.518  1.00  0.00     0.153 C 
HETATM   25  C10 UNL     1      26.365  14.476  62.130  1.00  0.00     0.153 C 
HETATM   26  C8  UNL     1      24.044  15.691  61.015  1.00  0.00     0.252 C 
HETATM   27  N10 UNL     1      24.422  14.343  60.632  1.00  0.00    -0.072 N 
HETATM   28  C9  UNL     1      25.885  14.300  60.700  1.00  0.00     0.252 C 
ATOM     29 2H10 UNL     1      23.967  13.619  61.188  1.00  0.00     0.277 HD
ATOM     30 1H10 UNL     1      24.048  14.056  59.728  1.00  0.00     0.277 HD
ENDBRANCH   1  21
TORSDOF 7
ENDMDL
MODEL 4
REMARK VINA RESULT: -7.354881448      2.641      5.949
REMARK  7 active torsions:
REMARK  status: ('A' for Active; 'I' for Inactive)
REMARK    1  A    between atoms: N1_1  and  N2_4 
REMARK    2  A    between atoms: N2_4  and  N3_5 
REMARK       I    between atoms: N3_5  and  C1_7 
REMARK       I    between atoms: C1_7  and  N5_11 
REMARK    3  A    between atoms: N5_11  and  C2_13 
REMARK    4  A    between atoms: C2_13  and  C3_14 
REMARK    5  A    between atoms: C2_13  and  C6_21 
REMARK    6  A    between atoms: C3_14  and  C4_15 
REMARK    7  A    between atoms: C4_15  and  N6_16 
REMARK       I    between atoms: C6_21  and  N9_23 
ROOT
HETATM    1  C2  UNL     1      26.063  18.036  63.642  1.00  0.00     0.193 C 
ENDROOT
BRANCH   1   2
HETATM    2  N5  UNL     1      25.868  18.179  62.188  1.00  0.00    -0.211 N 
HETATM    3  C1  UNL     1      26.838  17.722  61.269  1.00  0.00     0.699 C 
HETATM    4  N3  UNL     1      26.463  17.389  59.930  1.00  0.00    -0.046 N 
HETATM    5  N4  UNL     1      28.092  17.577  61.551  1.00  0.00    -0.233 N 
ATOM      6  H3  UNL     1      26.230  18.118  59.256  1.00  0.00     0.223 HD
ATOM      7  H42 UNL     1      28.793  17.247  60.888  1.00  0.00     0.174 HD
ATOM      8  H41 UNL     1      28.360  17.815  62.506  1.00  0.00     0.174 HD
ATOM      9  H5  UNL     1      25.016  18.617  61.839  1.00  0.00     0.178 HD
BRANCH   4  10
HETATM   10  N2  UNL     1      26.423  16.081  59.577  1.00  0.00    -0.229 NA
BRANCH  10  11
HETATM   11  N1  UNL     1      26.409  14.990  59.280  1.00  0.00    -0.260 N 
ATOM     12  H12 UNL     1      25.750  15.764  59.370  1.00  0.00     0.193 HD
ATOM     13  H11 UNL     1      26.414  14.005  59.016  1.00  0.00     0.193 HD
ENDBRANCH  10  11
ENDBRANCH   4  10
ENDBRANCH   1   2
BRANCH   1  14
HETATM   14  C3  UNL     1      24.687  17.767  64.209  1.00  0.00     0.055 C 
BRANCH  14  15
HETATM   15  C4  UNL     1      23.679  17.276  63.239  1.00  0.00     0.124 C 
BRANCH  15  16
HETATM   16  N6  UNL     1      23.687  15.819  63.166  1.00  0.00    -0.367 N 
HETATM   17  C5  UNL     1      23.751  15.183  62.062  1.00  0.00     0.196 C 
HETATM   18  N7  UNL     1      23.818  15.895  60.840  1.00  0.00    -0.067 NA
HETATM   19  N8  UNL     1      23.753  13.780  62.036  1.00  0.00    -0.067 NA
ATOM     20  H6  UNL     1      23.639  15.286  64.034  1.00  0.00     0.161 HD
ENDBRANCH  15  16
ENDBRANCH  14  15
ENDBRANCH   1  14
BRANCH   1  21
HETATM   21  C6  UNL     1      26.686  19.248  64.182  1.00  0.00     0.243 C 
HETATM   22  O1  UNL     1      26.030  20.322  64.053  1.00  0.00    -0.271 OA
HETATM   23  N9  UNL     1      27.945  19.316  64.825  1.00  0.00    -0.347 N 
HETATM   24  C7  UNL     1      28.842  18.207  65.030  1.00  0.00     0.153 C 
HETATM   25  C10 UNL     1      28.436  20.602  65.356  1.00  0.00     0.153 C 
HETATM   26  C8  UNL     1      30.155  18.580  64.326  1.00  0.00     0.252 C 
HETATM   27  N10 UNL     1      30.702  19.698  65.073  1.00  0.00    -0.072 N 
HETATM   28  C9  UNL     1      29.826  20.838  64.792  1.00  0.00     0.252 C 
ATOM     29 2H10 UNL     1      30.815  19.505  66.068  1.00  0.00     0.277 HD
ATOM     30 1H10 UNL     1      31.685  19.880  64.871  1.00  0.00     0.277 HD
ENDBRANCH   1  21
TORSDOF 7
ENDMDL
MODEL 5
REMARK VINA RESULT: -7.346888476      2.703      7.023
REMARK  7 active torsions:
REMARK  status: ('A' for Active; 'I' for Inactive)
REMARK    1  A    between atoms: N1_1  and  N2_4 
REMARK    2  A    between atoms: N2_4  and  N3_5 
REMARK       I    between atoms: N3_5  and  C1_7 
REMARK       I    between atoms: C1_7  and  N5_11 
REMARK    3  A    between atoms: N5_11  and  C2_13 
REMARK    4  A    between atoms: C2_13  and  C3_14 
REMARK    5  A    between atoms: C2_13  and  C6_21 
REMARK    6  A    between atoms: C3_14  and  C4_15 
REMARK    7  A    between atoms: C4_15  and  N6_16 
REMARK       I    between atoms: C6_21  and  N9_23 
ROOT
HETATM    1  C2  UNL     1      25.955  18.341  62.860  1.00  0.00     0.193 C 
ENDROOT
BRANCH   1   2
HETATM    2  N5  UNL     1      25.472  16.992  63.206  1.00  0.00    -0.211 N 
HETATM    3  C1  UNL     1      24.171  16.566  62.855  1.00  0.00     0.699 C 
HETATM    4  N3  UNL     1      23.881  15.173  62.718  1.00  0.00    -0.046 N 
HETATM    5  N4  UNL     1      23.179  17.368  62.643  1.00  0.00    -0.233 N 
ATOM      6  H3  UNL     1      23.810  14.571  63.539  1.00  0.00     0.223 HD
ATOM      7  H42 UNL     1      22.239  17.061  62.390  1.00  0.00     0.174 HD
ATOM      8  H41 UNL     1      23.386  18.362  62.741  1.00  0.00     0.174 HD
ATOM      9  H5  UNL     1      26.088  16.353  63.708  1.00  0.00     0.178 HD
BRANCH   4  10
HETATM   10  N2  UNL     1      23.701  14.670  61.473  1.00  0.00    -0.229 NA
BRANCH  10  11
HETATM   11  N1  UNL     1      23.534  14.242  60.440  1.00  0.00    -0.260 N 
ATOM     12  H12 UNL     1      23.045  14.843  61.104  1.00  0.00     0.193 HD
ATOM     13  H11 UNL     1      23.399  13.849  59.509  1.00  0.00     0.193 HD
ENDBRANCH  10  11
ENDBRANCH   4  10
ENDBRANCH   1   2
BRANCH   1  14
HETATM   14  C3  UNL     1      27.012  18.131  61.798  1.00  0.00     0.055 C 
BRANCH  14  15
HETATM   15  C4  UNL     1      27.753  16.849  61.876  1.00  0.00     0.124 C 
BRANCH  15  16
HETATM   16  N6  UNL     1      27.398  15.969  60.769  1.00  0.00    -0.367 N 
HETATM   17  C5  UNL     1      27.005  14.767  60.940  1.00  0.00     0.196 C 
HETATM   18  N7  UNL     1      26.900  14.239  62.249  1.00  0.00    -0.067 NA
HETATM   19  N8  UNL     1      26.676  13.953  59.845  1.00  0.00    -0.067 NA
ATOM     20  H6  UNL     1      27.467  16.329  59.817  1.00  0.00     0.161 HD
ENDBRANCH  15  16
ENDBRANCH  14  15
ENDBRANCH   1  14
BRANCH   1  21
HETATM   21  C6  UNL     1      26.464  19.010  64.060  1.00  0.00     0.243 C 
HETATM   22  O1  UNL     1      27.698  18.868  64.302  1.00  0.00    -0.271 OA
HETATM   23  N9  UNL     1      25.700  19.789  64.961  1.00  0.00    -0.347 N 
HETATM   24  C7  UNL     1      24.282  20.030  64.866  1.00  0.00     0.153 C 
HETATM   25  C10 UNL     1      26.352  20.439  66.114  1.00  0.00     0.153 C 
HETATM   26  C8  UNL     1      23.667  19.494  66.167  1.00  0.00     0.252 C 
HETATM   27  N10 UNL     1      24.162  20.356  67.225  1.00  0.00    -0.072 N 
HETATM   28  C9  UNL     1      25.586  20.044  67.365  1.00  0.00     0.252 C 
ATOM     29 2H10 UNL     1      23.975  21.346  67.064  1.00  0.00     0.277 HD
ATOM     30 1H10 UNL     1      23.639  20.272  68.096  1.00  0.00     0.277 HD
ENDBRANCH   1  21
TORSDOF 7
ENDMDL
