MODEL 1
REMARK VINA RESULT: -7.377983871      0.000      0.000
REMARK  7 active torsions:
REMARK  status: ('A' for Active; 'I' for Inactive)
REMARK    1  A    between atoms: N1_1  and  C1_5 
REMARK    2  A    between atoms: C1_5  and  C2_6 
REMARK    3  A    between atoms: C2_6  and  N2_7 
REMARK    4  A    between atoms: N2_7  and  C3_9 
REMARK    5  A    between atoms: C4_13  and  C5_14 
REMARK    6  A    between atoms: C5_14  and  C6_15 
REMARK    7  A    between atoms: C6_15  and  N5_16 
ROOT
HETATM    1  C3  UNL     1      26.447  15.993  61.717  1.00  0.00     0.186 C 
HETATM    2  N3  UNL     1      26.984  16.837  62.635  1.00  0.00    -0.273 N 
ATOM      3  H3  UNL     1      26.966  16.487  63.593  1.00  0.00     0.189 HD
HETATM    4  N4  UNL     1      27.531  18.047  62.496  1.00  0.00    -0.236 N 
HETATM    5  C4  UNL     1      27.907  18.842  63.513  1.00  0.00     0.053 A 
HETATM    6  C8  UNL     1      28.430  20.010  62.993  1.00  0.00     0.117 A 
HETATM    7  N8  UNL     1      28.358  19.891  61.655  1.00  0.00    -0.344 N 
ATOM      8  H8  UNL     1      28.669  20.595  60.985  1.00  0.00     0.167 HD
HETATM    9  C9  UNL     1      27.814  18.702  61.331  1.00  0.00     0.196 A 
HETATM   10  C10 UNL     1      27.608  18.289  60.036  1.00  0.00     0.294 C 
HETATM   11  O1  UNL     1      27.997  19.069  59.138  1.00  0.00    -0.264 OA
HETATM   12  N9  UNL     1      27.036  17.143  59.632  1.00  0.00    -0.284 N 
ATOM     13  H9  UNL     1      26.905  17.060  58.625  1.00  0.00     0.172 HD
HETATM   14  C11 UNL     1      26.604  16.077  60.357  1.00  0.00     0.293 C 
HETATM   15  O2  UNL     1      26.332  15.078  59.653  1.00  0.00    -0.264 OA
ENDROOT
BRANCH   1  16
HETATM   16  N2  UNL     1      25.719  15.017  62.128  1.00  0.00    -0.369 N 
ATOM     17  H2  UNL     1      26.145  14.091  62.186  1.00  0.00     0.161 HD
BRANCH  16  18
HETATM   18  C2  UNL     1      24.338  15.155  62.511  1.00  0.00     0.148 C 
BRANCH  18  19
HETATM   19  C1  UNL     1      23.515  14.012  61.916  1.00  0.00     0.249 C 
BRANCH  19  20
HETATM   20  N1  UNL     1      23.434  14.139  60.475  1.00  0.00    -0.078 N 
ATOM     21  H13 UNL     1      22.870  14.942  60.197  1.00  0.00     0.274 HD
ATOM     22  H12 UNL     1      24.324  14.429  60.070  1.00  0.00     0.274 HD
ATOM     23  H11 UNL     1      23.092  13.274  60.058  1.00  0.00     0.274 HD
ENDBRANCH  19  20
ENDBRANCH  18  19
ENDBRANCH  16  18
ENDBRANCH   1  16
BRANCH   5  24
HETATM   24  C5  UNL     1      27.774  18.505  64.953  1.00  0.00     0.080 C 
BRANCH  24  25
HETATM   25  C6  UNL     1      26.593  19.228  65.565  1.00  0.00     0.128 C 
BRANCH  25  26
HETATM   26  N5  UNL     1      25.350  18.536  65.308  1.00  0.00    -0.367 N 
HETATM   27  C7  UNL     1      24.391  19.195  64.779  1.00  0.00     0.196 C 
HETATM   28  N6  UNL     1      24.532  20.561  64.452  1.00  0.00    -0.067 NA
HETATM   29  N7  UNL     1      23.171  18.524  64.525  1.00  0.00    -0.067 NA
ATOM     30  H5  UNL     1      25.241  17.549  65.543  1.00  0.00     0.161 HD
ENDBRANCH  25  26
ENDBRANCH  24  25
ENDBRANCH   5  24
TORSDOF 7
ENDMDL
MODEL 2
REMARK VINA RESULT: -7.219389238      2.190      4.943
REMARK  7 active torsions:
REMARK  status: ('A' for Active; 'I' for Inactive)
REMARK    1  A    between atoms: N1_1  and  C1_5 
REMARK    2  A    between atoms: C1_5  and  C2_6 
REMARK    3  A    between atoms: C2_6  and  N2_7 
REMARK    4  A    between atoms: N2_7  and  C3_9 
REMARK    5  A    between atoms: C4_13  and  C5_14 
REMARK    6  A    between atoms: C5_14  and  C6_15 
REMARK    7  A    between atoms: C6_15  and  N5_16 
ROOT
HETATM    1  C3  UNL     1      25.128  17.891  63.584  1.00  0.00     0.186 C 
HETATM    2  N3  UNL     1      26.306  17.403  63.119  1.00  0.00    -0.273 N 
ATOM      3  H3  UNL     1      27.134  17.829  63.537  1.00  0.00     0.189 HD
HETATM    4  N4  UNL     1      26.566  16.462  62.210  1.00  0.00    -0.236 N 
HETATM    5  C4  UNL     1      27.789  16.164  61.738  1.00  0.00     0.053 A 
HETATM    6  C8  UNL     1      27.674  15.143  60.815  1.00  0.00     0.117 A 
HETATM    7  N8  UNL     1      26.364  14.842  60.751  1.00  0.00    -0.344 N 
ATOM      8  H8  UNL     1      25.956  14.122  60.154  1.00  0.00     0.167 HD
HETATM    9  C9  UNL     1      25.672  15.633  61.592  1.00  0.00     0.196 A 
HETATM   10  C10 UNL     1      24.307  15.565  61.749  1.00  0.00     0.294 C 
HETATM   11  O1  UNL     1      23.718  14.680  61.089  1.00  0.00    -0.264 OA
HETATM   12  N9  UNL     1      23.543  16.342  62.533  1.00  0.00    -0.284 N 
ATOM     13  H9  UNL     1      22.539  16.181  62.449  1.00  0.00     0.172 HD
HETATM   14  C11 UNL     1      23.896  17.309  63.420  1.00  0.00     0.293 C 
HETATM   15  O2  UNL     1      22.950  17.679  64.152  1.00  0.00    -0.264 OA
ENDROOT
BRANCH   1  16
HETATM   16  N2  UNL     1      25.132  18.995  64.240  1.00  0.00    -0.369 N 
ATOM     17  H2  UNL     1      24.631  19.792  63.846  1.00  0.00     0.161 HD
BRANCH  16  18
HETATM   18  C2  UNL     1      25.806  19.172  65.501  1.00  0.00     0.148 C 
BRANCH  18  19
HETATM   19  C1  UNL     1      24.779  19.338  66.622  1.00  0.00     0.249 C 
BRANCH  19  20
HETATM   20  N1  UNL     1      24.213  18.056  66.987  1.00  0.00    -0.078 N 
ATOM     21  H13 UNL     1      23.415  17.812  66.399  1.00  0.00     0.274 HD
ATOM     22  H12 UNL     1      24.830  17.283  66.734  1.00  0.00     0.274 HD
ATOM     23  H11 UNL     1      23.971  18.039  67.978  1.00  0.00     0.274 HD
ENDBRANCH  19  20
ENDBRANCH  18  19
ENDBRANCH  16  18
ENDBRANCH   1  16
BRANCH   5  24
HETATM   24  C5  UNL     1      29.049  16.834  62.151  1.00  0.00     0.080 C 
BRANCH  24  25
HETATM   25  C6  UNL     1      29.176  18.190  61.491  1.00  0.00     0.128 C 
BRANCH  25  26
HETATM   26  N5  UNL     1      29.541  19.217  62.441  1.00  0.00    -0.367 N 
HETATM   27  C7  UNL     1      28.669  20.104  62.735  1.00  0.00     0.196 C 
HETATM   28  N6  UNL     1      27.383  20.092  62.152  1.00  0.00    -0.067 NA
HETATM   29  N7  UNL     1      29.020  21.113  63.664  1.00  0.00    -0.067 NA
ATOM     30  H5  UNL     1      30.469  19.233  62.865  1.00  0.00     0.161 HD
ENDBRANCH  25  26
ENDBRANCH  24  25
ENDBRANCH   5  24
TORSDOF 7
ENDMDL
MODEL 3
REMARK VINA RESULT: -7.148947095      2.035      2.932
REMARK  7 active torsions:
REMARK  status: ('A' for Active; 'I' for Inactive)
REMARK    1  A    between atoms: N1_1  and  C1_5 
REMARK    2  A    between atoms: C1_5  and  C2_6 
REMARK    3  A    between atoms: C2_6  and  N2_7 
REMARK    4  A    between atoms: N2_7  and  C3_9 
REMARK    5  A    between atoms: C4_13  and  C5_14 
REMARK    6  A    between atoms: C5_14  and  C6_15 
REMARK    7  A    between atoms: C6_15  and  N5_16 
ROOT
HETATM    1  C3  UNL     1      26.514  18.653  62.652  1.00  0.00     0.186 C 
HETATM    2  N3  UNL     1      26.639  18.758  63.999  1.00  0.00    -0.273 N 
ATOM      3  H3  UNL     1      25.928  18.256  64.530  1.00  0.00     0.189 HD
HETATM    4  N4  UNL     1      27.536  19.406  64.746  1.00  0.00    -0.236 N 
HETATM    5  C4  UNL     1      27.469  19.542  66.083  1.00  0.00     0.053 A 
HETATM    6  C8  UNL     1      28.564  20.268  66.510  1.00  0.00     0.117 A 
HETATM    7  N8  UNL     1      29.277  20.557  65.407  1.00  0.00    -0.344 N 
ATOM      8  H8  UNL     1      30.148  21.088  65.394  1.00  0.00     0.167 HD
HETATM    9  C9  UNL     1      28.669  20.041  64.322  1.00  0.00     0.196 A 
HETATM   10  C10 UNL     1      29.158  20.171  63.043  1.00  0.00     0.294 C 
HETATM   11  O1  UNL     1      30.249  20.772  62.927  1.00  0.00    -0.264 OA
HETATM   12  N9  UNL     1      28.593  19.723  61.911  1.00  0.00    -0.284 N 
ATOM     13  H9  UNL     1      29.077  19.990  61.054  1.00  0.00     0.172 HD
HETATM   14  C11 UNL     1      27.476  18.970  61.727  1.00  0.00     0.293 C 
HETATM   15  O2  UNL     1      27.358  18.537  60.558  1.00  0.00    -0.264 OA
ENDROOT
BRANCH   1  16
HETATM   16  N2  UNL     1      25.405  18.221  62.167  1.00  0.00    -0.369 N 
ATOM     17  H2  UNL     1      24.925  18.798  61.475  1.00  0.00     0.161 HD
BRANCH  16  18
HETATM   18  C2  UNL     1      24.801  16.969  62.545  1.00  0.00     0.148 C 
BRANCH  18  19
HETATM   19  C1  UNL     1      24.185  16.296  61.318  1.00  0.00     0.249 C 
BRANCH  19  20
HETATM   20  N1  UNL     1      24.953  16.602  60.130  1.00  0.00    -0.078 N 
ATOM     21  H13 UNL     1      24.463  17.257  59.520  1.00  0.00     0.274 HD
ATOM     22  H12 UNL     1      25.770  17.176  60.344  1.00  0.00     0.274 HD
ATOM     23  H11 UNL     1      25.210  15.747  59.638  1.00  0.00     0.274 HD
ENDBRANCH  19  20
ENDBRANCH  18  19
ENDBRANCH  16  18
ENDBRANCH   1  16
BRANCH   5  24
HETATM   24  C5  UNL     1      26.389  18.995  66.943  1.00  0.00     0.080 C 
BRANCH  24  25
HETATM   25  C6  UNL     1      25.239  19.974  67.044  1.00  0.00     0.128 C 
BRANCH  25  26
HETATM   26  N5  UNL     1      24.033  19.448  66.443  1.00  0.00    -0.367 N 
HETATM   27  C7  UNL     1      23.681  19.901  65.301  1.00  0.00     0.196 C 
HETATM   28  N6  UNL     1      24.441  20.889  64.637  1.00  0.00    -0.067 NA
HETATM   29  N7  UNL     1      22.502  19.392  64.706  1.00  0.00    -0.067 NA
ATOM     30  H5  UNL     1      23.478  18.735  66.917  1.00  0.00     0.161 HD
ENDBRANCH  25  26
ENDBRANCH  24  25
ENDBRANCH   5  24
TORSDOF 7
ENDMDL
MODEL 4
REMARK VINA RESULT: -7.016378787      1.714      2.042
REMARK  7 active torsions:
REMARK  status: ('A' for Active; 'I' for Inactive)
REMARK    1  A    between atoms: N1_1  and  C1_5 
REMARK    2  A    between atoms: C1_5  and  C2_6 
REMARK    3  A    between atoms: C2_6  and  N2_7 
REMARK    4  A    between atoms: N2_7  and  C3_9 
REMARK    5  A    between atoms: C4_13  and  C5_14 
REMARK    6  A    between atoms: C5_14  and  C6_15 
REMARK    7  A    between atoms: C6_15  and  N5_16 
ROOT
HETATM    1  C3  UNL     1      26.166  17.629  62.308  1.00  0.00     0.186 C 
HETATM    2  N3  UNL     1      26.546  17.879  63.587  1.00  0.00    -0.273 N 
ATOM      3  H3  UNL     1      25.802  17.778  64.276  1.00  0.00     0.189 HD
HETATM    4  N4  UNL     1      27.729  18.232  64.094  1.00  0.00    -0.236 N 
HETATM    5  C4  UNL     1      27.943  18.584  65.375  1.00  0.00     0.053 A 
HETATM    6  C8  UNL     1      29.281  18.884  65.536  1.00  0.00     0.117 A 
HETATM    7  N8  UNL     1      29.854  18.703  64.332  1.00  0.00    -0.344 N 
ATOM      8  H8  UNL     1      30.843  18.846  64.126  1.00  0.00     0.167 HD
HETATM    9  C9  UNL     1      28.927  18.306  63.440  1.00  0.00     0.196 A 
HETATM   10  C10 UNL     1      29.207  18.042  62.120  1.00  0.00     0.294 C 
HETATM   11  O1  UNL     1      30.405  18.147  61.777  1.00  0.00    -0.264 OA
HETATM   12  N9  UNL     1      28.336  17.684  61.164  1.00  0.00    -0.284 N 
ATOM     13  H9  UNL     1      28.732  17.609  60.227  1.00  0.00     0.172 HD
HETATM   14  C11 UNL     1      27.008  17.404  61.247  1.00  0.00     0.293 C 
HETATM   15  O2  UNL     1      26.545  16.881  60.208  1.00  0.00    -0.264 OA
ENDROOT
BRANCH   1  16
HETATM   16  N2  UNL     1      24.912  17.593  62.032  1.00  0.00    -0.369 N 
ATOM     17  H2  UNL     1      24.568  18.188  61.278  1.00  0.00     0.161 HD
BRANCH  16  18
HETATM   18  C2  UNL     1      23.965  16.761  62.729  1.00  0.00     0.148 C 
BRANCH  18  19
HETATM   19  C1  UNL     1      24.064  15.322  62.222  1.00  0.00     0.249 C 
BRANCH  19  20
HETATM   20  N1  UNL     1      23.877  15.273  60.787  1.00  0.00    -0.078 N 
ATOM     21  H13 UNL     1      23.528  16.159  60.420  1.00  0.00     0.274 HD
ATOM     22  H12 UNL     1      24.767  15.243  60.289  1.00  0.00     0.274 HD
ATOM     23  H11 UNL     1      23.272  14.493  60.530  1.00  0.00     0.274 HD
ENDBRANCH  19  20
ENDBRANCH  18  19
ENDBRANCH  16  18
ENDBRANCH   1  16
BRANCH   5  24
HETATM   24  C5  UNL     1      26.899  18.635  66.430  1.00  0.00     0.080 C 
BRANCH  24  25
HETATM   25  C6  UNL     1      26.143  19.945  66.372  1.00  0.00     0.128 C 
BRANCH  25  26
HETATM   26  N5  UNL     1      24.716  19.737  66.272  1.00  0.00    -0.367 N 
HETATM   27  C7  UNL     1      24.152  19.947  65.145  1.00  0.00     0.196 C 
HETATM   28  N6  UNL     1      24.894  20.373  64.021  1.00  0.00    -0.067 NA
HETATM   29  N7  UNL     1      22.755  19.746  65.040  1.00  0.00    -0.067 NA
ATOM     30  H5  UNL     1      24.173  19.430  67.080  1.00  0.00     0.161 HD
ENDBRANCH  25  26
ENDBRANCH  24  25
ENDBRANCH   5  24
TORSDOF 7
ENDMDL
MODEL 5
REMARK VINA RESULT: -6.897205281      2.132      4.045
REMARK  7 active torsions:
REMARK  status: ('A' for Active; 'I' for Inactive)
REMARK    1  A    between atoms: N1_1  and  C1_5 
REMARK    2  A    between atoms: C1_5  and  C2_6 
REMARK    3  A    between atoms: C2_6  and  N2_7 
REMARK    4  A    between atoms: N2_7  and  C3_9 
REMARK    5  A    between atoms: C4_13  and  C5_14 
REMARK    6  A    between atoms: C5_14  and  C6_15 
REMARK    7  A    between atoms: C6_15  and  N5_16 
ROOT
HETATM    1  C3  UNL     1      25.715  15.534  62.571  1.00  0.00     0.186 C 
HETATM    2  N3  UNL     1      26.533  16.532  62.991  1.00  0.00    -0.273 N 
ATOM      3  H3  UNL     1      27.505  16.432  62.701  1.00  0.00     0.189 HD
HETATM    4  N4  UNL     1      26.280  17.623  63.718  1.00  0.00    -0.236 N 
HETATM    5  C4  UNL     1      27.214  18.472  64.183  1.00  0.00     0.053 A 
HETATM    6  C8  UNL     1      26.587  19.479  64.889  1.00  0.00     0.117 A 
HETATM    7  N8  UNL     1      25.269  19.213  64.833  1.00  0.00    -0.344 N 
ATOM      8  H8  UNL     1      24.537  19.779  65.263  1.00  0.00     0.167 HD
HETATM    9  C9  UNL     1      25.060  18.087  64.124  1.00  0.00     0.196 A 
HETATM   10  C10 UNL     1      23.814  17.556  63.892  1.00  0.00     0.294 C 
HETATM   11  O1  UNL     1      22.843  18.204  64.344  1.00  0.00    -0.264 OA
HETATM   12  N9  UNL     1      23.526  16.422  63.234  1.00  0.00    -0.284 N 
ATOM     13  H9  UNL     1      22.540  16.161  63.238  1.00  0.00     0.172 HD
HETATM   14  C11 UNL     1      24.343  15.567  62.563  1.00  0.00     0.293 C 
HETATM   15  O2  UNL     1      23.721  14.730  61.870  1.00  0.00    -0.264 OA
ENDROOT
BRANCH   1  16
HETATM   16  N2  UNL     1      26.242  14.446  62.136  1.00  0.00    -0.369 N 
ATOM     17  H2  UNL     1      25.871  13.560  62.481  1.00  0.00     0.161 HD
BRANCH  16  18
HETATM   18  C2  UNL     1      27.327  14.407  61.190  1.00  0.00     0.148 C 
BRANCH  18  19
HETATM   19  C1  UNL     1      26.774  14.303  59.767  1.00  0.00     0.249 C 
BRANCH  19  20
HETATM   20  N1  UNL     1      26.500  15.620  59.231  1.00  0.00    -0.078 N 
ATOM     21  H13 UNL     1      25.561  15.939  59.468  1.00  0.00     0.274 HD
ATOM     22  H12 UNL     1      27.033  16.344  59.713  1.00  0.00     0.274 HD
ATOM     23  H11 UNL     1      26.662  15.638  58.224  1.00  0.00     0.274 HD
ENDBRANCH  19  20
ENDBRANCH  18  19
ENDBRANCH  16  18
ENDBRANCH   1  16
BRANCH   5  24
HETATM   24  C5  UNL     1      28.676  18.333  63.964  1.00  0.00     0.080 C 
BRANCH  24  25
HETATM   25  C6  UNL     1      29.144  19.267  62.868  1.00  0.00     0.128 C 
BRANCH  25  26
HETATM   26  N5  UNL     1      29.033  18.658  61.561  1.00  0.00    -0.367 N 
HETATM   27  C7  UNL     1      28.075  19.028  60.801  1.00  0.00     0.196 C 
HETATM   28  N6  UNL     1      27.143  20.004  61.218  1.00  0.00    -0.067 NA
HETATM   29  N7  UNL     1      27.961  18.436  59.521  1.00  0.00    -0.067 NA
ATOM     30  H5  UNL     1      29.703  17.951  61.254  1.00  0.00     0.161 HD
ENDBRANCH  25  26
ENDBRANCH  24  25
ENDBRANCH   5  24
TORSDOF 7
ENDMDL
