MODEL 1
REMARK VINA RESULT: -6.542290927      0.000      0.000
REMARK  9 active torsions:
REMARK  status: ('A' for Active; 'I' for Inactive)
REMARK    1  A    between atoms: N1_1  and  N2_4 
REMARK    2  A    between atoms: N2_4  and  N3_5 
REMARK    3  A    between atoms: N3_5  and  N4_7 
REMARK    4  A    between atoms: N4_7  and  C1_9 
REMARK    5  A    between atoms: C2_10  and  C3_11 
REMARK    6  A    between atoms: C3_11  and  C4_12 
REMARK    7  A    between atoms: C4_12  and  N5_13 
REMARK    8  A    between atoms: C8_22  and  S1_23 
REMARK    9  A    between atoms: S1_23  and  N9_24 
ROOT
HETATM    1  C1  UNL     1      26.760  17.305  61.873  1.00  0.00     0.082 A 
HETATM    2  C2  UNL     1      28.091  17.137  61.584  1.00  0.00    -0.011 A 
HETATM    3  C6  UNL     1      28.608  15.856  61.552  1.00  0.00     0.097 A 
HETATM    4  N8  UNL     1      27.888  14.754  61.793  1.00  0.00    -0.373 N 
ATOM      5  H8  UNL     1      28.311  13.827  61.757  1.00  0.00     0.164 HD
HETATM    6  C7  UNL     1      26.580  14.919  62.085  1.00  0.00     0.115 A 
HETATM    7  C8  UNL     1      25.984  16.137  62.136  1.00  0.00     0.123 A 
ENDROOT
BRANCH   1   8
HETATM    8  N4  UNL     1      26.148  18.332  61.871  1.00  0.00    -0.273 N 
ATOM      9  H4  UNL     1      25.603  18.307  61.010  1.00  0.00     0.189 HD
BRANCH   8  10
HETATM   10  N3  UNL     1      25.834  19.473  62.431  1.00  0.00    -0.156 N 
ATOM     11  H3  UNL     1      26.060  20.275  61.843  1.00  0.00     0.225 HD
BRANCH  10  12
HETATM   12  N2  UNL     1      25.348  19.787  63.465  1.00  0.00    -0.228 NA
BRANCH  12  13
HETATM   13  N1  UNL     1      24.810  20.114  64.583  1.00  0.00    -0.259 N 
ATOM     14  H12 UNL     1      24.859  19.369  63.889  1.00  0.00     0.193 HD
ATOM     15  H11 UNL     1      24.389  20.387  65.472  1.00  0.00     0.193 HD
ENDBRANCH  12  13
ENDBRANCH  10  12
ENDBRANCH   8  10
ENDBRANCH   1   8
BRANCH   2  16
HETATM   16  C3  UNL     1      29.033  18.311  61.440  1.00  0.00     0.062 C 
BRANCH  16  17
HETATM   17  C4  UNL     1      29.587  18.467  62.844  1.00  0.00     0.126 C 
BRANCH  17  18
HETATM   18  N5  UNL     1      29.707  19.829  63.280  1.00  0.00    -0.367 N 
HETATM   19  C5  UNL     1      28.865  20.196  64.215  1.00  0.00     0.196 C 
HETATM   20  N6  UNL     1      27.946  19.243  64.694  1.00  0.00    -0.067 NA
HETATM   21  N7  UNL     1      28.893  21.509  64.695  1.00  0.00    -0.067 NA
ATOM     22  H5  UNL     1      30.399  20.468  62.889  1.00  0.00     0.161 HD
ENDBRANCH  17  18
ENDBRANCH  16  17
ENDBRANCH   2  16
BRANCH   7  23
HETATM   23  S1  UNL     1      24.329  16.320  62.515  1.00  0.00     0.260 S 
HETATM   24  O1  UNL     1      23.684  17.091  61.367  1.00  0.00    -0.201 OA
HETATM   25  O2  UNL     1      24.174  17.127  63.787  1.00  0.00    -0.201 OA
BRANCH  23  26
HETATM   26  N9  UNL     1      23.460  14.881  62.698  1.00  0.00    -0.324 N 
ATOM     27  H92 UNL     1      23.714  14.193  63.407  1.00  0.00     0.169 HD
ATOM     28  H91 UNL     1      22.677  14.757  62.056  1.00  0.00     0.169 HD
ENDBRANCH  23  26
ENDBRANCH   7  23
TORSDOF 9
ENDMDL
MODEL 2
REMARK VINA RESULT: -6.512253429      2.156      2.628
REMARK  9 active torsions:
REMARK  status: ('A' for Active; 'I' for Inactive)
REMARK    1  A    between atoms: N1_1  and  N2_4 
REMARK    2  A    between atoms: N2_4  and  N3_5 
REMARK    3  A    between atoms: N3_5  and  N4_7 
REMARK    4  A    between atoms: N4_7  and  C1_9 
REMARK    5  A    between atoms: C2_10  and  C3_11 
REMARK    6  A    between atoms: C3_11  and  C4_12 
REMARK    7  A    between atoms: C4_12  and  N5_13 
REMARK    8  A    between atoms: C8_22  and  S1_23 
REMARK    9  A    between atoms: S1_23  and  N9_24 
ROOT
HETATM    1  C1  UNL     1      25.677  15.905  60.762  1.00  0.00     0.082 A 
HETATM    2  C2  UNL     1      26.919  16.336  60.372  1.00  0.00    -0.011 A 
HETATM    3  C6  UNL     1      27.969  15.438  60.383  1.00  0.00     0.097 A 
HETATM    4  N8  UNL     1      27.853  14.159  60.759  1.00  0.00    -0.373 N 
ATOM      5  H8  UNL     1      28.655  13.530  60.750  1.00  0.00     0.164 HD
HETATM    6  C7  UNL     1      26.632  13.735  61.150  1.00  0.00     0.115 A 
HETATM    7  C8  UNL     1      25.543  14.544  61.169  1.00  0.00     0.123 A 
ENDROOT
BRANCH   1   8
HETATM    8  N4  UNL     1      24.659  16.532  60.742  1.00  0.00    -0.273 N 
ATOM      9  H4  UNL     1      24.320  16.447  59.784  1.00  0.00     0.189 HD
BRANCH   8  10
HETATM   10  N3  UNL     1      23.766  17.274  61.348  1.00  0.00    -0.156 N 
ATOM     11  H3  UNL     1      23.252  17.875  60.703  1.00  0.00     0.225 HD
BRANCH  10  12
HETATM   12  N2  UNL     1      23.417  17.407  62.472  1.00  0.00    -0.228 NA
BRANCH  12  13
HETATM   13  N1  UNL     1      23.050  17.567  63.691  1.00  0.00    -0.259 N 
ATOM     14  H12 UNL     1      23.659  17.947  62.967  1.00  0.00     0.193 HD
ATOM     15  H11 UNL     1      22.750  17.682  64.660  1.00  0.00     0.193 HD
ENDBRANCH  12  13
ENDBRANCH  10  12
ENDBRANCH   8  10
ENDBRANCH   1   8
BRANCH   2  16
HETATM   16  C3  UNL     1      27.202  17.790  60.068  1.00  0.00     0.062 C 
BRANCH  16  17
HETATM   17  C4  UNL     1      27.672  18.325  61.408  1.00  0.00     0.126 C 
BRANCH  17  18
HETATM   18  N5  UNL     1      26.841  19.362  61.950  1.00  0.00    -0.367 N 
HETATM   19  C5  UNL     1      26.172  19.040  63.030  1.00  0.00     0.196 C 
HETATM   20  N6  UNL     1      26.328  17.740  63.547  1.00  0.00    -0.067 NA
HETATM   21  N7  UNL     1      25.323  19.979  63.624  1.00  0.00    -0.067 NA
ATOM     22  H5  UNL     1      26.775  20.286  61.524  1.00  0.00     0.161 HD
ENDBRANCH  17  18
ENDBRANCH  16  17
ENDBRANCH   2  16
BRANCH   7  23
HETATM   23  S1  UNL     1      24.009  13.986  61.676  1.00  0.00     0.260 S 
HETATM   24  O1  UNL     1      23.024  14.284  60.549  1.00  0.00    -0.201 OA
HETATM   25  O2  UNL     1      23.569  14.736  62.915  1.00  0.00    -0.201 OA
BRANCH  23  26
HETATM   26  N9  UNL     1      23.907  12.330  62.000  1.00  0.00    -0.324 N 
ATOM     27  H92 UNL     1      24.000  11.637  61.257  1.00  0.00     0.169 HD
ATOM     28  H91 UNL     1      23.748  12.082  62.977  1.00  0.00     0.169 HD
ENDBRANCH  23  26
ENDBRANCH   7  23
TORSDOF 9
ENDMDL
MODEL 3
REMARK VINA RESULT: -6.339268785      1.695      1.865
REMARK  9 active torsions:
REMARK  status: ('A' for Active; 'I' for Inactive)
REMARK    1  A    between atoms: N1_1  and  N2_4 
REMARK    2  A    between atoms: N2_4  and  N3_5 
REMARK    3  A    between atoms: N3_5  and  N4_7 
REMARK    4  A    between atoms: N4_7  and  C1_9 
REMARK    5  A    between atoms: C2_10  and  C3_11 
REMARK    6  A    between atoms: C3_11  and  C4_12 
REMARK    7  A    between atoms: C4_12  and  N5_13 
REMARK    8  A    between atoms: C8_22  and  S1_23 
REMARK    9  A    between atoms: S1_23  and  N9_24 
ROOT
HETATM    1  C1  UNL     1      26.554  16.046  61.760  1.00  0.00     0.082 A 
HETATM    2  C2  UNL     1      27.911  15.961  61.581  1.00  0.00    -0.011 A 
HETATM    3  C6  UNL     1      28.412  14.972  60.757  1.00  0.00     0.097 A 
HETATM    4  N8  UNL     1      27.651  14.077  60.116  1.00  0.00    -0.373 N 
ATOM      5  H8  UNL     1      28.064  13.364  59.515  1.00  0.00     0.164 HD
HETATM    6  C7  UNL     1      26.315  14.156  60.297  1.00  0.00     0.115 A 
HETATM    7  C8  UNL     1      25.733  15.094  61.085  1.00  0.00     0.123 A 
ENDROOT
BRANCH   1   8
HETATM    8  N4  UNL     1      25.961  16.880  62.379  1.00  0.00    -0.273 N 
ATOM      9  H4  UNL     1      25.961  17.701  61.775  1.00  0.00     0.189 HD
BRANCH   8  10
HETATM   10  N3  UNL     1      25.312  17.256  63.453  1.00  0.00    -0.156 N 
ATOM     11  H3  UNL     1      25.910  17.300  64.278  1.00  0.00     0.225 HD
BRANCH  10  12
HETATM   12  N2  UNL     1      24.190  17.556  63.686  1.00  0.00    -0.228 NA
BRANCH  12  13
HETATM   13  N1  UNL     1      22.970  17.877  63.920  1.00  0.00    -0.259 N 
ATOM     14  H12 UNL     1      23.918  18.249  63.887  1.00  0.00     0.193 HD
ATOM     15  H11 UNL     1      21.995  18.118  64.104  1.00  0.00     0.193 HD
ENDBRANCH  12  13
ENDBRANCH  10  12
ENDBRANCH   8  10
ENDBRANCH   1   8
BRANCH   2  16
HETATM   16  C3  UNL     1      28.877  16.820  62.366  1.00  0.00     0.062 C 
BRANCH  16  17
HETATM   17  C4  UNL     1      28.896  18.111  61.570  1.00  0.00     0.126 C 
BRANCH  17  18
HETATM   18  N5  UNL     1      29.420  19.237  62.290  1.00  0.00    -0.367 N 
HETATM   19  C5  UNL     1      28.525  20.072  62.758  1.00  0.00     0.196 C 
HETATM   20  N6  UNL     1      27.166  19.793  62.519  1.00  0.00    -0.067 NA
HETATM   21  N7  UNL     1      28.939  21.208  63.459  1.00  0.00    -0.067 NA
ATOM     22  H5  UNL     1      30.421  19.378  62.427  1.00  0.00     0.161 HD
ENDBRANCH  17  18
ENDBRANCH  16  17
ENDBRANCH   2  16
BRANCH   7  23
HETATM   23  S1  UNL     1      24.040  15.169  61.305  1.00  0.00     0.260 S 
HETATM   24  O1  UNL     1      23.594  16.575  60.912  1.00  0.00    -0.201 OA
HETATM   25  O2  UNL     1      23.695  14.941  62.761  1.00  0.00    -0.201 OA
BRANCH  23  26
HETATM   26  N9  UNL     1      23.136  14.083  60.375  1.00  0.00    -0.324 N 
ATOM     27  H92 UNL     1      23.372  13.091  60.338  1.00  0.00     0.169 HD
ATOM     28  H91 UNL     1      22.353  14.489  59.863  1.00  0.00     0.169 HD
ENDBRANCH  23  26
ENDBRANCH   7  23
TORSDOF 9
ENDMDL
MODEL 4
REMARK VINA RESULT: -6.308334917      2.084      4.637
REMARK  9 active torsions:
REMARK  status: ('A' for Active; 'I' for Inactive)
REMARK    1  A    between atoms: N1_1  and  N2_4 
REMARK    2  A    between atoms: N2_4  and  N3_5 
REMARK    3  A    between atoms: N3_5  and  N4_7 
REMARK    4  A    between atoms: N4_7  and  C1_9 
REMARK    5  A    between atoms: C2_10  and  C3_11 
REMARK    6  A    between atoms: C3_11  and  C4_12 
REMARK    7  A    between atoms: C4_12  and  N5_13 
REMARK    8  A    between atoms: C8_22  and  S1_23 
REMARK    9  A    between atoms: S1_23  and  N9_24 
ROOT
HETATM    1  C1  UNL     1      26.664  19.016  62.808  1.00  0.00     0.082 A 
HETATM    2  C2  UNL     1      27.794  18.817  62.056  1.00  0.00    -0.011 A 
HETATM    3  C6  UNL     1      29.017  19.185  62.582  1.00  0.00     0.097 A 
HETATM    4  N8  UNL     1      29.174  19.734  63.792  1.00  0.00    -0.373 N 
ATOM      5  H8  UNL     1      30.097  19.989  64.142  1.00  0.00     0.164 HD
HETATM    6  C7  UNL     1      28.062  19.937  64.531  1.00  0.00     0.115 A 
HETATM    7  C8  UNL     1      26.820  19.605  64.098  1.00  0.00     0.123 A 
ENDROOT
BRANCH   1   8
HETATM    8  N4  UNL     1      25.548  18.690  62.529  1.00  0.00    -0.273 N 
ATOM      9  H4  UNL     1      25.086  19.557  62.255  1.00  0.00     0.189 HD
BRANCH   8  10
HETATM   10  N3  UNL     1      24.629  17.767  62.402  1.00  0.00    -0.156 N 
ATOM     11  H3  UNL     1      24.250  17.463  63.300  1.00  0.00     0.225 HD
BRANCH  10  12
HETATM   12  N2  UNL     1      24.136  17.202  61.485  1.00  0.00    -0.228 NA
BRANCH  12  13
HETATM   13  N1  UNL     1      23.615  16.598  60.479  1.00  0.00    -0.259 N 
ATOM     14  H12 UNL     1      24.479  17.018  60.819  1.00  0.00     0.193 HD
ATOM     15  H11 UNL     1      23.188  16.116  59.688  1.00  0.00     0.193 HD
ENDBRANCH  12  13
ENDBRANCH  10  12
ENDBRANCH   8  10
ENDBRANCH   1   8
BRANCH   2  16
HETATM   16  C3  UNL     1      27.727  18.342  60.621  1.00  0.00     0.062 C 
BRANCH  16  17
HETATM   17  C4  UNL     1      28.079  16.871  60.741  1.00  0.00     0.126 C 
BRANCH  17  18
HETATM   18  N5  UNL     1      26.980  15.982  60.490  1.00  0.00    -0.367 N 
HETATM   19  C5  UNL     1      26.747  15.097  61.428  1.00  0.00     0.196 C 
HETATM   20  N6  UNL     1      27.575  15.101  62.567  1.00  0.00    -0.067 NA
HETATM   21  N7  UNL     1      25.707  14.176  61.267  1.00  0.00    -0.067 NA
ATOM     22  H5  UNL     1      26.419  16.036  59.640  1.00  0.00     0.161 HD
ENDBRANCH  17  18
ENDBRANCH  16  17
ENDBRANCH   2  16
BRANCH   7  23
HETATM   23  S1  UNL     1      25.426  19.879  65.048  1.00  0.00     0.260 S 
HETATM   24  O1  UNL     1      24.778  18.521  65.302  1.00  0.00    -0.201 OA
HETATM   25  O2  UNL     1      24.446  20.749  64.291  1.00  0.00    -0.201 OA
BRANCH  23  26
HETATM   26  N9  UNL     1      25.702  20.588  66.558  1.00  0.00    -0.324 N 
ATOM     27  H92 UNL     1      26.443  21.276  66.694  1.00  0.00     0.169 HD
ATOM     28  H91 UNL     1      25.082  20.281  67.307  1.00  0.00     0.169 HD
ENDBRANCH  23  26
ENDBRANCH   7  23
TORSDOF 9
ENDMDL
MODEL 5
REMARK VINA RESULT: -6.291359126      2.175      4.746
REMARK  9 active torsions:
REMARK  status: ('A' for Active; 'I' for Inactive)
REMARK    1  A    between atoms: N1_1  and  N2_4 
REMARK    2  A    between atoms: N2_4  and  N3_5 
REMARK    3  A    between atoms: N3_5  and  N4_7 
REMARK    4  A    between atoms: N4_7  and  C1_9 
REMARK    5  A    between atoms: C2_10  and  C3_11 
REMARK    6  A    between atoms: C3_11  and  C4_12 
REMARK    7  A    between atoms: C4_12  and  N5_13 
REMARK    8  A    between atoms: C8_22  and  S1_23 
REMARK    9  A    between atoms: S1_23  and  N9_24 
ROOT
HETATM    1  C1  UNL     1      26.755  17.231  61.667  1.00  0.00     0.082 A 
HETATM    2  C2  UNL     1      27.407  16.312  60.885  1.00  0.00    -0.011 A 
HETATM    3  C6  UNL     1      28.717  15.992  61.187  1.00  0.00     0.097 A 
HETATM    4  N8  UNL     1      29.402  16.530  62.203  1.00  0.00    -0.373 N 
ATOM      5  H8  UNL     1      30.368  16.263  62.390  1.00  0.00     0.164 HD
HETATM    6  C7  UNL     1      28.763  17.440  62.969  1.00  0.00     0.115 A 
HETATM    7  C8  UNL     1      27.478  17.814  62.751  1.00  0.00     0.123 A 
ENDROOT
BRANCH   1   8
HETATM    8  N4  UNL     1      25.609  17.562  61.584  1.00  0.00    -0.273 N 
ATOM      9  H4  UNL     1      25.629  18.433  61.053  1.00  0.00     0.189 HD
BRANCH   8  10
HETATM   10  N3  UNL     1      24.342  17.355  61.839  1.00  0.00    -0.156 N 
ATOM     11  H3  UNL     1      23.759  17.407  61.004  1.00  0.00     0.225 HD
BRANCH  10  12
HETATM   12  N2  UNL     1      23.717  17.121  62.818  1.00  0.00    -0.228 NA
BRANCH  12  13
HETATM   13  N1  UNL     1      23.054  16.872  63.889  1.00  0.00    -0.259 N 
ATOM     14  H12 UNL     1      23.953  17.211  63.547  1.00  0.00     0.193 HD
ATOM     15  H11 UNL     1      22.516  16.669  64.731  1.00  0.00     0.193 HD
ENDBRANCH  12  13
ENDBRANCH  10  12
ENDBRANCH   8  10
ENDBRANCH   1   8
BRANCH   2  16
HETATM   16  C3  UNL     1      26.787  15.748  59.626  1.00  0.00     0.062 C 
BRANCH  16  17
HETATM   17  C4  UNL     1      26.345  14.364  60.064  1.00  0.00     0.126 C 
BRANCH  17  18
HETATM   18  N5  UNL     1      24.966  14.284  60.454  1.00  0.00    -0.367 N 
HETATM   19  C5  UNL     1      24.753  14.012  61.718  1.00  0.00     0.196 C 
HETATM   20  N6  UNL     1      25.870  13.832  62.556  1.00  0.00    -0.067 NA
HETATM   21  N7  UNL     1      23.442  13.898  62.190  1.00  0.00    -0.067 NA
ATOM     22  H5  UNL     1      24.204  14.428  59.791  1.00  0.00     0.161 HD
ENDBRANCH  17  18
ENDBRANCH  16  17
ENDBRANCH   2  16
BRANCH   7  23
HETATM   23  S1  UNL     1      26.694  18.975  63.729  1.00  0.00     0.260 S 
HETATM   24  O1  UNL     1      25.680  18.228  64.592  1.00  0.00    -0.201 OA
HETATM   25  O2  UNL     1      25.952  19.969  62.862  1.00  0.00    -0.201 OA
BRANCH  23  26
HETATM   26  N9  UNL     1      27.697  19.840  64.779  1.00  0.00    -0.324 N 
ATOM     27  H92 UNL     1      28.675  20.020  64.551  1.00  0.00     0.169 HD
ATOM     28  H91 UNL     1      27.258  20.163  65.641  1.00  0.00     0.169 HD
ENDBRANCH  23  26
ENDBRANCH   7  23
TORSDOF 9
ENDMDL
