MODEL 1
REMARK VINA RESULT: -6.445132390      0.000      0.000
REMARK  16 active torsions:
REMARK  status: ('A' for Active; 'I' for Inactive)
REMARK    1  A    between atoms: C1_4  and  N2_5 
REMARK    2  A    between atoms: C1_4  and  C4_13 
REMARK    3  A    between atoms: N2_5  and  C2_7 
REMARK    4  A    between atoms: C2_7  and  C3_8 
REMARK    5  A    between atoms: C3_8  and  O1_9 
REMARK    6  A    between atoms: C3_8  and  O2_11 
REMARK    7  A    between atoms: C5_17  and  S1_18 
REMARK    8  A    between atoms: S1_18  and  C6_19 
REMARK    9  A    between atoms: C7_20  and  O3_21 
REMARK   10  A    between atoms: C8_23  and  N6_24 
REMARK   11  A    between atoms: C10_30  and  C11_31 
REMARK   12  A    between atoms: C11_31  and  O4_32 
REMARK   13  A    between atoms: N9_34  and  C12_35 
REMARK   14  A    between atoms: C13_39  and  O5_40 
REMARK   15  A    between atoms: C14_42  and  O6_43 
REMARK   16  A    between atoms: C15_45  and  O7_46 
ROOT
HETATM    1  C6  UNL     1      24.844   5.641   8.929  1.00  0.00     0.182 C 
HETATM    2  C7  UNL     1      25.507   6.982   8.807  1.00  0.00     0.195 C 
HETATM    3  C8  UNL     1      26.689   6.179   8.305  1.00  0.00     0.239 C 
HETATM    4  N9  UNL     1      25.963   5.046   8.333  1.00  0.00    -0.343 N 
ENDROOT
BRANCH   1   5
HETATM    5  S1  UNL     1      24.435   5.372  10.657  1.00  0.00    -0.091 SA
BRANCH   5   6
HETATM    6  C5  UNL     1      23.141   4.167  10.888  1.00  0.00     0.299 C 
HETATM    7  N5  UNL     1      22.550   4.227  12.218  1.00  0.00    -0.087 NA
HETATM    8  N4  UNL     1      23.261   3.491  13.154  1.00  0.00    -0.034 NA
HETATM    9  N3  UNL     1      23.302   2.135  12.807  1.00  0.00    -0.090 NA
HETATM   10  C4  UNL     1      22.730   2.030  11.468  1.00  0.00     0.301 C 
HETATM   11  O8  UNL     1      23.482   2.853  10.633  1.00  0.00    -0.330 OA
BRANCH  10  12
HETATM   12  C1  UNL     1      22.741   0.622  10.996  1.00  0.00     0.118 C 
HETATM   13  N1  UNL     1      21.626   0.005  10.852  1.00  0.00    -0.386 N 
ATOM     14  H12 UNL     1      21.634  -0.962  10.529  1.00  0.00     0.157 HD
ATOM     15  H11 UNL     1      20.747   0.482  11.053  1.00  0.00     0.157 HD
BRANCH  12  16
HETATM   16  N2  UNL     1      23.953  -0.036  10.720  1.00  0.00    -0.372 N 
ATOM     17  H2  UNL     1      24.460   0.260   9.886  1.00  0.00     0.161 HD
BRANCH  16  18
HETATM   18  C2  UNL     1      24.546  -1.090  11.507  1.00  0.00     0.181 C 
BRANCH  18  19
HETATM   19  C3  UNL     1      25.782  -0.618  12.199  1.00  0.00     0.271 C 
BRANCH  19  20
HETATM   20  O1  UNL     1      25.594  -0.849  13.585  1.00  0.00    -0.370 OA
ATOM     21  H1  UNL     1      24.983  -1.572  13.665  1.00  0.00     0.212 HD
ENDBRANCH  19  20
BRANCH  19  22
HETATM   22  O2  UNL     1      26.008   0.738  11.970  1.00  0.00    -0.370 OA
ATOM     23  H2  UNL     1      25.926   1.245  12.769  1.00  0.00     0.212 HD
ENDBRANCH  19  22
ENDBRANCH  18  19
ENDBRANCH  16  18
ENDBRANCH  12  16
ENDBRANCH  10  12
ENDBRANCH   5   6
ENDBRANCH   1   5
BRANCH   2  24
HETATM   24  O3  UNL     1      25.824   7.648   9.990  1.00  0.00    -0.389 OA
ATOM     25  H3  UNL     1      25.831   8.598   9.967  1.00  0.00     0.210 HD
ENDBRANCH   2  24
BRANCH   4  26
HETATM   26  C12 UNL     1      26.410   3.756   8.585  1.00  0.00     0.319 C 
HETATM   27  N10 UNL     1      26.478   2.814   7.481  1.00  0.00    -0.023 N 
HETATM   28  C13 UNL     1      26.867   1.610   8.255  1.00  0.00     0.352 C 
ATOM     29 2H10 UNL     1      25.645   2.732   6.897  1.00  0.00     0.282 HD
ATOM     30 1H10 UNL     1      27.081   3.068   6.699  1.00  0.00     0.282 HD
HETATM   31  C14 UNL     1      28.117   2.151   8.917  1.00  0.00     0.207 C 
HETATM   32  C15 UNL     1      27.877   3.669   9.020  1.00  0.00     0.201 C 
BRANCH  28  33
HETATM   33  O5  UNL     1      25.896   1.194   9.122  1.00  0.00    -0.368 OA
ATOM     34  H5  UNL     1      25.056   1.051   8.701  1.00  0.00     0.212 HD
ENDBRANCH  28  33
BRANCH  31  35
HETATM   35  O6  UNL     1      28.332   1.592  10.164  1.00  0.00    -0.388 OA
ATOM     36  H6  UNL     1      28.990   0.906  10.140  1.00  0.00     0.210 HD
ENDBRANCH  31  35
BRANCH  32  37
HETATM   37  O7  UNL     1      28.121   4.018  10.305  1.00  0.00    -0.389 OA
ATOM     38  H7  UNL     1      28.906   3.642  10.686  1.00  0.00     0.210 HD
ENDBRANCH  32  37
ENDBRANCH   4  26
BRANCH   3  39
HETATM   39  N6  UNL     1      27.168   6.837   7.128  1.00  0.00    -0.252 N 
HETATM   40  N7  UNL     1      27.193   8.182   7.077  1.00  0.00    -0.239 N 
HETATM   41  N8  UNL     1      27.658   8.585   5.934  1.00  0.00    -0.295 N 
ATOM     42  H7  UNL     1      26.889   8.797   7.831  1.00  0.00     0.208 HD
HETATM   43  C9  UNL     1      27.956   7.528   5.190  1.00  0.00     0.137 A 
ATOM     44  H8  UNL     1      27.775   9.559   5.653  1.00  0.00     0.187 HD
HETATM   45  C10 UNL     1      27.636   6.422   5.972  1.00  0.00     0.072 A 
BRANCH  45  46
HETATM   46  C11 UNL     1      27.795   5.031   5.568  1.00  0.00     0.224 C 
BRANCH  46  47
HETATM   47  O4  UNL     1      26.628   4.540   4.979  1.00  0.00    -0.395 OA
ATOM     48  H4  UNL     1      26.313   3.768   5.433  1.00  0.00     0.209 HD
ENDBRANCH  46  47
ENDBRANCH  45  46
ENDBRANCH   3  39
TORSDOF 16
ENDMDL
MODEL 2
REMARK VINA RESULT: -6.379649706      2.101      2.670
REMARK  16 active torsions:
REMARK  status: ('A' for Active; 'I' for Inactive)
REMARK    1  A    between atoms: C1_4  and  N2_5 
REMARK    2  A    between atoms: C1_4  and  C4_13 
REMARK    3  A    between atoms: N2_5  and  C2_7 
REMARK    4  A    between atoms: C2_7  and  C3_8 
REMARK    5  A    between atoms: C3_8  and  O1_9 
REMARK    6  A    between atoms: C3_8  and  O2_11 
REMARK    7  A    between atoms: C5_17  and  S1_18 
REMARK    8  A    between atoms: S1_18  and  C6_19 
REMARK    9  A    between atoms: C7_20  and  O3_21 
REMARK   10  A    between atoms: C8_23  and  N6_24 
REMARK   11  A    between atoms: C10_30  and  C11_31 
REMARK   12  A    between atoms: C11_31  and  O4_32 
REMARK   13  A    between atoms: N9_34  and  C12_35 
REMARK   14  A    between atoms: C13_39  and  O5_40 
REMARK   15  A    between atoms: C14_42  and  O6_43 
REMARK   16  A    between atoms: C15_45  and  O7_46 
ROOT
HETATM    1  C6  UNL     1      22.893   4.777   9.297  1.00  0.00     0.182 C 
HETATM    2  C7  UNL     1      22.629   6.254   9.290  1.00  0.00     0.195 C 
HETATM    3  C8  UNL     1      24.133   6.366   9.149  1.00  0.00     0.239 C 
HETATM    4  N9  UNL     1      24.247   5.029   9.040  1.00  0.00    -0.343 N 
ENDROOT
BRANCH   1   5
HETATM    5  S1  UNL     1      22.336   4.114  10.872  1.00  0.00    -0.091 SA
BRANCH   5   6
HETATM    6  C5  UNL     1      22.193   2.337  10.869  1.00  0.00     0.299 C 
HETATM    7  N5  UNL     1      21.801   1.804  12.167  1.00  0.00    -0.087 NA
HETATM    8  N4  UNL     1      22.881   1.613  13.016  1.00  0.00    -0.034 NA
HETATM    9  N3  UNL     1      23.792   0.696  12.478  1.00  0.00    -0.090 NA
HETATM   10  C4  UNL     1      23.350   0.420  11.114  1.00  0.00     0.301 C 
HETATM   11  O8  UNL     1      23.305   1.639  10.441  1.00  0.00    -0.330 OA
BRANCH  10  12
HETATM   12  C1  UNL     1      24.266  -0.538  10.444  1.00  0.00     0.118 C 
HETATM   13  N1  UNL     1      23.820  -1.255   9.480  1.00  0.00    -0.386 N 
ATOM     14  H12 UNL     1      24.449  -1.913   9.020  1.00  0.00     0.157 HD
ATOM     15  H11 UNL     1      22.850  -1.160   9.177  1.00  0.00     0.157 HD
BRANCH  12  16
HETATM   16  N2  UNL     1      25.602  -0.669  10.862  1.00  0.00    -0.372 N 
ATOM     17  H2  UNL     1      26.263   0.031  10.525  1.00  0.00     0.161 HD
BRANCH  16  18
HETATM   18  C2  UNL     1      26.125  -1.701  11.724  1.00  0.00     0.181 C 
BRANCH  18  19
HETATM   19  C3  UNL     1      26.646  -1.127  13.000  1.00  0.00     0.271 C 
BRANCH  19  20
HETATM   20  O1  UNL     1      25.633  -1.299  13.976  1.00  0.00    -0.370 OA
ATOM     21  H1  UNL     1      25.403  -0.434  14.294  1.00  0.00     0.212 HD
ENDBRANCH  19  20
BRANCH  19  22
HETATM   22  O2  UNL     1      26.950   0.226  12.864  1.00  0.00    -0.370 OA
ATOM     23  H2  UNL     1      27.248   0.600  13.685  1.00  0.00     0.212 HD
ENDBRANCH  19  22
ENDBRANCH  18  19
ENDBRANCH  16  18
ENDBRANCH  12  16
ENDBRANCH  10  12
ENDBRANCH   5   6
ENDBRANCH   1   5
BRANCH   2  24
HETATM   24  O3  UNL     1      22.197   6.832  10.483  1.00  0.00    -0.389 OA
ATOM     25  H3  UNL     1      21.475   7.448  10.432  1.00  0.00     0.210 HD
ENDBRANCH   2  24
BRANCH   4  26
HETATM   26  C12 UNL     1      25.302   4.229   9.458  1.00  0.00     0.319 C 
HETATM   27  N10 UNL     1      25.366   2.856   8.984  1.00  0.00    -0.023 N 
HETATM   28  C13 UNL     1      26.538   2.415   9.779  1.00  0.00     0.352 C 
ATOM     29 2H10 UNL     1      24.516   2.301   9.077  1.00  0.00     0.282 HD
ATOM     30 1H10 UNL     1      25.423   2.724   7.974  1.00  0.00     0.282 HD
HETATM   31  C14 UNL     1      27.536   3.460   9.326  1.00  0.00     0.207 C 
HETATM   32  C15 UNL     1      26.677   4.684   8.957  1.00  0.00     0.201 C 
BRANCH  28  33
HETATM   33  O5  UNL     1      26.298   2.399  11.124  1.00  0.00    -0.368 OA
ATOM     34  H5  UNL     1      26.940   1.897  11.612  1.00  0.00     0.212 HD
ENDBRANCH  28  33
BRANCH  31  35
HETATM   35  O6  UNL     1      28.452   3.770  10.315  1.00  0.00    -0.388 OA
ATOM     36  H6  UNL     1      29.200   4.248   9.974  1.00  0.00     0.210 HD
ENDBRANCH  31  35
BRANCH  32  37
HETATM   37  O7  UNL     1      27.207   5.746   9.608  1.00  0.00    -0.389 OA
ATOM     38  H7  UNL     1      28.146   5.855   9.509  1.00  0.00     0.210 HD
ENDBRANCH  32  37
ENDBRANCH   4  26
BRANCH   3  39
HETATM   39  N6  UNL     1      24.382   7.314   8.107  1.00  0.00    -0.252 N 
HETATM   40  N7  UNL     1      25.486   8.083   8.153  1.00  0.00    -0.239 N 
HETATM   41  N8  UNL     1      25.533   8.873   7.124  1.00  0.00    -0.295 N 
ATOM     42  H7  UNL     1      26.187   8.049   8.893  1.00  0.00     0.208 HD
HETATM   43  C9  UNL     1      24.468   8.659   6.364  1.00  0.00     0.137 A 
ATOM     44  H8  UNL     1      26.271   9.551   6.931  1.00  0.00     0.187 HD
HETATM   45  C10 UNL     1      23.746   7.659   7.009  1.00  0.00     0.072 A 
BRANCH  45  46
HETATM   46  C11 UNL     1      22.489   7.091   6.540  1.00  0.00     0.224 C 
BRANCH  46  47
HETATM   47  O4  UNL     1      21.499   8.070   6.443  1.00  0.00    -0.395 OA
ATOM     48  H4  UNL     1      20.642   7.680   6.318  1.00  0.00     0.209 HD
ENDBRANCH  46  47
ENDBRANCH  45  46
ENDBRANCH   3  39
TORSDOF 16
ENDMDL
MODEL 3
REMARK VINA RESULT: -6.222984292      2.533      3.874
REMARK  16 active torsions:
REMARK  status: ('A' for Active; 'I' for Inactive)
REMARK    1  A    between atoms: C1_4  and  N2_5 
REMARK    2  A    between atoms: C1_4  and  C4_13 
REMARK    3  A    between atoms: N2_5  and  C2_7 
REMARK    4  A    between atoms: C2_7  and  C3_8 
REMARK    5  A    between atoms: C3_8  and  O1_9 
REMARK    6  A    between atoms: C3_8  and  O2_11 
REMARK    7  A    between atoms: C5_17  and  S1_18 
REMARK    8  A    between atoms: S1_18  and  C6_19 
REMARK    9  A    between atoms: C7_20  and  O3_21 
REMARK   10  A    between atoms: C8_23  and  N6_24 
REMARK   11  A    between atoms: C10_30  and  C11_31 
REMARK   12  A    between atoms: C11_31  and  O4_32 
REMARK   13  A    between atoms: N9_34  and  C12_35 
REMARK   14  A    between atoms: C13_39  and  O5_40 
REMARK   15  A    between atoms: C14_42  and  O6_43 
REMARK   16  A    between atoms: C15_45  and  O7_46 
ROOT
HETATM    1  C6  UNL     1      22.362   5.956   9.652  1.00  0.00     0.182 C 
HETATM    2  C7  UNL     1      23.616   6.684  10.038  1.00  0.00     0.195 C 
HETATM    3  C8  UNL     1      24.266   5.801   8.993  1.00  0.00     0.239 C 
HETATM    4  N9  UNL     1      23.068   5.302   8.635  1.00  0.00    -0.343 N 
ENDROOT
BRANCH   1   5
HETATM    5  S1  UNL     1      21.752   5.079  11.097  1.00  0.00    -0.091 SA
BRANCH   5   6
HETATM    6  C5  UNL     1      22.631   3.560  11.412  1.00  0.00     0.299 C 
HETATM    7  N5  UNL     1      23.179   3.500  12.761  1.00  0.00    -0.087 NA
HETATM    8  N4  UNL     1      24.417   4.118  12.865  1.00  0.00    -0.034 NA
HETATM    9  N3  UNL     1      25.361   3.503  12.033  1.00  0.00    -0.090 NA
HETATM   10  C4  UNL     1      24.630   2.542  11.211  1.00  0.00     0.301 C 
HETATM   11  O8  UNL     1      23.645   3.250  10.527  1.00  0.00    -0.330 OA
BRANCH  10  12
HETATM   12  C1  UNL     1      25.546   1.841  10.275  1.00  0.00     0.118 C 
HETATM   13  N1  UNL     1      25.062   1.306   9.215  1.00  0.00    -0.386 N 
ATOM     14  H12 UNL     1      25.691   0.825   8.573  1.00  0.00     0.157 HD
ATOM     15  H11 UNL     1      24.063   1.369   9.019  1.00  0.00     0.157 HD
BRANCH  12  16
HETATM   16  N2  UNL     1      26.923   1.754  10.545  1.00  0.00    -0.372 N 
ATOM     17  H2  UNL     1      27.194   1.572  11.511  1.00  0.00     0.161 HD
BRANCH  16  18
HETATM   18  C2  UNL     1      27.987   1.899   9.582  1.00  0.00     0.181 C 
BRANCH  18  19
HETATM   19  C3  UNL     1      28.166   3.327   9.185  1.00  0.00     0.271 C 
BRANCH  19  20
HETATM   20  O1  UNL     1      28.134   4.095  10.376  1.00  0.00    -0.370 OA
ATOM     21  H1  UNL     1      28.681   4.858  10.229  1.00  0.00     0.212 HD
ENDBRANCH  19  20
BRANCH  19  22
HETATM   22  O2  UNL     1      27.155   3.746   8.321  1.00  0.00    -0.370 OA
ATOM     23  H2  UNL     1      27.411   3.646   7.412  1.00  0.00     0.212 HD
ENDBRANCH  19  22
ENDBRANCH  18  19
ENDBRANCH  16  18
ENDBRANCH  12  16
ENDBRANCH  10  12
ENDBRANCH   5   6
ENDBRANCH   1   5
BRANCH   2  24
HETATM   24  O3  UNL     1      24.141   6.424  11.304  1.00  0.00    -0.389 OA
ATOM     25  H3  UNL     1      23.670   6.776  12.051  1.00  0.00     0.210 HD
ENDBRANCH   2  24
BRANCH   4  26
HETATM   26  C12 UNL     1      22.787   4.028   8.159  1.00  0.00     0.319 C 
HETATM   27  N10 UNL     1      21.419   3.711   7.783  1.00  0.00    -0.023 N 
HETATM   28  C13 UNL     1      21.613   2.271   7.484  1.00  0.00     0.352 C 
ATOM     29 2H10 UNL     1      20.693   3.943   8.461  1.00  0.00     0.282 HD
ATOM     30 1H10 UNL     1      21.005   4.279   7.044  1.00  0.00     0.282 HD
HETATM   31  C14 UNL     1      22.714   2.392   6.451  1.00  0.00     0.207 C 
HETATM   32  C15 UNL     1      23.451   3.693   6.820  1.00  0.00     0.201 C 
BRANCH  28  33
HETATM   33  O5  UNL     1      21.942   1.534   8.586  1.00  0.00    -0.368 OA
ATOM     34  H5  UNL     1      22.356   0.706   8.371  1.00  0.00     0.212 HD
ENDBRANCH  28  33
BRANCH  31  35
HETATM   35  O6  UNL     1      23.571   1.306   6.471  1.00  0.00    -0.388 OA
ATOM     36  H6  UNL     1      23.106   0.485   6.583  1.00  0.00     0.210 HD
ENDBRANCH  31  35
BRANCH  32  37
HETATM   37  O7  UNL     1      24.769   3.390   6.887  1.00  0.00    -0.389 OA
ATOM     38  H7  UNL     1      25.361   4.127   6.784  1.00  0.00     0.210 HD
ENDBRANCH  32  37
ENDBRANCH   4  26
BRANCH   3  39
HETATM   39  N6  UNL     1      25.092   6.650   8.189  1.00  0.00    -0.252 N 
HETATM   40  N7  UNL     1      26.412   6.727   8.438  1.00  0.00    -0.239 N 
HETATM   41  N8  UNL     1      26.985   7.543   7.607  1.00  0.00    -0.295 N 
ATOM     42  H7  UNL     1      26.895   6.215   9.176  1.00  0.00     0.208 HD
HETATM   43  C9  UNL     1      26.070   8.035   6.782  1.00  0.00     0.137 A 
ATOM     44  H8  UNL     1      27.979   7.771   7.590  1.00  0.00     0.187 HD
HETATM   45  C10 UNL     1      24.868   7.451   7.172  1.00  0.00     0.072 A 
BRANCH  45  46
HETATM   46  C11 UNL     1      23.573   7.693   6.548  1.00  0.00     0.224 C 
BRANCH  46  47
HETATM   47  O4  UNL     1      22.836   8.637   7.266  1.00  0.00    -0.395 OA
ATOM     48  H4  UNL     1      23.236   9.497   7.212  1.00  0.00     0.209 HD
ENDBRANCH  46  47
ENDBRANCH  45  46
ENDBRANCH   3  39
TORSDOF 16
ENDMDL
MODEL 4
REMARK VINA RESULT: -6.216577420      2.525      7.397
REMARK  16 active torsions:
REMARK  status: ('A' for Active; 'I' for Inactive)
REMARK    1  A    between atoms: C1_4  and  N2_5 
REMARK    2  A    between atoms: C1_4  and  C4_13 
REMARK    3  A    between atoms: N2_5  and  C2_7 
REMARK    4  A    between atoms: C2_7  and  C3_8 
REMARK    5  A    between atoms: C3_8  and  O1_9 
REMARK    6  A    between atoms: C3_8  and  O2_11 
REMARK    7  A    between atoms: C5_17  and  S1_18 
REMARK    8  A    between atoms: S1_18  and  C6_19 
REMARK    9  A    between atoms: C7_20  and  O3_21 
REMARK   10  A    between atoms: C8_23  and  N6_24 
REMARK   11  A    between atoms: C10_30  and  C11_31 
REMARK   12  A    between atoms: C11_31  and  O4_32 
REMARK   13  A    between atoms: N9_34  and  C12_35 
REMARK   14  A    between atoms: C13_39  and  O5_40 
REMARK   15  A    between atoms: C14_42  and  O6_43 
REMARK   16  A    between atoms: C15_45  and  O7_46 
ROOT
HETATM    1  C6  UNL     1      24.258   1.140   8.359  1.00  0.00     0.182 C 
HETATM    2  C7  UNL     1      23.503  -0.149   8.214  1.00  0.00     0.195 C 
HETATM    3  C8  UNL     1      22.773   0.318   9.456  1.00  0.00     0.239 C 
HETATM    4  N9  UNL     1      23.419   1.499   9.422  1.00  0.00    -0.343 N 
ENDROOT
BRANCH   1   5
HETATM    5  S1  UNL     1      25.993   0.750   8.612  1.00  0.00    -0.091 SA
BRANCH   5   6
HETATM    6  C5  UNL     1      27.080   2.100   8.193  1.00  0.00     0.299 C 
HETATM    7  N5  UNL     1      28.278   2.132   9.020  1.00  0.00    -0.087 NA
HETATM    8  N4  UNL     1      28.082   2.798  10.221  1.00  0.00    -0.034 NA
HETATM    9  N3  UNL     1      27.721   4.134  10.007  1.00  0.00    -0.090 NA
HETATM   10  C4  UNL     1      27.499   4.280   8.571  1.00  0.00     0.301 C 
HETATM   11  O8  UNL     1      26.516   3.361   8.211  1.00  0.00    -0.330 OA
BRANCH  10  12
HETATM   12  C1  UNL     1      27.092   5.669   8.238  1.00  0.00     0.118 C 
HETATM   13  N1  UNL     1      27.197   6.074   7.026  1.00  0.00    -0.386 N 
ATOM     14  H12 UNL     1      26.918   7.028   6.797  1.00  0.00     0.157 HD
ATOM     15  H11 UNL     1      27.549   5.446   6.304  1.00  0.00     0.157 HD
BRANCH  12  16
HETATM   16  N2  UNL     1      26.607   6.536   9.233  1.00  0.00    -0.372 N 
ATOM     17  H2  UNL     1      27.260   6.808   9.968  1.00  0.00     0.161 HD
BRANCH  16  18
HETATM   18  C2  UNL     1      25.271   7.076   9.311  1.00  0.00     0.181 C 
BRANCH  18  19
HETATM   19  C3  UNL     1      24.869   7.319  10.729  1.00  0.00     0.271 C 
BRANCH  19  20
HETATM   20  O1  UNL     1      23.456   7.428  10.745  1.00  0.00    -0.370 OA
ATOM     21  H1  UNL     1      23.193   7.503  11.655  1.00  0.00     0.212 HD
ENDBRANCH  19  20
BRANCH  19  22
HETATM   22  O2  UNL     1      25.442   8.486  11.229  1.00  0.00    -0.370 OA
ATOM     23  H2  UNL     1      26.391   8.433  11.236  1.00  0.00     0.212 HD
ENDBRANCH  19  22
ENDBRANCH  18  19
ENDBRANCH  16  18
ENDBRANCH  12  16
ENDBRANCH  10  12
ENDBRANCH   5   6
ENDBRANCH   1   5
BRANCH   2  24
HETATM   24  O3  UNL     1      24.202  -1.330   8.461  1.00  0.00    -0.389 OA
ATOM     25  H3  UNL     1      24.247  -1.965   7.756  1.00  0.00     0.210 HD
ENDBRANCH   2  24
BRANCH   4  26
HETATM   26  C12 UNL     1      23.788   2.298  10.496  1.00  0.00     0.319 C 
HETATM   27  N10 UNL     1      24.445   3.565  10.229  1.00  0.00    -0.023 N 
HETATM   28  C13 UNL     1      24.735   3.951  11.631  1.00  0.00     0.352 C 
ATOM     29 2H10 UNL     1      25.239   3.543   9.588  1.00  0.00     0.282 HD
ATOM     30 1H10 UNL     1      23.926   4.240   9.667  1.00  0.00     0.282 HD
HETATM   31  C14 UNL     1      23.328   3.887  12.187  1.00  0.00     0.207 C 
HETATM   32  C15 UNL     1      22.611   2.844  11.311  1.00  0.00     0.201 C 
BRANCH  28  33
HETATM   33  O5  UNL     1      25.630   3.119  12.242  1.00  0.00    -0.368 OA
ATOM     34  H5  UNL     1      25.684   2.264  11.832  1.00  0.00     0.212 HD
ENDBRANCH  28  33
BRANCH  31  35
HETATM   35  O6  UNL     1      23.310   3.519  13.521  1.00  0.00    -0.388 OA
ATOM     36  H6  UNL     1      22.434   3.310  13.823  1.00  0.00     0.210 HD
ENDBRANCH  31  35
BRANCH  32  37
HETATM   37  O7  UNL     1      22.029   1.958  12.153  1.00  0.00    -0.389 OA
ATOM     38  H7  UNL     1      22.510   1.781  12.953  1.00  0.00     0.210 HD
ENDBRANCH  32  37
ENDBRANCH   4  26
BRANCH   3  39
HETATM   39  N6  UNL     1      21.376   0.121   9.215  1.00  0.00    -0.252 N 
HETATM   40  N7  UNL     1      20.712  -0.838   9.885  1.00  0.00    -0.239 N 
HETATM   41  N8  UNL     1      19.463  -0.859   9.530  1.00  0.00    -0.295 N 
ATOM     42  H7  UNL     1      21.131  -1.462  10.575  1.00  0.00     0.208 HD
HETATM   43  C9  UNL     1      19.257   0.081   8.617  1.00  0.00     0.137 A 
ATOM     44  H8  UNL     1      18.754  -1.495   9.895  1.00  0.00     0.187 HD
HETATM   45  C10 UNL     1      20.492   0.695   8.431  1.00  0.00     0.072 A 
BRANCH  45  46
HETATM   46  C11 UNL     1      20.755   1.796   7.513  1.00  0.00     0.224 C 
BRANCH  46  47
HETATM   47  O4  UNL     1      20.732   3.023   8.178  1.00  0.00    -0.395 OA
ATOM     48  H4  UNL     1      21.235   2.987   8.983  1.00  0.00     0.209 HD
ENDBRANCH  46  47
ENDBRANCH  45  46
ENDBRANCH   3  39
TORSDOF 16
ENDMDL
MODEL 5
REMARK VINA RESULT: -6.101170010      2.575      6.735
REMARK  16 active torsions:
REMARK  status: ('A' for Active; 'I' for Inactive)
REMARK    1  A    between atoms: C1_4  and  N2_5 
REMARK    2  A    between atoms: C1_4  and  C4_13 
REMARK    3  A    between atoms: N2_5  and  C2_7 
REMARK    4  A    between atoms: C2_7  and  C3_8 
REMARK    5  A    between atoms: C3_8  and  O1_9 
REMARK    6  A    between atoms: C3_8  and  O2_11 
REMARK    7  A    between atoms: C5_17  and  S1_18 
REMARK    8  A    between atoms: S1_18  and  C6_19 
REMARK    9  A    between atoms: C7_20  and  O3_21 
REMARK   10  A    between atoms: C8_23  and  N6_24 
REMARK   11  A    between atoms: C10_30  and  C11_31 
REMARK   12  A    between atoms: C11_31  and  O4_32 
REMARK   13  A    between atoms: N9_34  and  C12_35 
REMARK   14  A    between atoms: C13_39  and  O5_40 
REMARK   15  A    between atoms: C14_42  and  O6_43 
REMARK   16  A    between atoms: C15_45  and  O7_46 
ROOT
HETATM    1  C6  UNL     1      23.978   3.266  10.349  1.00  0.00     0.182 C 
HETATM    2  C7  UNL     1      25.122   3.229  11.320  1.00  0.00     0.195 C 
HETATM    3  C8  UNL     1      24.791   1.754  11.415  1.00  0.00     0.239 C 
HETATM    4  N9  UNL     1      23.870   1.872  10.441  1.00  0.00    -0.343 N 
ENDROOT
BRANCH   1   5
HETATM    5  S1  UNL     1      22.715   4.360  11.010  1.00  0.00    -0.091 SA
BRANCH   5   6
HETATM    6  C5  UNL     1      23.005   6.075  10.617  1.00  0.00     0.299 C 
HETATM    7  N5  UNL     1      21.773   6.850  10.550  1.00  0.00    -0.087 NA
HETATM    8  N4  UNL     1      21.161   6.775   9.307  1.00  0.00    -0.034 NA
HETATM    9  N3  UNL     1      21.994   7.280   8.301  1.00  0.00    -0.090 NA
HETATM   10  C4  UNL     1      23.293   7.527   8.921  1.00  0.00     0.301 C 
HETATM   11  O8  UNL     1      23.726   6.321   9.465  1.00  0.00    -0.330 OA
BRANCH  10  12
HETATM   12  C1  UNL     1      24.262   8.054   7.926  1.00  0.00     0.118 C 
HETATM   13  N1  UNL     1      23.818   8.612   6.860  1.00  0.00    -0.386 N 
ATOM     14  H12 UNL     1      24.484   8.973   6.177  1.00  0.00     0.157 HD
ATOM     15  H11 UNL     1      22.814   8.696   6.706  1.00  0.00     0.157 HD
BRANCH  12  16
HETATM   16  N2  UNL     1      25.647   7.936   8.137  1.00  0.00    -0.372 N 
ATOM     17  H2  UNL     1      26.053   8.513   8.874  1.00  0.00     0.161 HD
BRANCH  16  18
HETATM   18  C2  UNL     1      26.548   7.077   7.408  1.00  0.00     0.181 C 
BRANCH  18  19
HETATM   19  C3  UNL     1      26.805   5.808   8.153  1.00  0.00     0.271 C 
BRANCH  19  20
HETATM   20  O1  UNL     1      25.777   4.901   7.792  1.00  0.00    -0.370 OA
ATOM     21  H1  UNL     1      26.042   4.043   8.103  1.00  0.00     0.212 HD
ENDBRANCH  19  20
BRANCH  19  22
HETATM   22  O2  UNL     1      26.795   6.014   9.531  1.00  0.00    -0.370 OA
ATOM     23  H2  UNL     1      26.265   6.767   9.766  1.00  0.00     0.212 HD
ENDBRANCH  19  22
ENDBRANCH  18  19
ENDBRANCH  16  18
ENDBRANCH  12  16
ENDBRANCH  10  12
ENDBRANCH   5   6
ENDBRANCH   1   5
BRANCH   2  24
HETATM   24  O3  UNL     1      24.936   3.860  12.550  1.00  0.00    -0.389 OA
ATOM     25  H3  UNL     1      25.396   3.498  13.299  1.00  0.00     0.210 HD
ENDBRANCH   2  24
BRANCH   4  26
HETATM   26  C12 UNL     1      22.692   1.151  10.293  1.00  0.00     0.319 C 
HETATM   27  N10 UNL     1      22.663   0.052   9.343  1.00  0.00    -0.023 N 
HETATM   28  C13 UNL     1      21.223  -0.286   9.459  1.00  0.00     0.352 C 
ATOM     29 2H10 UNL     1      23.012   0.249   8.405  1.00  0.00     0.282 HD
ATOM     30 1H10 UNL     1      23.324  -0.707   9.503  1.00  0.00     0.282 HD
HETATM   31  C14 UNL     1      21.158  -0.524  10.953  1.00  0.00     0.207 C 
HETATM   32  C15 UNL     1      22.275   0.360  11.537  1.00  0.00     0.201 C 
BRANCH  28  33
HETATM   33  O5  UNL     1      20.401   0.704   9.001  1.00  0.00    -0.368 OA
ATOM     34  H5  UNL     1      19.485   0.553   9.205  1.00  0.00     0.212 HD
ENDBRANCH  28  33
BRANCH  31  35
HETATM   35  O6  UNL     1      19.924  -0.189  11.482  1.00  0.00    -0.388 OA
ATOM     36  H6  UNL     1      19.990   0.120  12.378  1.00  0.00     0.210 HD
ENDBRANCH  31  35
BRANCH  32  37
HETATM   37  O7  UNL     1      21.717   1.093  12.529  1.00  0.00    -0.389 OA
ATOM     38  H7  UNL     1      22.034   1.986  12.602  1.00  0.00     0.210 HD
ENDBRANCH  32  37
ENDBRANCH   4  26
BRANCH   3  39
HETATM   39  N6  UNL     1      26.030   1.044  11.313  1.00  0.00    -0.252 N 
HETATM   40  N7  UNL     1      26.229  -0.062  12.053  1.00  0.00    -0.239 N 
HETATM   41  N8  UNL     1      27.406  -0.559  11.820  1.00  0.00    -0.295 N 
ATOM     42  H7  UNL     1      25.551  -0.454  12.706  1.00  0.00     0.208 HD
HETATM   43  C9  UNL     1      28.025   0.195  10.922  1.00  0.00     0.137 A 
ATOM     44  H8  UNL     1      27.792  -1.396  12.257  1.00  0.00     0.187 HD
HETATM   45  C10 UNL     1      27.128   1.213  10.611  1.00  0.00     0.072 A 
BRANCH  45  46
HETATM   46  C11 UNL     1      27.374   2.291   9.661  1.00  0.00     0.224 C 
BRANCH  46  47
HETATM   47  O4  UNL     1      28.255   3.237  10.189  1.00  0.00    -0.395 OA
ATOM     48  H4  UNL     1      27.786   3.989  10.531  1.00  0.00     0.209 HD
ENDBRANCH  46  47
ENDBRANCH  45  46
ENDBRANCH   3  39
TORSDOF 16
ENDMDL
