MODEL 1
REMARK VINA RESULT: -5.392826212      0.000      0.000
REMARK  20 active torsions:
REMARK  status: ('A' for Active; 'I' for Inactive)
REMARK    1  A    between atoms: O1_2  and  C2_3 
REMARK       I    between atoms: C2_3  and  N1_5 
REMARK    2  A    between atoms: N1_5  and  C3_7 
REMARK    3  A    between atoms: C5_9  and  N2_10 
REMARK    4  A    between atoms: N2_10  and  C6_12 
REMARK    5  A    between atoms: C7_14  and  C8_15 
REMARK    6  A    between atoms: C8_15  and  O4_16 
REMARK    7  A    between atoms: C9_18  and  O5_19 
REMARK    8  A    between atoms: C10_21  and  O6_22 
REMARK    9  A    between atoms: C11_24  and  N3_25 
REMARK   10  A    between atoms: N3_25  and  C12_27 
REMARK   11  A    between atoms: C12_27  and  N4_28 
REMARK   12  A    between atoms: C12_27  and  O7_32 
REMARK   13  A    between atoms: O7_32  and  N5_33 
REMARK   14  A    between atoms: C13_36  and  C14_37 
REMARK   15  A    between atoms: C14_37  and  N7_42 
REMARK   16  A    between atoms: N6_38  and  O8_40 
REMARK   17  A    between atoms: N7_42  and  C15_44 
REMARK   18  A    between atoms: C15_44  and  N8_45 
REMARK   19  A    between atoms: C15_44  and  O9_49 
REMARK   20  A    between atoms: C16_53  and  O10_54 
ROOT
HETATM    1  C3  UNL     1      22.438   5.783   8.707  1.00  0.00     0.090 A 
HETATM    2  C4  UNL     1      23.324   4.752   8.546  1.00  0.00     0.065 A 
HETATM    3  C5  UNL     1      23.354   3.629   9.401  1.00  0.00     0.063 A 
HETATM    4  C13 UNL     1      22.446   3.607  10.417  1.00  0.00     0.107 A 
HETATM    5  N9  UNL     1      21.570   4.641  10.563  1.00  0.00    -0.330 N 
ATOM      6  H9  UNL     1      20.902   4.594  11.333  1.00  0.00     0.168 HD
HETATM    7  C16 UNL     1      21.528   5.702   9.772  1.00  0.00     0.168 A 
ENDROOT
BRANCH   3   8
HETATM    8  N2  UNL     1      24.334   2.635   9.179  1.00  0.00    -0.360 N 
ATOM      9  H2  UNL     1      24.234   1.735   9.647  1.00  0.00     0.162 HD
BRANCH   8  10
HETATM   10  C6  UNL     1      25.496   2.853   8.295  1.00  0.00     0.246 C 
HETATM   11  O3  UNL     1      26.075   1.659   7.896  1.00  0.00    -0.355 OA
HETATM   12  C7  UNL     1      26.695   1.000   8.929  1.00  0.00     0.179 C 
HETATM   13  C9  UNL     1      27.919   1.844   9.293  1.00  0.00     0.180 C 
HETATM   14  C10 UNL     1      27.384   3.135   9.866  1.00  0.00     0.176 C 
HETATM   15  C11 UNL     1      26.464   3.814   8.897  1.00  0.00     0.160 C 
BRANCH  12  16
HETATM   16  C8  UNL     1      27.086  -0.390   8.555  1.00  0.00     0.198 C 
BRANCH  16  17
HETATM   17  O4  UNL     1      28.111  -0.829   9.352  1.00  0.00    -0.398 OA
ATOM     18  H4  UNL     1      28.949  -0.654   8.940  1.00  0.00     0.209 HD
ENDBRANCH  16  17
ENDBRANCH  12  16
BRANCH  13  19
HETATM   19  O5  UNL     1      28.691   2.004   8.164  1.00  0.00    -0.390 OA
ATOM     20  H5  UNL     1      29.376   2.633   8.355  1.00  0.00     0.210 HD
ENDBRANCH  13  19
BRANCH  14  21
HETATM   21  O6  UNL     1      28.393   3.967  10.321  1.00  0.00    -0.391 OA
ATOM     22  H6  UNL     1      28.436   3.998  11.270  1.00  0.00     0.210 HD
ENDBRANCH  14  21
BRANCH  15  23
HETATM   23  N3  UNL     1      27.130   4.662   7.964  1.00  0.00    -0.362 N 
ATOM     24  H3  UNL     1      27.878   4.314   7.364  1.00  0.00     0.158 HD
BRANCH  23  25
HETATM   25  C12 UNL     1      26.701   6.016   7.912  1.00  0.00     0.446 C 
BRANCH  25  26
HETATM   26  N4  UNL     1      26.998   6.676   9.181  1.00  0.00    -0.033 N 
ATOM     27  H43 UNL     1      26.539   6.218   9.970  1.00  0.00     0.279 HD
ATOM     28  H42 UNL     1      27.966   6.533   9.472  1.00  0.00     0.279 HD
ATOM     29  H41 UNL     1      26.758   7.665   9.118  1.00  0.00     0.279 HD
ENDBRANCH  25  26
BRANCH  25  30
HETATM   30  O7  UNL     1      27.376   6.765   6.945  1.00  0.00    -0.232 OA
BRANCH  30  31
HETATM   31  N5  UNL     1      27.064   8.065   6.973  1.00  0.00    -0.307 N 
ATOM     32  H52 UNL     1      26.402   8.457   7.644  1.00  0.00     0.184 HD
ATOM     33  H51 UNL     1      27.552   8.611   6.263  1.00  0.00     0.184 HD
ENDBRANCH  30  31
ENDBRANCH  25  30
ENDBRANCH  23  25
ENDBRANCH  15  23
ENDBRANCH   8  10
ENDBRANCH   3   8
BRANCH   4  34
HETATM   34  C14 UNL     1      22.380   2.470  11.327  1.00  0.00     0.153 C 
HETATM   35  N6  UNL     1      23.061   2.424  12.398  1.00  0.00    -0.251 N 
ATOM     36  H6  UNL     1      23.671   3.209  12.626  1.00  0.00     0.196 HD
BRANCH  35  37
HETATM   37  O8  UNL     1      23.007   1.360  13.261  1.00  0.00    -0.288 OA
ATOM     38  H8  UNL     1      23.186   1.446  14.189  1.00  0.00     0.244 HD
ENDBRANCH  35  37
BRANCH  34  39
HETATM   39  N7  UNL     1      21.509   1.375  10.979  1.00  0.00    -0.325 N 
ATOM     40  H7  UNL     1      20.506   1.412  11.164  1.00  0.00     0.165 HD
BRANCH  39  41
HETATM   41  C15 UNL     1      22.118   0.221  10.358  1.00  0.00     0.425 C 
BRANCH  41  42
HETATM   42  N8  UNL     1      21.830   0.215   8.948  1.00  0.00    -0.035 N 
ATOM     43  H83 UNL     1      21.006   0.773   8.723  1.00  0.00     0.279 HD
ATOM     44  H82 UNL     1      22.518   0.745   8.414  1.00  0.00     0.279 HD
ATOM     45  H81 UNL     1      21.744  -0.746   8.616  1.00  0.00     0.279 HD
ENDBRANCH  41  42
BRANCH  41  46
HETATM   46  O9  UNL     1      23.503   0.230  10.530  1.00  0.00    -0.355 OA
ATOM     47  H9  UNL     1      23.894  -0.571  10.199  1.00  0.00     0.213 HD
ENDBRANCH  41  46
ENDBRANCH  39  41
ENDBRANCH  34  39
ENDBRANCH   4  34
BRANCH   1  48
HETATM   48  N1  UNL     1      22.385   6.917   7.873  1.00  0.00    -0.299 N 
HETATM   49  C2  UNL     1      23.275   7.975   7.878  1.00  0.00     0.364 C 
HETATM   50  O2  UNL     1      24.258   8.102   8.607  1.00  0.00    -0.238 OA
ATOM     51  H1  UNL     1      21.619   6.961   7.202  1.00  0.00     0.171 HD
BRANCH  49  52
HETATM   52  O1  UNL     1      23.059   9.037   6.961  1.00  0.00    -0.309 OA
HETATM   53  C1  UNL     1      23.758   9.057   5.745  1.00  0.00     0.215 C 
ENDBRANCH  49  52
ENDBRANCH   1  48
BRANCH   7  54
HETATM   54  O10 UNL     1      20.637   6.745   9.930  1.00  0.00    -0.344 OA
ATOM     55  H10 UNL     1      19.999   6.675  10.630  1.00  0.00     0.219 HD
ENDBRANCH   7  54
TORSDOF 20
ENDMDL
MODEL 2
REMARK VINA RESULT: -5.239268567      2.526      5.301
REMARK  20 active torsions:
REMARK  status: ('A' for Active; 'I' for Inactive)
REMARK    1  A    between atoms: O1_2  and  C2_3 
REMARK       I    between atoms: C2_3  and  N1_5 
REMARK    2  A    between atoms: N1_5  and  C3_7 
REMARK    3  A    between atoms: C5_9  and  N2_10 
REMARK    4  A    between atoms: N2_10  and  C6_12 
REMARK    5  A    between atoms: C7_14  and  C8_15 
REMARK    6  A    between atoms: C8_15  and  O4_16 
REMARK    7  A    between atoms: C9_18  and  O5_19 
REMARK    8  A    between atoms: C10_21  and  O6_22 
REMARK    9  A    between atoms: C11_24  and  N3_25 
REMARK   10  A    between atoms: N3_25  and  C12_27 
REMARK   11  A    between atoms: C12_27  and  N4_28 
REMARK   12  A    between atoms: C12_27  and  O7_32 
REMARK   13  A    between atoms: O7_32  and  N5_33 
REMARK   14  A    between atoms: C13_36  and  C14_37 
REMARK   15  A    between atoms: C14_37  and  N7_42 
REMARK   16  A    between atoms: N6_38  and  O8_40 
REMARK   17  A    between atoms: N7_42  and  C15_44 
REMARK   18  A    between atoms: C15_44  and  N8_45 
REMARK   19  A    between atoms: C15_44  and  O9_49 
REMARK   20  A    between atoms: C16_53  and  O10_54 
ROOT
HETATM    1  C3  UNL     1      26.205   7.175   6.140  1.00  0.00     0.090 A 
HETATM    2  C4  UNL     1      26.435   6.145   7.013  1.00  0.00     0.065 A 
HETATM    3  C5  UNL     1      26.006   6.172   8.358  1.00  0.00     0.063 A 
HETATM    4  C13 UNL     1      25.338   7.289   8.766  1.00  0.00     0.107 A 
HETATM    5  N9  UNL     1      25.117   8.304   7.885  1.00  0.00    -0.330 N 
ATOM      6  H9  UNL     1      24.613   9.125   8.221  1.00  0.00     0.168 HD
HETATM    7  C16 UNL     1      25.512   8.296   6.621  1.00  0.00     0.168 A 
ENDROOT
BRANCH   3   8
HETATM    8  N2  UNL     1      26.327   5.079   9.193  1.00  0.00    -0.360 N 
ATOM      9  H2  UNL     1      26.947   5.234   9.988  1.00  0.00     0.162 HD
BRANCH   8  10
HETATM   10  C6  UNL     1      25.799   3.721   8.958  1.00  0.00     0.246 C 
HETATM   11  O3  UNL     1      24.760   3.412   9.820  1.00  0.00    -0.355 OA
HETATM   12  C7  UNL     1      25.175   3.272  11.121  1.00  0.00     0.179 C 
HETATM   13  C9  UNL     1      26.015   1.993  11.160  1.00  0.00     0.180 C 
HETATM   14  C10 UNL     1      27.252   2.277  10.343  1.00  0.00     0.176 C 
HETATM   15  C11 UNL     1      26.892   2.707   8.952  1.00  0.00     0.160 C 
BRANCH  12  16
HETATM   16  C8  UNL     1      24.028   3.198  12.073  1.00  0.00     0.198 C 
BRANCH  16  17
HETATM   17  O4  UNL     1      24.125   4.189  13.014  1.00  0.00    -0.398 OA
ATOM     18  H4  UNL     1      23.566   4.922  12.782  1.00  0.00     0.209 HD
ENDBRANCH  16  17
ENDBRANCH  12  16
BRANCH  13  19
HETATM   19  O5  UNL     1      25.250   0.953  10.684  1.00  0.00    -0.390 OA
ATOM     20  H5  UNL     1      24.999   1.149   9.789  1.00  0.00     0.210 HD
ENDBRANCH  13  19
BRANCH  14  21
HETATM   21  O6  UNL     1      28.151   1.225  10.363  1.00  0.00    -0.391 OA
ATOM     22  H6  UNL     1      27.720   0.380  10.309  1.00  0.00     0.210 HD
ENDBRANCH  14  21
BRANCH  15  23
HETATM   23  N3  UNL     1      26.705   1.624   8.043  1.00  0.00    -0.362 N 
ATOM     24  H3  UNL     1      27.410   0.896   7.925  1.00  0.00     0.158 HD
BRANCH  23  25
HETATM   25  C12 UNL     1      25.487   1.609   7.311  1.00  0.00     0.446 C 
BRANCH  25  26
HETATM   26  N4  UNL     1      25.760   1.288   5.911  1.00  0.00    -0.033 N 
ATOM     27  H43 UNL     1      25.290   1.929   5.271  1.00  0.00     0.279 HD
ATOM     28  H42 UNL     1      26.723   1.498   5.649  1.00  0.00     0.279 HD
ATOM     29  H41 UNL     1      25.515   0.315   5.728  1.00  0.00     0.279 HD
ENDBRANCH  25  26
BRANCH  25  30
HETATM   30  O7  UNL     1      24.602   0.618   7.746  1.00  0.00    -0.232 OA
BRANCH  30  31
HETATM   31  N5  UNL     1      23.475   1.114   8.271  1.00  0.00    -0.307 N 
ATOM     32  H52 UNL     1      23.468   1.681   9.119  1.00  0.00     0.184 HD
ATOM     33  H51 UNL     1      22.641   0.865   7.739  1.00  0.00     0.184 HD
ENDBRANCH  30  31
ENDBRANCH  25  30
ENDBRANCH  23  25
ENDBRANCH  15  23
ENDBRANCH   8  10
ENDBRANCH   3   8
BRANCH   4  34
HETATM   34  C14 UNL     1      24.827   7.388  10.127  1.00  0.00     0.153 C 
HETATM   35  N6  UNL     1      25.217   8.294  10.928  1.00  0.00    -0.251 N 
ATOM     36  H6  UNL     1      25.909   8.970  10.606  1.00  0.00     0.196 HD
BRANCH  35  37
HETATM   37  O8  UNL     1      24.743   8.397  12.211  1.00  0.00    -0.288 OA
ATOM     38  H8  UNL     1      24.412   9.212  12.568  1.00  0.00     0.244 HD
ENDBRANCH  35  37
BRANCH  34  39
HETATM   39  N7  UNL     1      23.849   6.419  10.556  1.00  0.00    -0.325 N 
ATOM     40  H7  UNL     1      24.121   5.577  11.065  1.00  0.00     0.165 HD
BRANCH  39  41
HETATM   41  C15 UNL     1      22.468   6.692  10.233  1.00  0.00     0.425 C 
BRANCH  41  42
HETATM   42  N8  UNL     1      21.656   5.546  10.549  1.00  0.00    -0.035 N 
ATOM     43  H83 UNL     1      22.205   4.686  10.589  1.00  0.00     0.279 HD
ATOM     44  H82 UNL     1      21.334   5.560  11.517  1.00  0.00     0.279 HD
ATOM     45  H81 UNL     1      20.882   5.476   9.889  1.00  0.00     0.279 HD
ENDBRANCH  41  42
BRANCH  41  46
HETATM   46  O9  UNL     1      21.989   7.788  10.952  1.00  0.00    -0.355 OA
ATOM     47  H9  UNL     1      21.047   7.738  11.067  1.00  0.00     0.213 HD
ENDBRANCH  41  46
ENDBRANCH  39  41
ENDBRANCH  34  39
ENDBRANCH   4  34
BRANCH   1  48
HETATM   48  N1  UNL     1      26.622   7.177   4.795  1.00  0.00    -0.299 N 
HETATM   49  C2  UNL     1      27.891   7.479   4.335  1.00  0.00     0.364 C 
HETATM   50  O2  UNL     1      28.864   7.792   5.021  1.00  0.00    -0.238 OA
ATOM     51  H1  UNL     1      25.923   6.934   4.094  1.00  0.00     0.171 HD
BRANCH  49  52
HETATM   52  O1  UNL     1      28.126   7.431   2.935  1.00  0.00    -0.309 OA
HETATM   53  C1  UNL     1      27.040   7.458   2.048  1.00  0.00     0.215 C 
ENDBRANCH  49  52
ENDBRANCH   1  48
BRANCH   7  54
HETATM   54  O10 UNL     1      25.284   9.332   5.737  1.00  0.00    -0.344 OA
ATOM     55  H10 UNL     1      24.613   9.964   5.965  1.00  0.00     0.219 HD
ENDBRANCH   7  54
TORSDOF 20
ENDMDL
MODEL 3
REMARK VINA RESULT: -5.193611852      2.915      4.440
REMARK  20 active torsions:
REMARK  status: ('A' for Active; 'I' for Inactive)
REMARK    1  A    between atoms: O1_2  and  C2_3 
REMARK       I    between atoms: C2_3  and  N1_5 
REMARK    2  A    between atoms: N1_5  and  C3_7 
REMARK    3  A    between atoms: C5_9  and  N2_10 
REMARK    4  A    between atoms: N2_10  and  C6_12 
REMARK    5  A    between atoms: C7_14  and  C8_15 
REMARK    6  A    between atoms: C8_15  and  O4_16 
REMARK    7  A    between atoms: C9_18  and  O5_19 
REMARK    8  A    between atoms: C10_21  and  O6_22 
REMARK    9  A    between atoms: C11_24  and  N3_25 
REMARK   10  A    between atoms: N3_25  and  C12_27 
REMARK   11  A    between atoms: C12_27  and  N4_28 
REMARK   12  A    between atoms: C12_27  and  O7_32 
REMARK   13  A    between atoms: O7_32  and  N5_33 
REMARK   14  A    between atoms: C13_36  and  C14_37 
REMARK   15  A    between atoms: C14_37  and  N7_42 
REMARK   16  A    between atoms: N6_38  and  O8_40 
REMARK   17  A    between atoms: N7_42  and  C15_44 
REMARK   18  A    between atoms: C15_44  and  N8_45 
REMARK   19  A    between atoms: C15_44  and  O9_49 
REMARK   20  A    between atoms: C16_53  and  O10_54 
ROOT
HETATM    1  C3  UNL     1      20.881   2.840   7.589  1.00  0.00     0.090 A 
HETATM    2  C4  UNL     1      21.498   3.987   8.011  1.00  0.00     0.065 A 
HETATM    3  C5  UNL     1      22.235   4.061   9.213  1.00  0.00     0.063 A 
HETATM    4  C13 UNL     1      22.313   2.921   9.956  1.00  0.00     0.107 A 
HETATM    5  N9  UNL     1      21.694   1.787   9.522  1.00  0.00    -0.330 N 
ATOM      6  H9  UNL     1      21.772   0.951  10.101  1.00  0.00     0.168 HD
HETATM    7  C16 UNL     1      20.998   1.700   8.399  1.00  0.00     0.168 A 
ENDROOT
BRANCH   3   8
HETATM    8  N2  UNL     1      22.801   5.301   9.584  1.00  0.00    -0.360 N 
ATOM      9  H2  UNL     1      22.518   5.725  10.467  1.00  0.00     0.162 HD
BRANCH   8  10
HETATM   10  C6  UNL     1      23.787   6.006   8.741  1.00  0.00     0.246 C 
HETATM   11  O3  UNL     1      24.919   5.240   8.517  1.00  0.00    -0.355 OA
HETATM   12  C7  UNL     1      25.673   5.065   9.650  1.00  0.00     0.179 C 
HETATM   13  C9  UNL     1      26.273   6.435   9.974  1.00  0.00     0.180 C 
HETATM   14  C10 UNL     1      25.113   7.320  10.363  1.00  0.00     0.176 C 
HETATM   15  C11 UNL     1      24.082   7.367   9.274  1.00  0.00     0.160 C 
BRANCH  12  16
HETATM   16  C8  UNL     1      26.738   4.037   9.464  1.00  0.00     0.198 C 
BRANCH  16  17
HETATM   17  O4  UNL     1      27.865   4.384  10.164  1.00  0.00    -0.398 OA
ATOM     18  H4  UNL     1      28.590   4.538   9.569  1.00  0.00     0.209 HD
ENDBRANCH  16  17
ENDBRANCH  12  16
BRANCH  13  19
HETATM   19  O5  UNL     1      26.976   6.875   8.876  1.00  0.00    -0.390 OA
ATOM     20  H5  UNL     1      27.284   7.757   9.048  1.00  0.00     0.210 HD
ENDBRANCH  13  19
BRANCH  14  21
HETATM   21  O6  UNL     1      25.522   8.579  10.767  1.00  0.00    -0.391 OA
ATOM     22  H6  UNL     1      25.946   9.064  10.069  1.00  0.00     0.210 HD
ENDBRANCH  14  21
BRANCH  15  23
HETATM   23  N3  UNL     1      24.333   8.361   8.283  1.00  0.00    -0.362 N 
ATOM     24  H3  UNL     1      24.518   9.332   8.534  1.00  0.00     0.158 HD
BRANCH  23  25
HETATM   25  C12 UNL     1      24.314   7.931   6.929  1.00  0.00     0.446 C 
BRANCH  25  26
HETATM   26  N4  UNL     1      23.545   8.877   6.124  1.00  0.00    -0.033 N 
ATOM     27  H43 UNL     1      22.539   8.716   6.196  1.00  0.00     0.279 HD
ATOM     28  H42 UNL     1      23.570   9.821   6.510  1.00  0.00     0.279 HD
ATOM     29  H41 UNL     1      23.869   8.849   5.157  1.00  0.00     0.279 HD
ENDBRANCH  25  26
BRANCH  25  30
HETATM   30  O7  UNL     1      25.584   7.906   6.347  1.00  0.00    -0.232 OA
BRANCH  30  31
HETATM   31  N5  UNL     1      26.391   8.872   6.802  1.00  0.00    -0.307 N 
ATOM     32  H52 UNL     1      26.298   9.270   7.736  1.00  0.00     0.184 HD
ATOM     33  H51 UNL     1      27.095   9.160   6.123  1.00  0.00     0.184 HD
ENDBRANCH  30  31
ENDBRANCH  25  30
ENDBRANCH  23  25
ENDBRANCH  15  23
ENDBRANCH   8  10
ENDBRANCH   3   8
BRANCH   4  34
HETATM   34  C14 UNL     1      23.083   2.895  11.194  1.00  0.00     0.153 C 
HETATM   35  N6  UNL     1      22.668   3.451  12.257  1.00  0.00    -0.251 N 
ATOM     36  H6  UNL     1      21.767   3.929  12.242  1.00  0.00     0.196 HD
BRANCH  35  37
HETATM   37  O8  UNL     1      23.384   3.434  13.426  1.00  0.00    -0.288 OA
ATOM     38  H8  UNL     1      23.127   2.907  14.174  1.00  0.00     0.244 HD
ENDBRANCH  35  37
BRANCH  34  39
HETATM   39  N7  UNL     1      24.353   2.213  11.186  1.00  0.00    -0.325 N 
ATOM     40  H7  UNL     1      25.225   2.710  11.003  1.00  0.00     0.165 HD
BRANCH  39  41
HETATM   41  C15 UNL     1      24.338   0.792  11.450  1.00  0.00     0.425 C 
BRANCH  41  42
HETATM   42  N8  UNL     1      25.683   0.313  11.629  1.00  0.00    -0.035 N 
ATOM     43  H83 UNL     1      26.225   0.913  12.251  1.00  0.00     0.279 HD
ATOM     44  H82 UNL     1      25.714  -0.542  12.185  1.00  0.00     0.279 HD
ATOM     45  H81 UNL     1      26.133   0.196  10.721  1.00  0.00     0.279 HD
ENDBRANCH  41  42
BRANCH  41  46
HETATM   46  O9  UNL     1      23.604   0.502  12.601  1.00  0.00    -0.355 OA
ATOM     47  H9  UNL     1      23.341  -0.411  12.618  1.00  0.00     0.213 HD
ENDBRANCH  41  46
ENDBRANCH  39  41
ENDBRANCH  34  39
ENDBRANCH   4  34
BRANCH   1  48
HETATM   48  N1  UNL     1      20.137   2.735   6.398  1.00  0.00    -0.299 N 
HETATM   49  C2  UNL     1      18.826   3.136   6.217  1.00  0.00     0.364 C 
HETATM   50  O2  UNL     1      18.094   3.651   7.062  1.00  0.00    -0.238 OA
ATOM     51  H1  UNL     1      20.610   2.325   5.593  1.00  0.00     0.171 HD
BRANCH  49  52
HETATM   52  O1  UNL     1      18.238   2.948   4.938  1.00  0.00    -0.309 OA
HETATM   53  C1  UNL     1      17.444   3.963   4.384  1.00  0.00     0.215 C 
ENDBRANCH  49  52
ENDBRANCH   1  48
BRANCH   7  54
HETATM   54  O10 UNL     1      20.372   0.545   7.969  1.00  0.00    -0.344 OA
ATOM     55  H10 UNL     1      19.433   0.482   8.095  1.00  0.00     0.219 HD
ENDBRANCH   7  54
TORSDOF 20
ENDMDL
MODEL 4
REMARK VINA RESULT: -5.101803754      2.097      5.960
REMARK  20 active torsions:
REMARK  status: ('A' for Active; 'I' for Inactive)
REMARK    1  A    between atoms: O1_2  and  C2_3 
REMARK       I    between atoms: C2_3  and  N1_5 
REMARK    2  A    between atoms: N1_5  and  C3_7 
REMARK    3  A    between atoms: C5_9  and  N2_10 
REMARK    4  A    between atoms: N2_10  and  C6_12 
REMARK    5  A    between atoms: C7_14  and  C8_15 
REMARK    6  A    between atoms: C8_15  and  O4_16 
REMARK    7  A    between atoms: C9_18  and  O5_19 
REMARK    8  A    between atoms: C10_21  and  O6_22 
REMARK    9  A    between atoms: C11_24  and  N3_25 
REMARK   10  A    between atoms: N3_25  and  C12_27 
REMARK   11  A    between atoms: C12_27  and  N4_28 
REMARK   12  A    between atoms: C12_27  and  O7_32 
REMARK   13  A    between atoms: O7_32  and  N5_33 
REMARK   14  A    between atoms: C13_36  and  C14_37 
REMARK   15  A    between atoms: C14_37  and  N7_42 
REMARK   16  A    between atoms: N6_38  and  O8_40 
REMARK   17  A    between atoms: N7_42  and  C15_44 
REMARK   18  A    between atoms: C15_44  and  N8_45 
REMARK   19  A    between atoms: C15_44  and  O9_49 
REMARK   20  A    between atoms: C16_53  and  O10_54 
ROOT
HETATM    1  C3  UNL     1      27.006   1.093   8.491  1.00  0.00     0.090 A 
HETATM    2  C4  UNL     1      26.029   2.021   8.252  1.00  0.00     0.065 A 
HETATM    3  C5  UNL     1      25.092   2.415   9.232  1.00  0.00     0.063 A 
HETATM    4  C13 UNL     1      25.200   1.824  10.456  1.00  0.00     0.107 A 
HETATM    5  N9  UNL     1      26.180   0.903  10.678  1.00  0.00    -0.330 N 
ATOM      6  H9  UNL     1      26.234   0.481  11.605  1.00  0.00     0.168 HD
HETATM    7  C16 UNL     1      27.065   0.521   9.770  1.00  0.00     0.168 A 
ENDROOT
BRANCH   3   8
HETATM    8  N2  UNL     1      24.094   3.349   8.877  1.00  0.00    -0.360 N 
ATOM      9  H2  UNL     1      23.176   3.004   8.598  1.00  0.00     0.162 HD
BRANCH   8  10
HETATM   10  C6  UNL     1      24.330   4.807   8.897  1.00  0.00     0.246 C 
HETATM   11  O3  UNL     1      23.606   5.436   9.896  1.00  0.00    -0.355 OA
HETATM   12  C7  UNL     1      22.254   5.428   9.656  1.00  0.00     0.179 C 
HETATM   13  C9  UNL     1      22.032   6.362   8.463  1.00  0.00     0.180 C 
HETATM   14  C10 UNL     1      22.683   5.690   7.278  1.00  0.00     0.176 C 
HETATM   15  C11 UNL     1      24.131   5.407   7.547  1.00  0.00     0.160 C 
BRANCH  12  16
HETATM   16  C8  UNL     1      21.468   5.870  10.845  1.00  0.00     0.198 C 
BRANCH  16  17
HETATM   17  O4  UNL     1      21.455   4.889  11.801  1.00  0.00    -0.398 OA
ATOM     18  H4  UNL     1      21.175   4.062  11.423  1.00  0.00     0.209 HD
ENDBRANCH  16  17
ENDBRANCH  12  16
BRANCH  13  19
HETATM   19  O5  UNL     1      22.556   7.596   8.771  1.00  0.00    -0.390 OA
ATOM     20  H5  UNL     1      22.754   8.050   7.961  1.00  0.00     0.210 HD
ENDBRANCH  13  19
BRANCH  14  21
HETATM   21  O6  UNL     1      22.484   6.390   6.100  1.00  0.00    -0.391 OA
ATOM     22  H6  UNL     1      23.035   7.161   6.039  1.00  0.00     0.210 HD
ENDBRANCH  14  21
BRANCH  15  23
HETATM   23  N3  UNL     1      24.999   6.494   7.237  1.00  0.00    -0.362 N 
ATOM     24  H3  UNL     1      24.998   6.935   6.317  1.00  0.00     0.158 HD
BRANCH  23  25
HETATM   25  C12 UNL     1      25.867   6.934   8.273  1.00  0.00     0.446 C 
BRANCH  25  26
HETATM   26  N4  UNL     1      27.152   7.331   7.703  1.00  0.00    -0.033 N 
ATOM     27  H43 UNL     1      27.074   8.168   7.124  1.00  0.00     0.279 HD
ATOM     28  H42 UNL     1      27.790   7.699   8.410  1.00  0.00     0.279 HD
ATOM     29  H41 UNL     1      27.558   6.547   7.191  1.00  0.00     0.279 HD
ENDBRANCH  25  26
BRANCH  25  30
HETATM   30  O7  UNL     1      25.394   8.072   8.933  1.00  0.00    -0.232 OA
BRANCH  30  31
HETATM   31  N5  UNL     1      25.304   7.911  10.259  1.00  0.00    -0.307 N 
ATOM     32  H52 UNL     1      24.597   7.319  10.694  1.00  0.00     0.184 HD
ATOM     33  H51 UNL     1      26.008   8.438  10.775  1.00  0.00     0.184 HD
ENDBRANCH  30  31
ENDBRANCH  25  30
ENDBRANCH  23  25
ENDBRANCH  15  23
ENDBRANCH   8  10
ENDBRANCH   3   8
BRANCH   4  34
HETATM   34  C14 UNL     1      24.299   2.197  11.539  1.00  0.00     0.153 C 
HETATM   35  N6  UNL     1      24.344   3.342  12.089  1.00  0.00    -0.251 N 
ATOM     36  H6  UNL     1      25.032   4.018  11.759  1.00  0.00     0.196 HD
BRANCH  35  37
HETATM   37  O8  UNL     1      23.501   3.703  13.108  1.00  0.00    -0.288 OA
ATOM     38  H8  UNL     1      22.595   3.424  13.144  1.00  0.00     0.244 HD
ENDBRANCH  35  37
BRANCH  34  39
HETATM   39  N7  UNL     1      23.336   1.221  11.985  1.00  0.00    -0.325 N 
ATOM     40  H7  UNL     1      23.532   0.597  12.768  1.00  0.00     0.165 HD
BRANCH  39  41
HETATM   41  C15 UNL     1      22.080   1.165  11.273  1.00  0.00     0.425 C 
BRANCH  41  42
HETATM   42  N8  UNL     1      21.005   0.913  12.197  1.00  0.00    -0.035 N 
ATOM     43  H83 UNL     1      20.619  -0.026  12.090  1.00  0.00     0.279 HD
ATOM     44  H82 UNL     1      21.338   0.827  13.158  1.00  0.00     0.279 HD
ATOM     45  H81 UNL     1      20.290   1.634  12.102  1.00  0.00     0.279 HD
ENDBRANCH  41  42
BRANCH  41  46
HETATM   46  O9  UNL     1      21.823   2.364  10.608  1.00  0.00    -0.355 OA
ATOM     47  H9  UNL     1      21.901   2.258   9.667  1.00  0.00     0.213 HD
ENDBRANCH  41  46
ENDBRANCH  39  41
ENDBRANCH  34  39
ENDBRANCH   4  34
BRANCH   1  48
HETATM   48  N1  UNL     1      27.953   0.678   7.533  1.00  0.00    -0.299 N 
HETATM   49  C2  UNL     1      29.110   1.350   7.187  1.00  0.00     0.364 C 
HETATM   50  O2  UNL     1      29.507   2.416   7.656  1.00  0.00    -0.238 OA
ATOM     51  H1  UNL     1      27.766  -0.201   7.050  1.00  0.00     0.171 HD
BRANCH  49  52
HETATM   52  O1  UNL     1      29.946   0.776   6.193  1.00  0.00    -0.309 OA
HETATM   53  C1  UNL     1      31.167   1.389   5.875  1.00  0.00     0.215 C 
ENDBRANCH  49  52
ENDBRANCH   1  48
BRANCH   7  54
HETATM   54  O10 UNL     1      28.053  -0.415  10.006  1.00  0.00    -0.344 OA
ATOM     55  H10 UNL     1      28.392  -0.483  10.891  1.00  0.00     0.219 HD
ENDBRANCH   7  54
TORSDOF 20
ENDMDL
MODEL 5
REMARK VINA RESULT: -5.088774101      2.600      5.749
REMARK  20 active torsions:
REMARK  status: ('A' for Active; 'I' for Inactive)
REMARK    1  A    between atoms: O1_2  and  C2_3 
REMARK       I    between atoms: C2_3  and  N1_5 
REMARK    2  A    between atoms: N1_5  and  C3_7 
REMARK    3  A    between atoms: C5_9  and  N2_10 
REMARK    4  A    between atoms: N2_10  and  C6_12 
REMARK    5  A    between atoms: C7_14  and  C8_15 
REMARK    6  A    between atoms: C8_15  and  O4_16 
REMARK    7  A    between atoms: C9_18  and  O5_19 
REMARK    8  A    between atoms: C10_21  and  O6_22 
REMARK    9  A    between atoms: C11_24  and  N3_25 
REMARK   10  A    between atoms: N3_25  and  C12_27 
REMARK   11  A    between atoms: C12_27  and  N4_28 
REMARK   12  A    between atoms: C12_27  and  O7_32 
REMARK   13  A    between atoms: O7_32  and  N5_33 
REMARK   14  A    between atoms: C13_36  and  C14_37 
REMARK   15  A    between atoms: C14_37  and  N7_42 
REMARK   16  A    between atoms: N6_38  and  O8_40 
REMARK   17  A    between atoms: N7_42  and  C15_44 
REMARK   18  A    between atoms: C15_44  and  N8_45 
REMARK   19  A    between atoms: C15_44  and  O9_49 
REMARK   20  A    between atoms: C16_53  and  O10_54 
ROOT
HETATM    1  C3  UNL     1      26.974   6.286   6.726  1.00  0.00     0.090 A 
HETATM    2  C4  UNL     1      26.707   5.336   7.675  1.00  0.00     0.065 A 
HETATM    3  C5  UNL     1      26.038   5.630   8.883  1.00  0.00     0.063 A 
HETATM    4  C13 UNL     1      25.656   6.925   9.074  1.00  0.00     0.107 A 
HETATM    5  N9  UNL     1      25.928   7.858   8.119  1.00  0.00    -0.330 N 
ATOM      6  H9  UNL     1      25.629   8.817   8.292  1.00  0.00     0.168 HD
HETATM    7  C16 UNL     1      26.556   7.600   6.981  1.00  0.00     0.168 A 
ENDROOT
BRANCH   3   8
HETATM    8  N2  UNL     1      25.845   4.591   9.821  1.00  0.00    -0.360 N 
ATOM      9  H2  UNL     1      26.075   4.764  10.799  1.00  0.00     0.162 HD
BRANCH   8  10
HETATM   10  C6  UNL     1      25.325   3.263   9.436  1.00  0.00     0.246 C 
HETATM   11  O3  UNL     1      23.962   3.156   9.658  1.00  0.00    -0.355 OA
HETATM   12  C7  UNL     1      23.642   3.148  10.993  1.00  0.00     0.179 C 
HETATM   13  C9  UNL     1      24.162   1.817  11.543  1.00  0.00     0.180 C 
HETATM   14  C10 UNL     1      25.668   1.888  11.462  1.00  0.00     0.176 C 
HETATM   15  C11 UNL     1      26.120   2.167  10.060  1.00  0.00     0.160 C 
BRANCH  12  16
HETATM   16  C8  UNL     1      22.175   3.294  11.222  1.00  0.00     0.198 C 
BRANCH  16  17
HETATM   17  O4  UNL     1      21.905   4.480  11.851  1.00  0.00    -0.398 OA
ATOM     18  H4  UNL     1      21.185   4.927  11.422  1.00  0.00     0.209 HD
ENDBRANCH  16  17
ENDBRANCH  12  16
BRANCH  13  19
HETATM   19  O5  UNL     1      23.605   0.794  10.809  1.00  0.00    -0.390 OA
ATOM     20  H5  UNL     1      23.906  -0.032  11.168  1.00  0.00     0.210 HD
ENDBRANCH  13  19
BRANCH  14  21
HETATM   21  O6  UNL     1      26.279   0.774  12.011  1.00  0.00    -0.391 OA
ATOM     22  H6  UNL     1      26.929   0.395  11.431  1.00  0.00     0.210 HD
ENDBRANCH  14  21
BRANCH  15  23
HETATM   23  N3  UNL     1      26.267   0.998   9.257  1.00  0.00    -0.362 N 
ATOM     24  H3  UNL     1      25.459   0.479   8.913  1.00  0.00     0.158 HD
BRANCH  23  25
HETATM   25  C12 UNL     1      27.596   0.591   8.961  1.00  0.00     0.446 C 
BRANCH  25  26
HETATM   26  N4  UNL     1      28.460   1.765   8.863  1.00  0.00    -0.033 N 
ATOM     27  H43 UNL     1      28.606   2.055   7.895  1.00  0.00     0.279 HD
ATOM     28  H42 UNL     1      28.001   2.610   9.202  1.00  0.00     0.279 HD
ATOM     29  H41 UNL     1      29.339   1.585   9.347  1.00  0.00     0.279 HD
ENDBRANCH  25  26
BRANCH  25  30
HETATM   30  O7  UNL     1      28.163  -0.196   9.968  1.00  0.00    -0.232 OA
BRANCH  30  31
HETATM   31  N5  UNL     1      27.495  -1.334  10.185  1.00  0.00    -0.307 N 
ATOM     32  H52 UNL     1      26.804  -1.433  10.930  1.00  0.00     0.184 HD
ATOM     33  H51 UNL     1      27.749  -2.079   9.536  1.00  0.00     0.184 HD
ENDBRANCH  30  31
ENDBRANCH  25  30
ENDBRANCH  23  25
ENDBRANCH  15  23
ENDBRANCH   8  10
ENDBRANCH   3   8
BRANCH   4  34
HETATM   34  C14 UNL     1      24.927   7.312  10.276  1.00  0.00     0.153 C 
HETATM   35  N6  UNL     1      25.360   8.208  11.066  1.00  0.00    -0.251 N 
ATOM     36  H6  UNL     1      26.244   8.668  10.850  1.00  0.00     0.196 HD
BRANCH  35  37
HETATM   37  O8  UNL     1      24.683   8.580  12.199  1.00  0.00    -0.288 OA
ATOM     38  H8  UNL     1      24.634   9.482  12.491  1.00  0.00     0.244 HD
ENDBRANCH  35  37
BRANCH  34  39
HETATM   39  N7  UNL     1      23.680   6.645  10.556  1.00  0.00    -0.325 N 
ATOM     40  H7  UNL     1      23.580   6.014  11.351  1.00  0.00     0.165 HD
BRANCH  39  41
HETATM   41  C15 UNL     1      22.578   6.909   9.659  1.00  0.00     0.425 C 
BRANCH  41  42
HETATM   42  N8  UNL     1      22.356   5.769   8.808  1.00  0.00    -0.035 N 
ATOM     43  H83 UNL     1      22.782   4.921   9.184  1.00  0.00     0.279 HD
ATOM     44  H82 UNL     1      21.382   5.464   8.823  1.00  0.00     0.279 HD
ATOM     45  H81 UNL     1      22.679   5.973   7.863  1.00  0.00     0.279 HD
ENDBRANCH  41  42
BRANCH  41  46
HETATM   46  O9  UNL     1      21.405   7.172  10.367  1.00  0.00    -0.355 OA
ATOM     47  H9  UNL     1      20.663   6.718   9.982  1.00  0.00     0.213 HD
ENDBRANCH  41  46
ENDBRANCH  39  41
ENDBRANCH  34  39
ENDBRANCH   4  34
BRANCH   1  48
HETATM   48  N1  UNL     1      27.641   6.024   5.513  1.00  0.00    -0.299 N 
HETATM   49  C2  UNL     1      27.077   5.485   4.372  1.00  0.00     0.364 C 
HETATM   50  O2  UNL     1      25.903   5.146   4.225  1.00  0.00    -0.238 OA
ATOM     51  H1  UNL     1      28.633   6.255   5.473  1.00  0.00     0.171 HD
BRANCH  49  52
HETATM   52  O1  UNL     1      27.911   5.290   3.239  1.00  0.00    -0.309 OA
HETATM   53  C1  UNL     1      29.303   5.245   3.402  1.00  0.00     0.215 C 
ENDBRANCH  49  52
ENDBRANCH   1  48
BRANCH   7  54
HETATM   54  O10 UNL     1      26.828   8.555   6.020  1.00  0.00    -0.344 OA
ATOM     55  H10 UNL     1      26.823   9.465   6.291  1.00  0.00     0.219 HD
ENDBRANCH   7  54
TORSDOF 20
ENDMDL
