MODEL 1
REMARK VINA RESULT: -8.036878119      0.000      0.000
REMARK  5 active torsions:
REMARK  status: ('A' for Active; 'I' for Inactive)
REMARK    1  A    between atoms: C2_2  and  C5_5 
REMARK    2  A    between atoms: C5_5  and  C6_6 
REMARK    3  A    between atoms: C9_9  and  N1_10 
REMARK    4  A    between atoms: C17_19  and  C18_20 
REMARK    5  A    between atoms: C18_20  and  O1_23 
ROOT
HETATM    1  N1  UNL     1      40.529  15.167  85.122  1.00  0.00    -0.392 N 
ATOM      2  H1  UNL     1      41.067  15.483  85.929  1.00  0.00     0.159 HD
HETATM    3  C10 UNL     1      39.292  14.996  85.278  1.00  0.00    -0.017 C 
HETATM    4  C11 UNL     1      38.242  14.546  84.314  1.00  0.00     0.057 C 
HETATM    5  C12 UNL     1      37.099  15.483  84.642  1.00  0.00    -0.000 C 
HETATM    6  C13 UNL     1      37.429  16.817  84.001  1.00  0.00     0.006 C 
HETATM    7  C14 UNL     1      37.742  17.766  85.130  1.00  0.00     0.006 C 
HETATM    8  C15 UNL     1      37.080  17.192  86.362  1.00  0.00    -0.005 C 
HETATM    9  C16 UNL     1      35.602  17.544  86.402  1.00  0.00     0.013 C 
HETATM   10  C17 UNL     1      34.966  16.949  87.611  1.00  0.00     0.019 C 
HETATM   11  C21 UNL     1      35.773  15.792  88.120  1.00  0.00     0.008 C 
HETATM   12  C22 UNL     1      36.163  14.941  86.911  1.00  0.00     0.011 C 
HETATM   13  C23 UNL     1      37.199  15.705  86.122  1.00  0.00    -0.028 C 
HETATM   14  C24 UNL     1      38.567  15.223  86.558  1.00  0.00     0.062 C 
ENDROOT
BRANCH   1  15
HETATM   15  C9  UNL     1      41.239  14.952  83.893  1.00  0.00     0.081 C 
HETATM   16  C8  UNL     1      41.508  13.488  83.774  1.00  0.00     0.025 C 
HETATM   17  C7  UNL     1      42.299  13.160  82.501  1.00  0.00     0.007 C 
HETATM   18  C6  UNL     1      43.276  14.215  82.164  1.00  0.00    -0.014 C 
HETATM   19  C26 UNL     1      43.646  14.910  83.488  1.00  0.00     0.007 C 
HETATM   20  C25 UNL     1      42.505  15.776  83.965  1.00  0.00     0.025 C 
BRANCH  18  21
HETATM   21  C5  UNL     1      44.544  13.849  81.517  1.00  0.00     0.013 C 
BRANCH  21  22
HETATM   22  C2  UNL     1      44.955  14.523  80.271  1.00  0.00    -0.051 C 
HETATM   23  C1  UNL     1      43.772  15.431  79.853  1.00  0.00     0.014 C 
HETATM   24  C3  UNL     1      45.230  13.622  79.119  1.00  0.00     0.014 C 
HETATM   25  C4  UNL     1      46.085  15.504  80.532  1.00  0.00     0.014 C 
ENDBRANCH  21  22
ENDBRANCH  18  21
ENDBRANCH   1  15
BRANCH  10  26
HETATM   26  C18 UNL     1      34.683  17.940  88.709  1.00  0.00     0.054 C 
HETATM   27  C19 UNL     1      35.115  19.331  88.302  1.00  0.00     0.045 C 
HETATM   28  C20 UNL     1      35.266  17.532  90.036  1.00  0.00     0.045 C 
BRANCH  26  29
HETATM   29  O1  UNL     1      33.288  17.991  88.867  1.00  0.00    -0.390 OA
ATOM     30  H1  UNL     1      33.020  17.165  89.250  1.00  0.00     0.210 HD
ENDBRANCH  26  29
ENDBRANCH  10  26
TORSDOF 5
ENDMDL
MODEL 2
REMARK VINA RESULT: -7.966735920      1.078      1.743
REMARK  5 active torsions:
REMARK  status: ('A' for Active; 'I' for Inactive)
REMARK    1  A    between atoms: C2_2  and  C5_5 
REMARK    2  A    between atoms: C5_5  and  C6_6 
REMARK    3  A    between atoms: C9_9  and  N1_10 
REMARK    4  A    between atoms: C17_19  and  C18_20 
REMARK    5  A    between atoms: C18_20  and  O1_23 
ROOT
HETATM    1  N1  UNL     1      40.478  14.295  85.585  1.00  0.00    -0.392 N 
ATOM      2  H1  UNL     1      40.791  14.197  86.551  1.00  0.00     0.159 HD
HETATM    3  C10 UNL     1      39.258  14.534  85.389  1.00  0.00    -0.017 C 
HETATM    4  C11 UNL     1      38.495  14.727  84.119  1.00  0.00     0.057 C 
HETATM    5  C12 UNL     1      37.599  15.896  84.470  1.00  0.00    -0.000 C 
HETATM    6  C13 UNL     1      38.459  17.143  84.401  1.00  0.00     0.006 C 
HETATM    7  C14 UNL     1      38.631  17.619  85.822  1.00  0.00     0.006 C 
HETATM    8  C15 UNL     1      37.481  17.033  86.608  1.00  0.00    -0.005 C 
HETATM    9  C16 UNL     1      36.218  17.860  86.425  1.00  0.00     0.013 C 
HETATM   10  C17 UNL     1      35.092  17.250  87.189  1.00  0.00     0.019 C 
HETATM   11  C21 UNL     1      35.355  15.798  87.454  1.00  0.00     0.008 C 
HETATM   12  C22 UNL     1      35.873  15.184  86.154  1.00  0.00     0.011 C 
HETATM   13  C23 UNL     1      37.272  15.703  85.921  1.00  0.00    -0.028 C 
HETATM   14  C24 UNL     1      38.247  14.684  86.471  1.00  0.00     0.062 C 
ENDROOT
BRANCH   1  15
HETATM   15  C9  UNL     1      41.462  14.148  84.550  1.00  0.00     0.081 C 
HETATM   16  C8  UNL     1      41.596  15.464  83.859  1.00  0.00     0.025 C 
HETATM   17  C7  UNL     1      42.605  15.399  82.705  1.00  0.00     0.007 C 
HETATM   18  C6  UNL     1      42.576  14.095  82.013  1.00  0.00    -0.014 C 
HETATM   19  C26 UNL     1      41.159  13.525  82.209  1.00  0.00     0.007 C 
HETATM   20  C25 UNL     1      40.974  13.051  83.630  1.00  0.00     0.025 C 
BRANCH  18  21
HETATM   21  C5  UNL     1      42.853  14.034  80.571  1.00  0.00     0.013 C 
BRANCH  21  22
HETATM   22  C2  UNL     1      43.635  12.912  80.019  1.00  0.00    -0.051 C 
HETATM   23  C1  UNL     1      44.100  12.064  81.228  1.00  0.00     0.014 C 
HETATM   24  C3  UNL     1      44.862  13.296  79.269  1.00  0.00     0.014 C 
HETATM   25  C4  UNL     1      42.744  11.961  79.238  1.00  0.00     0.014 C 
ENDBRANCH  21  22
ENDBRANCH  18  21
ENDBRANCH   1  15
BRANCH  10  26
HETATM   26  C18 UNL     1      34.744  17.981  88.459  1.00  0.00     0.054 C 
HETATM   27  C19 UNL     1      35.101  19.447  88.351  1.00  0.00     0.045 C 
HETATM   28  C20 UNL     1      35.337  17.344  89.688  1.00  0.00     0.045 C 
BRANCH  26  29
HETATM   29  O1  UNL     1      33.347  17.925  88.596  1.00  0.00    -0.390 OA
ATOM     30  H1  UNL     1      33.105  18.572  89.247  1.00  0.00     0.210 HD
ENDBRANCH  26  29
ENDBRANCH  10  26
TORSDOF 5
ENDMDL
MODEL 3
REMARK VINA RESULT: -7.414133639      3.313      9.661
REMARK  5 active torsions:
REMARK  status: ('A' for Active; 'I' for Inactive)
REMARK    1  A    between atoms: C2_2  and  C5_5 
REMARK    2  A    between atoms: C5_5  and  C6_6 
REMARK    3  A    between atoms: C9_9  and  N1_10 
REMARK    4  A    between atoms: C17_19  and  C18_20 
REMARK    5  A    between atoms: C18_20  and  O1_23 
ROOT
HETATM    1  N1  UNL     1      38.772  14.717  84.188  1.00  0.00    -0.392 N 
ATOM      2  H1  UNL     1      38.281  14.906  83.314  1.00  0.00     0.159 HD
HETATM    3  C10 UNL     1      39.842  14.058  84.124  1.00  0.00    -0.017 C 
HETATM    4  C11 UNL     1      40.781  13.619  85.201  1.00  0.00     0.057 C 
HETATM    5  C12 UNL     1      42.128  13.889  84.564  1.00  0.00    -0.000 C 
HETATM    6  C13 UNL     1      42.367  15.383  84.661  1.00  0.00     0.006 C 
HETATM    7  C14 UNL     1      42.265  15.921  83.256  1.00  0.00     0.006 C 
HETATM    8  C15 UNL     1      42.526  14.752  82.334  1.00  0.00    -0.005 C 
HETATM    9  C16 UNL     1      44.017  14.495  82.187  1.00  0.00     0.013 C 
HETATM   10  C17 UNL     1      44.249  13.325  81.294  1.00  0.00     0.019 C 
HETATM   11  C21 UNL     1      43.033  12.449  81.239  1.00  0.00     0.008 C 
HETATM   12  C22 UNL     1      42.526  12.283  82.672  1.00  0.00     0.011 C 
HETATM   13  C23 UNL     1      41.928  13.600  83.106  1.00  0.00    -0.028 C 
HETATM   14  C24 UNL     1      40.434  13.538  82.862  1.00  0.00     0.062 C 
ENDROOT
BRANCH   1  15
HETATM   15  C9  UNL     1      38.191  15.223  85.400  1.00  0.00     0.081 C 
HETATM   16  C8  UNL     1      36.762  15.549  85.118  1.00  0.00     0.025 C 
HETATM   17  C7  UNL     1      36.060  16.134  86.351  1.00  0.00     0.007 C 
HETATM   18  C6  UNL     1      36.963  16.980  87.157  1.00  0.00    -0.014 C 
HETATM   19  C26 UNL     1      38.031  17.527  86.191  1.00  0.00     0.007 C 
HETATM   20  C25 UNL     1      39.000  16.436  85.803  1.00  0.00     0.025 C 
BRANCH  18  21
HETATM   21  C5  UNL     1      36.419  18.141  87.875  1.00  0.00     0.013 C 
BRANCH  21  22
HETATM   22  C2  UNL     1      34.959  18.309  88.000  1.00  0.00    -0.051 C 
HETATM   23  C1  UNL     1      34.669  18.522  89.507  1.00  0.00     0.014 C 
HETATM   24  C3  UNL     1      34.142  17.143  87.569  1.00  0.00     0.014 C 
HETATM   25  C4  UNL     1      34.506  19.611  87.362  1.00  0.00     0.014 C 
ENDBRANCH  21  22
ENDBRANCH  18  21
ENDBRANCH   1  15
BRANCH  10  26
HETATM   26  C18 UNL     1      44.720  13.690  79.911  1.00  0.00     0.054 C 
HETATM   27  C19 UNL     1      45.503  14.984  79.934  1.00  0.00     0.045 C 
HETATM   28  C20 UNL     1      43.606  13.722  78.898  1.00  0.00     0.045 C 
BRANCH  26  29
HETATM   29  O1  UNL     1      45.621  12.691  79.506  1.00  0.00    -0.390 OA
ATOM     30  H1  UNL     1      45.212  12.222  78.788  1.00  0.00     0.210 HD
ENDBRANCH  26  29
ENDBRANCH  10  26
TORSDOF 5
ENDMDL
MODEL 4
REMARK VINA RESULT: -7.318795919      3.256      9.535
REMARK  5 active torsions:
REMARK  status: ('A' for Active; 'I' for Inactive)
REMARK    1  A    between atoms: C2_2  and  C5_5 
REMARK    2  A    between atoms: C5_5  and  C6_6 
REMARK    3  A    between atoms: C9_9  and  N1_10 
REMARK    4  A    between atoms: C17_19  and  C18_20 
REMARK    5  A    between atoms: C18_20  and  O1_23 
ROOT
HETATM    1  N1  UNL     1      38.511  14.812  83.438  1.00  0.00    -0.392 N 
ATOM      2  H1  UNL     1      38.254  14.738  82.454  1.00  0.00     0.159 HD
HETATM    3  C10 UNL     1      39.620  14.331  83.788  1.00  0.00    -0.017 C 
HETATM    4  C11 UNL     1      40.280  14.277  85.129  1.00  0.00     0.057 C 
HETATM    5  C12 UNL     1      41.713  14.621  84.782  1.00  0.00    -0.000 C 
HETATM    6  C13 UNL     1      41.765  16.122  84.573  1.00  0.00     0.006 C 
HETATM    7  C14 UNL     1      41.986  16.337  83.098  1.00  0.00     0.006 C 
HETATM    8  C15 UNL     1      42.600  15.060  82.570  1.00  0.00    -0.005 C 
HETATM    9  C16 UNL     1      44.094  15.018  82.845  1.00  0.00     0.013 C 
HETATM   10  C17 UNL     1      44.672  13.741  82.337  1.00  0.00     0.019 C 
HETATM   11  C21 UNL     1      43.609  12.692  82.207  1.00  0.00     0.008 C 
HETATM   12  C22 UNL     1      42.759  12.745  83.477  1.00  0.00     0.011 C 
HETATM   13  C23 UNL     1      41.937  14.011  83.431  1.00  0.00    -0.028 C 
HETATM   14  C24 UNL     1      40.577  13.665  82.863  1.00  0.00     0.062 C 
ENDROOT
BRANCH   1  15
HETATM   15  C9  UNL     1      37.581  15.457  84.322  1.00  0.00     0.081 C 
HETATM   16  C8  UNL     1      38.122  16.810  84.643  1.00  0.00     0.025 C 
HETATM   17  C7  UNL     1      37.209  17.568  85.616  1.00  0.00     0.007 C 
HETATM   18  C6  UNL     1      36.577  16.670  86.603  1.00  0.00    -0.014 C 
HETATM   19  C26 UNL     1      37.519  15.461  86.762  1.00  0.00     0.007 C 
HETATM   20  C25 UNL     1      37.449  14.574  85.542  1.00  0.00     0.025 C 
BRANCH  18  21
HETATM   21  C5  UNL     1      36.300  17.163  87.959  1.00  0.00     0.013 C 
BRANCH  21  22
HETATM   22  C2  UNL     1      35.036  17.867  88.241  1.00  0.00    -0.051 C 
HETATM   23  C1  UNL     1      33.908  17.017  87.605  1.00  0.00     0.014 C 
HETATM   24  C3  UNL     1      34.922  19.233  87.659  1.00  0.00     0.014 C 
HETATM   25  C4  UNL     1      34.714  17.833  89.725  1.00  0.00     0.014 C 
ENDBRANCH  21  22
ENDBRANCH  18  21
ENDBRANCH   1  15
BRANCH  10  26
HETATM   26  C18 UNL     1      45.454  13.885  81.059  1.00  0.00     0.054 C 
HETATM   27  C19 UNL     1      45.830  15.331  80.818  1.00  0.00     0.045 C 
HETATM   28  C20 UNL     1      44.758  13.277  79.870  1.00  0.00     0.045 C 
BRANCH  26  29
HETATM   29  O1  UNL     1      46.662  13.188  81.234  1.00  0.00    -0.390 OA
ATOM     30  H1  UNL     1      47.115  13.203  80.400  1.00  0.00     0.210 HD
ENDBRANCH  26  29
ENDBRANCH  10  26
TORSDOF 5
ENDMDL
MODEL 5
REMARK VINA RESULT: -6.963479194      3.330      9.816
REMARK  5 active torsions:
REMARK  status: ('A' for Active; 'I' for Inactive)
REMARK    1  A    between atoms: C2_2  and  C5_5 
REMARK    2  A    between atoms: C5_5  and  C6_6 
REMARK    3  A    between atoms: C9_9  and  N1_10 
REMARK    4  A    between atoms: C17_19  and  C18_20 
REMARK    5  A    between atoms: C18_20  and  O1_23 
ROOT
HETATM    1  N1  UNL     1      39.155  15.327  84.192  1.00  0.00    -0.392 N 
ATOM      2  H1  UNL     1      38.630  15.459  83.327  1.00  0.00     0.159 HD
HETATM    3  C10 UNL     1      40.189  14.611  84.141  1.00  0.00    -0.017 C 
HETATM    4  C11 UNL     1      41.160  14.226  85.210  1.00  0.00     0.057 C 
HETATM    5  C12 UNL     1      42.485  14.370  84.491  1.00  0.00    -0.000 C 
HETATM    6  C13 UNL     1      42.796  15.853  84.436  1.00  0.00     0.006 C 
HETATM    7  C14 UNL     1      42.648  16.265  82.994  1.00  0.00     0.006 C 
HETATM    8  C15 UNL     1      42.810  15.005  82.174  1.00  0.00    -0.005 C 
HETATM    9  C16 UNL     1      44.279  14.662  81.984  1.00  0.00     0.013 C 
HETATM   10  C17 UNL     1      44.412  13.405  81.194  1.00  0.00     0.019 C 
HETATM   11  C21 UNL     1      43.157  12.590  81.277  1.00  0.00     0.008 C 
HETATM   12  C22 UNL     1      42.714  12.580  82.740  1.00  0.00     0.011 C 
HETATM   13  C23 UNL     1      42.199  13.959  83.077  1.00  0.00    -0.028 C 
HETATM   14  C24 UNL     1      40.694  13.950  82.907  1.00  0.00     0.062 C 
ENDROOT
BRANCH   1  15
HETATM   15  C9  UNL     1      38.658  15.969  85.376  1.00  0.00     0.081 C 
HETATM   16  C8  UNL     1      37.615  15.083  85.971  1.00  0.00     0.025 C 
HETATM   17  C7  UNL     1      36.995  15.704  87.229  1.00  0.00     0.007 C 
HETATM   18  C6  UNL     1      36.880  17.173  87.128  1.00  0.00    -0.014 C 
HETATM   19  C26 UNL     1      36.776  17.502  85.626  1.00  0.00     0.007 C 
HETATM   20  C25 UNL     1      38.113  17.314  84.951  1.00  0.00     0.025 C 
BRANCH  18  21
HETATM   21  C5  UNL     1      35.758  17.859  87.783  1.00  0.00     0.013 C 
BRANCH  21  22
HETATM   22  C2  UNL     1      34.704  17.072  88.450  1.00  0.00    -0.051 C 
HETATM   23  C1  UNL     1      34.225  17.914  89.658  1.00  0.00     0.014 C 
HETATM   24  C3  UNL     1      35.135  15.754  88.991  1.00  0.00     0.014 C 
HETATM   25  C4  UNL     1      33.466  16.969  87.574  1.00  0.00     0.014 C 
ENDBRANCH  21  22
ENDBRANCH  18  21
ENDBRANCH   1  15
BRANCH  10  26
HETATM   26  C18 UNL     1      44.830  13.619  79.764  1.00  0.00     0.054 C 
HETATM   27  C19 UNL     1      45.684  14.860  79.632  1.00  0.00     0.045 C 
HETATM   28  C20 UNL     1      43.668  13.629  78.806  1.00  0.00     0.045 C 
BRANCH  26  29
HETATM   29  O1  UNL     1      45.651  12.536  79.408  1.00  0.00    -0.390 OA
ATOM     30  H1  UNL     1      45.671  12.501  78.459  1.00  0.00     0.210 HD
ENDBRANCH  26  29
ENDBRANCH  10  26
TORSDOF 5
ENDMDL
