MODEL 1
REMARK VINA RESULT: -7.586678623      0.000      0.000
REMARK  4 active torsions:
REMARK  status: ('A' for Active; 'I' for Inactive)
REMARK    1  A    between atoms: O1_2  and  C2_3 
REMARK    2  A    between atoms: N1_5  and  C4_6 
REMARK    3  A    between atoms: C4_6  and  C5_7 
REMARK    4  A    between atoms: C5_7  and  C6_8 
ROOT
HETATM    1  C2  UNL     1      39.981  15.315  85.921  1.00  0.00     0.157 C 
HETATM    2  C3  UNL     1      40.556  14.763  84.611  1.00  0.00     0.305 C 
HETATM    3  N1  UNL     1      40.494  13.341  84.683  1.00  0.00     0.091 N 
HETATM    4  C16 UNL     1      39.196  12.932  85.218  1.00  0.00     0.273 C 
HETATM    5  C17 UNL     1      38.194  14.018  84.906  1.00  0.00     0.042 C 
HETATM    6  C18 UNL     1      38.477  15.209  85.830  1.00  0.00    -0.008 C 
HETATM    7  C19 UNL     1      37.880  16.421  85.171  1.00  0.00     0.042 C 
HETATM    8  C20 UNL     1      37.515  17.501  86.137  1.00  0.00     0.272 C 
HETATM    9  N2  UNL     1      36.742  17.083  87.260  1.00  0.00     0.084 N 
HETATM   10  C21 UNL     1      35.378  16.804  86.938  1.00  0.00     0.309 C 
HETATM   11  C22 UNL     1      37.423  16.048  87.969  1.00  0.00     0.272 C 
HETATM   12  C23 UNL     1      37.826  14.876  87.143  1.00  0.00     0.042 C 
ENDROOT
BRANCH   3  13
HETATM   13  C4  UNL     1      40.626  12.666  83.402  1.00  0.00     0.273 C 
BRANCH  13  14
HETATM   14  C5  UNL     1      42.018  12.243  83.108  1.00  0.00     0.039 C 
BRANCH  14  15
HETATM   15  C6  UNL     1      42.638  12.969  81.962  1.00  0.00    -0.038 C 
HETATM   16  C7  UNL     1      43.587  12.039  81.250  1.00  0.00     0.014 C 
HETATM   17  C8  UNL     1      44.265  12.718  80.074  1.00  0.00    -0.013 C 
HETATM   18  C9  UNL     1      43.171  13.138  79.125  1.00  0.00     0.009 C 
HETATM   19  C13 UNL     1      45.086  13.868  80.578  1.00  0.00     0.009 C 
HETATM   20  C10 UNL     1      42.316  14.153  79.831  1.00  0.00    -0.013 C 
HETATM   21  C11 UNL     1      43.158  15.324  80.285  1.00  0.00     0.009 C 
HETATM   22  C15 UNL     1      41.622  13.575  81.024  1.00  0.00     0.014 C 
HETATM   23  C12 UNL     1      44.136  14.816  81.308  1.00  0.00    -0.013 C 
HETATM   24  C14 UNL     1      43.481  14.138  82.472  1.00  0.00     0.014 C 
ENDBRANCH  14  15
ENDBRANCH  13  14
ENDBRANCH   3  13
BRANCH   1  25
HETATM   25  O1  UNL     1      40.445  16.578  86.188  1.00  0.00    -0.388 OA
HETATM   26  C1  UNL     1      41.709  16.728  85.582  1.00  0.00     0.202 C 
ENDBRANCH   1  25
TORSDOF 4
ENDMDL
MODEL 2
REMARK VINA RESULT: -7.484042226      0.111      1.473
REMARK  4 active torsions:
REMARK  status: ('A' for Active; 'I' for Inactive)
REMARK    1  A    between atoms: O1_2  and  C2_3 
REMARK    2  A    between atoms: N1_5  and  C4_6 
REMARK    3  A    between atoms: C4_6  and  C5_7 
REMARK    4  A    between atoms: C5_7  and  C6_8 
ROOT
HETATM    1  C2  UNL     1      39.931  15.367  85.937  1.00  0.00     0.157 C 
HETATM    2  C3  UNL     1      40.509  14.834  84.620  1.00  0.00     0.305 C 
HETATM    3  N1  UNL     1      40.438  13.412  84.667  1.00  0.00     0.091 N 
HETATM    4  C16 UNL     1      39.134  13.002  85.188  1.00  0.00     0.273 C 
HETATM    5  C17 UNL     1      38.141  14.100  84.890  1.00  0.00     0.042 C 
HETATM    6  C18 UNL     1      38.426  15.272  85.837  1.00  0.00    -0.008 C 
HETATM    7  C19 UNL     1      37.841  16.500  85.196  1.00  0.00     0.042 C 
HETATM    8  C20 UNL     1      37.478  17.564  86.180  1.00  0.00     0.272 C 
HETATM    9  N2  UNL     1      36.697  17.131  87.291  1.00  0.00     0.084 N 
HETATM   10  C21 UNL     1      35.332  16.867  86.957  1.00  0.00     0.309 C 
HETATM   11  C22 UNL     1      37.367  16.079  87.985  1.00  0.00     0.272 C 
HETATM   12  C23 UNL     1      37.767  14.920  87.140  1.00  0.00     0.042 C 
ENDROOT
BRANCH   3  13
HETATM   13  C4  UNL     1      40.572  12.759  83.375  1.00  0.00     0.273 C 
BRANCH  13  14
HETATM   14  C5  UNL     1      41.936  12.229  83.130  1.00  0.00     0.039 C 
BRANCH  14  15
HETATM   15  C6  UNL     1      42.662  12.921  82.026  1.00  0.00    -0.038 C 
HETATM   16  C7  UNL     1      41.655  13.492  81.060  1.00  0.00     0.014 C 
HETATM   17  C8  UNL     1      42.327  14.204  79.900  1.00  0.00    -0.013 C 
HETATM   18  C9  UNL     1      43.142  15.326  80.493  1.00  0.00     0.009 C 
HETATM   19  C13 UNL     1      43.151  13.216  79.129  1.00  0.00     0.009 C 
HETATM   20  C10 UNL     1      44.209  14.712  81.355  1.00  0.00    -0.013 C 
HETATM   21  C11 UNL     1      45.056  13.759  80.543  1.00  0.00     0.009 C 
HETATM   22  C15 UNL     1      43.635  13.966  82.518  1.00  0.00     0.014 C 
HETATM   23  C12 UNL     1      44.173  12.626  80.099  1.00  0.00    -0.013 C 
HETATM   24  C14 UNL     1      43.499  11.917  81.233  1.00  0.00     0.014 C 
ENDBRANCH  14  15
ENDBRANCH  13  14
ENDBRANCH   3  13
BRANCH   1  25
HETATM   25  O1  UNL     1      40.402  16.622  86.229  1.00  0.00    -0.388 OA
HETATM   26  C1  UNL     1      41.685  16.762  85.662  1.00  0.00     0.202 C 
ENDBRANCH   1  25
TORSDOF 4
ENDMDL
MODEL 3
REMARK VINA RESULT: -7.483290891      0.072      1.433
REMARK  4 active torsions:
REMARK  status: ('A' for Active; 'I' for Inactive)
REMARK    1  A    between atoms: O1_2  and  C2_3 
REMARK    2  A    between atoms: N1_5  and  C4_6 
REMARK    3  A    between atoms: C4_6  and  C5_7 
REMARK    4  A    between atoms: C5_7  and  C6_8 
ROOT
HETATM    1  C2  UNL     1      39.965  15.327  85.915  1.00  0.00     0.157 C 
HETATM    2  C3  UNL     1      40.547  14.785  84.603  1.00  0.00     0.305 C 
HETATM    3  N1  UNL     1      40.492  13.363  84.666  1.00  0.00     0.091 N 
HETATM    4  C16 UNL     1      39.194  12.943  85.196  1.00  0.00     0.273 C 
HETATM    5  C17 UNL     1      38.187  14.026  84.888  1.00  0.00     0.042 C 
HETATM    6  C18 UNL     1      38.462  15.213  85.820  1.00  0.00    -0.008 C 
HETATM    7  C19 UNL     1      37.860  16.426  85.166  1.00  0.00     0.042 C 
HETATM    8  C20 UNL     1      37.487  17.498  86.138  1.00  0.00     0.272 C 
HETATM    9  N2  UNL     1      36.714  17.069  87.256  1.00  0.00     0.084 N 
HETATM   10  C21 UNL     1      35.351  16.784  86.929  1.00  0.00     0.309 C 
HETATM   11  C22 UNL     1      37.398  16.033  87.961  1.00  0.00     0.272 C 
HETATM   12  C23 UNL     1      37.810  14.869  87.129  1.00  0.00     0.042 C 
ENDROOT
BRANCH   3  13
HETATM   13  C4  UNL     1      40.631  12.696  83.382  1.00  0.00     0.273 C 
BRANCH  13  14
HETATM   14  C5  UNL     1      42.011  12.219  83.121  1.00  0.00     0.039 C 
BRANCH  14  15
HETATM   15  C6  UNL     1      42.669  12.887  81.961  1.00  0.00    -0.038 C 
HETATM   16  C7  UNL     1      43.477  14.057  82.463  1.00  0.00     0.014 C 
HETATM   17  C8  UNL     1      44.168  14.793  81.328  1.00  0.00    -0.013 C 
HETATM   18  C9  UNL     1      45.088  13.799  80.663  1.00  0.00     0.009 C 
HETATM   19  C13 UNL     1      43.130  15.352  80.402  1.00  0.00     0.009 C 
HETATM   20  C10 UNL     1      44.236  12.710  80.073  1.00  0.00    -0.013 C 
HETATM   21  C11 UNL     1      43.232  13.295  79.106  1.00  0.00     0.009 C 
HETATM   22  C15 UNL     1      43.495  11.942  81.122  1.00  0.00     0.014 C 
HETATM   23  C12 UNL     1      42.300  14.176  79.890  1.00  0.00    -0.013 C 
HETATM   24  C14 UNL     1      41.615  13.464  81.016  1.00  0.00     0.014 C 
ENDBRANCH  14  15
ENDBRANCH  13  14
ENDBRANCH   3  13
BRANCH   1  25
HETATM   25  O1  UNL     1      40.422  16.591  86.191  1.00  0.00    -0.388 OA
HETATM   26  C1  UNL     1      41.691  16.747  85.597  1.00  0.00     0.202 C 
ENDBRANCH   1  25
TORSDOF 4
ENDMDL
MODEL 4
REMARK VINA RESULT: -6.737461491      2.291      7.621
REMARK  4 active torsions:
REMARK  status: ('A' for Active; 'I' for Inactive)
REMARK    1  A    between atoms: O1_2  and  C2_3 
REMARK    2  A    between atoms: N1_5  and  C4_6 
REMARK    3  A    between atoms: C4_6  and  C5_7 
REMARK    4  A    between atoms: C5_7  and  C6_8 
ROOT
HETATM    1  C2  UNL     1      43.065  12.933  82.701  1.00  0.00     0.157 C 
HETATM    2  C3  UNL     1      41.535  12.824  82.719  1.00  0.00     0.305 C 
HETATM    3  N1  UNL     1      41.108  13.036  84.063  1.00  0.00     0.091 N 
HETATM    4  C16 UNL     1      41.833  14.170  84.635  1.00  0.00     0.273 C 
HETATM    5  C17 UNL     1      42.257  15.078  83.505  1.00  0.00     0.042 C 
HETATM    6  C18 UNL     1      43.411  14.402  82.755  1.00  0.00    -0.008 C 
HETATM    7  C19 UNL     1      43.449  15.008  81.380  1.00  0.00     0.042 C 
HETATM    8  C20 UNL     1      44.799  14.949  80.744  1.00  0.00     0.272 C 
HETATM    9  N2  UNL     1      45.877  15.417  81.552  1.00  0.00     0.084 N 
HETATM   10  C21 UNL     1      45.914  16.841  81.679  1.00  0.00     0.309 C 
HETATM   11  C22 UNL     1      45.921  14.696  82.782  1.00  0.00     0.272 C 
HETATM   12  C23 UNL     1      44.649  14.690  83.556  1.00  0.00     0.042 C 
ENDROOT
BRANCH   3  13
HETATM   13  C4  UNL     1      39.697  13.356  84.203  1.00  0.00     0.273 C 
BRANCH  13  14
HETATM   14  C5  UNL     1      39.265  13.473  85.617  1.00  0.00     0.039 C 
BRANCH  14  15
HETATM   15  C6  UNL     1      38.542  14.742  85.923  1.00  0.00    -0.038 C 
HETATM   16  C7  UNL     1      37.832  14.595  87.244  1.00  0.00     0.014 C 
HETATM   17  C8  UNL     1      37.063  15.851  87.614  1.00  0.00    -0.013 C 
HETATM   18  C9  UNL     1      38.074  16.966  87.711  1.00  0.00     0.009 C 
HETATM   19  C13 UNL     1      36.003  16.098  86.581  1.00  0.00     0.009 C 
HETATM   20  C10 UNL     1      38.674  17.160  86.346  1.00  0.00    -0.013 C 
HETATM   21  C11 UNL     1      37.590  17.458  85.334  1.00  0.00     0.009 C 
HETATM   22  C15 UNL     1      39.436  15.958  85.887  1.00  0.00     0.014 C 
HETATM   23  C12 UNL     1      36.710  16.244  85.234  1.00  0.00    -0.013 C 
HETATM   24  C14 UNL     1      37.457  14.996  84.876  1.00  0.00     0.014 C 
ENDBRANCH  14  15
ENDBRANCH  13  14
ENDBRANCH   3  13
BRANCH   1  25
HETATM   25  O1  UNL     1      43.610  12.261  81.636  1.00  0.00    -0.388 OA
HETATM   26  C1  UNL     1      42.583  11.551  80.982  1.00  0.00     0.202 C 
ENDBRANCH   1  25
TORSDOF 4
ENDMDL
MODEL 5
REMARK VINA RESULT: -6.567088362      2.292      7.547
REMARK  4 active torsions:
REMARK  status: ('A' for Active; 'I' for Inactive)
REMARK    1  A    between atoms: O1_2  and  C2_3 
REMARK    2  A    between atoms: N1_5  and  C4_6 
REMARK    3  A    between atoms: C4_6  and  C5_7 
REMARK    4  A    between atoms: C5_7  and  C6_8 
ROOT
HETATM    1  C2  UNL     1      43.081  13.036  82.672  1.00  0.00     0.157 C 
HETATM    2  C3  UNL     1      41.552  12.925  82.705  1.00  0.00     0.305 C 
HETATM    3  N1  UNL     1      41.140  13.100  84.058  1.00  0.00     0.091 N 
HETATM    4  C16 UNL     1      41.871  14.218  84.655  1.00  0.00     0.273 C 
HETATM    5  C17 UNL     1      42.281  15.158  83.546  1.00  0.00     0.042 C 
HETATM    6  C18 UNL     1      43.427  14.504  82.764  1.00  0.00    -0.008 C 
HETATM    7  C19 UNL     1      43.448  15.148  81.406  1.00  0.00     0.042 C 
HETATM    8  C20 UNL     1      44.792  15.109  80.754  1.00  0.00     0.272 C 
HETATM    9  N2  UNL     1      45.879  15.556  81.562  1.00  0.00     0.084 N 
HETATM   10  C21 UNL     1      45.916  16.975  81.729  1.00  0.00     0.309 C 
HETATM   11  C22 UNL     1      45.937  14.800  82.771  1.00  0.00     0.272 C 
HETATM   12  C23 UNL     1      44.674  14.770  83.559  1.00  0.00     0.042 C 
ENDROOT
BRANCH   3  13
HETATM   13  C4  UNL     1      39.730  13.413  84.224  1.00  0.00     0.273 C 
BRANCH  13  14
HETATM   14  C5  UNL     1      39.325  13.539  85.645  1.00  0.00     0.039 C 
BRANCH  14  15
HETATM   15  C6  UNL     1      38.501  14.749  85.932  1.00  0.00    -0.038 C 
HETATM   16  C7  UNL     1      39.413  15.944  86.051  1.00  0.00     0.014 C 
HETATM   17  C8  UNL     1      38.639  17.215  86.355  1.00  0.00    -0.013 C 
HETATM   18  C9  UNL     1      37.684  17.427  85.207  1.00  0.00     0.009 C 
HETATM   19  C13 UNL     1      37.950  17.064  87.679  1.00  0.00     0.009 C 
HETATM   20  C10 UNL     1      36.719  16.274  85.195  1.00  0.00    -0.013 C 
HETATM   21  C11 UNL     1      36.002  16.176  86.522  1.00  0.00     0.009 C 
HETATM   22  C15 UNL     1      37.399  14.970  84.924  1.00  0.00     0.014 C 
HETATM   23  C12 UNL     1      37.027  15.852  87.574  1.00  0.00    -0.013 C 
HETATM   24  C14 UNL     1      37.802  14.603  87.284  1.00  0.00     0.014 C 
ENDBRANCH  14  15
ENDBRANCH  13  14
ENDBRANCH   3  13
BRANCH   1  25
HETATM   25  O1  UNL     1      43.615  12.395  81.583  1.00  0.00    -0.388 OA
HETATM   26  C1  UNL     1      42.606  11.611  80.987  1.00  0.00     0.202 C 
ENDBRANCH   1  25
TORSDOF 4
ENDMDL
