MODEL 1
REMARK VINA RESULT: -8.116817234      0.000      0.000
REMARK  3 active torsions:
REMARK  status: ('A' for Active; 'I' for Inactive)
REMARK    1  A    between atoms: C2_2  and  C3_3 
REMARK    2  A    between atoms: C6_6  and  N1_7 
REMARK       I    between atoms: N1_7  and  C7_9 
REMARK       I    between atoms: C7_9  and  N2_11 
REMARK    3  A    between atoms: N2_11  and  C8_13 
ROOT
HETATM    1  C8  UNL     1      41.138  14.165  85.173  1.00  0.00     0.086 C 
HETATM    2  C9  UNL     1      41.592  13.374  83.961  1.00  0.00     0.025 C 
HETATM    3  C10 UNL     1      40.727  13.691  82.771  1.00  0.00     0.002 C 
HETATM    4  C11 UNL     1      41.356  13.312  81.468  1.00  0.00     0.000 C 
HETATM    5  C12 UNL     1      41.991  11.948  81.479  1.00  0.00     0.000 C 
HETATM    6  C13 UNL     1      42.964  11.886  80.319  1.00  0.00     0.000 C 
HETATM    7  C14 UNL     1      44.183  12.655  80.684  1.00  0.00     0.000 C 
HETATM    8  C15 UNL     1      44.800  13.403  79.528  1.00  0.00     0.000 C 
HETATM    9  C16 UNL     1      45.809  14.375  80.108  1.00  0.00     0.010 C 
HETATM   10  C17 UNL     1      45.197  15.748  80.292  1.00  0.00     0.111 C 
HETATM   11  C18 UNL     1      45.854  16.508  81.385  1.00  0.00     0.258 C 
HETATM   12  O2  UNL     1      47.079  16.757  81.253  1.00  0.00    -0.265 OA
HETATM   13  O3  UNL     1      45.194  16.937  82.507  1.00  0.00    -0.321 OA
HETATM   14  C19 UNL     1      44.067  16.263  83.057  1.00  0.00     0.178 C 
HETATM   15  C20 UNL     1      43.725  16.795  84.407  1.00  0.00     0.027 C 
HETATM   16  C21 UNL     1      43.086  15.745  85.304  1.00  0.00     0.004 C 
HETATM   17  C22 UNL     1      41.615  15.609  85.063  1.00  0.00     0.025 C 
ENDROOT
BRANCH   1  18
HETATM   18  N2  UNL     1      39.721  14.086  85.358  1.00  0.00    -0.338 N 
HETATM   19  C7  UNL     1      38.959  15.155  85.967  1.00  0.00     0.321 C 
HETATM   20  N1  UNL     1      37.585  15.038  86.129  1.00  0.00    -0.309 N 
HETATM   21  O1  UNL     1      39.603  16.144  86.322  1.00  0.00    -0.247 OA
ATOM     22  H1  UNL     1      37.158  14.170  85.806  1.00  0.00     0.170 HD
ATOM     23  H2  UNL     1      39.231  13.247  85.049  1.00  0.00     0.164 HD
BRANCH  20  24
HETATM   24  C6  UNL     1      36.725  15.990  86.690  1.00  0.00     0.036 A 
HETATM   25  C5  UNL     1      37.005  17.364  86.494  1.00  0.00     0.030 A 
HETATM   26  C4  UNL     1      36.244  18.351  87.004  1.00  0.00     0.009 A 
HETATM   27  C3  UNL     1      35.127  18.056  87.761  1.00  0.00    -0.058 A 
HETATM   28  C24 UNL     1      34.799  16.744  87.989  1.00  0.00     0.009 A 
HETATM   29  C23 UNL     1      35.612  15.745  87.444  1.00  0.00     0.030 A 
BRANCH  27  30
HETATM   30  C2  UNL     1      34.294  19.147  88.319  1.00  0.00     0.034 C 
HETATM   31  C1  UNL     1      34.971  20.466  88.145  1.00  0.00     0.010 C 
ENDBRANCH  27  30
ENDBRANCH  20  24
ENDBRANCH   1  18
TORSDOF 3
ENDMDL
MODEL 2
REMARK VINA RESULT: -7.092503445      1.648      3.166
REMARK  3 active torsions:
REMARK  status: ('A' for Active; 'I' for Inactive)
REMARK    1  A    between atoms: C2_2  and  C3_3 
REMARK    2  A    between atoms: C6_6  and  N1_7 
REMARK       I    between atoms: N1_7  and  C7_9 
REMARK       I    between atoms: C7_9  and  N2_11 
REMARK    3  A    between atoms: N2_11  and  C8_13 
ROOT
HETATM    1  C8  UNL     1      39.909  13.709  84.110  1.00  0.00     0.086 C 
HETATM    2  C9  UNL     1      40.586  14.989  83.657  1.00  0.00     0.025 C 
HETATM    3  C10 UNL     1      41.472  15.529  84.747  1.00  0.00     0.002 C 
HETATM    4  C11 UNL     1      42.489  16.506  84.248  1.00  0.00     0.000 C 
HETATM    5  C12 UNL     1      41.930  17.520  83.288  1.00  0.00     0.000 C 
HETATM    6  C13 UNL     1      43.094  18.116  82.522  1.00  0.00     0.000 C 
HETATM    7  C14 UNL     1      43.542  17.130  81.503  1.00  0.00     0.000 C 
HETATM    8  C15 UNL     1      45.035  17.115  81.285  1.00  0.00     0.000 C 
HETATM    9  C16 UNL     1      45.360  15.868  80.486  1.00  0.00     0.010 C 
HETATM   10  C17 UNL     1      45.774  14.731  81.398  1.00  0.00     0.111 C 
HETATM   11  C18 UNL     1      45.480  13.404  80.801  1.00  0.00     0.258 C 
HETATM   12  O2  UNL     1      46.052  13.124  79.717  1.00  0.00    -0.265 OA
HETATM   13  O3  UNL     1      44.626  12.494  81.369  1.00  0.00    -0.321 OA
HETATM   14  C19 UNL     1      43.520  12.864  82.185  1.00  0.00     0.178 C 
HETATM   15  C20 UNL     1      42.625  11.700  82.442  1.00  0.00     0.027 C 
HETATM   16  C21 UNL     1      41.174  12.112  82.641  1.00  0.00     0.004 C 
HETATM   17  C22 UNL     1      40.893  12.546  84.046  1.00  0.00     0.025 C 
ENDROOT
BRANCH   1  18
HETATM   18  N2  UNL     1      39.331  13.845  85.412  1.00  0.00    -0.338 N 
HETATM   19  C7  UNL     1      38.378  14.886  85.731  1.00  0.00     0.321 C 
HETATM   20  N1  UNL     1      37.841  14.984  87.008  1.00  0.00    -0.309 N 
HETATM   21  O1  UNL     1      38.089  15.656  84.812  1.00  0.00    -0.247 OA
ATOM     22  H1  UNL     1      38.158  14.297  87.692  1.00  0.00     0.170 HD
ATOM     23  H2  UNL     1      39.601  13.185  86.141  1.00  0.00     0.164 HD
BRANCH  20  24
HETATM   24  C6  UNL     1      36.908  15.929  87.453  1.00  0.00     0.036 A 
HETATM   25  C5  UNL     1      37.079  17.285  87.080  1.00  0.00     0.030 A 
HETATM   26  C4  UNL     1      36.242  18.266  87.470  1.00  0.00     0.009 A 
HETATM   27  C3  UNL     1      35.151  17.982  88.269  1.00  0.00    -0.058 A 
HETATM   28  C24 UNL     1      34.929  16.688  88.665  1.00  0.00     0.009 A 
HETATM   29  C23 UNL     1      35.818  15.695  88.243  1.00  0.00     0.030 A 
BRANCH  27  30
HETATM   30  C2  UNL     1      34.235  19.066  88.693  1.00  0.00     0.034 C 
HETATM   31  C1  UNL     1      34.749  20.394  88.244  1.00  0.00     0.010 C 
ENDBRANCH  27  30
ENDBRANCH  20  24
ENDBRANCH   1  18
TORSDOF 3
ENDMDL
MODEL 3
REMARK VINA RESULT: -5.439545051      1.669      3.348
REMARK  3 active torsions:
REMARK  status: ('A' for Active; 'I' for Inactive)
REMARK    1  A    between atoms: C2_2  and  C3_3 
REMARK    2  A    between atoms: C6_6  and  N1_7 
REMARK       I    between atoms: N1_7  and  C7_9 
REMARK       I    between atoms: C7_9  and  N2_11 
REMARK    3  A    between atoms: N2_11  and  C8_13 
ROOT
HETATM    1  C8  UNL     1      40.040  13.594  83.874  1.00  0.00     0.086 C 
HETATM    2  C9  UNL     1      40.691  14.915  83.511  1.00  0.00     0.025 C 
HETATM    3  C10 UNL     1      41.595  15.379  84.621  1.00  0.00     0.002 C 
HETATM    4  C11 UNL     1      42.590  16.407  84.180  1.00  0.00     0.000 C 
HETATM    5  C12 UNL     1      41.997  17.486  83.316  1.00  0.00     0.000 C 
HETATM    6  C13 UNL     1      43.136  18.157  82.575  1.00  0.00     0.000 C 
HETATM    7  C14 UNL     1      43.573  17.261  81.471  1.00  0.00     0.000 C 
HETATM    8  C15 UNL     1      45.060  17.283  81.221  1.00  0.00     0.000 C 
HETATM    9  C16 UNL     1      45.383  16.108  80.318  1.00  0.00     0.010 C 
HETATM   10  C17 UNL     1      45.831  14.908  81.127  1.00  0.00     0.111 C 
HETATM   11  C18 UNL     1      45.538  13.629  80.433  1.00  0.00     0.258 C 
HETATM   12  O2  UNL     1      46.089  13.444  79.318  1.00  0.00    -0.265 OA
HETATM   13  O3  UNL     1      44.709  12.665  80.945  1.00  0.00    -0.321 OA
HETATM   14  C19 UNL     1      43.616  12.954  81.812  1.00  0.00     0.178 C 
HETATM   15  C20 UNL     1      42.742  11.761  81.994  1.00  0.00     0.027 C 
HETATM   16  C21 UNL     1      41.291  12.136  82.257  1.00  0.00     0.004 C 
HETATM   17  C22 UNL     1      41.036  12.454  83.697  1.00  0.00     0.025 C 
ENDROOT
BRANCH   1  18
HETATM   18  N2  UNL     1      39.490  13.619  85.196  1.00  0.00    -0.338 N 
HETATM   19  C7  UNL     1      38.545  14.628  85.622  1.00  0.00     0.321 C 
HETATM   20  N1  UNL     1      38.035  14.617  86.914  1.00  0.00    -0.309 N 
HETATM   21  O1  UNL     1      38.238  15.473  84.778  1.00  0.00    -0.247 OA
ATOM     22  H1  UNL     1      38.367  13.875  87.530  1.00  0.00     0.170 HD
ATOM     23  H2  UNL     1      39.775  12.899  85.860  1.00  0.00     0.164 HD
BRANCH  20  24
HETATM   24  C6  UNL     1      37.113  15.520  87.457  1.00  0.00     0.036 A 
HETATM   25  C5  UNL     1      36.155  15.043  88.384  1.00  0.00     0.030 A 
HETATM   26  C4  UNL     1      35.221  15.832  88.949  1.00  0.00     0.009 A 
HETATM   27  C3  UNL     1      35.158  17.177  88.640  1.00  0.00    -0.058 A 
HETATM   28  C24 UNL     1      36.057  17.702  87.749  1.00  0.00     0.009 A 
HETATM   29  C23 UNL     1      37.013  16.854  87.181  1.00  0.00     0.030 A 
BRANCH  27  30
HETATM   30  C2  UNL     1      34.129  18.039  89.266  1.00  0.00     0.034 C 
HETATM   31  C1  UNL     1      34.645  19.427  89.449  1.00  0.00     0.010 C 
ENDBRANCH  27  30
ENDBRANCH  20  24
ENDBRANCH   1  18
TORSDOF 3
ENDMDL
