MODEL 1
REMARK VINA RESULT: -7.128470648      0.000      0.000
REMARK  3 active torsions:
REMARK  status: ('A' for Active; 'I' for Inactive)
REMARK    1  A    between atoms: C2_9  and  C3_10 
REMARK       I    between atoms: C3_10  and  N4_12 
REMARK    2  A    between atoms: N4_12  and  N5_14 
REMARK       I    between atoms: N5_14  and  C4_16 
REMARK    3  A    between atoms: C4_16  and  C5_18 
ROOT
HETATM    1  N1  UNL     1     -62.749  17.609  57.317  1.00  0.00    -0.381 N 
ATOM      2  H11 UNL     1     -62.457  18.527  57.652  1.00  0.00     0.157 HD
ATOM      3  H12 UNL     1     -62.568  16.704  57.754  1.00  0.00     0.157 HD
HETATM    4  C1  UNL     1     -63.424  17.556  56.229  1.00  0.00     0.164 C 
HETATM    5  N2  UNL     1     -63.816  16.326  55.780  1.00  0.00    -0.282 N 
ATOM      6  H2  UNL     1     -63.958  15.612  56.494  1.00  0.00     0.188 HD
HETATM    7  N3  UNL     1     -64.034  15.947  54.520  1.00  0.00    -0.294 N 
ATOM      8  H3  UNL     1     -63.653  15.052  54.215  1.00  0.00     0.187 HD
HETATM    9  C2  UNL     1     -64.745  16.694  53.607  1.00  0.00     0.117 C 
HETATM   10  C6  UNL     1     -64.692  18.081  53.477  1.00  0.00     0.041 C 
HETATM   11  C7  UNL     1     -64.211  19.005  54.385  1.00  0.00     0.061 C 
HETATM   12  C8  UNL     1     -63.668  18.772  55.641  1.00  0.00     0.216 C 
HETATM   13  O4  UNL     1     -63.371  19.795  56.298  1.00  0.00    -0.284 OA
ENDROOT
BRANCH   9  14
HETATM   14  C3  UNL     1     -65.607  16.022  52.671  1.00  0.00     0.288 C 
HETATM   15  O1  UNL     1     -65.347  14.813  52.388  1.00  0.00    -0.264 OA
HETATM   16  N4  UNL     1     -66.732  16.617  52.043  1.00  0.00    -0.262 N 
ATOM     17  H4  UNL     1     -66.971  17.584  52.260  1.00  0.00     0.190 HD
BRANCH  16  18
HETATM   18  N5  UNL     1     -67.513  15.911  51.142  1.00  0.00    -0.259 N 
HETATM   19  C4  UNL     1     -67.348  16.021  49.732  1.00  0.00     0.325 C 
HETATM   20  O2  UNL     1     -66.476  16.788  49.246  1.00  0.00    -0.261 OA
ATOM     21  H5  UNL     1     -68.235  15.288  51.504  1.00  0.00     0.190 HD
BRANCH  19  22
HETATM   22  C5  UNL     1     -68.180  15.261  48.811  1.00  0.00     0.324 C 
HETATM   23  N6  UNL     1     -68.781  14.049  49.171  1.00  0.00    -0.053 NA
HETATM   24  O3  UNL     1     -68.352  15.729  47.661  1.00  0.00    -0.266 OA
ENDBRANCH  19  22
ENDBRANCH  16  18
ENDBRANCH   9  14
TORSDOF 3
ENDMDL
MODEL 2
REMARK VINA RESULT: -7.125978799      4.239      8.864
REMARK  3 active torsions:
REMARK  status: ('A' for Active; 'I' for Inactive)
REMARK    1  A    between atoms: C2_9  and  C3_10 
REMARK       I    between atoms: C3_10  and  N4_12 
REMARK    2  A    between atoms: N4_12  and  N5_14 
REMARK       I    between atoms: N5_14  and  C4_16 
REMARK    3  A    between atoms: C4_16  and  C5_18 
ROOT
HETATM    1  N1  UNL     1     -64.694  20.122  53.546  1.00  0.00    -0.381 N 
ATOM      2  H11 UNL     1     -65.314  19.817  52.796  1.00  0.00     0.157 HD
ATOM      3  H12 UNL     1     -64.364  21.070  53.729  1.00  0.00     0.157 HD
HETATM    4  C1  UNL     1     -64.271  19.236  54.370  1.00  0.00     0.164 C 
HETATM    5  N2  UNL     1     -63.440  19.644  55.376  1.00  0.00    -0.282 N 
ATOM      6  H2  UNL     1     -63.557  20.607  55.691  1.00  0.00     0.188 HD
HETATM    7  N3  UNL     1     -62.496  18.935  55.995  1.00  0.00    -0.294 N 
ATOM      8  H3  UNL     1     -61.590  19.375  56.150  1.00  0.00     0.187 HD
HETATM    9  C2  UNL     1     -62.674  17.643  56.438  1.00  0.00     0.117 C 
HETATM   10  C6  UNL     1     -63.379  16.645  55.766  1.00  0.00     0.041 C 
HETATM   11  C7  UNL     1     -64.288  16.789  54.735  1.00  0.00     0.061 C 
HETATM   12  C8  UNL     1     -64.715  17.961  54.125  1.00  0.00     0.216 C 
HETATM   13  O4  UNL     1     -65.606  17.821  53.256  1.00  0.00    -0.284 OA
ENDROOT
BRANCH   9  14
HETATM   14  C3  UNL     1     -62.076  17.240  57.683  1.00  0.00     0.288 C 
HETATM   15  O1  UNL     1     -62.478  17.807  58.745  1.00  0.00    -0.264 OA
HETATM   16  N4  UNL     1     -61.068  16.248  57.807  1.00  0.00    -0.262 N 
ATOM     17  H4  UNL     1     -60.734  15.768  56.972  1.00  0.00     0.190 HD
BRANCH  16  18
HETATM   18  N5  UNL     1     -60.530  15.917  59.040  1.00  0.00    -0.259 N 
HETATM   19  C4  UNL     1     -59.609  14.845  59.214  1.00  0.00     0.325 C 
HETATM   20  O2  UNL     1     -59.254  14.139  58.233  1.00  0.00    -0.261 OA
ATOM     21  H5  UNL     1     -60.804  16.464  59.857  1.00  0.00     0.190 HD
BRANCH  19  22
HETATM   22  C5  UNL     1     -59.055  14.526  60.521  1.00  0.00     0.324 C 
HETATM   23  N6  UNL     1     -57.872  15.105  60.995  1.00  0.00    -0.053 NA
HETATM   24  O3  UNL     1     -59.677  13.702  61.231  1.00  0.00    -0.266 OA
ENDBRANCH  19  22
ENDBRANCH  16  18
ENDBRANCH   9  14
TORSDOF 3
ENDMDL
MODEL 3
REMARK VINA RESULT: -6.992006207      1.983      2.131
REMARK  3 active torsions:
REMARK  status: ('A' for Active; 'I' for Inactive)
REMARK    1  A    between atoms: C2_9  and  C3_10 
REMARK       I    between atoms: C3_10  and  N4_12 
REMARK    2  A    between atoms: N4_12  and  N5_14 
REMARK       I    between atoms: N5_14  and  C4_16 
REMARK    3  A    between atoms: C4_16  and  C5_18 
ROOT
HETATM    1  N1  UNL     1     -64.594  20.310  57.032  1.00  0.00    -0.381 N 
ATOM      2  H11 UNL     1     -64.115  20.142  57.917  1.00  0.00     0.157 HD
ATOM      3  H12 UNL     1     -65.139  21.132  56.769  1.00  0.00     0.157 HD
HETATM    4  C1  UNL     1     -64.517  19.403  56.129  1.00  0.00     0.164 C 
HETATM    5  N2  UNL     1     -65.159  19.627  54.943  1.00  0.00    -0.282 N 
ATOM      6  H2  UNL     1     -65.263  20.603  54.667  1.00  0.00     0.188 HD
HETATM    7  N3  UNL     1     -65.665  18.723  54.104  1.00  0.00    -0.294 N 
ATOM      8  H3  UNL     1     -66.595  18.891  53.721  1.00  0.00     0.187 HD
HETATM    9  C2  UNL     1     -65.004  17.575  53.724  1.00  0.00     0.117 C 
HETATM   10  C6  UNL     1     -64.220  16.778  54.557  1.00  0.00     0.041 C 
HETATM   11  C7  UNL     1     -63.678  17.102  55.785  1.00  0.00     0.061 C 
HETATM   12  C8  UNL     1     -63.784  18.298  56.482  1.00  0.00     0.216 C 
HETATM   13  O4  UNL     1     -63.134  18.358  57.550  1.00  0.00    -0.284 OA
ENDROOT
BRANCH   9  14
HETATM   14  C3  UNL     1     -65.130  17.110  52.368  1.00  0.00     0.288 C 
HETATM   15  O1  UNL     1     -64.326  16.211  51.973  1.00  0.00    -0.264 OA
HETATM   16  N4  UNL     1     -66.095  17.585  51.441  1.00  0.00    -0.262 N 
ATOM     17  H4  UNL     1     -66.760  18.299  51.735  1.00  0.00     0.190 HD
BRANCH  16  18
HETATM   18  N5  UNL     1     -66.151  17.097  50.145  1.00  0.00    -0.259 N 
HETATM   19  C4  UNL     1     -67.120  16.141  49.726  1.00  0.00     0.325 C 
HETATM   20  O2  UNL     1     -67.969  15.690  50.538  1.00  0.00    -0.261 OA
ATOM     21  H5  UNL     1     -65.471  17.436  49.465  1.00  0.00     0.190 HD
BRANCH  19  22
HETATM   22  C5  UNL     1     -67.157  15.653  48.356  1.00  0.00     0.324 C 
HETATM   23  N6  UNL     1     -66.035  15.102  47.726  1.00  0.00    -0.053 NA
HETATM   24  O3  UNL     1     -68.243  15.738  47.737  1.00  0.00    -0.266 OA
ENDBRANCH  19  22
ENDBRANCH  16  18
ENDBRANCH   9  14
TORSDOF 3
ENDMDL
MODEL 4
REMARK VINA RESULT: -6.915754321      1.800      1.976
REMARK  3 active torsions:
REMARK  status: ('A' for Active; 'I' for Inactive)
REMARK    1  A    between atoms: C2_9  and  C3_10 
REMARK       I    between atoms: C3_10  and  N4_12 
REMARK    2  A    between atoms: N4_12  and  N5_14 
REMARK       I    between atoms: N5_14  and  C4_16 
REMARK    3  A    between atoms: C4_16  and  C5_18 
ROOT
HETATM    1  N1  UNL     1     -63.111  20.241  55.906  1.00  0.00    -0.381 N 
ATOM      2  H11 UNL     1     -62.703  20.022  56.814  1.00  0.00     0.157 HD
ATOM      3  H12 UNL     1     -63.231  21.164  55.487  1.00  0.00     0.157 HD
HETATM    4  C1  UNL     1     -63.525  19.264  55.186  1.00  0.00     0.164 C 
HETATM    5  N2  UNL     1     -64.073  19.556  53.968  1.00  0.00    -0.282 N 
ATOM      6  H2  UNL     1     -63.734  20.405  53.515  1.00  0.00     0.188 HD
HETATM    7  N3  UNL     1     -64.997  18.865  53.300  1.00  0.00    -0.294 N 
ATOM      8  H3  UNL     1     -65.769  19.380  52.877  1.00  0.00     0.187 HD
HETATM    9  C2  UNL     1     -64.971  17.496  53.149  1.00  0.00     0.117 C 
HETATM   10  C6  UNL     1     -64.587  16.579  54.128  1.00  0.00     0.041 C 
HETATM   11  C7  UNL     1     -63.872  16.817  55.286  1.00  0.00     0.061 C 
HETATM   12  C8  UNL     1     -63.364  18.023  55.748  1.00  0.00     0.216 C 
HETATM   13  O4  UNL     1     -62.686  17.954  56.799  1.00  0.00    -0.284 OA
ENDROOT
BRANCH   9  14
HETATM   14  C3  UNL     1     -65.393  16.920  51.900  1.00  0.00     0.288 C 
HETATM   15  O1  UNL     1     -64.766  15.902  51.475  1.00  0.00    -0.264 OA
HETATM   16  N4  UNL     1     -66.465  17.410  51.109  1.00  0.00    -0.262 N 
ATOM     17  H4  UNL     1     -66.993  18.221  51.432  1.00  0.00     0.190 HD
BRANCH  16  18
HETATM   18  N5  UNL     1     -66.809  16.810  49.909  1.00  0.00    -0.259 N 
HETATM   19  C4  UNL     1     -67.589  15.620  49.841  1.00  0.00     0.325 C 
HETATM   20  O2  UNL     1     -67.991  15.056  50.893  1.00  0.00    -0.261 OA
ATOM     21  H5  UNL     1     -66.492  17.237  49.039  1.00  0.00     0.190 HD
BRANCH  19  22
HETATM   22  C5  UNL     1     -67.940  15.017  48.565  1.00  0.00     0.324 C 
HETATM   23  N6  UNL     1     -67.829  13.641  48.330  1.00  0.00    -0.053 NA
HETATM   24  O3  UNL     1     -68.355  15.775  47.657  1.00  0.00    -0.266 OA
ENDBRANCH  19  22
ENDBRANCH  16  18
ENDBRANCH   9  14
TORSDOF 3
ENDMDL
MODEL 5
REMARK VINA RESULT: -6.914719948      1.270      1.421
REMARK  3 active torsions:
REMARK  status: ('A' for Active; 'I' for Inactive)
REMARK    1  A    between atoms: C2_9  and  C3_10 
REMARK       I    between atoms: C3_10  and  N4_12 
REMARK    2  A    between atoms: N4_12  and  N5_14 
REMARK       I    between atoms: N5_14  and  C4_16 
REMARK    3  A    between atoms: C4_16  and  C5_18 
ROOT
HETATM    1  N1  UNL     1     -62.845  15.822  57.450  1.00  0.00    -0.381 N 
ATOM      2  H11 UNL     1     -62.482  16.426  58.187  1.00  0.00     0.157 HD
ATOM      3  H12 UNL     1     -62.786  14.805  57.399  1.00  0.00     0.157 HD
HETATM    4  C1  UNL     1     -63.452  16.377  56.466  1.00  0.00     0.164 C 
HETATM    5  N2  UNL     1     -63.939  15.567  55.478  1.00  0.00    -0.282 N 
ATOM      6  H2  UNL     1     -64.199  14.622  55.759  1.00  0.00     0.188 HD
HETATM    7  N3  UNL     1     -64.115  15.865  54.190  1.00  0.00    -0.294 N 
ATOM      8  H3  UNL     1     -63.809  15.185  53.494  1.00  0.00     0.187 HD
HETATM    9  C2  UNL     1     -64.686  17.037  53.745  1.00  0.00     0.117 C 
HETATM   10  C6  UNL     1     -64.482  18.300  54.299  1.00  0.00     0.041 C 
HETATM   11  C7  UNL     1     -63.967  18.613  55.543  1.00  0.00     0.061 C 
HETATM   12  C8  UNL     1     -63.532  17.745  56.534  1.00  0.00     0.216 C 
HETATM   13  O4  UNL     1     -63.173  18.287  57.605  1.00  0.00    -0.284 OA
ENDROOT
BRANCH   9  14
HETATM   14  C3  UNL     1     -65.551  17.002  52.595  1.00  0.00     0.288 C 
HETATM   15  O1  UNL     1     -65.426  17.924  51.732  1.00  0.00    -0.264 OA
HETATM   16  N4  UNL     1     -66.534  16.007  52.358  1.00  0.00    -0.262 N 
ATOM     17  H4  UNL     1     -66.649  15.249  53.030  1.00  0.00     0.190 HD
BRANCH  16  18
HETATM   18  N5  UNL     1     -67.341  16.043  51.232  1.00  0.00    -0.259 N 
HETATM   19  C4  UNL     1     -67.303  15.035  50.228  1.00  0.00     0.325 C 
HETATM   20  O2  UNL     1     -66.512  14.060  50.326  1.00  0.00    -0.261 OA
ATOM     21  H5  UNL     1     -67.986  16.824  51.118  1.00  0.00     0.190 HD
BRANCH  19  22
HETATM   22  C5  UNL     1     -68.168  15.098  49.059  1.00  0.00     0.324 C 
HETATM   23  N6  UNL     1     -69.034  14.055  48.710  1.00  0.00    -0.053 NA
HETATM   24  O3  UNL     1     -68.119  16.133  48.354  1.00  0.00    -0.266 OA
ENDBRANCH  19  22
ENDBRANCH  16  18
ENDBRANCH   9  14
TORSDOF 3
ENDMDL
