MODEL 1
REMARK VINA RESULT: -6.908027194      0.000      0.000
REMARK  7 active torsions:
REMARK  status: ('A' for Active; 'I' for Inactive)
REMARK    1  A    between atoms: N1_1  and  C1_4 
REMARK    2  A    between atoms: N4_14  and  C5_15 
REMARK    3  A    between atoms: C5_15  and  O3_16 
REMARK    4  A    between atoms: O3_16  and  C6_17 
REMARK    5  A    between atoms: C8_21  and  N6_22 
REMARK    6  A    between atoms: N6_22  and  N7_23 
REMARK    7  A    between atoms: N6_22  and  O5_26 
ROOT
HETATM    1  C1  UNL     1      19.538  67.900  33.800  1.00  0.00     0.678 A 
HETATM    2  N2  UNL     1      18.283  68.265  33.561  1.00  0.00    -0.184 N 
ATOM      3  H2  UNL     1      18.041  68.650  32.647  1.00  0.00     0.184 HD
HETATM    4  C2  UNL     1      17.324  68.138  34.498  1.00  0.00     0.148 A 
HETATM    5  C3  UNL     1      16.035  68.515  34.182  1.00  0.00     0.279 A 
HETATM    6  O1  UNL     1      15.781  68.983  33.044  1.00  0.00    -0.265 OA
HETATM    7  N3  UNL     1      15.110  68.358  35.127  1.00  0.00    -0.273 N 
ATOM      8  H3  UNL     1      14.146  68.627  34.928  1.00  0.00     0.173 HD
HETATM    9  C4  UNL     1      15.405  67.870  36.301  1.00  0.00     0.331 A 
HETATM   10  O2  UNL     1      14.468  67.746  37.162  1.00  0.00    -0.246 OA
HETATM   11  N4  UNL     1      16.677  67.465  36.703  1.00  0.00    -0.271 N 
HETATM   12  C7  UNL     1      17.617  67.612  35.770  1.00  0.00     0.122 A 
HETATM   13  C8  UNL     1      18.892  67.248  35.986  1.00  0.00     0.195 A 
HETATM   14  N8  UNL     1      19.845  67.400  34.987  1.00  0.00    -0.171 N 
ATOM     15  H8  UNL     1      20.807  67.118  35.172  1.00  0.00     0.186 HD
ENDROOT
BRANCH  13  16
HETATM   16  N6  UNL     1      19.411  66.670  37.133  1.00  0.00    -0.150 N 
BRANCH  16  17
HETATM   17  N7  UNL     1      20.008  67.434  38.101  1.00  0.00    -0.317 N 
ATOM     18  H72 UNL     1      19.535  68.277  38.427  1.00  0.00     0.179 HD
ATOM     19  H71 UNL     1      20.862  67.123  38.564  1.00  0.00     0.179 HD
ENDBRANCH  16  17
BRANCH  16  20
HETATM   20  O5  UNL     1      19.448  65.340  37.243  1.00  0.00    -0.267 OA
ATOM     21  H5  UNL     1      20.216  64.920  37.613  1.00  0.00     0.247 HD
ENDBRANCH  16  20
ENDBRANCH  13  16
BRANCH  11  22
HETATM   22  C5  UNL     1      16.781  66.976  38.034  1.00  0.00     0.316 C 
BRANCH  22  23
HETATM   23  O3  UNL     1      16.458  65.560  37.893  1.00  0.00    -0.286 OA
BRANCH  23  24
HETATM   24  C6  UNL     1      16.454  64.655  38.902  1.00  0.00     0.374 C 
HETATM   25  N5  UNL     1      15.298  64.249  39.623  1.00  0.00    -0.032 NA
HETATM   26  O4  UNL     1      17.597  64.153  39.194  1.00  0.00    -0.242 OA
ENDBRANCH  23  24
ENDBRANCH  22  23
ENDBRANCH  11  22
BRANCH   1  27
HETATM   27  N1  UNL     1      20.455  68.025  32.904  1.00  0.00    -0.234 N 
ATOM     28  H12 UNL     1      20.381  68.765  32.206  1.00  0.00     0.174 HD
ATOM     29  H11 UNL     1      21.258  67.397  32.877  1.00  0.00     0.174 HD
ENDBRANCH   1  27
TORSDOF 7
ENDMDL
MODEL 2
REMARK VINA RESULT: -6.626289109      3.804      6.958
REMARK  7 active torsions:
REMARK  status: ('A' for Active; 'I' for Inactive)
REMARK    1  A    between atoms: N1_1  and  C1_4 
REMARK    2  A    between atoms: N4_14  and  C5_15 
REMARK    3  A    between atoms: C5_15  and  O3_16 
REMARK    4  A    between atoms: O3_16  and  C6_17 
REMARK    5  A    between atoms: C8_21  and  N6_22 
REMARK    6  A    between atoms: N6_22  and  N7_23 
REMARK    7  A    between atoms: N6_22  and  O5_26 
ROOT
HETATM    1  C1  UNL     1      19.469  68.001  34.563  1.00  0.00     0.678 A 
HETATM    2  N2  UNL     1      19.986  67.494  33.449  1.00  0.00    -0.184 N 
ATOM      3  H2  UNL     1      20.875  66.996  33.493  1.00  0.00     0.184 HD
HETATM    4  C2  UNL     1      19.360  67.625  32.263  1.00  0.00     0.148 A 
HETATM    5  C3  UNL     1      19.937  67.058  31.145  1.00  0.00     0.279 A 
HETATM    6  O1  UNL     1      21.032  66.452  31.244  1.00  0.00    -0.265 OA
HETATM    7  N3  UNL     1      19.281  67.192  29.994  1.00  0.00    -0.273 N 
ATOM      8  H3  UNL     1      19.678  66.786  29.146  1.00  0.00     0.173 HD
HETATM    9  C4  UNL     1      18.144  67.830  29.922  1.00  0.00     0.331 A 
HETATM   10  O2  UNL     1      17.568  67.921  28.784  1.00  0.00    -0.246 OA
HETATM   11  N4  UNL     1      17.494  68.430  30.998  1.00  0.00    -0.271 N 
HETATM   12  C7  UNL     1      18.133  68.305  32.161  1.00  0.00     0.122 A 
HETATM   13  C8  UNL     1      17.631  68.806  33.302  1.00  0.00     0.195 A 
HETATM   14  N8  UNL     1      18.314  68.645  34.500  1.00  0.00    -0.171 N 
ATOM     15  H8  UNL     1      17.916  69.034  35.354  1.00  0.00     0.186 HD
ENDROOT
BRANCH  13  16
HETATM   16  N6  UNL     1      16.427  69.472  33.462  1.00  0.00    -0.150 N 
BRANCH  16  17
HETATM   17  N7  UNL     1      16.360  70.838  33.380  1.00  0.00    -0.317 N 
ATOM     18  H72 UNL     1      17.226  71.377  33.375  1.00  0.00     0.179 HD
ATOM     19  H71 UNL     1      15.469  71.313  33.227  1.00  0.00     0.179 HD
ENDBRANCH  16  17
BRANCH  16  20
HETATM   20  O5  UNL     1      15.339  68.791  33.827  1.00  0.00    -0.267 OA
ATOM     21  H5  UNL     1      15.259  67.872  33.596  1.00  0.00     0.247 HD
ENDBRANCH  16  20
ENDBRANCH  13  16
BRANCH  11  22
HETATM   22  C5  UNL     1      16.270  69.088  30.696  1.00  0.00     0.316 C 
BRANCH  22  23
HETATM   23  O3  UNL     1      16.693  70.454  30.398  1.00  0.00    -0.286 OA
BRANCH  23  24
HETATM   24  C6  UNL     1      15.885  71.438  29.933  1.00  0.00     0.374 C 
HETATM   25  N5  UNL     1      14.852  72.062  30.684  1.00  0.00    -0.032 NA
HETATM   26  O4  UNL     1      16.104  71.803  28.724  1.00  0.00    -0.242 OA
ENDBRANCH  23  24
ENDBRANCH  22  23
ENDBRANCH  11  22
BRANCH   1  27
HETATM   27  N1  UNL     1      20.070  67.878  35.697  1.00  0.00    -0.234 N 
ATOM     28  H12 UNL     1      20.991  68.296  35.828  1.00  0.00     0.174 HD
ATOM     29  H11 UNL     1      19.642  67.369  36.471  1.00  0.00     0.174 HD
ENDBRANCH   1  27
TORSDOF 7
ENDMDL
MODEL 3
REMARK VINA RESULT: -6.214276952      1.986      5.296
REMARK  7 active torsions:
REMARK  status: ('A' for Active; 'I' for Inactive)
REMARK    1  A    between atoms: N1_1  and  C1_4 
REMARK    2  A    between atoms: N4_14  and  C5_15 
REMARK    3  A    between atoms: C5_15  and  O3_16 
REMARK    4  A    between atoms: O3_16  and  C6_17 
REMARK    5  A    between atoms: C8_21  and  N6_22 
REMARK    6  A    between atoms: N6_22  and  N7_23 
REMARK    7  A    between atoms: N6_22  and  O5_26 
ROOT
HETATM    1  C1  UNL     1      19.392  67.980  35.147  1.00  0.00     0.678 A 
HETATM    2  N2  UNL     1      18.624  67.582  36.155  1.00  0.00    -0.184 N 
ATOM      3  H2  UNL     1      19.061  67.239  37.010  1.00  0.00     0.184 HD
HETATM    4  C2  UNL     1      17.280  67.624  36.072  1.00  0.00     0.148 A 
HETATM    5  C3  UNL     1      16.537  67.217  37.161  1.00  0.00     0.279 A 
HETATM    6  O1  UNL     1      17.117  66.801  38.195  1.00  0.00    -0.265 OA
HETATM    7  N3  UNL     1      15.212  67.289  37.049  1.00  0.00    -0.273 N 
ATOM      8  H3  UNL     1      14.631  66.996  37.835  1.00  0.00     0.173 HD
HETATM    9  C4  UNL     1      14.638  67.724  35.960  1.00  0.00     0.331 A 
HETATM   10  O2  UNL     1      13.361  67.767  35.921  1.00  0.00    -0.246 OA
HETATM   11  N4  UNL     1      15.311  68.153  34.818  1.00  0.00    -0.271 N 
HETATM   12  C7  UNL     1      16.639  68.092  34.910  1.00  0.00     0.122 A 
HETATM   13  C8  UNL     1      17.438  68.490  33.906  1.00  0.00     0.195 A 
HETATM   14  N8  UNL     1      18.818  68.428  34.040  1.00  0.00    -0.171 N 
ATOM     15  H8  UNL     1      19.406  68.735  33.266  1.00  0.00     0.186 HD
ENDROOT
BRANCH  13  16
HETATM   16  N6  UNL     1      17.045  69.025  32.690  1.00  0.00    -0.150 N 
BRANCH  16  17
HETATM   17  N7  UNL     1      16.866  68.225  31.592  1.00  0.00    -0.317 N 
ATOM     18  H72 UNL     1      16.501  67.282  31.722  1.00  0.00     0.179 HD
ATOM     19  H71 UNL     1      16.998  68.590  30.649  1.00  0.00     0.179 HD
ENDBRANCH  16  17
BRANCH  16  20
HETATM   20  O5  UNL     1      16.963  70.349  32.547  1.00  0.00    -0.267 OA
ATOM     21  H5  UNL     1      17.305  70.760  31.761  1.00  0.00     0.247 HD
ENDBRANCH  16  20
ENDBRANCH  13  16
BRANCH  11  22
HETATM   22  C5  UNL     1      14.490  68.574  33.735  1.00  0.00     0.316 C 
BRANCH  22  23
HETATM   23  O3  UNL     1      14.301  69.997  33.996  1.00  0.00    -0.286 OA
BRANCH  23  24
HETATM   24  C6  UNL     1      13.651  70.862  33.180  1.00  0.00     0.374 C 
HETATM   25  N5  UNL     1      14.252  71.565  32.100  1.00  0.00    -0.032 NA
HETATM   26  O4  UNL     1      12.406  71.029  33.435  1.00  0.00    -0.242 OA
ENDBRANCH  23  24
ENDBRANCH  22  23
ENDBRANCH  11  22
BRANCH   1  27
HETATM   27  N1  UNL     1      20.677  67.938  35.226  1.00  0.00    -0.234 N 
ATOM     28  H12 UNL     1      21.243  68.406  34.517  1.00  0.00     0.174 HD
ATOM     29  H11 UNL     1      21.146  67.443  35.985  1.00  0.00     0.174 HD
ENDBRANCH   1  27
TORSDOF 7
ENDMDL
MODEL 4
REMARK VINA RESULT: -6.208870065      1.970      2.616
REMARK  7 active torsions:
REMARK  status: ('A' for Active; 'I' for Inactive)
REMARK    1  A    between atoms: N1_1  and  C1_4 
REMARK    2  A    between atoms: N4_14  and  C5_15 
REMARK    3  A    between atoms: C5_15  and  O3_16 
REMARK    4  A    between atoms: O3_16  and  C6_17 
REMARK    5  A    between atoms: C8_21  and  N6_22 
REMARK    6  A    between atoms: N6_22  and  N7_23 
REMARK    7  A    between atoms: N6_22  and  O5_26 
ROOT
HETATM    1  C1  UNL     1      20.058  67.096  31.551  1.00  0.00     0.678 A 
HETATM    2  N2  UNL     1      18.799  67.357  31.217  1.00  0.00    -0.184 N 
ATOM      3  H2  UNL     1      18.515  67.277  30.240  1.00  0.00     0.184 HD
HETATM    4  C2  UNL     1      17.890  67.723  32.141  1.00  0.00     0.148 A 
HETATM    5  C3  UNL     1      16.592  67.960  31.735  1.00  0.00     0.279 A 
HETATM    6  O1  UNL     1      16.285  67.849  30.522  1.00  0.00    -0.265 OA
HETATM    7  N3  UNL     1      15.717  68.302  32.678  1.00  0.00    -0.273 N 
ATOM      8  H3  UNL     1      14.749  68.484  32.414  1.00  0.00     0.173 HD
HETATM    9  C4  UNL     1      16.066  68.409  33.932  1.00  0.00     0.331 A 
HETATM   10  O2  UNL     1      15.175  68.742  34.785  1.00  0.00    -0.246 OA
HETATM   11  N4  UNL     1      17.350  68.189  34.426  1.00  0.00    -0.271 N 
HETATM   12  C7  UNL     1      18.241  67.843  33.498  1.00  0.00     0.122 A 
HETATM   13  C8  UNL     1      19.520  67.572  33.810  1.00  0.00     0.195 A 
HETATM   14  N8  UNL     1      20.420  67.198  32.820  1.00  0.00    -0.171 N 
ATOM     15  H8  UNL     1      21.385  66.998  33.079  1.00  0.00     0.186 HD
ENDROOT
BRANCH  13  16
HETATM   16  N6  UNL     1      20.090  67.578  35.072  1.00  0.00    -0.150 N 
BRANCH  16  17
HETATM   17  N7  UNL     1      20.733  68.689  35.550  1.00  0.00    -0.317 N 
ATOM     18  H72 UNL     1      20.867  69.488  34.931  1.00  0.00     0.179 HD
ATOM     19  H71 UNL     1      20.990  68.765  36.535  1.00  0.00     0.179 HD
ENDBRANCH  16  17
BRANCH  16  20
HETATM   20  O5  UNL     1      20.127  66.451  35.786  1.00  0.00    -0.267 OA
ATOM     21  H5  UNL     1      20.959  66.128  36.112  1.00  0.00     0.247 HD
ENDBRANCH  16  20
ENDBRANCH  13  16
BRANCH  11  22
HETATM   22  C5  UNL     1      17.517  68.378  35.826  1.00  0.00     0.316 C 
BRANCH  22  23
HETATM   23  O3  UNL     1      17.202  67.064  36.377  1.00  0.00    -0.286 OA
BRANCH  23  24
HETATM   24  C6  UNL     1      17.299  66.721  37.685  1.00  0.00     0.374 C 
HETATM   25  N5  UNL     1      18.287  65.851  38.224  1.00  0.00    -0.032 NA
HETATM   26  O4  UNL     1      16.417  67.241  38.457  1.00  0.00    -0.242 OA
ENDBRANCH  23  24
ENDBRANCH  22  23
ENDBRANCH  11  22
BRANCH   1  27
HETATM   27  N1  UNL     1      20.928  66.749  30.666  1.00  0.00    -0.234 N 
ATOM     28  H12 UNL     1      21.035  65.764  30.422  1.00  0.00     0.174 HD
ATOM     29  H11 UNL     1      21.517  67.440  30.202  1.00  0.00     0.174 HD
ENDBRANCH   1  27
TORSDOF 7
ENDMDL
MODEL 5
REMARK VINA RESULT: -6.184145229      1.754      3.836
REMARK  7 active torsions:
REMARK  status: ('A' for Active; 'I' for Inactive)
REMARK    1  A    between atoms: N1_1  and  C1_4 
REMARK    2  A    between atoms: N4_14  and  C5_15 
REMARK    3  A    between atoms: C5_15  and  O3_16 
REMARK    4  A    between atoms: O3_16  and  C6_17 
REMARK    5  A    between atoms: C8_21  and  N6_22 
REMARK    6  A    between atoms: N6_22  and  N7_23 
REMARK    7  A    between atoms: N6_22  and  O5_26 
ROOT
HETATM    1  C1  UNL     1      16.921  69.153  33.797  1.00  0.00     0.678 A 
HETATM    2  N2  UNL     1      18.026  68.570  34.249  1.00  0.00    -0.184 N 
ATOM      3  H2  UNL     1      18.907  68.722  33.759  1.00  0.00     0.184 HD
HETATM    4  C2  UNL     1      18.006  67.783  35.342  1.00  0.00     0.148 A 
HETATM    5  C3  UNL     1      19.191  67.223  35.776  1.00  0.00     0.279 A 
HETATM    6  O1  UNL     1      20.254  67.438  35.142  1.00  0.00    -0.265 OA
HETATM    7  N3  UNL     1      19.137  66.466  36.869  1.00  0.00    -0.273 N 
ATOM      8  H3  UNL     1      19.993  66.036  37.218  1.00  0.00     0.173 HD
HETATM    9  C4  UNL     1      18.015  66.260  37.507  1.00  0.00     0.331 A 
HETATM   10  O2  UNL     1      18.036  65.522  38.550  1.00  0.00    -0.246 OA
HETATM   11  N4  UNL     1      16.778  66.785  37.139  1.00  0.00    -0.271 N 
HETATM   12  C7  UNL     1      16.812  67.549  36.047  1.00  0.00     0.122 A 
HETATM   13  C8  UNL     1      15.709  68.151  35.571  1.00  0.00     0.195 A 
HETATM   14  N8  UNL     1      15.781  68.953  34.440  1.00  0.00    -0.171 N 
ATOM     15  H8  UNL     1      14.932  69.401  34.094  1.00  0.00     0.186 HD
ENDROOT
BRANCH  13  16
HETATM   16  N6  UNL     1      14.435  68.108  36.112  1.00  0.00    -0.150 N 
BRANCH  16  17
HETATM   17  N7  UNL     1      13.486  67.254  35.616  1.00  0.00    -0.317 N 
ATOM     18  H72 UNL     1      13.036  66.592  36.249  1.00  0.00     0.179 HD
ATOM     19  H71 UNL     1      13.155  67.336  34.654  1.00  0.00     0.179 HD
ENDBRANCH  16  17
BRANCH  16  20
HETATM   20  O5  UNL     1      14.083  68.996  37.044  1.00  0.00    -0.267 OA
ATOM     21  H5  UNL     1      13.233  69.419  36.995  1.00  0.00     0.247 HD
ENDBRANCH  16  20
ENDBRANCH  13  16
BRANCH  11  22
HETATM   22  C5  UNL     1      15.679  66.421  37.964  1.00  0.00     0.316 C 
BRANCH  22  23
HETATM   23  O3  UNL     1      15.170  65.212  37.325  1.00  0.00    -0.286 OA
BRANCH  23  24
HETATM   24  C6  UNL     1      14.136  64.463  37.780  1.00  0.00     0.374 C 
HETATM   25  N5  UNL     1      14.222  63.519  38.840  1.00  0.00    -0.032 NA
HETATM   26  O4  UNL     1      13.017  64.652  37.183  1.00  0.00    -0.242 OA
ENDBRANCH  23  24
ENDBRANCH  22  23
ENDBRANCH  11  22
BRANCH   1  27
HETATM   27  N1  UNL     1      16.940  69.903  32.750  1.00  0.00    -0.234 N 
ATOM     28  H12 UNL     1      17.035  70.914  32.854  1.00  0.00     0.174 HD
ATOM     29  H11 UNL     1      16.860  69.508  31.813  1.00  0.00     0.174 HD
ENDBRANCH   1  27
TORSDOF 7
ENDMDL
