MODEL 1
REMARK VINA RESULT: -6.976430070      0.000      0.000
REMARK  15 active torsions:
REMARK  status: ('A' for Active; 'I' for Inactive)
REMARK       I    between atoms: C1_4  and  N2_5 
REMARK       I    between atoms: C1_4  and  N11_38 
REMARK    1  A    between atoms: N2_5  and  C2_7 
REMARK    2  A    between atoms: C3_10  and  N4_11 
REMARK    3  A    between atoms: C5_18  and  N8_19 
REMARK    4  A    between atoms: N8_19  and  C6_21 
REMARK    5  A    between atoms: C6_21  and  C7_22 
REMARK    6  A    between atoms: C7_22  and  O1_23 
REMARK    7  A    between atoms: C7_22  and  C8_25 
REMARK    8  A    between atoms: C11_28  and  N9_29 
REMARK    9  A    between atoms: N9_29  and  C12_31 
REMARK   10  A    between atoms: C12_31  and  O2_32 
REMARK   11  A    between atoms: N11_38  and  C15_40 
REMARK   12  A    between atoms: C15_40  and  C16_41 
REMARK   13  A    between atoms: C16_41  and  N12_42 
REMARK   14  A    between atoms: N12_42  and  S1_44 
REMARK   15  A    between atoms: S1_44  and  C17_47 
ROOT
HETATM    1  C2  UNL     1      -7.067  25.849  12.131  1.00  0.00     0.725 A 
HETATM    2  N3  UNL     1      -6.679  25.096  11.115  1.00  0.00    -0.020 N 
ATOM      3  H3  UNL     1      -7.232  25.116  10.258  1.00  0.00     0.203 HD
HETATM    4  C3  UNL     1      -5.555  24.278  11.156  1.00  0.00     0.713 A 
HETATM    5  N7  UNL     1      -4.887  24.304  12.298  1.00  0.00    -0.021 N 
ATOM      6  H7  UNL     1      -4.053  23.725  12.390  1.00  0.00     0.203 HD
HETATM    7  C5  UNL     1      -5.272  25.080  13.366  1.00  0.00     0.707 A 
HETATM    8  N10 UNL     1      -6.361  25.850  13.284  1.00  0.00    -0.021 N 
ATOM      9  H10 UNL     1      -6.652  26.427  14.073  1.00  0.00     0.203 HD
ENDROOT
BRANCH   1  10
HETATM   10  N2  UNL     1      -8.113  26.615  12.063  1.00  0.00    -0.022 N 
HETATM   11  C1  UNL     1      -9.343  26.047  11.663  1.00  0.00     0.686 C 
HETATM   12  N1  UNL     1      -9.900  25.158  12.380  1.00  0.00    -0.234 N 
HETATM   13  N11 UNL     1      -9.917  26.491  10.450  1.00  0.00    -0.224 N 
ATOM     14  H12 UNL     1      -9.486  24.837  13.255  1.00  0.00     0.174 HD
ATOM     15  H11 UNL     1     -10.788  24.749  12.091  1.00  0.00     0.174 HD
ATOM     16  H11 UNL     1      -9.690  26.026   9.571  1.00  0.00     0.177 HD
ATOM     17  H2  UNL     1      -8.047  27.607  12.293  1.00  0.00     0.203 HD
BRANCH  13  18
HETATM   18  C15 UNL     1     -10.829  27.613  10.471  1.00  0.00     0.158 C 
BRANCH  18  19
HETATM   19  C16 UNL     1     -10.098  28.824   9.946  1.00  0.00     0.152 C 
BRANCH  19  20
HETATM   20  N12 UNL     1      -9.005  28.447   9.064  1.00  0.00    -0.314 N 
ATOM     21  H12 UNL     1      -9.065  27.807   8.271  1.00  0.00     0.172 HD
BRANCH  20  22
HETATM   22  S1  UNL     1      -7.585  29.273   9.596  1.00  0.00     0.260 S 
HETATM   23  O3  UNL     1      -7.654  29.599  11.057  1.00  0.00    -0.200 OA
HETATM   24  O4  UNL     1      -7.403  30.578   8.866  1.00  0.00    -0.200 OA
BRANCH  22  25
HETATM   25  C17 UNL     1      -6.221  28.220   9.321  1.00  0.00     0.095 A 
HETATM   26  C18 UNL     1      -5.105  28.256  10.126  1.00  0.00     0.032 A 
HETATM   27  C19 UNL     1      -4.027  27.413   9.897  1.00  0.00     0.076 A 
HETATM   28  C20 UNL     1      -4.116  26.537   8.831  1.00  0.00     0.245 A 
HETATM   29  O5  UNL     1      -3.178  25.747   8.565  1.00  0.00    -0.268 OA
HETATM   30  N13 UNL     1      -5.210  26.517   8.060  1.00  0.00    -0.332 N 
HETATM   31  C21 UNL     1      -6.264  27.330   8.271  1.00  0.00     0.116 A 
ATOM     32  H13 UNL     1      -5.246  25.860   7.280  1.00  0.00     0.168 HD
ENDBRANCH  22  25
ENDBRANCH  20  22
ENDBRANCH  19  20
ENDBRANCH  18  19
ENDBRANCH  13  18
ENDBRANCH   1  10
BRANCH   4  33
HETATM   33  N4  UNL     1      -5.289  23.549  10.005  1.00  0.00    -0.165 N 
HETATM   34  C4  UNL     1      -6.021  23.008   9.172  1.00  0.00     0.215 C 
HETATM   35  N5  UNL     1      -7.437  23.024   9.228  1.00  0.00    -0.066 NA
HETATM   36  N6  UNL     1      -5.416  22.296   8.040  1.00  0.00    -0.066 NA
ATOM     37  H4  UNL     1      -4.294  23.438   9.810  1.00  0.00     0.186 HD
ENDBRANCH   4  33
BRANCH   7  38
HETATM   38  N8  UNL     1      -4.541  25.032  14.426  1.00  0.00    -0.222 N 
ATOM     39  H8  UNL     1      -4.910  24.500  15.214  1.00  0.00     0.177 HD
BRANCH  38  40
HETATM   40  C6  UNL     1      -3.272  25.648  14.610  1.00  0.00     0.174 C 
BRANCH  40  41
HETATM   41  C7  UNL     1      -3.383  27.028  15.243  1.00  0.00     0.169 C 
BRANCH  41  42
HETATM   42  O1  UNL     1      -4.725  27.411  15.324  1.00  0.00    -0.389 OA
ATOM     43  H1  UNL     1      -5.287  26.651  15.218  1.00  0.00     0.210 HD
ENDBRANCH  41  42
BRANCH  41  44
HETATM   44  C8  UNL     1      -2.548  27.960  14.475  1.00  0.00    -0.028 A 
HETATM   45  C9  UNL     1      -1.323  28.337  14.958  1.00  0.00     0.012 A 
HETATM   46  C10 UNL     1      -0.499  29.206  14.291  1.00  0.00     0.030 A 
HETATM   47  C11 UNL     1      -0.899  29.743  13.073  1.00  0.00     0.029 A 
HETATM   48  C13 UNL     1      -2.134  29.360  12.590  1.00  0.00     0.030 A 
HETATM   49  C14 UNL     1      -2.960  28.479  13.273  1.00  0.00     0.012 A 
BRANCH  47  50
HETATM   50  N9  UNL     1      -0.083  30.648  12.350  1.00  0.00    -0.369 N 
ATOM     51  H9  UNL     1       0.761  31.005  12.797  1.00  0.00     0.161 HD
BRANCH  50  52
HETATM   52  C12 UNL     1      -0.388  31.084  11.017  1.00  0.00     0.287 C 
BRANCH  52  53
HETATM   53  O2  UNL     1       0.285  30.384  10.023  1.00  0.00    -0.382 OA
ATOM     54  H2  UNL     1      -0.230  29.697   9.615  1.00  0.00     0.211 HD
ENDBRANCH  52  53
ENDBRANCH  50  52
ENDBRANCH  47  50
ENDBRANCH  41  44
ENDBRANCH  40  41
ENDBRANCH  38  40
ENDBRANCH   7  38
TORSDOF 15
ENDMDL
MODEL 2
REMARK VINA RESULT: -6.964443583      2.808      5.209
REMARK  15 active torsions:
REMARK  status: ('A' for Active; 'I' for Inactive)
REMARK       I    between atoms: C1_4  and  N2_5 
REMARK       I    between atoms: C1_4  and  N11_38 
REMARK    1  A    between atoms: N2_5  and  C2_7 
REMARK    2  A    between atoms: C3_10  and  N4_11 
REMARK    3  A    between atoms: C5_18  and  N8_19 
REMARK    4  A    between atoms: N8_19  and  C6_21 
REMARK    5  A    between atoms: C6_21  and  C7_22 
REMARK    6  A    between atoms: C7_22  and  O1_23 
REMARK    7  A    between atoms: C7_22  and  C8_25 
REMARK    8  A    between atoms: C11_28  and  N9_29 
REMARK    9  A    between atoms: N9_29  and  C12_31 
REMARK   10  A    between atoms: C12_31  and  O2_32 
REMARK   11  A    between atoms: N11_38  and  C15_40 
REMARK   12  A    between atoms: C15_40  and  C16_41 
REMARK   13  A    between atoms: C16_41  and  N12_42 
REMARK   14  A    between atoms: N12_42  and  S1_44 
REMARK   15  A    between atoms: S1_44  and  C17_47 
ROOT
HETATM    1  C2  UNL     1     -10.279  25.255  13.716  1.00  0.00     0.725 A 
HETATM    2  N3  UNL     1     -10.866  24.326  14.454  1.00  0.00    -0.020 N 
ATOM      3  H3  UNL     1     -11.770  23.966  14.149  1.00  0.00     0.203 HD
HETATM    4  C3  UNL     1     -10.311  23.818  15.623  1.00  0.00     0.713 A 
HETATM    5  N7  UNL     1      -9.137  24.332  15.954  1.00  0.00    -0.021 N 
ATOM      6  H7  UNL     1      -8.680  24.000  16.802  1.00  0.00     0.203 HD
HETATM    7  C5  UNL     1      -8.510  25.297  15.201  1.00  0.00     0.707 A 
HETATM    8  N10 UNL     1      -9.080  25.759  14.084  1.00  0.00    -0.021 N 
ATOM      9  H10 UNL     1      -8.621  26.475  13.522  1.00  0.00     0.203 HD
ENDROOT
BRANCH   1  10
HETATM   10  N2  UNL     1     -10.812  25.704  12.620  1.00  0.00    -0.022 N 
HETATM   11  C1  UNL     1     -10.327  25.219  11.384  1.00  0.00     0.686 C 
HETATM   12  N1  UNL     1     -10.461  23.993  11.082  1.00  0.00    -0.234 N 
HETATM   13  N11 UNL     1      -9.690  26.134  10.515  1.00  0.00    -0.224 N 
ATOM     14  H12 UNL     1     -10.921  23.332  11.708  1.00  0.00     0.174 HD
ATOM     15  H11 UNL     1     -10.112  23.643  10.189  1.00  0.00     0.174 HD
ATOM     16  H11 UNL     1      -8.684  26.289  10.576  1.00  0.00     0.177 HD
ATOM     17  H2  UNL     1     -11.564  26.392  12.650  1.00  0.00     0.203 HD
BRANCH  13  18
HETATM   18  C15 UNL     1     -10.483  26.848   9.539  1.00  0.00     0.158 C 
BRANCH  18  19
HETATM   19  C16 UNL     1     -10.117  28.310   9.613  1.00  0.00     0.152 C 
BRANCH  19  20
HETATM   20  N12 UNL     1      -8.926  28.603   8.831  1.00  0.00    -0.314 N 
ATOM     21  H12 UNL     1      -8.860  28.599   7.813  1.00  0.00     0.172 HD
BRANCH  20  22
HETATM   22  S1  UNL     1      -7.644  28.958   9.931  1.00  0.00     0.260 S 
HETATM   23  O3  UNL     1      -7.997  28.564  11.333  1.00  0.00    -0.200 OA
HETATM   24  O4  UNL     1      -7.335  30.433   9.957  1.00  0.00    -0.200 OA
BRANCH  22  25
HETATM   25  C17 UNL     1      -6.243  28.046   9.430  1.00  0.00     0.095 A 
HETATM   26  C18 UNL     1      -6.255  27.264   8.297  1.00  0.00     0.032 A 
HETATM   27  C19 UNL     1      -5.134  26.544   7.910  1.00  0.00     0.076 A 
HETATM   28  C20 UNL     1      -4.006  26.641   8.705  1.00  0.00     0.245 A 
HETATM   29  O5  UNL     1      -2.957  26.016   8.414  1.00  0.00    -0.268 OA
HETATM   30  N13 UNL     1      -4.015  27.406   9.803  1.00  0.00    -0.332 N 
HETATM   31  C21 UNL     1      -5.097  28.111  10.190  1.00  0.00     0.116 A 
ATOM     32  H13 UNL     1      -3.168  27.457  10.369  1.00  0.00     0.168 HD
ENDBRANCH  22  25
ENDBRANCH  20  22
ENDBRANCH  19  20
ENDBRANCH  18  19
ENDBRANCH  13  18
ENDBRANCH   1  10
BRANCH   4  33
HETATM   33  N4  UNL     1     -11.057  22.850  16.282  1.00  0.00    -0.165 N 
HETATM   34  C4  UNL     1     -11.774  21.930  15.877  1.00  0.00     0.215 C 
HETATM   35  N5  UNL     1     -12.005  21.645  14.509  1.00  0.00    -0.066 NA
HETATM   36  N6  UNL     1     -12.441  21.060  16.852  1.00  0.00    -0.066 NA
ATOM     37  H4  UNL     1     -11.002  22.910  17.298  1.00  0.00     0.186 HD
ENDBRANCH   4  33
BRANCH   7  38
HETATM   38  N8  UNL     1      -7.366  25.719  15.614  1.00  0.00    -0.222 N 
ATOM     39  H8  UNL     1      -7.375  26.386  16.385  1.00  0.00     0.177 HD
BRANCH  38  40
HETATM   40  C6  UNL     1      -6.090  25.350  15.104  1.00  0.00     0.174 C 
BRANCH  40  41
HETATM   41  C7  UNL     1      -5.648  26.238  13.949  1.00  0.00     0.169 C 
BRANCH  41  42
HETATM   42  O1  UNL     1      -6.556  27.288  13.778  1.00  0.00    -0.389 OA
ATOM     43  H1  UNL     1      -7.435  26.994  13.989  1.00  0.00     0.210 HD
ENDBRANCH  41  42
BRANCH  41  44
HETATM   44  C8  UNL     1      -5.481  25.400  12.756  1.00  0.00    -0.028 A 
HETATM   45  C9  UNL     1      -4.286  24.774  12.521  1.00  0.00     0.012 A 
HETATM   46  C10 UNL     1      -4.066  23.982  11.424  1.00  0.00     0.030 A 
HETATM   47  C11 UNL     1      -5.080  23.791  10.494  1.00  0.00     0.029 A 
HETATM   48  C13 UNL     1      -6.284  24.424  10.734  1.00  0.00     0.030 A 
HETATM   49  C14 UNL     1      -6.496  25.223  11.849  1.00  0.00     0.012 A 
BRANCH  47  50
HETATM   50  N9  UNL     1      -4.899  22.985   9.343  1.00  0.00    -0.369 N 
ATOM     51  H9  UNL     1      -3.947  22.776   9.042  1.00  0.00     0.161 HD
BRANCH  50  52
HETATM   52  C12 UNL     1      -5.991  22.450   8.581  1.00  0.00     0.287 C 
BRANCH  52  53
HETATM   53  O2  UNL     1      -5.599  21.711   7.471  1.00  0.00    -0.382 OA
ATOM     54  H2  UNL     1      -6.051  21.947   6.669  1.00  0.00     0.211 HD
ENDBRANCH  52  53
ENDBRANCH  50  52
ENDBRANCH  47  50
ENDBRANCH  41  44
ENDBRANCH  40  41
ENDBRANCH  38  40
ENDBRANCH   7  38
TORSDOF 15
ENDMDL
MODEL 3
REMARK VINA RESULT: -6.936736812      2.652      5.243
REMARK  15 active torsions:
REMARK  status: ('A' for Active; 'I' for Inactive)
REMARK       I    between atoms: C1_4  and  N2_5 
REMARK       I    between atoms: C1_4  and  N11_38 
REMARK    1  A    between atoms: N2_5  and  C2_7 
REMARK    2  A    between atoms: C3_10  and  N4_11 
REMARK    3  A    between atoms: C5_18  and  N8_19 
REMARK    4  A    between atoms: N8_19  and  C6_21 
REMARK    5  A    between atoms: C6_21  and  C7_22 
REMARK    6  A    between atoms: C7_22  and  O1_23 
REMARK    7  A    between atoms: C7_22  and  C8_25 
REMARK    8  A    between atoms: C11_28  and  N9_29 
REMARK    9  A    between atoms: N9_29  and  C12_31 
REMARK   10  A    between atoms: C12_31  and  O2_32 
REMARK   11  A    between atoms: N11_38  and  C15_40 
REMARK   12  A    between atoms: C15_40  and  C16_41 
REMARK   13  A    between atoms: C16_41  and  N12_42 
REMARK   14  A    between atoms: N12_42  and  S1_44 
REMARK   15  A    between atoms: S1_44  and  C17_47 
ROOT
HETATM    1  C2  UNL     1     -10.362  25.196  13.753  1.00  0.00     0.725 A 
HETATM    2  N3  UNL     1     -10.987  24.259  14.448  1.00  0.00    -0.020 N 
ATOM      3  H3  UNL     1     -11.883  23.916  14.102  1.00  0.00     0.203 HD
HETATM    4  C3  UNL     1     -10.483  23.718  15.626  1.00  0.00     0.713 A 
HETATM    5  N7  UNL     1      -9.317  24.211  16.012  1.00  0.00    -0.021 N 
ATOM      6  H7  UNL     1      -8.896  23.854  16.870  1.00  0.00     0.203 HD
HETATM    7  C5  UNL     1      -8.650  25.183  15.305  1.00  0.00     0.707 A 
HETATM    8  N10 UNL     1      -9.172  25.676  14.178  1.00  0.00    -0.021 N 
ATOM      9  H10 UNL     1      -8.683  26.398  13.649  1.00  0.00     0.203 HD
ENDROOT
BRANCH   1  10
HETATM   10  N2  UNL     1     -10.847  25.674  12.648  1.00  0.00    -0.022 N 
HETATM   11  C1  UNL     1     -10.162  25.414  11.440  1.00  0.00     0.686 C 
HETATM   12  N1  UNL     1     -10.053  24.224  11.010  1.00  0.00    -0.234 N 
HETATM   13  N11 UNL     1      -9.603  26.510  10.744  1.00  0.00    -0.224 N 
ATOM     14  H12 UNL     1     -10.456  23.433  11.513  1.00  0.00     0.174 HD
ATOM     15  H11 UNL     1      -9.559  24.036  10.138  1.00  0.00     0.174 HD
ATOM     16  H11 UNL     1      -8.650  26.815  10.940  1.00  0.00     0.177 HD
ATOM     17  H2  UNL     1     -11.704  26.227  12.652  1.00  0.00     0.203 HD
BRANCH  13  18
HETATM   18  C15 UNL     1     -10.401  27.194   9.750  1.00  0.00     0.158 C 
BRANCH  18  19
HETATM   19  C16 UNL     1      -9.467  27.944   8.832  1.00  0.00     0.152 C 
BRANCH  19  20
HETATM   20  N12 UNL     1      -8.181  27.275   8.716  1.00  0.00    -0.314 N 
ATOM     21  H12 UNL     1      -8.027  26.266   8.712  1.00  0.00     0.172 HD
BRANCH  20  22
HETATM   22  S1  UNL     1      -6.962  28.489   8.585  1.00  0.00     0.260 S 
HETATM   23  O3  UNL     1      -7.559  29.860   8.486  1.00  0.00    -0.200 OA
HETATM   24  O4  UNL     1      -6.119  28.291   7.352  1.00  0.00    -0.200 OA
BRANCH  22  25
HETATM   25  C17 UNL     1      -5.975  28.412  10.022  1.00  0.00     0.095 A 
HETATM   26  C18 UNL     1      -4.691  27.918   9.993  1.00  0.00     0.032 A 
HETATM   27  C19 UNL     1      -3.917  27.861  11.144  1.00  0.00     0.076 A 
HETATM   28  C20 UNL     1      -4.485  28.320  12.319  1.00  0.00     0.245 A 
HETATM   29  O5  UNL     1      -3.842  28.298  13.397  1.00  0.00    -0.268 OA
HETATM   30  N13 UNL     1      -5.736  28.796  12.326  1.00  0.00    -0.332 N 
HETATM   31  C21 UNL     1      -6.498  28.856  11.216  1.00  0.00     0.116 A 
ATOM     32  H13 UNL     1      -6.128  29.126  13.208  1.00  0.00     0.168 HD
ENDBRANCH  22  25
ENDBRANCH  20  22
ENDBRANCH  19  20
ENDBRANCH  18  19
ENDBRANCH  13  18
ENDBRANCH   1  10
BRANCH   4  33
HETATM   33  N4  UNL     1     -11.265  22.746  16.235  1.00  0.00    -0.165 N 
HETATM   34  C4  UNL     1     -11.954  21.826  15.784  1.00  0.00     0.215 C 
HETATM   35  N5  UNL     1     -12.102  21.547  14.403  1.00  0.00    -0.066 NA
HETATM   36  N6  UNL     1     -12.677  20.951  16.713  1.00  0.00    -0.066 NA
ATOM     37  H4  UNL     1     -11.271  22.802  17.253  1.00  0.00     0.186 HD
ENDBRANCH   4  33
BRANCH   7  38
HETATM   38  N8  UNL     1      -7.517  25.582  15.771  1.00  0.00    -0.222 N 
ATOM     39  H8  UNL     1      -7.346  25.418  16.762  1.00  0.00     0.177 HD
BRANCH  38  40
HETATM   40  C6  UNL     1      -6.481  26.229  15.042  1.00  0.00     0.174 C 
BRANCH  40  41
HETATM   41  C7  UNL     1      -5.314  25.297  14.743  1.00  0.00     0.169 C 
BRANCH  41  42
HETATM   42  O1  UNL     1      -4.112  25.894  15.139  1.00  0.00    -0.389 OA
ATOM     43  H1  UNL     1      -3.685  26.292  14.389  1.00  0.00     0.210 HD
ENDBRANCH  41  42
BRANCH  41  44
HETATM   44  C8  UNL     1      -5.356  24.941  13.320  1.00  0.00    -0.028 A 
HETATM   45  C9  UNL     1      -4.309  24.264  12.754  1.00  0.00     0.012 A 
HETATM   46  C10 UNL     1      -4.287  23.906  11.430  1.00  0.00     0.030 A 
HETATM   47  C11 UNL     1      -5.357  24.233  10.607  1.00  0.00     0.029 A 
HETATM   48  C13 UNL     1      -6.411  24.916  11.182  1.00  0.00     0.030 A 
HETATM   49  C14 UNL     1      -6.423  25.272  12.523  1.00  0.00     0.012 A 
BRANCH  47  50
HETATM   50  N9  UNL     1      -5.377  23.888   9.233  1.00  0.00    -0.369 N 
ATOM     51  H9  UNL     1      -4.594  23.355   8.854  1.00  0.00     0.161 HD
BRANCH  50  52
HETATM   52  C12 UNL     1      -6.447  24.252   8.349  1.00  0.00     0.287 C 
BRANCH  52  53
HETATM   53  O2  UNL     1      -6.111  25.235   7.425  1.00  0.00    -0.382 OA
ATOM     54  H2  UNL     1      -5.548  24.931   6.722  1.00  0.00     0.211 HD
ENDBRANCH  52  53
ENDBRANCH  50  52
ENDBRANCH  47  50
ENDBRANCH  41  44
ENDBRANCH  40  41
ENDBRANCH  38  40
ENDBRANCH   7  38
TORSDOF 15
ENDMDL
MODEL 4
REMARK VINA RESULT: -6.817652678      3.096      6.039
REMARK  15 active torsions:
REMARK  status: ('A' for Active; 'I' for Inactive)
REMARK       I    between atoms: C1_4  and  N2_5 
REMARK       I    between atoms: C1_4  and  N11_38 
REMARK    1  A    between atoms: N2_5  and  C2_7 
REMARK    2  A    between atoms: C3_10  and  N4_11 
REMARK    3  A    between atoms: C5_18  and  N8_19 
REMARK    4  A    between atoms: N8_19  and  C6_21 
REMARK    5  A    between atoms: C6_21  and  C7_22 
REMARK    6  A    between atoms: C7_22  and  O1_23 
REMARK    7  A    between atoms: C7_22  and  C8_25 
REMARK    8  A    between atoms: C11_28  and  N9_29 
REMARK    9  A    between atoms: N9_29  and  C12_31 
REMARK   10  A    between atoms: C12_31  and  O2_32 
REMARK   11  A    between atoms: N11_38  and  C15_40 
REMARK   12  A    between atoms: C15_40  and  C16_41 
REMARK   13  A    between atoms: C16_41  and  N12_42 
REMARK   14  A    between atoms: N12_42  and  S1_44 
REMARK   15  A    between atoms: S1_44  and  C17_47 
ROOT
HETATM    1  C2  UNL     1     -10.478  26.169  11.159  1.00  0.00     0.725 A 
HETATM    2  N3  UNL     1     -10.033  24.988  10.762  1.00  0.00    -0.020 N 
ATOM      3  H3  UNL     1     -10.090  24.205  11.413  1.00  0.00     0.203 HD
HETATM    4  C3  UNL     1      -9.493  24.761   9.501  1.00  0.00     0.713 A 
HETATM    5  N7  UNL     1      -9.453  25.822   8.711  1.00  0.00    -0.021 N 
ATOM      6  H7  UNL     1      -9.067  25.719   7.773  1.00  0.00     0.203 HD
HETATM    7  C5  UNL     1      -9.911  27.058   9.104  1.00  0.00     0.707 A 
HETATM    8  N10 UNL     1     -10.422  27.232  10.326  1.00  0.00    -0.021 N 
ATOM      9  H10 UNL     1     -10.762  28.146  10.624  1.00  0.00     0.203 HD
ENDROOT
BRANCH   1  10
HETATM   10  N2  UNL     1     -10.992  26.352  12.337  1.00  0.00    -0.022 N 
HETATM   11  C1  UNL     1     -10.127  26.391  13.455  1.00  0.00     0.686 C 
HETATM   12  N1  UNL     1      -9.263  27.315  13.562  1.00  0.00    -0.234 N 
HETATM   13  N11 UNL     1     -10.252  25.372  14.427  1.00  0.00    -0.224 N 
ATOM     14  H12 UNL     1      -9.173  28.050  12.861  1.00  0.00     0.174 HD
ATOM     15  H11 UNL     1      -8.640  27.343  14.369  1.00  0.00     0.174 HD
ATOM     16  H11 UNL     1      -9.715  24.509  14.342  1.00  0.00     0.177 HD
ATOM     17  H2  UNL     1     -11.999  26.465  12.455  1.00  0.00     0.203 HD
BRANCH  13  18
HETATM   18  C15 UNL     1     -11.151  25.569  15.543  1.00  0.00     0.158 C 
BRANCH  18  19
HETATM   19  C16 UNL     1     -10.350  25.461  16.817  1.00  0.00     0.152 C 
BRANCH  19  20
HETATM   20  N12 UNL     1      -8.993  25.003  16.558  1.00  0.00    -0.314 N 
ATOM     21  H12 UNL     1      -8.717  24.054  16.304  1.00  0.00     0.172 HD
BRANCH  20  22
HETATM   22  S1  UNL     1      -7.933  26.351  16.754  1.00  0.00     0.260 S 
HETATM   23  O3  UNL     1      -7.447  26.467  18.167  1.00  0.00    -0.200 OA
HETATM   24  O4  UNL     1      -8.626  27.648  16.424  1.00  0.00    -0.200 OA
BRANCH  22  25
HETATM   25  C17 UNL     1      -6.558  26.106  15.708  1.00  0.00     0.095 A 
HETATM   26  C18 UNL     1      -5.611  27.085  15.516  1.00  0.00     0.032 A 
HETATM   27  C19 UNL     1      -4.522  26.877  14.681  1.00  0.00     0.076 A 
HETATM   28  C20 UNL     1      -4.425  25.649  14.051  1.00  0.00     0.245 A 
HETATM   29  O5  UNL     1      -3.467  25.393  13.283  1.00  0.00    -0.268 OA
HETATM   30  N13 UNL     1      -5.357  24.710  14.251  1.00  0.00    -0.332 N 
HETATM   31  C21 UNL     1      -6.420  24.899  15.059  1.00  0.00     0.116 A 
ATOM     32  H13 UNL     1      -5.260  23.814  13.772  1.00  0.00     0.168 HD
ENDBRANCH  22  25
ENDBRANCH  20  22
ENDBRANCH  19  20
ENDBRANCH  18  19
ENDBRANCH  13  18
ENDBRANCH   1  10
BRANCH   4  33
HETATM   33  N4  UNL     1      -9.069  23.464   9.243  1.00  0.00    -0.165 N 
HETATM   34  C4  UNL     1      -9.480  22.362   9.617  1.00  0.00     0.215 C 
HETATM   35  N5  UNL     1     -10.590  22.177  10.477  1.00  0.00    -0.066 NA
HETATM   36  N6  UNL     1      -8.796  21.148   9.155  1.00  0.00    -0.066 NA
ATOM     37  H4  UNL     1      -8.259  23.412   8.625  1.00  0.00     0.186 HD
ENDBRANCH   4  33
BRANCH   7  38
HETATM   38  N8  UNL     1      -9.830  28.018   8.249  1.00  0.00    -0.222 N 
ATOM     39  H8  UNL     1     -10.703  28.322   7.818  1.00  0.00     0.177 HD
BRANCH  38  40
HETATM   40  C6  UNL     1      -8.648  28.696   7.843  1.00  0.00     0.174 C 
BRANCH  40  41
HETATM   41  C7  UNL     1      -7.900  29.311   9.019  1.00  0.00     0.169 C 
BRANCH  41  42
HETATM   42  O1  UNL     1      -7.517  30.620   8.709  1.00  0.00    -0.389 OA
ATOM     43  H1  UNL     1      -7.638  31.182   9.467  1.00  0.00     0.210 HD
ENDBRANCH  41  42
BRANCH  41  44
HETATM   44  C8  UNL     1      -6.777  28.433   9.365  1.00  0.00    -0.028 A 
HETATM   45  C9  UNL     1      -6.414  28.273  10.676  1.00  0.00     0.012 A 
HETATM   46  C10 UNL     1      -5.372  27.470  11.065  1.00  0.00     0.030 A 
HETATM   47  C11 UNL     1      -4.636  26.782  10.109  1.00  0.00     0.029 A 
HETATM   48  C13 UNL     1      -5.004  26.946   8.789  1.00  0.00     0.030 A 
HETATM   49  C14 UNL     1      -6.062  27.760   8.407  1.00  0.00     0.012 A 
BRANCH  47  50
HETATM   50  N9  UNL     1      -3.548  25.944  10.462  1.00  0.00    -0.369 N 
ATOM     51  H9  UNL     1      -2.938  26.236  11.226  1.00  0.00     0.161 HD
BRANCH  50  52
HETATM   52  C12 UNL     1      -3.265  24.706   9.795  1.00  0.00     0.287 C 
BRANCH  52  53
HETATM   53  O2  UNL     1      -2.248  24.789   8.851  1.00  0.00    -0.382 OA
ATOM     54  H2  UNL     1      -1.750  23.987   8.745  1.00  0.00     0.211 HD
ENDBRANCH  52  53
ENDBRANCH  50  52
ENDBRANCH  47  50
ENDBRANCH  41  44
ENDBRANCH  40  41
ENDBRANCH  38  40
ENDBRANCH   7  38
TORSDOF 15
ENDMDL
MODEL 5
REMARK VINA RESULT: -6.809986676      2.852      6.059
REMARK  15 active torsions:
REMARK  status: ('A' for Active; 'I' for Inactive)
REMARK       I    between atoms: C1_4  and  N2_5 
REMARK       I    between atoms: C1_4  and  N11_38 
REMARK    1  A    between atoms: N2_5  and  C2_7 
REMARK    2  A    between atoms: C3_10  and  N4_11 
REMARK    3  A    between atoms: C5_18  and  N8_19 
REMARK    4  A    between atoms: N8_19  and  C6_21 
REMARK    5  A    between atoms: C6_21  and  C7_22 
REMARK    6  A    between atoms: C7_22  and  O1_23 
REMARK    7  A    between atoms: C7_22  and  C8_25 
REMARK    8  A    between atoms: C11_28  and  N9_29 
REMARK    9  A    between atoms: N9_29  and  C12_31 
REMARK   10  A    between atoms: C12_31  and  O2_32 
REMARK   11  A    between atoms: N11_38  and  C15_40 
REMARK   12  A    between atoms: C15_40  and  C16_41 
REMARK   13  A    between atoms: C16_41  and  N12_42 
REMARK   14  A    between atoms: N12_42  and  S1_44 
REMARK   15  A    between atoms: S1_44  and  C17_47 
ROOT
HETATM    1  C2  UNL     1      -8.869  26.048   9.207  1.00  0.00     0.725 A 
HETATM    2  N3  UNL     1      -9.033  27.226   8.628  1.00  0.00    -0.020 N 
ATOM      3  H3  UNL     1      -8.536  27.411   7.757  1.00  0.00     0.203 HD
HETATM    4  C3  UNL     1      -9.850  28.224   9.148  1.00  0.00     0.713 A 
HETATM    5  N7  UNL     1     -10.462  27.912  10.279  1.00  0.00    -0.021 N 
ATOM      6  H7  UNL     1     -11.075  28.604  10.710  1.00  0.00     0.203 HD
HETATM    7  C5  UNL     1     -10.306  26.694  10.896  1.00  0.00     0.707 A 
HETATM    8  N10 UNL     1      -9.510  25.763  10.362  1.00  0.00    -0.021 N 
ATOM      9  H10 UNL     1      -9.389  24.858  10.816  1.00  0.00     0.203 HD
ENDROOT
BRANCH   1  10
HETATM   10  N2  UNL     1      -8.112  25.127   8.694  1.00  0.00    -0.022 N 
HETATM   11  C1  UNL     1      -8.016  23.882   9.356  1.00  0.00     0.686 C 
HETATM   12  N1  UNL     1      -9.039  23.138   9.470  1.00  0.00    -0.234 N 
HETATM   13  N11 UNL     1      -6.761  23.507   9.888  1.00  0.00    -0.224 N 
ATOM     14  H12 UNL     1      -9.944  23.408   9.087  1.00  0.00     0.174 HD
ATOM     15  H11 UNL     1      -8.969  22.239   9.948  1.00  0.00     0.174 HD
ATOM     16  H11 UNL     1      -6.506  23.764  10.841  1.00  0.00     0.177 HD
ATOM     17  H2  UNL     1      -7.596  25.298   7.831  1.00  0.00     0.203 HD
BRANCH  13  18
HETATM   18  C15 UNL     1      -5.842  22.755   9.062  1.00  0.00     0.158 C 
BRANCH  18  19
HETATM   19  C16 UNL     1      -4.444  22.989   9.580  1.00  0.00     0.152 C 
BRANCH  19  20
HETATM   20  N12 UNL     1      -4.434  23.943  10.678  1.00  0.00    -0.314 N 
ATOM     21  H12 UNL     1      -4.922  23.839  11.569  1.00  0.00     0.172 HD
BRANCH  20  22
HETATM   22  S1  UNL     1      -3.451  25.282  10.208  1.00  0.00     0.260 S 
HETATM   23  O3  UNL     1      -2.397  24.872   9.225  1.00  0.00    -0.200 OA
HETATM   24  O4  UNL     1      -2.735  25.879  11.391  1.00  0.00    -0.200 OA
BRANCH  22  25
HETATM   25  C17 UNL     1      -4.488  26.466   9.456  1.00  0.00     0.095 A 
HETATM   26  C18 UNL     1      -5.083  27.473  10.182  1.00  0.00     0.032 A 
HETATM   27  C19 UNL     1      -5.906  28.409   9.570  1.00  0.00     0.076 A 
HETATM   28  C20 UNL     1      -6.105  28.291   8.207  1.00  0.00     0.245 A 
HETATM   29  O5  UNL     1      -6.837  29.103   7.590  1.00  0.00    -0.268 OA
HETATM   30  N13 UNL     1      -5.518  27.305   7.519  1.00  0.00    -0.332 N 
HETATM   31  C21 UNL     1      -4.716  26.389   8.100  1.00  0.00     0.116 A 
ATOM     32  H13 UNL     1      -5.684  27.243   6.514  1.00  0.00     0.168 HD
ENDBRANCH  22  25
ENDBRANCH  20  22
ENDBRANCH  19  20
ENDBRANCH  18  19
ENDBRANCH  13  18
ENDBRANCH   1  10
BRANCH   4  33
HETATM   33  N4  UNL     1      -9.910  29.405   8.419  1.00  0.00    -0.165 N 
HETATM   34  C4  UNL     1      -9.769  30.589   8.736  1.00  0.00     0.215 C 
HETATM   35  N5  UNL     1      -9.486  31.032  10.052  1.00  0.00    -0.066 NA
HETATM   36  N6  UNL     1      -9.895  31.627   7.707  1.00  0.00    -0.066 NA
ATOM     37  H4  UNL     1     -10.109  29.266   7.429  1.00  0.00     0.186 HD
ENDBRANCH   4  33
BRANCH   7  38
HETATM   38  N8  UNL     1     -10.958  26.496  11.990  1.00  0.00    -0.222 N 
ATOM     39  H8  UNL     1     -11.865  26.955  12.072  1.00  0.00     0.177 HD
BRANCH  38  40
HETATM   40  C6  UNL     1     -10.541  25.704  13.095  1.00  0.00     0.174 C 
BRANCH  40  41
HETATM   41  C7  UNL     1      -9.810  26.521  14.152  1.00  0.00     0.169 C 
BRANCH  41  42
HETATM   42  O1  UNL     1     -10.037  27.885  13.944  1.00  0.00    -0.389 OA
ATOM     43  H1  UNL     1     -10.463  28.264  14.704  1.00  0.00     0.210 HD
ENDBRANCH  41  42
BRANCH  41  44
HETATM   44  C8  UNL     1      -8.391  26.147  14.129  1.00  0.00    -0.028 A 
HETATM   45  C9  UNL     1      -7.924  25.184  14.984  1.00  0.00     0.012 A 
HETATM   46  C10 UNL     1      -6.610  24.793  15.014  1.00  0.00     0.030 A 
HETATM   47  C11 UNL     1      -5.693  25.385  14.154  1.00  0.00     0.029 A 
HETATM   48  C13 UNL     1      -6.168  26.355  13.294  1.00  0.00     0.030 A 
HETATM   49  C14 UNL     1      -7.500  26.742  13.272  1.00  0.00     0.012 A 
BRANCH  47  50
HETATM   50  N9  UNL     1      -4.324  25.017  14.152  1.00  0.00    -0.369 N 
ATOM     51  H9  UNL     1      -4.044  24.193  13.621  1.00  0.00     0.161 HD
BRANCH  50  52
HETATM   52  C12 UNL     1      -3.315  25.750  14.860  1.00  0.00     0.287 C 
BRANCH  52  53
HETATM   53  O2  UNL     1      -2.473  24.956  15.631  1.00  0.00    -0.382 OA
ATOM     54  H2  UNL     1      -1.632  25.355  15.823  1.00  0.00     0.211 HD
ENDBRANCH  52  53
ENDBRANCH  50  52
ENDBRANCH  47  50
ENDBRANCH  41  44
ENDBRANCH  40  41
ENDBRANCH  38  40
ENDBRANCH   7  38
TORSDOF 15
ENDMDL
