MODEL 1
REMARK VINA RESULT: -6.916050293      0.000      0.000
REMARK  16 active torsions:
REMARK  status: ('A' for Active; 'I' for Inactive)
REMARK    1  A    between atoms: N1_1  and  C1_4 
REMARK    2  A    between atoms: C2_7  and  N3_8 
REMARK    3  A    between atoms: N4_11  and  C5_12 
REMARK    4  A    between atoms: C5_12  and  C6_13 
REMARK    5  A    between atoms: C6_13  and  O1_14 
REMARK    6  A    between atoms: C9_19  and  C10_20 
REMARK    7  A    between atoms: C10_20  and  O3_21 
REMARK    8  A    between atoms: C10_20  and  N5_23 
REMARK    9  A    between atoms: N5_23  and  C11_25 
REMARK   10  A    between atoms: C14_28  and  C15_29 
REMARK       I    between atoms: N8_35  and  C17_37 
REMARK   11  A    between atoms: C17_37  and  C18_39 
REMARK   12  A    between atoms: C18_39  and  N9_40 
REMARK   13  A    between atoms: C18_39  and  C19_44 
REMARK   14  A    between atoms: C19_44  and  C20_45 
REMARK   15  A    between atoms: C20_45  and  C21_46 
REMARK   16  A    between atoms: C22_52  and  N12_53 
ROOT
HETATM    1  N5  UNL     1      -3.668  25.523  11.580  1.00  0.00    -0.322 N 
ATOM      2  H5  UNL     1      -2.666  25.339  11.629  1.00  0.00     0.169 HD
ENDROOT
BRANCH   1   3
HETATM    3  C10 UNL     1      -4.246  25.326  10.324  1.00  0.00     0.159 C 
BRANCH   3   4
HETATM    4  C9  UNL     1      -5.509  24.752   9.976  1.00  0.00     0.103 A 
HETATM    5  C2  UNL     1      -6.630  25.572   9.865  1.00  0.00     0.138 A 
HETATM    6  N2  UNL     1      -7.809  24.961   9.593  1.00  0.00    -0.176 N 
HETATM    7  C1  UNL     1      -7.906  23.629   9.435  1.00  0.00     0.679 A 
ATOM      8  H2  UNL     1      -8.650  25.530   9.505  1.00  0.00     0.186 HD
HETATM    9  N13 UNL     1      -6.820  22.820   9.542  1.00  0.00    -0.176 N 
HETATM   10  C22 UNL     1      -5.620  23.362   9.811  1.00  0.00     0.133 A 
ATOM     11  H13 UNL     1      -6.915  21.812   9.419  1.00  0.00     0.186 HD
BRANCH   5  12
HETATM   12  N3  UNL     1      -6.534  26.978  10.040  1.00  0.00    -0.356 N 
HETATM   13  C3  UNL     1      -6.944  27.678  11.232  1.00  0.00     0.145 C 
HETATM   14  C4  UNL     1      -7.869  28.830  10.947  1.00  0.00     0.145 C 
HETATM   15  N4  UNL     1      -8.144  28.968   9.523  1.00  0.00    -0.347 N 
HETATM   16  C7  UNL     1      -7.134  28.710   8.559  1.00  0.00     0.237 C 
HETATM   17  O2  UNL     1      -7.209  29.232   7.430  1.00  0.00    -0.272 OA
HETATM   18  C8  UNL     1      -5.996  27.802   8.956  1.00  0.00     0.227 C 
BRANCH  15  19
HETATM   19  C5  UNL     1      -9.483  29.377   9.163  1.00  0.00     0.151 C 
BRANCH  19  20
HETATM   20  C6  UNL     1      -9.560  30.778   8.611  1.00  0.00     0.183 C 
BRANCH  20  21
HETATM   21  O1  UNL     1      -9.830  30.837   7.264  1.00  0.00    -0.399 OA
ATOM     22  H1  UNL     1     -10.012  31.713   6.943  1.00  0.00     0.209 HD
ENDBRANCH  20  21
ENDBRANCH  19  20
ENDBRANCH  15  19
ENDBRANCH   5  12
BRANCH   7  23
HETATM   23  N1  UNL     1      -9.036  23.085   9.177  1.00  0.00    -0.234 N 
ATOM     24  H12 UNL     1      -9.878  23.548   9.519  1.00  0.00     0.174 HD
ATOM     25  H11 UNL     1      -9.084  22.216   8.645  1.00  0.00     0.174 HD
ENDBRANCH   7  23
BRANCH  10  26
HETATM   26  N12 UNL     1      -4.541  22.667   9.932  1.00  0.00    -0.384 N 
ATOM     27 2H12 UNL     1      -3.619  23.013   9.666  1.00  0.00     0.157 HD
ATOM     28 1H12 UNL     1      -4.634  21.725  10.313  1.00  0.00     0.157 HD
ENDBRANCH  10  26
ENDBRANCH   3   4
BRANCH   3  29
HETATM   29  O3  UNL     1      -3.484  25.746   9.337  1.00  0.00    -0.345 OA
ATOM     30  H3  UNL     1      -2.845  26.420   9.538  1.00  0.00     0.219 HD
ENDBRANCH   3  29
ENDBRANCH   1   3
BRANCH   1  31
HETATM   31  C11 UNL     1      -4.264  25.941  12.801  1.00  0.00     0.107 A 
HETATM   32  C12 UNL     1      -3.783  26.852  13.704  1.00  0.00     0.051 A 
HETATM   33  C13 UNL     1      -4.700  26.911  14.755  1.00  0.00     0.036 A 
HETATM   34  C14 UNL     1      -5.691  26.042  14.445  1.00  0.00     0.069 A 
HETATM   35  N11 UNL     1      -5.425  25.471  13.287  1.00  0.00    -0.340 N 
ATOM     36  H11 UNL     1      -6.014  24.775  12.828  1.00  0.00     0.167 HD
BRANCH  34  37
HETATM   37  C15 UNL     1      -6.882  25.756  15.261  1.00  0.00     0.119 A 
HETATM   38  N6  UNL     1      -7.178  26.140  16.489  1.00  0.00    -0.290 N 
HETATM   39  N7  UNL     1      -8.268  25.797  17.034  1.00  0.00    -0.279 N 
ATOM     40  H6  UNL     1      -6.519  26.720  17.007  1.00  0.00     0.188 HD
HETATM   41  C16 UNL     1      -9.124  25.035  16.347  1.00  0.00     0.168 A 
ATOM     42  H7  UNL     1      -8.489  26.098  17.983  1.00  0.00     0.189 HD
HETATM   43  N8  UNL     1     -10.285  24.584  16.732  1.00  0.00    -0.304 N 
HETATM   44  S1  UNL     1      -8.275  24.833  14.861  1.00  0.00    -0.031 SA
HETATM   45  C17 UNL     1     -11.019  23.788  15.820  1.00  0.00     0.254 C 
ATOM     46  H8  UNL     1     -10.652  24.798  17.659  1.00  0.00     0.171 HD
HETATM   47  O4  UNL     1     -10.773  23.898  14.594  1.00  0.00    -0.271 OA
BRANCH  45  48
HETATM   48  C18 UNL     1     -12.066  22.832  16.232  1.00  0.00     0.275 C 
BRANCH  48  49
HETATM   49  N9  UNL     1     -12.409  22.968  17.631  1.00  0.00    -0.066 N 
ATOM     50  H93 UNL     1     -11.960  22.244  18.193  1.00  0.00     0.275 HD
ATOM     51  H92 UNL     1     -11.966  23.790  18.042  1.00  0.00     0.275 HD
ATOM     52  H91 UNL     1     -13.418  22.978  17.781  1.00  0.00     0.275 HD
ENDBRANCH  48  49
BRANCH  48  53
HETATM   53  C19 UNL     1     -11.686  21.406  15.971  1.00  0.00     0.051 C 
BRANCH  53  54
HETATM   54  C20 UNL     1     -12.925  20.586  15.680  1.00  0.00     0.102 C 
BRANCH  54  55
HETATM   55  C21 UNL     1     -13.030  20.404  14.219  1.00  0.00     0.231 C 
HETATM   56  N10 UNL     1     -13.870  19.368  13.736  1.00  0.00    -0.062 NA
HETATM   57  O5  UNL     1     -12.394  21.143  13.432  1.00  0.00    -0.277 OA
ENDBRANCH  54  55
ENDBRANCH  53  54
ENDBRANCH  48  53
ENDBRANCH  45  48
ENDBRANCH  34  37
ENDBRANCH   1  31
TORSDOF 16
ENDMDL
MODEL 2
REMARK VINA RESULT: -6.667642206      4.626      9.107
REMARK  16 active torsions:
REMARK  status: ('A' for Active; 'I' for Inactive)
REMARK    1  A    between atoms: N1_1  and  C1_4 
REMARK    2  A    between atoms: C2_7  and  N3_8 
REMARK    3  A    between atoms: N4_11  and  C5_12 
REMARK    4  A    between atoms: C5_12  and  C6_13 
REMARK    5  A    between atoms: C6_13  and  O1_14 
REMARK    6  A    between atoms: C9_19  and  C10_20 
REMARK    7  A    between atoms: C10_20  and  O3_21 
REMARK    8  A    between atoms: C10_20  and  N5_23 
REMARK    9  A    between atoms: N5_23  and  C11_25 
REMARK   10  A    between atoms: C14_28  and  C15_29 
REMARK       I    between atoms: N8_35  and  C17_37 
REMARK   11  A    between atoms: C17_37  and  C18_39 
REMARK   12  A    between atoms: C18_39  and  N9_40 
REMARK   13  A    between atoms: C18_39  and  C19_44 
REMARK   14  A    between atoms: C19_44  and  C20_45 
REMARK   15  A    between atoms: C20_45  and  C21_46 
REMARK   16  A    between atoms: C22_52  and  N12_53 
ROOT
HETATM    1  N5  UNL     1      -7.844  24.959   8.479  1.00  0.00    -0.322 N 
ATOM      2  H5  UNL     1      -8.326  24.158   8.070  1.00  0.00     0.169 HD
ENDROOT
BRANCH   1   3
HETATM    3  C10 UNL     1      -6.468  24.797   8.654  1.00  0.00     0.159 C 
BRANCH   3   4
HETATM    4  C9  UNL     1      -5.751  24.080   9.664  1.00  0.00     0.103 A 
HETATM    5  C2  UNL     1      -5.417  24.719  10.856  1.00  0.00     0.138 A 
HETATM    6  N2  UNL     1      -4.685  24.007  11.746  1.00  0.00    -0.176 N 
HETATM    7  C1  UNL     1      -4.294  22.743  11.504  1.00  0.00     0.679 A 
ATOM      8  H2  UNL     1      -4.423  24.444  12.630  1.00  0.00     0.186 HD
HETATM    9  N13 UNL     1      -4.613  22.111  10.347  1.00  0.00    -0.176 N 
HETATM   10  C22 UNL     1      -5.337  22.761   9.419  1.00  0.00     0.133 A 
ATOM     11  H13 UNL     1      -4.306  21.152  10.182  1.00  0.00     0.186 HD
BRANCH   5  12
HETATM   12  N3  UNL     1      -5.821  26.057  11.112  1.00  0.00    -0.356 N 
HETATM   13  C3  UNL     1      -5.148  27.221  10.591  1.00  0.00     0.145 C 
HETATM   14  C4  UNL     1      -4.808  28.227  11.656  1.00  0.00     0.145 C 
HETATM   15  N4  UNL     1      -5.232  27.786  12.978  1.00  0.00    -0.347 N 
HETATM   16  C7  UNL     1      -6.443  27.063  13.149  1.00  0.00     0.237 C 
HETATM   17  O2  UNL     1      -7.018  27.074  14.255  1.00  0.00    -0.272 OA
HETATM   18  C8  UNL     1      -6.986  26.306  11.963  1.00  0.00     0.227 C 
BRANCH  15  19
HETATM   19  C5  UNL     1      -4.361  28.124  14.081  1.00  0.00     0.151 C 
BRANCH  19  20
HETATM   20  C6  UNL     1      -3.558  26.957  14.597  1.00  0.00     0.183 C 
BRANCH  20  21
HETATM   21  O1  UNL     1      -3.203  26.047  13.629  1.00  0.00    -0.399 OA
ATOM     22  H1  UNL     1      -3.407  25.146  13.851  1.00  0.00     0.209 HD
ENDBRANCH  20  21
ENDBRANCH  19  20
ENDBRANCH  15  19
ENDBRANCH   5  12
BRANCH   7  23
HETATM   23  N1  UNL     1      -3.604  22.099  12.370  1.00  0.00    -0.234 N 
ATOM     24  H12 UNL     1      -3.607  22.438  13.332  1.00  0.00     0.174 HD
ATOM     25  H11 UNL     1      -3.071  21.273  12.098  1.00  0.00     0.174 HD
ENDBRANCH   7  23
BRANCH  10  26
HETATM   26  N12 UNL     1      -5.679  22.236   8.292  1.00  0.00    -0.384 N 
ATOM     27 2H12 UNL     1      -6.620  21.892   8.098  1.00  0.00     0.157 HD
ATOM     28 1H12 UNL     1      -4.959  22.167   7.573  1.00  0.00     0.157 HD
ENDBRANCH  10  26
ENDBRANCH   3   4
BRANCH   3  29
HETATM   29  O3  UNL     1      -5.757  25.409   7.733  1.00  0.00    -0.345 OA
ATOM     30  H3  UNL     1      -6.059  25.340   6.834  1.00  0.00     0.219 HD
ENDBRANCH   3  29
ENDBRANCH   1   3
BRANCH   1  31
HETATM   31  C11 UNL     1      -8.675  26.072   8.782  1.00  0.00     0.107 A 
HETATM   32  C12 UNL     1      -9.826  26.084   9.526  1.00  0.00     0.051 A 
HETATM   33  C13 UNL     1     -10.301  27.396   9.524  1.00  0.00     0.036 A 
HETATM   34  C14 UNL     1      -9.424  28.118   8.787  1.00  0.00     0.069 A 
HETATM   35  N11 UNL     1      -8.465  27.326   8.351  1.00  0.00    -0.340 N 
ATOM     36  H11 UNL     1      -7.679  27.622   7.772  1.00  0.00     0.167 HD
BRANCH  34  37
HETATM   37  C15 UNL     1      -9.512  29.558   8.498  1.00  0.00     0.119 A 
HETATM   38  N6  UNL     1      -9.750  30.179   7.357  1.00  0.00    -0.290 N 
HETATM   39  N7  UNL     1      -9.795  31.442   7.299  1.00  0.00    -0.279 N 
ATOM     40  H6  UNL     1      -9.899  29.632   6.509  1.00  0.00     0.188 HD
HETATM   41  C16 UNL     1      -9.596  32.149   8.416  1.00  0.00     0.168 A 
ATOM     42  H7  UNL     1      -9.979  31.914   6.414  1.00  0.00     0.189 HD
HETATM   43  N8  UNL     1      -9.603  33.444   8.558  1.00  0.00    -0.304 N 
HETATM   44  S1  UNL     1      -9.339  30.892   9.566  1.00  0.00    -0.031 SA
HETATM   45  C17 UNL     1      -9.365  33.968   9.851  1.00  0.00     0.254 C 
ATOM     46  H8  UNL     1      -9.774  34.061   7.763  1.00  0.00     0.171 HD
HETATM   47  O4  UNL     1      -9.587  33.234  10.846  1.00  0.00    -0.271 OA
BRANCH  45  48
HETATM   48  C18 UNL     1      -8.870  35.337  10.098  1.00  0.00     0.275 C 
BRANCH  48  49
HETATM   49  N9  UNL     1      -9.859  36.342   9.777  1.00  0.00    -0.066 N 
ATOM     50  H93 UNL     1      -9.433  37.266   9.694  1.00  0.00     0.275 HD
ATOM     51  H92 UNL     1     -10.198  36.234   8.820  1.00  0.00     0.275 HD
ATOM     52  H91 UNL     1     -10.631  36.350  10.443  1.00  0.00     0.275 HD
ENDBRANCH  48  49
BRANCH  48  53
HETATM   53  C19 UNL     1      -7.614  35.646   9.341  1.00  0.00     0.051 C 
BRANCH  53  54
HETATM   54  C20 UNL     1      -6.448  34.887   9.940  1.00  0.00     0.102 C 
BRANCH  54  55
HETATM   55  C21 UNL     1      -5.930  33.950   8.924  1.00  0.00     0.231 C 
HETATM   56  N10 UNL     1      -4.885  34.400   8.077  1.00  0.00    -0.062 NA
HETATM   57  O5  UNL     1      -6.402  32.795   8.814  1.00  0.00    -0.277 OA
ENDBRANCH  54  55
ENDBRANCH  53  54
ENDBRANCH  48  53
ENDBRANCH  45  48
ENDBRANCH  34  37
ENDBRANCH   1  31
TORSDOF 16
ENDMDL
MODEL 3
REMARK VINA RESULT: -6.585108089      3.593      7.489
REMARK  16 active torsions:
REMARK  status: ('A' for Active; 'I' for Inactive)
REMARK    1  A    between atoms: N1_1  and  C1_4 
REMARK    2  A    between atoms: C2_7  and  N3_8 
REMARK    3  A    between atoms: N4_11  and  C5_12 
REMARK    4  A    between atoms: C5_12  and  C6_13 
REMARK    5  A    between atoms: C6_13  and  O1_14 
REMARK    6  A    between atoms: C9_19  and  C10_20 
REMARK    7  A    between atoms: C10_20  and  O3_21 
REMARK    8  A    between atoms: C10_20  and  N5_23 
REMARK    9  A    between atoms: N5_23  and  C11_25 
REMARK   10  A    between atoms: C14_28  and  C15_29 
REMARK       I    between atoms: N8_35  and  C17_37 
REMARK   11  A    between atoms: C17_37  and  C18_39 
REMARK   12  A    between atoms: C18_39  and  N9_40 
REMARK   13  A    between atoms: C18_39  and  C19_44 
REMARK   14  A    between atoms: C19_44  and  C20_45 
REMARK   15  A    between atoms: C20_45  and  C21_46 
REMARK   16  A    between atoms: C22_52  and  N12_53 
ROOT
HETATM    1  N5  UNL     1      -8.283  23.963   9.273  1.00  0.00    -0.322 N 
ATOM      2  H5  UNL     1      -8.404  23.152   8.666  1.00  0.00     0.169 HD
ENDROOT
BRANCH   1   3
HETATM    3  C10 UNL     1      -9.424  24.750   9.446  1.00  0.00     0.159 C 
BRANCH   3   4
HETATM    4  C9  UNL     1      -9.820  25.560  10.558  1.00  0.00     0.103 A 
HETATM    5  C2  UNL     1      -9.376  26.878  10.641  1.00  0.00     0.138 A 
HETATM    6  N2  UNL     1      -9.734  27.574  11.747  1.00  0.00    -0.176 N 
HETATM    7  C1  UNL     1     -10.481  27.030  12.724  1.00  0.00     0.679 A 
ATOM      8  H2  UNL     1      -9.427  28.542  11.841  1.00  0.00     0.186 HD
HETATM    9  N13 UNL     1     -10.918  25.747  12.654  1.00  0.00    -0.176 N 
HETATM   10  C22 UNL     1     -10.598  25.001  11.584  1.00  0.00     0.133 A 
ATOM     11  H13 UNL     1     -11.483  25.354  13.407  1.00  0.00     0.186 HD
BRANCH   5  12
HETATM   12  N3  UNL     1      -8.579  27.453   9.615  1.00  0.00    -0.356 N 
HETATM   13  C3  UNL     1      -7.143  27.566   9.670  1.00  0.00     0.145 C 
HETATM   14  C4  UNL     1      -6.654  28.961   9.388  1.00  0.00     0.145 C 
HETATM   15  N4  UNL     1      -7.752  29.882   9.129  1.00  0.00    -0.347 N 
HETATM   16  C7  UNL     1      -8.906  29.456   8.418  1.00  0.00     0.237 C 
HETATM   17  O2  UNL     1      -9.611  30.295   7.825  1.00  0.00    -0.272 OA
HETATM   18  C8  UNL     1      -9.227  27.982   8.413  1.00  0.00     0.227 C 
BRANCH  15  19
HETATM   19  C5  UNL     1      -7.596  31.228   9.631  1.00  0.00     0.151 C 
BRANCH  19  20
HETATM   20  C6  UNL     1      -7.783  31.343  11.123  1.00  0.00     0.183 C 
BRANCH  20  21
HETATM   21  O1  UNL     1      -8.770  30.531  11.630  1.00  0.00    -0.399 OA
ATOM     22  H1  UNL     1      -9.588  30.981  11.811  1.00  0.00     0.209 HD
ENDBRANCH  20  21
ENDBRANCH  19  20
ENDBRANCH  15  19
ENDBRANCH   5  12
BRANCH   7  23
HETATM   23  N1  UNL     1     -10.803  27.719  13.756  1.00  0.00    -0.234 N 
ATOM     24  H12 UNL     1     -11.749  27.618  14.122  1.00  0.00     0.174 HD
ATOM     25  H11 UNL     1     -10.126  28.346  14.191  1.00  0.00     0.174 HD
ENDBRANCH   7  23
BRANCH  10  26
HETATM   26  N12 UNL     1     -10.968  23.774  11.440  1.00  0.00    -0.384 N 
ATOM     27 2H12 UNL     1     -10.662  23.184  10.666  1.00  0.00     0.157 HD
ATOM     28 1H12 UNL     1     -11.600  23.393  12.144  1.00  0.00     0.157 HD
ENDBRANCH  10  26
ENDBRANCH   3   4
BRANCH   3  29
HETATM   29  O3  UNL     1     -10.232  24.718   8.409  1.00  0.00    -0.345 OA
ATOM     30  H3  UNL     1     -10.271  23.907   7.914  1.00  0.00     0.219 HD
ENDBRANCH   3  29
ENDBRANCH   1   3
BRANCH   1  31
HETATM   31  C11 UNL     1      -6.978  24.121   9.815  1.00  0.00     0.107 A 
HETATM   32  C12 UNL     1      -5.779  23.836   9.217  1.00  0.00     0.051 A 
HETATM   33  C13 UNL     1      -4.778  24.129  10.144  1.00  0.00     0.036 A 
HETATM   34  C14 UNL     1      -5.408  24.578  11.255  1.00  0.00     0.069 A 
HETATM   35  N11 UNL     1      -6.711  24.570  11.052  1.00  0.00    -0.340 N 
ATOM     36  H11 UNL     1      -7.412  24.861  11.734  1.00  0.00     0.167 HD
BRANCH  34  37
HETATM   37  C15 UNL     1      -4.763  25.005  12.506  1.00  0.00     0.119 A 
HETATM   38  N6  UNL     1      -4.766  24.435  13.698  1.00  0.00    -0.290 N 
HETATM   39  N7  UNL     1      -4.141  24.952  14.669  1.00  0.00    -0.279 N 
ATOM     40  H6  UNL     1      -5.279  23.565  13.837  1.00  0.00     0.188 HD
HETATM   41  C16 UNL     1      -3.472  26.092  14.476  1.00  0.00     0.168 A 
ATOM     42  H7  UNL     1      -4.147  24.504  15.586  1.00  0.00     0.189 HD
HETATM   43  N8  UNL     1      -2.775  26.771  15.343  1.00  0.00    -0.304 N 
HETATM   44  S1  UNL     1      -3.790  26.389  12.808  1.00  0.00    -0.031 SA
HETATM   45  C17 UNL     1      -2.150  27.962  14.901  1.00  0.00     0.254 C 
ATOM     46  H8  UNL     1      -2.683  26.455  16.308  1.00  0.00     0.171 HD
HETATM   47  O4  UNL     1      -1.915  28.096  13.675  1.00  0.00    -0.271 OA
BRANCH  45  48
HETATM   48  C18 UNL     1      -1.755  29.060  15.806  1.00  0.00     0.275 C 
BRANCH  48  49
HETATM   49  N9  UNL     1      -1.835  30.353  15.162  1.00  0.00    -0.066 N 
ATOM     50  H93 UNL     1      -0.941  30.844  15.210  1.00  0.00     0.275 HD
ATOM     51  H92 UNL     1      -1.913  30.257  14.149  1.00  0.00     0.275 HD
ATOM     52  H91 UNL     1      -2.590  30.925  15.538  1.00  0.00     0.275 HD
ENDBRANCH  48  49
BRANCH  48  53
HETATM   53  C19 UNL     1      -0.373  28.888  16.360  1.00  0.00     0.051 C 
BRANCH  53  54
HETATM   54  C20 UNL     1      -0.425  28.074  17.636  1.00  0.00     0.102 C 
BRANCH  54  55
HETATM   55  C21 UNL     1       0.302  26.809  17.411  1.00  0.00     0.231 C 
HETATM   56  N10 UNL     1      -0.460  25.640  17.154  1.00  0.00    -0.062 NA
HETATM   57  O5  UNL     1       1.554  26.772  17.447  1.00  0.00    -0.277 OA
ENDBRANCH  54  55
ENDBRANCH  53  54
ENDBRANCH  48  53
ENDBRANCH  45  48
ENDBRANCH  34  37
ENDBRANCH   1  31
TORSDOF 16
ENDMDL
MODEL 4
REMARK VINA RESULT: -6.446567623      3.853      8.652
REMARK  16 active torsions:
REMARK  status: ('A' for Active; 'I' for Inactive)
REMARK    1  A    between atoms: N1_1  and  C1_4 
REMARK    2  A    between atoms: C2_7  and  N3_8 
REMARK    3  A    between atoms: N4_11  and  C5_12 
REMARK    4  A    between atoms: C5_12  and  C6_13 
REMARK    5  A    between atoms: C6_13  and  O1_14 
REMARK    6  A    between atoms: C9_19  and  C10_20 
REMARK    7  A    between atoms: C10_20  and  O3_21 
REMARK    8  A    between atoms: C10_20  and  N5_23 
REMARK    9  A    between atoms: N5_23  and  C11_25 
REMARK   10  A    between atoms: C14_28  and  C15_29 
REMARK       I    between atoms: N8_35  and  C17_37 
REMARK   11  A    between atoms: C17_37  and  C18_39 
REMARK   12  A    between atoms: C18_39  and  N9_40 
REMARK   13  A    between atoms: C18_39  and  C19_44 
REMARK   14  A    between atoms: C19_44  and  C20_45 
REMARK   15  A    between atoms: C20_45  and  C21_46 
REMARK   16  A    between atoms: C22_52  and  N12_53 
ROOT
HETATM    1  N5  UNL     1      -9.994  25.843  12.277  1.00  0.00    -0.322 N 
ATOM      2  H5  UNL     1     -10.578  25.129  12.712  1.00  0.00     0.169 HD
ENDROOT
BRANCH   1   3
HETATM    3  C10 UNL     1      -9.914  25.775  10.884  1.00  0.00     0.159 C 
BRANCH   3   4
HETATM    4  C9  UNL     1      -9.122  26.544   9.973  1.00  0.00     0.103 A 
HETATM    5  C2  UNL     1      -7.814  26.151   9.698  1.00  0.00     0.138 A 
HETATM    6  N2  UNL     1      -7.096  26.953   8.875  1.00  0.00    -0.176 N 
HETATM    7  C1  UNL     1      -7.609  28.077   8.343  1.00  0.00     0.679 A 
ATOM      8  H2  UNL     1      -6.135  26.696   8.652  1.00  0.00     0.186 HD
HETATM    9  N13 UNL     1      -8.882  28.470   8.605  1.00  0.00    -0.176 N 
HETATM   10  C22 UNL     1      -9.649  27.719   9.414  1.00  0.00     0.133 A 
ATOM     11  H13 UNL     1      -9.252  29.325   8.191  1.00  0.00     0.186 HD
BRANCH   5  12
HETATM   12  N3  UNL     1      -7.266  24.970  10.265  1.00  0.00    -0.356 N 
HETATM   13  C3  UNL     1      -6.574  24.922  11.530  1.00  0.00     0.145 C 
HETATM   14  C4  UNL     1      -5.232  24.248  11.439  1.00  0.00     0.145 C 
HETATM   15  N4  UNL     1      -4.936  23.803  10.084  1.00  0.00    -0.347 N 
HETATM   16  C7  UNL     1      -5.963  23.291   9.246  1.00  0.00     0.237 C 
HETATM   17  O2  UNL     1      -5.671  22.528   8.306  1.00  0.00    -0.272 OA
HETATM   18  C8  UNL     1      -7.384  23.703   9.542  1.00  0.00     0.227 C 
BRANCH  15  19
HETATM   19  C5  UNL     1      -3.560  23.912   9.655  1.00  0.00     0.151 C 
BRANCH  19  20
HETATM   20  C6  UNL     1      -3.061  25.333   9.578  1.00  0.00     0.183 C 
BRANCH  20  21
HETATM   21  O1  UNL     1      -2.682  25.727   8.316  1.00  0.00    -0.399 OA
ATOM     22  H1  UNL     1      -3.234  26.401   7.937  1.00  0.00     0.209 HD
ENDBRANCH  20  21
ENDBRANCH  19  20
ENDBRANCH  15  19
ENDBRANCH   5  12
BRANCH   7  23
HETATM   23  N1  UNL     1      -6.902  28.811   7.568  1.00  0.00    -0.234 N 
ATOM     24  H12 UNL     1      -6.065  28.401   7.153  1.00  0.00     0.174 HD
ATOM     25  H11 UNL     1      -7.174  29.775   7.376  1.00  0.00     0.174 HD
ENDBRANCH   7  23
BRANCH  10  26
HETATM   26  N12 UNL     1     -10.865  28.022   9.717  1.00  0.00    -0.384 N 
ATOM     27 2H12 UNL     1     -11.180  28.183  10.674  1.00  0.00     0.157 HD
ATOM     28 1H12 UNL     1     -11.532  28.096   8.948  1.00  0.00     0.157 HD
ENDBRANCH  10  26
ENDBRANCH   3   4
BRANCH   3  29
HETATM   29  O3  UNL     1     -10.698  24.854  10.369  1.00  0.00    -0.345 OA
ATOM     30  H3  UNL     1     -10.516  24.578   9.478  1.00  0.00     0.219 HD
ENDBRANCH   3  29
ENDBRANCH   1   3
BRANCH   1  31
HETATM   31  C11 UNL     1      -9.386  26.757  13.180  1.00  0.00     0.107 A 
HETATM   32  C12 UNL     1     -10.002  27.595  14.071  1.00  0.00     0.051 A 
HETATM   33  C13 UNL     1      -8.997  28.316  14.718  1.00  0.00     0.036 A 
HETATM   34  C14 UNL     1      -7.824  27.886  14.197  1.00  0.00     0.069 A 
HETATM   35  N11 UNL     1      -8.063  26.963  13.286  1.00  0.00    -0.340 N 
ATOM     36  H11 UNL     1      -7.349  26.477  12.743  1.00  0.00     0.167 HD
BRANCH  34  37
HETATM   37  C15 UNL     1      -6.482  28.364  14.566  1.00  0.00     0.119 A 
HETATM   38  N6  UNL     1      -6.084  29.024  15.639  1.00  0.00    -0.290 N 
HETATM   39  N7  UNL     1      -4.871  29.351  15.790  1.00  0.00    -0.279 N 
ATOM     40  H6  UNL     1      -6.765  29.273  16.356  1.00  0.00     0.188 HD
HETATM   41  C16 UNL     1      -3.988  29.020  14.843  1.00  0.00     0.168 A 
ATOM     42  H7  UNL     1      -4.572  29.860  16.622  1.00  0.00     0.189 HD
HETATM   43  N8  UNL     1      -2.708  29.265  14.818  1.00  0.00    -0.304 N 
HETATM   44  S1  UNL     1      -5.000  28.205  13.711  1.00  0.00    -0.031 SA
HETATM   45  C17 UNL     1      -1.971  28.811  13.698  1.00  0.00     0.254 C 
ATOM     46  H8  UNL     1      -2.253  29.767  15.580  1.00  0.00     0.171 HD
HETATM   47  O4  UNL     1      -2.433  27.861  13.021  1.00  0.00    -0.271 OA
BRANCH  45  48
HETATM   48  C18 UNL     1      -0.681  29.395  13.281  1.00  0.00     0.275 C 
BRANCH  48  49
HETATM   49  N9  UNL     1       0.329  29.280  14.310  1.00  0.00    -0.066 N 
ATOM     50  H93 UNL     1      -0.005  29.655  15.198  1.00  0.00     0.275 HD
ATOM     51  H92 UNL     1       0.466  28.307  14.586  1.00  0.00     0.275 HD
ATOM     52  H91 UNL     1       1.211  29.713  14.035  1.00  0.00     0.275 HD
ENDBRANCH  48  49
BRANCH  48  53
HETATM   53  C19 UNL     1      -0.796  30.836  12.885  1.00  0.00     0.051 C 
BRANCH  53  54
HETATM   54  C20 UNL     1      -1.238  30.943  11.441  1.00  0.00     0.102 C 
BRANCH  54  55
HETATM   55  C21 UNL     1      -0.060  31.275  10.616  1.00  0.00     0.231 C 
HETATM   56  N10 UNL     1       0.653  32.462  10.922  1.00  0.00    -0.062 NA
HETATM   57  O5  UNL     1       0.297  30.528   9.675  1.00  0.00    -0.277 OA
ENDBRANCH  54  55
ENDBRANCH  53  54
ENDBRANCH  48  53
ENDBRANCH  45  48
ENDBRANCH  34  37
ENDBRANCH   1  31
TORSDOF 16
ENDMDL
MODEL 5
REMARK VINA RESULT: -6.393197544      4.731      9.404
REMARK  16 active torsions:
REMARK  status: ('A' for Active; 'I' for Inactive)
REMARK    1  A    between atoms: N1_1  and  C1_4 
REMARK    2  A    between atoms: C2_7  and  N3_8 
REMARK    3  A    between atoms: N4_11  and  C5_12 
REMARK    4  A    between atoms: C5_12  and  C6_13 
REMARK    5  A    between atoms: C6_13  and  O1_14 
REMARK    6  A    between atoms: C9_19  and  C10_20 
REMARK    7  A    between atoms: C10_20  and  O3_21 
REMARK    8  A    between atoms: C10_20  and  N5_23 
REMARK    9  A    between atoms: N5_23  and  C11_25 
REMARK   10  A    between atoms: C14_28  and  C15_29 
REMARK       I    between atoms: N8_35  and  C17_37 
REMARK   11  A    between atoms: C17_37  and  C18_39 
REMARK   12  A    between atoms: C18_39  and  N9_40 
REMARK   13  A    between atoms: C18_39  and  C19_44 
REMARK   14  A    between atoms: C19_44  and  C20_45 
REMARK   15  A    between atoms: C20_45  and  C21_46 
REMARK   16  A    between atoms: C22_52  and  N12_53 
ROOT
HETATM    1  N5  UNL     1      -4.318  24.739  11.376  1.00  0.00    -0.322 N 
ATOM      2  H5  UNL     1      -4.157  23.819  11.786  1.00  0.00     0.169 HD
ENDROOT
BRANCH   1   3
HETATM    3  C10 UNL     1      -4.914  24.728  10.113  1.00  0.00     0.159 C 
BRANCH   3   4
HETATM    4  C9  UNL     1      -6.270  24.462   9.741  1.00  0.00     0.103 A 
HETATM    5  C2  UNL     1      -7.225  25.470   9.852  1.00  0.00     0.138 A 
HETATM    6  N2  UNL     1      -8.502  25.138   9.544  1.00  0.00    -0.176 N 
HETATM    7  C1  UNL     1      -8.845  23.899   9.147  1.00  0.00     0.679 A 
ATOM      8  H2  UNL     1      -9.228  25.851   9.614  1.00  0.00     0.186 HD
HETATM    9  N13 UNL     1      -7.923  22.909   9.035  1.00  0.00    -0.176 N 
HETATM   10  C22 UNL     1      -6.638  23.171   9.327  1.00  0.00     0.133 A 
ATOM     11  H13 UNL     1      -8.204  21.977   8.733  1.00  0.00     0.186 HD
BRANCH   5  12
HETATM   12  N3  UNL     1      -6.869  26.777  10.280  1.00  0.00    -0.356 N 
HETATM   13  C3  UNL     1      -7.079  27.280  11.615  1.00  0.00     0.145 C 
HETATM   14  C4  UNL     1      -7.798  28.601  11.637  1.00  0.00     0.145 C 
HETATM   15  N4  UNL     1      -8.124  29.067  10.296  1.00  0.00    -0.347 N 
HETATM   16  C7  UNL     1      -7.232  28.846   9.212  1.00  0.00     0.237 C 
HETATM   17  O2  UNL     1      -7.277  29.589   8.213  1.00  0.00    -0.272 OA
HETATM   18  C8  UNL     1      -6.255  27.703   9.326  1.00  0.00     0.227 C 
BRANCH  15  19
HETATM   19  C5  UNL     1      -9.386  29.754  10.141  1.00  0.00     0.151 C 
BRANCH  19  20
HETATM   20  C6  UNL     1     -10.584  28.842  10.206  1.00  0.00     0.183 C 
BRANCH  20  21
HETATM   21  O1  UNL     1     -10.481  27.721   9.417  1.00  0.00    -0.399 OA
ATOM     22  H1  UNL     1     -11.278  27.501   8.948  1.00  0.00     0.209 HD
ENDBRANCH  20  21
ENDBRANCH  19  20
ENDBRANCH  15  19
ENDBRANCH   5  12
BRANCH   7  23
HETATM   23  N1  UNL     1     -10.062  23.622   8.861  1.00  0.00    -0.234 N 
ATOM     24  H12 UNL     1     -10.728  24.392   8.806  1.00  0.00     0.174 HD
ATOM     25  H11 UNL     1     -10.348  22.657   8.695  1.00  0.00     0.174 HD
ENDBRANCH   7  23
BRANCH  10  26
HETATM   26  N12 UNL     1      -5.700  22.288   9.252  1.00  0.00    -0.384 N 
ATOM     27 2H12 UNL     1      -4.826  22.442   8.749  1.00  0.00     0.157 HD
ATOM     28 1H12 UNL     1      -5.861  21.397   9.722  1.00  0.00     0.157 HD
ENDBRANCH  10  26
ENDBRANCH   3   4
BRANCH   3  29
HETATM   29  O3  UNL     1      -4.071  25.012   9.144  1.00  0.00    -0.345 OA
ATOM     30  H3  UNL     1      -3.401  24.367   8.949  1.00  0.00     0.219 HD
ENDBRANCH   3  29
ENDBRANCH   1   3
BRANCH   1  31
HETATM   31  C11 UNL     1      -3.902  25.837  12.177  1.00  0.00     0.107 A 
HETATM   32  C12 UNL     1      -3.843  25.907  13.544  1.00  0.00     0.051 A 
HETATM   33  C13 UNL     1      -3.400  27.189  13.870  1.00  0.00     0.036 A 
HETATM   34  C14 UNL     1      -3.210  27.836  12.696  1.00  0.00     0.069 A 
HETATM   35  N11 UNL     1      -3.510  27.029  11.698  1.00  0.00    -0.340 N 
ATOM     36  H11 UNL     1      -3.452  27.273  10.709  1.00  0.00     0.167 HD
BRANCH  34  37
HETATM   37  C15 UNL     1      -2.750  29.224  12.535  1.00  0.00     0.119 A 
HETATM   38  N6  UNL     1      -3.075  30.309  13.215  1.00  0.00    -0.290 N 
HETATM   39  N7  UNL     1      -2.566  31.432  12.934  1.00  0.00    -0.279 N 
ATOM     40  H6  UNL     1      -3.748  30.239  13.979  1.00  0.00     0.188 HD
HETATM   41  C16 UNL     1      -1.687  31.512  11.930  1.00  0.00     0.168 A 
ATOM     42  H7  UNL     1      -2.822  32.265  13.464  1.00  0.00     0.189 HD
HETATM   43  N8  UNL     1      -1.060  32.568  11.493  1.00  0.00    -0.304 N 
HETATM   44  S1  UNL     1      -1.628  29.871  11.406  1.00  0.00    -0.031 SA
HETATM   45  C17 UNL     1      -0.168  32.404  10.407  1.00  0.00     0.254 C 
ATOM     46  H8  UNL     1      -1.208  33.482  11.921  1.00  0.00     0.171 HD
HETATM   47  O4  UNL     1       0.315  31.265  10.194  1.00  0.00    -0.271 OA
BRANCH  45  48
HETATM   48  C18 UNL     1       0.231  33.504   9.507  1.00  0.00     0.275 C 
BRANCH  48  49
HETATM   49  N9  UNL     1      -0.893  34.050   8.779  1.00  0.00    -0.066 N 
ATOM     50  H93 UNL     1      -1.383  33.322   8.257  1.00  0.00     0.275 HD
ATOM     51  H92 UNL     1      -1.644  34.327   9.412  1.00  0.00     0.275 HD
ATOM     52  H91 UNL     1      -0.621  34.821   8.170  1.00  0.00     0.275 HD
ENDBRANCH  48  49
BRANCH  48  53
HETATM   53  C19 UNL     1       1.283  33.095   8.520  1.00  0.00     0.051 C 
BRANCH  53  54
HETATM   54  C20 UNL     1       0.677  32.974   7.138  1.00  0.00     0.102 C 
BRANCH  54  55
HETATM   55  C21 UNL     1       1.349  31.867   6.430  1.00  0.00     0.231 C 
HETATM   56  N10 UNL     1       1.577  30.662   7.142  1.00  0.00    -0.062 NA
HETATM   57  O5  UNL     1       1.708  31.992   5.235  1.00  0.00    -0.277 OA
ENDBRANCH  54  55
ENDBRANCH  53  54
ENDBRANCH  48  53
ENDBRANCH  45  48
ENDBRANCH  34  37
ENDBRANCH   1  31
TORSDOF 16
ENDMDL
