MODEL 1
REMARK VINA RESULT: -6.792833934      0.000      0.000
REMARK  9 active torsions:
REMARK  status: ('A' for Active; 'I' for Inactive)
REMARK    1  A    between atoms: C3_3  and  C4_4 
REMARK       I    between atoms: C4_4  and  N1_6 
REMARK    2  A    between atoms: N1_6  and  C5_8 
REMARK    3  A    between atoms: C6_9  and  C7_10 
REMARK    4  A    between atoms: C7_10  and  N2_11 
REMARK       I    between atoms: N2_11  and  C8_13 
REMARK    5  A    between atoms: N4_15  and  C9_17 
REMARK    6  A    between atoms: C12_23  and  N6_24 
REMARK    7  A    between atoms: N10_33  and  C13_34 
REMARK       I    between atoms: N12_38  and  C15_40 
REMARK    8  A    between atoms: C15_40  and  C16_42 
REMARK    9  A    between atoms: C16_42  and  N13_44 
ROOT
HETATM    1  C1  UNL     1      54.682  -0.772  14.368  1.00  0.00     0.073 C 
HETATM    2  C2  UNL     1      55.632   0.315  14.694  1.00  0.00     0.067 A 
HETATM    3  C3  UNL     1      55.957   1.381  13.915  1.00  0.00     0.142 A 
HETATM    4  N8  UNL     1      56.904   2.058  14.654  1.00  0.00    -0.279 N 
ATOM      5  H8  UNL     1      57.373   2.917  14.366  1.00  0.00     0.189 HD
HETATM    6  N9  UNL     1      57.107   1.419  15.788  1.00  0.00    -0.234 N 
ATOM      7  H9  UNL     1      57.761   1.715  16.514  1.00  0.00     0.209 HD
HETATM    8  N10 UNL     1      56.346   0.344  15.852  1.00  0.00    -0.224 N 
ENDROOT
BRANCH   3   9
HETATM    9  C4  UNL     1      55.504   1.883  12.646  1.00  0.00     0.275 C 
HETATM   10  O1  UNL     1      54.324   2.329  12.614  1.00  0.00    -0.266 OA
HETATM   11  N1  UNL     1      56.316   1.879  11.507  1.00  0.00    -0.332 N 
ATOM     12  H1  UNL     1      57.253   1.488  11.604  1.00  0.00     0.168 HD
BRANCH  11  13
HETATM   13  C5  UNL     1      55.948   2.371  10.235  1.00  0.00     0.089 C 
HETATM   14  C6  UNL     1      56.277   1.890   9.075  1.00  0.00     0.010 C 
BRANCH  14  15
HETATM   15  C7  UNL     1      55.768   2.583   7.826  1.00  0.00     0.151 C 
BRANCH  15  16
HETATM   16  N2  UNL     1      56.862   3.366   7.318  1.00  0.00    -0.361 N 
HETATM   17  C8  UNL     1      57.093   4.686   7.766  1.00  0.00     0.190 C 
HETATM   18  N3  UNL     1      56.259   5.353   8.704  1.00  0.00    -0.063 NA
HETATM   19  N4  UNL     1      58.117   5.287   7.283  1.00  0.00    -0.316 N 
ATOM     20  H4  UNL     1      58.669   4.748   6.617  1.00  0.00     0.170 HD
ATOM     21  H2  UNL     1      57.486   2.959   6.620  1.00  0.00     0.162 HD
BRANCH  19  22
HETATM   22  C9  UNL     1      58.579   6.573   7.540  1.00  0.00     0.128 A 
HETATM   23  C10 UNL     1      59.654   6.803   8.362  1.00  0.00     0.123 A 
HETATM   24  C11 UNL     1      60.082   8.114   8.626  1.00  0.00     0.263 A 
HETATM   25  O2  UNL     1      61.054   8.383   9.367  1.00  0.00    -0.268 OA
HETATM   26  N5  UNL     1      59.399   9.118   8.042  1.00  0.00    -0.156 N 
HETATM   27  C12 UNL     1      58.362   8.901   7.247  1.00  0.00     0.680 A 
ATOM     28  H5  UNL     1      59.692  10.079   8.219  1.00  0.00     0.187 HD
HETATM   29  N7  UNL     1      57.962   7.635   7.003  1.00  0.00    -0.177 N 
ATOM     30  H7  UNL     1      57.162   7.481   6.389  1.00  0.00     0.185 HD
BRANCH  27  31
HETATM   31  N6  UNL     1      57.710   9.911   6.727  1.00  0.00    -0.234 N 
ATOM     32  H62 UNL     1      58.212  10.745   6.423  1.00  0.00     0.174 HD
ATOM     33  H61 UNL     1      56.699   9.857   6.601  1.00  0.00     0.174 HD
ENDBRANCH  27  31
ENDBRANCH  19  22
ENDBRANCH  15  16
ENDBRANCH  14  15
ENDBRANCH  11  13
ENDBRANCH   3   9
BRANCH   8  34
HETATM   34  C13 UNL     1      56.243  -0.628  16.881  1.00  0.00     0.185 A 
HETATM   35  N11 UNL     1      55.169  -1.336  17.272  1.00  0.00    -0.171 N 
HETATM   36  C14 UNL     1      55.488  -2.159  18.286  1.00  0.00     0.688 A 
ATOM     37  H11 UNL     1      54.241  -1.260  16.856  1.00  0.00     0.186 HD
HETATM   38  N12 UNL     1      54.712  -2.979  18.904  1.00  0.00    -0.158 N 
HETATM   39  N14 UNL     1      56.789  -2.000  18.579  1.00  0.00    -0.175 N 
HETATM   40  C15 UNL     1      55.098  -3.827  19.969  1.00  0.00     0.266 C 
ATOM     41  H12 UNL     1      53.739  -3.022  18.600  1.00  0.00     0.187 HD
HETATM   42  O3  UNL     1      54.851  -3.428  21.134  1.00  0.00    -0.270 OA
HETATM   43  C18 UNL     1      57.253  -1.070  17.726  1.00  0.00     0.178 A 
ATOM     44  H14 UNL     1      57.318  -2.487  19.302  1.00  0.00     0.185 HD
HETATM   45  N15 UNL     1      58.604  -0.581  17.675  1.00  0.00    -0.078 NA
BRANCH  40  46
HETATM   46  C16 UNL     1      55.766  -5.138  19.765  1.00  0.00     0.271 C 
HETATM   47  C17 UNL     1      55.428  -5.777  18.447  1.00  0.00     0.050 C 
BRANCH  46  48
HETATM   48  N13 UNL     1      55.591  -6.034  20.870  1.00  0.00    -0.067 N 
ATOM     49 3H13 UNL     1      56.247  -5.820  21.620  1.00  0.00     0.275 HD
ATOM     50 2H13 UNL     1      54.714  -5.845  21.356  1.00  0.00     0.275 HD
ATOM     51 1H13 UNL     1      55.654  -7.015  20.600  1.00  0.00     0.275 HD
ENDBRANCH  46  48
ENDBRANCH  40  46
ENDBRANCH   8  34
TORSDOF 9
ENDMDL
MODEL 2
REMARK VINA RESULT: -6.656415089      1.554      1.796
REMARK  9 active torsions:
REMARK  status: ('A' for Active; 'I' for Inactive)
REMARK    1  A    between atoms: C3_3  and  C4_4 
REMARK       I    between atoms: C4_4  and  N1_6 
REMARK    2  A    between atoms: N1_6  and  C5_8 
REMARK    3  A    between atoms: C6_9  and  C7_10 
REMARK    4  A    between atoms: C7_10  and  N2_11 
REMARK       I    between atoms: N2_11  and  C8_13 
REMARK    5  A    between atoms: N4_15  and  C9_17 
REMARK    6  A    between atoms: C12_23  and  N6_24 
REMARK    7  A    between atoms: N10_33  and  C13_34 
REMARK       I    between atoms: N12_38  and  C15_40 
REMARK    8  A    between atoms: C15_40  and  C16_42 
REMARK    9  A    between atoms: C16_42  and  N13_44 
ROOT
HETATM    1  C1  UNL     1      54.716  -0.708  14.219  1.00  0.00     0.073 C 
HETATM    2  C2  UNL     1      55.596   0.426  14.580  1.00  0.00     0.067 A 
HETATM    3  C3  UNL     1      55.880   1.517  13.820  1.00  0.00     0.142 A 
HETATM    4  N8  UNL     1      56.770   2.237  14.589  1.00  0.00    -0.279 N 
ATOM      5  H8  UNL     1      57.197   3.124  14.323  1.00  0.00     0.189 HD
HETATM    6  N9  UNL     1      56.981   1.597  15.722  1.00  0.00    -0.234 N 
ATOM      7  H9  UNL     1      57.599   1.920  16.466  1.00  0.00     0.209 HD
HETATM    8  N10 UNL     1      56.279   0.480  15.755  1.00  0.00    -0.224 N 
ENDROOT
BRANCH   3   9
HETATM    9  C4  UNL     1      55.430   2.009  12.546  1.00  0.00     0.275 C 
HETATM   10  O1  UNL     1      54.215   2.341  12.475  1.00  0.00    -0.266 OA
HETATM   11  N1  UNL     1      56.283   2.114  11.442  1.00  0.00    -0.332 N 
ATOM     12  H1  UNL     1      57.249   1.811  11.568  1.00  0.00     0.168 HD
BRANCH  11  13
HETATM   13  C5  UNL     1      55.919   2.603  10.168  1.00  0.00     0.089 C 
HETATM   14  C6  UNL     1      56.259   2.124   9.009  1.00  0.00     0.010 C 
BRANCH  14  15
HETATM   15  C7  UNL     1      55.753   2.813   7.757  1.00  0.00     0.151 C 
BRANCH  15  16
HETATM   16  N2  UNL     1      56.591   3.965   7.557  1.00  0.00    -0.361 N 
HETATM   17  C8  UNL     1      56.124   5.272   7.823  1.00  0.00     0.190 C 
HETATM   18  N3  UNL     1      54.802   5.557   8.263  1.00  0.00    -0.063 NA
HETATM   19  N4  UNL     1      56.959   6.228   7.651  1.00  0.00    -0.316 N 
ATOM     20  H4  UNL     1      57.888   5.949   7.336  1.00  0.00     0.170 HD
ATOM     21  H2  UNL     1      57.544   3.836   7.216  1.00  0.00     0.162 HD
BRANCH  19  22
HETATM   22  C9  UNL     1      56.775   7.595   7.834  1.00  0.00     0.128 A 
HETATM   23  C10 UNL     1      56.952   8.491   6.808  1.00  0.00     0.123 A 
HETATM   24  C11 UNL     1      56.787   9.867   7.028  1.00  0.00     0.263 A 
HETATM   25  O2  UNL     1      56.935  10.728   6.132  1.00  0.00    -0.268 OA
HETATM   26  N5  UNL     1      56.450  10.259   8.272  1.00  0.00    -0.156 N 
HETATM   27  C12 UNL     1      56.277   9.399   9.265  1.00  0.00     0.680 A 
ATOM     28  H5  UNL     1      56.324  11.255   8.456  1.00  0.00     0.187 HD
HETATM   29  N7  UNL     1      56.440   8.078   9.038  1.00  0.00    -0.177 N 
ATOM     30  H7  UNL     1      56.304   7.425   9.810  1.00  0.00     0.185 HD
BRANCH  27  31
HETATM   31  N6  UNL     1      55.982   9.831  10.465  1.00  0.00    -0.234 N 
ATOM     32  H62 UNL     1      56.608   9.643  11.248  1.00  0.00     0.174 HD
ATOM     33  H61 UNL     1      55.136  10.380  10.618  1.00  0.00     0.174 HD
ENDBRANCH  27  31
ENDBRANCH  19  22
ENDBRANCH  15  16
ENDBRANCH  14  15
ENDBRANCH  11  13
ENDBRANCH   3   9
BRANCH   8  34
HETATM   34  C13 UNL     1      56.205  -0.508  16.771  1.00  0.00     0.185 A 
HETATM   35  N11 UNL     1      55.141  -1.214  17.190  1.00  0.00    -0.171 N 
HETATM   36  C14 UNL     1      55.489  -2.056  18.178  1.00  0.00     0.688 A 
ATOM     37  H11 UNL     1      54.199  -1.123  16.809  1.00  0.00     0.186 HD
HETATM   38  N12 UNL     1      54.729  -2.880  18.810  1.00  0.00    -0.158 N 
HETATM   39  N14 UNL     1      56.801  -1.912  18.425  1.00  0.00    -0.175 N 
HETATM   40  C15 UNL     1      55.146  -3.748  19.847  1.00  0.00     0.266 C 
ATOM     41  H12 UNL     1      53.745  -2.910  18.542  1.00  0.00     0.187 HD
HETATM   42  O3  UNL     1      54.947  -3.367  21.026  1.00  0.00    -0.270 OA
HETATM   43  C18 UNL     1      57.242  -0.972  17.571  1.00  0.00     0.178 A 
ATOM     44  H14 UNL     1      57.353  -2.416  19.120  1.00  0.00     0.185 HD
HETATM   45  N15 UNL     1      58.595  -0.493  17.479  1.00  0.00    -0.078 NA
BRANCH  40  46
HETATM   46  C16 UNL     1      55.796  -5.061  19.596  1.00  0.00     0.271 C 
HETATM   47  C17 UNL     1      55.506  -5.615  18.228  1.00  0.00     0.050 C 
BRANCH  46  48
HETATM   48  N13 UNL     1      55.550  -6.015  20.637  1.00  0.00    -0.067 N 
ATOM     49 3H13 UNL     1      56.268  -5.960  21.359  1.00  0.00     0.275 HD
ATOM     50 2H13 UNL     1      54.735  -5.748  21.190  1.00  0.00     0.275 HD
ATOM     51 1H13 UNL     1      55.457  -6.969  20.289  1.00  0.00     0.275 HD
ENDBRANCH  46  48
ENDBRANCH  40  46
ENDBRANCH   8  34
TORSDOF 9
ENDMDL
MODEL 3
REMARK VINA RESULT: -6.562328069      4.928      5.502
REMARK  9 active torsions:
REMARK  status: ('A' for Active; 'I' for Inactive)
REMARK    1  A    between atoms: C3_3  and  C4_4 
REMARK       I    between atoms: C4_4  and  N1_6 
REMARK    2  A    between atoms: N1_6  and  C5_8 
REMARK    3  A    between atoms: C6_9  and  C7_10 
REMARK    4  A    between atoms: C7_10  and  N2_11 
REMARK       I    between atoms: N2_11  and  C8_13 
REMARK    5  A    between atoms: N4_15  and  C9_17 
REMARK    6  A    between atoms: C12_23  and  N6_24 
REMARK    7  A    between atoms: N10_33  and  C13_34 
REMARK       I    between atoms: N12_38  and  C15_40 
REMARK    8  A    between atoms: C15_40  and  C16_42 
REMARK    9  A    between atoms: C16_42  and  N13_44 
ROOT
HETATM    1  C1  UNL     1      54.204  -0.515  14.395  1.00  0.00     0.073 C 
HETATM    2  C2  UNL     1      55.283   0.484  14.554  1.00  0.00     0.067 A 
HETATM    3  C3  UNL     1      55.585   1.507  13.710  1.00  0.00     0.142 A 
HETATM    4  N8  UNL     1      56.684   2.105  14.288  1.00  0.00    -0.279 N 
ATOM      5  H8  UNL     1      57.180   2.914  13.916  1.00  0.00     0.189 HD
HETATM    6  N9  UNL     1      56.993   1.464  15.398  1.00  0.00    -0.234 N 
ATOM      7  H9  UNL     1      57.768   1.708  16.015  1.00  0.00     0.209 HD
HETATM    8  N10 UNL     1      56.157   0.463  15.597  1.00  0.00    -0.224 N 
ENDROOT
BRANCH   3   9
HETATM    9  C4  UNL     1      54.999   2.033  12.507  1.00  0.00     0.275 C 
HETATM   10  O1  UNL     1      55.803   2.338  11.584  1.00  0.00    -0.266 OA
HETATM   11  N1  UNL     1      53.618   2.203  12.359  1.00  0.00    -0.332 N 
ATOM     12  H1  UNL     1      53.030   1.951  13.153  1.00  0.00     0.168 HD
BRANCH  11  13
HETATM   13  C5  UNL     1      52.971   2.695  11.204  1.00  0.00     0.089 C 
HETATM   14  C6  UNL     1      51.767   3.176  11.116  1.00  0.00     0.010 C 
BRANCH  14  15
HETATM   15  C7  UNL     1      51.268   3.650   9.764  1.00  0.00     0.151 C 
BRANCH  15  16
HETATM   16  N2  UNL     1      51.593   5.048   9.676  1.00  0.00    -0.361 N 
HETATM   17  C8  UNL     1      50.768   6.034  10.262  1.00  0.00     0.190 C 
HETATM   18  N3  UNL     1      49.553   5.739  10.938  1.00  0.00    -0.063 NA
HETATM   19  N4  UNL     1      51.163   7.249  10.163  1.00  0.00    -0.316 N 
ATOM     20  H4  UNL     1      52.043   7.386   9.666  1.00  0.00     0.170 HD
ATOM     21  H2  UNL     1      52.437   5.334   9.180  1.00  0.00     0.162 HD
BRANCH  19  22
HETATM   22  C9  UNL     1      50.558   8.408  10.638  1.00  0.00     0.128 A 
HETATM   23  C10 UNL     1      51.207   9.262  11.495  1.00  0.00     0.123 A 
HETATM   24  C11 UNL     1      50.563  10.410  11.981  1.00  0.00     0.263 A 
HETATM   25  O2  UNL     1      51.105  11.223  12.763  1.00  0.00    -0.268 OA
HETATM   26  N5  UNL     1      49.299  10.632  11.570  1.00  0.00    -0.156 N 
HETATM   27  C12 UNL     1      48.668   9.811  10.742  1.00  0.00     0.680 A 
ATOM     28  H5  UNL     1      48.810  11.460  11.909  1.00  0.00     0.187 HD
HETATM   29  N7  UNL     1      49.301   8.710  10.284  1.00  0.00    -0.177 N 
ATOM     30  H7  UNL     1      48.806   8.086   9.647  1.00  0.00     0.185 HD
BRANCH  27  31
HETATM   31  N6  UNL     1      47.429  10.051  10.397  1.00  0.00    -0.234 N 
ATOM     32  H62 UNL     1      46.788   9.280  10.212  1.00  0.00     0.174 HD
ATOM     33  H61 UNL     1      47.090  11.012  10.335  1.00  0.00     0.174 HD
ENDBRANCH  27  31
ENDBRANCH  19  22
ENDBRANCH  15  16
ENDBRANCH  14  15
ENDBRANCH  11  13
ENDBRANCH   3   9
BRANCH   8  34
HETATM   34  C13 UNL     1      56.119  -0.483  16.654  1.00  0.00     0.185 A 
HETATM   35  N11 UNL     1      55.077  -1.196  17.115  1.00  0.00    -0.171 N 
HETATM   36  C14 UNL     1      55.456  -1.987  18.133  1.00  0.00     0.688 A 
ATOM     37  H11 UNL     1      54.128  -1.144  16.743  1.00  0.00     0.186 HD
HETATM   38  N12 UNL     1      54.724  -2.801  18.809  1.00  0.00    -0.158 N 
HETATM   39  N14 UNL     1      56.767  -1.802  18.358  1.00  0.00    -0.175 N 
HETATM   40  C15 UNL     1      55.174  -3.615  19.876  1.00  0.00     0.266 C 
ATOM     41  H12 UNL     1      53.739  -2.866  18.554  1.00  0.00     0.187 HD
HETATM   42  O3  UNL     1      54.978  -3.189  21.040  1.00  0.00    -0.270 OA
HETATM   43  C18 UNL     1      57.175  -0.888  17.461  1.00  0.00     0.178 A 
ATOM     44  H14 UNL     1      57.339  -2.262  19.067  1.00  0.00     0.185 HD
HETATM   45  N15 UNL     1      58.515  -0.381  17.332  1.00  0.00    -0.078 NA
BRANCH  40  46
HETATM   46  C16 UNL     1      55.853  -4.921  19.673  1.00  0.00     0.271 C 
HETATM   47  C17 UNL     1      55.491  -5.582  18.371  1.00  0.00     0.050 C 
BRANCH  46  48
HETATM   48  N13 UNL     1      55.713  -5.805  20.793  1.00  0.00    -0.067 N 
ATOM     49 3H13 UNL     1      56.523  -6.419  20.875  1.00  0.00     0.275 HD
ATOM     50 2H13 UNL     1      55.800  -5.295  21.672  1.00  0.00     0.275 HD
ATOM     51 1H13 UNL     1      54.848  -6.344  20.769  1.00  0.00     0.275 HD
ENDBRANCH  46  48
ENDBRANCH  40  46
ENDBRANCH   8  34
TORSDOF 9
ENDMDL
MODEL 4
REMARK VINA RESULT: -6.553460803      5.892     14.686
REMARK  9 active torsions:
REMARK  status: ('A' for Active; 'I' for Inactive)
REMARK    1  A    between atoms: C3_3  and  C4_4 
REMARK       I    between atoms: C4_4  and  N1_6 
REMARK    2  A    between atoms: N1_6  and  C5_8 
REMARK    3  A    between atoms: C6_9  and  C7_10 
REMARK    4  A    between atoms: C7_10  and  N2_11 
REMARK       I    between atoms: N2_11  and  C8_13 
REMARK    5  A    between atoms: N4_15  and  C9_17 
REMARK    6  A    between atoms: C12_23  and  N6_24 
REMARK    7  A    between atoms: N10_33  and  C13_34 
REMARK       I    between atoms: N12_38  and  C15_40 
REMARK    8  A    between atoms: C15_40  and  C16_42 
REMARK    9  A    between atoms: C16_42  and  N13_44 
ROOT
HETATM    1  C1  UNL     1      52.866  -0.827  15.487  1.00  0.00     0.073 C 
HETATM    2  C2  UNL     1      54.002  -0.076  16.065  1.00  0.00     0.067 A 
HETATM    3  C3  UNL     1      55.000  -0.571  16.844  1.00  0.00     0.142 A 
HETATM    4  N8  UNL     1      55.767   0.535  17.148  1.00  0.00    -0.279 N 
ATOM      5  H8  UNL     1      56.608   0.529  17.725  1.00  0.00     0.189 HD
HETATM    6  N9  UNL     1      55.240   1.598  16.575  1.00  0.00    -0.234 N 
ATOM      7  H9  UNL     1      55.618   2.543  16.643  1.00  0.00     0.209 HD
HETATM    8  N10 UNL     1      54.155   1.266  15.901  1.00  0.00    -0.224 N 
ENDROOT
BRANCH   3   9
HETATM    9  C4  UNL     1      55.373  -1.883  17.301  1.00  0.00     0.275 C 
HETATM   10  O1  UNL     1      56.346  -2.422  16.708  1.00  0.00    -0.266 OA
HETATM   11  N1  UNL     1      54.698  -2.532  18.341  1.00  0.00    -0.332 N 
ATOM     12  H1  UNL     1      53.909  -2.042  18.763  1.00  0.00     0.168 HD
BRANCH  11  13
HETATM   13  C5  UNL     1      55.017  -3.808  18.854  1.00  0.00     0.089 C 
HETATM   14  C6  UNL     1      54.521  -4.953  18.493  1.00  0.00     0.010 C 
BRANCH  14  15
HETATM   15  C7  UNL     1      55.009  -6.211  19.186  1.00  0.00     0.151 C 
BRANCH  15  16
HETATM   16  N2  UNL     1      55.607  -5.790  20.425  1.00  0.00    -0.361 N 
HETATM   17  C8  UNL     1      55.561  -6.604  21.579  1.00  0.00     0.190 C 
HETATM   18  N3  UNL     1      54.900  -7.862  21.625  1.00  0.00    -0.063 NA
HETATM   19  N4  UNL     1      56.155  -6.158  22.623  1.00  0.00    -0.316 N 
ATOM     20  H4  UNL     1      56.608  -5.251  22.515  1.00  0.00     0.170 HD
ATOM     21  H2  UNL     1      56.074  -4.884  20.471  1.00  0.00     0.162 HD
BRANCH  19  22
HETATM   22  C9  UNL     1      56.269  -6.739  23.881  1.00  0.00     0.128 A 
HETATM   23  C10 UNL     1      55.170  -6.981  24.667  1.00  0.00     0.123 A 
HETATM   24  C11 UNL     1      55.317  -7.543  25.945  1.00  0.00     0.263 A 
HETATM   25  O2  UNL     1      54.352  -7.785  26.704  1.00  0.00    -0.268 OA
HETATM   26  N5  UNL     1      56.568  -7.829  26.355  1.00  0.00    -0.156 N 
HETATM   27  C12 UNL     1      57.632  -7.598  25.600  1.00  0.00     0.680 A 
ATOM     28  H5  UNL     1      56.701  -8.238  27.280  1.00  0.00     0.187 HD
HETATM   29  N7  UNL     1      57.475  -7.057  24.373  1.00  0.00    -0.177 N 
ATOM     30  H7  UNL     1      58.301  -6.884  23.801  1.00  0.00     0.185 HD
BRANCH  27  31
HETATM   31  N6  UNL     1      58.831  -7.864  26.055  1.00  0.00    -0.234 N 
ATOM     32  H62 UNL     1      58.962  -8.571  26.777  1.00  0.00     0.174 HD
ATOM     33  H61 UNL     1      59.643  -7.382  25.670  1.00  0.00     0.174 HD
ENDBRANCH  27  31
ENDBRANCH  19  22
ENDBRANCH  15  16
ENDBRANCH  14  15
ENDBRANCH  11  13
ENDBRANCH   3   9
BRANCH   8  34
HETATM   34  C13 UNL     1      53.280   2.086  15.143  1.00  0.00     0.185 A 
HETATM   35  N11 UNL     1      53.167   2.195  13.808  1.00  0.00    -0.171 N 
HETATM   36  C14 UNL     1      52.212   3.084  13.484  1.00  0.00     0.688 A 
ATOM     37  H11 UNL     1      53.729   1.675  13.133  1.00  0.00     0.186 HD
HETATM   38  N12 UNL     1      51.836   3.437  12.305  1.00  0.00    -0.158 N 
HETATM   39  N14 UNL     1      51.680   3.577  14.614  1.00  0.00    -0.175 N 
HETATM   40  C15 UNL     1      50.822   4.381  12.016  1.00  0.00     0.266 C 
ATOM     41  H12 UNL     1      52.308   3.000  11.513  1.00  0.00     0.187 HD
HETATM   42  O3  UNL     1      51.190   5.552  11.754  1.00  0.00    -0.270 OA
HETATM   43  C18 UNL     1      52.325   2.972  15.626  1.00  0.00     0.178 A 
ATOM     44  H14 UNL     1      50.935   4.270  14.689  1.00  0.00     0.185 HD
HETATM   45  N15 UNL     1      52.082   3.193  17.026  1.00  0.00    -0.078 NA
BRANCH  40  46
HETATM   46  C16 UNL     1      49.375   4.045  12.013  1.00  0.00     0.271 C 
HETATM   47  C17 UNL     1      48.611   4.699  13.131  1.00  0.00     0.050 C 
BRANCH  46  48
HETATM   48  N13 UNL     1      49.128   2.635  11.931  1.00  0.00    -0.067 N 
ATOM     49 3H13 UNL     1      48.725   2.387  11.028  1.00  0.00     0.275 HD
ATOM     50 2H13 UNL     1      50.003   2.115  11.872  1.00  0.00     0.275 HD
ATOM     51 1H13 UNL     1      48.548   2.288  12.695  1.00  0.00     0.275 HD
ENDBRANCH  46  48
ENDBRANCH  40  46
ENDBRANCH   8  34
TORSDOF 9
ENDMDL
MODEL 5
REMARK VINA RESULT: -6.509133882      4.495      5.007
REMARK  9 active torsions:
REMARK  status: ('A' for Active; 'I' for Inactive)
REMARK    1  A    between atoms: C3_3  and  C4_4 
REMARK       I    between atoms: C4_4  and  N1_6 
REMARK    2  A    between atoms: N1_6  and  C5_8 
REMARK    3  A    between atoms: C6_9  and  C7_10 
REMARK    4  A    between atoms: C7_10  and  N2_11 
REMARK       I    between atoms: N2_11  and  C8_13 
REMARK    5  A    between atoms: N4_15  and  C9_17 
REMARK    6  A    between atoms: C12_23  and  N6_24 
REMARK    7  A    between atoms: N10_33  and  C13_34 
REMARK       I    between atoms: N12_38  and  C15_40 
REMARK    8  A    between atoms: C15_40  and  C16_42 
REMARK    9  A    between atoms: C16_42  and  N13_44 
ROOT
HETATM    1  C1  UNL     1      52.988   1.468  17.055  1.00  0.00     0.073 C 
HETATM    2  C2  UNL     1      54.027   1.590  16.008  1.00  0.00     0.067 A 
HETATM    3  C3  UNL     1      54.093   2.525  15.023  1.00  0.00     0.142 A 
HETATM    4  N8  UNL     1      55.214   2.171  14.302  1.00  0.00    -0.279 N 
ATOM      5  H8  UNL     1      55.565   2.662  13.480  1.00  0.00     0.189 HD
HETATM    6  N9  UNL     1      55.758   1.100  14.843  1.00  0.00    -0.234 N 
ATOM      7  H9  UNL     1      56.599   0.637  14.499  1.00  0.00     0.209 HD
HETATM    8  N10 UNL     1      55.060   0.711  15.893  1.00  0.00    -0.224 N 
ENDROOT
BRANCH   3   9
HETATM    9  C4  UNL     1      53.326   3.692  14.682  1.00  0.00     0.275 C 
HETATM   10  O1  UNL     1      53.601   4.744  15.323  1.00  0.00    -0.266 OA
HETATM   11  N1  UNL     1      52.329   3.672  13.702  1.00  0.00    -0.332 N 
ATOM     12  H1  UNL     1      52.149   2.782  13.237  1.00  0.00     0.168 HD
BRANCH  11  13
HETATM   13  C5  UNL     1      51.549   4.780  13.301  1.00  0.00     0.089 C 
HETATM   14  C6  UNL     1      50.588   4.797  12.428  1.00  0.00     0.010 C 
BRANCH  14  15
HETATM   15  C7  UNL     1      49.880   6.108  12.147  1.00  0.00     0.151 C 
BRANCH  15  16
HETATM   16  N2  UNL     1      50.774   7.154  12.568  1.00  0.00    -0.361 N 
HETATM   17  C8  UNL     1      51.292   8.094  11.649  1.00  0.00     0.190 C 
HETATM   18  N3  UNL     1      51.014   8.063  10.255  1.00  0.00    -0.063 NA
HETATM   19  N4  UNL     1      52.049   9.010  12.127  1.00  0.00    -0.316 N 
ATOM     20  H4  UNL     1      52.203   8.970  13.135  1.00  0.00     0.170 HD
ATOM     21  H2  UNL     1      51.039   7.218  13.551  1.00  0.00     0.162 HD
BRANCH  19  22
HETATM   22  C9  UNL     1      52.690  10.052  11.465  1.00  0.00     0.128 A 
HETATM   23  C10 UNL     1      54.058  10.148  11.424  1.00  0.00     0.123 A 
HETATM   24  C11 UNL     1      54.678  11.226  10.772  1.00  0.00     0.263 A 
HETATM   25  O2  UNL     1      55.920  11.365  10.704  1.00  0.00    -0.268 OA
HETATM   26  N5  UNL     1      53.878  12.144  10.196  1.00  0.00    -0.156 N 
HETATM   27  C12 UNL     1      52.556  12.055  10.231  1.00  0.00     0.680 A 
ATOM     28  H5  UNL     1      54.305  12.936   9.715  1.00  0.00     0.187 HD
HETATM   29  N7  UNL     1      51.975  11.012  10.863  1.00  0.00    -0.177 N 
ATOM     30  H7  UNL     1      50.957  10.955  10.883  1.00  0.00     0.185 HD
BRANCH  27  31
HETATM   31  N6  UNL     1      51.820  12.989   9.684  1.00  0.00    -0.234 N 
ATOM     32  H62 UNL     1      52.065  13.367   8.769  1.00  0.00     0.174 HD
ATOM     33  H61 UNL     1      50.982  13.324  10.159  1.00  0.00     0.174 HD
ENDBRANCH  27  31
ENDBRANCH  19  22
ENDBRANCH  15  16
ENDBRANCH  14  15
ENDBRANCH  11  13
ENDBRANCH   3   9
BRANCH   8  34
HETATM   34  C13 UNL     1      55.279  -0.386  16.765  1.00  0.00     0.185 A 
HETATM   35  N11 UNL     1      54.380  -1.205  17.338  1.00  0.00    -0.171 N 
HETATM   36  C14 UNL     1      54.995  -2.127  18.099  1.00  0.00     0.688 A 
ATOM     37  H11 UNL     1      53.370  -1.136  17.212  1.00  0.00     0.186 HD
HETATM   38  N12 UNL     1      54.449  -3.065  18.789  1.00  0.00    -0.158 N 
HETATM   39  N14 UNL     1      56.321  -1.923  18.036  1.00  0.00    -0.175 N 
HETATM   40  C15 UNL     1      55.144  -4.014  19.577  1.00  0.00     0.266 C 
ATOM     41  H12 UNL     1      53.431  -3.132  18.767  1.00  0.00     0.187 HD
HETATM   42  O3  UNL     1      55.230  -3.780  20.807  1.00  0.00    -0.270 OA
HETATM   43  C18 UNL     1      56.499  -0.866  17.225  1.00  0.00     0.178 A 
ATOM     44  H14 UNL     1      57.047  -2.462  18.508  1.00  0.00     0.185 HD
HETATM   45  N15 UNL     1      57.767  -0.290  16.867  1.00  0.00    -0.078 NA
BRANCH  40  46
HETATM   46  C16 UNL     1      55.759  -5.243  19.014  1.00  0.00     0.271 C 
HETATM   47  C17 UNL     1      55.526  -5.402  17.537  1.00  0.00     0.050 C 
BRANCH  46  48
HETATM   48  N13 UNL     1      55.423  -6.426  19.752  1.00  0.00    -0.067 N 
ATOM     49 3H13 UNL     1      56.262  -6.945  20.010  1.00  0.00     0.275 HD
ATOM     50 2H13 UNL     1      55.081  -6.188  20.683  1.00  0.00     0.275 HD
ATOM     51 1H13 UNL     1      54.760  -7.025  19.262  1.00  0.00     0.275 HD
ENDBRANCH  46  48
ENDBRANCH  40  46
ENDBRANCH   8  34
TORSDOF 9
ENDMDL
