MODEL 1
REMARK VINA RESULT: -8.835776360      0.000      0.000
REMARK  12 active torsions:
REMARK  status: ('A' for Active; 'I' for Inactive)
REMARK    1  A    between atoms: C2_2  and  O1_3 
REMARK    2  A    between atoms: O1_3  and  C3_4 
REMARK    3  A    between atoms: C3_4  and  C4_6 
REMARK    4  A    between atoms: C6_10  and  C7_11 
REMARK    5  A    between atoms: C7_11  and  C8_12 
REMARK    6  A    between atoms: C7_11  and  N4_31 
REMARK    7  A    between atoms: C8_12  and  C9_13 
REMARK    8  A    between atoms: C9_13  and  O3_14 
REMARK    9  A    between atoms: C9_13  and  C10_16 
REMARK       I    between atoms: C10_16  and  N2_18 
REMARK   10  A    between atoms: N2_18  and  C11_20 
REMARK   11  A    between atoms: N4_31  and  C20_33 
REMARK   12  A    between atoms: C23_37  and  C24_38 
ROOT
HETATM    1  C7  UNL     1       5.679   8.168  23.386  1.00  0.00     0.151 C 
ENDROOT
BRANCH   1   2
HETATM    2  C6  UNL     1       6.795   8.386  24.361  1.00  0.00     0.105 A 
HETATM    3  N1  UNL     1       6.730   8.269  25.681  1.00  0.00    -0.352 N 
HETATM    4  C5  UNL     1       7.927   8.602  26.239  1.00  0.00     0.125 A 
ATOM      5  H1  UNL     1       5.905   7.973  26.202  1.00  0.00     0.166 HD
HETATM    6  C4  UNL     1       8.734   8.933  25.171  1.00  0.00     0.125 A 
HETATM    7  N5  UNL     1       8.016   8.790  24.035  1.00  0.00    -0.338 N 
ATOM      8  H5  UNL     1       8.355   8.963  23.088  1.00  0.00     0.167 HD
BRANCH   6   9
HETATM    9  C3  UNL     1      10.128   9.380  25.287  1.00  0.00     0.311 C 
HETATM   10  O2  UNL     1      10.721   9.788  24.262  1.00  0.00    -0.258 OA
BRANCH   9  11
HETATM   11  O1  UNL     1      10.812   9.370  26.480  1.00  0.00    -0.317 OA
BRANCH  11  12
HETATM   12  C2  UNL     1      11.253   8.181  27.114  1.00  0.00     0.175 C 
HETATM   13  C1  UNL     1      12.706   7.900  26.836  1.00  0.00     0.034 C 
ENDBRANCH  11  12
ENDBRANCH   9  11
ENDBRANCH   6   9
ENDBRANCH   1   2
BRANCH   1  14
HETATM   14  C8  UNL     1       6.016   7.385  22.190  1.00  0.00     0.103 C 
BRANCH  14  15
HETATM   15  C9  UNL     1       5.539   7.924  20.860  1.00  0.00     0.113 C 
BRANCH  15  16
HETATM   16  O3  UNL     1       5.648   9.273  20.696  1.00  0.00    -0.359 OA
ATOM     17  H3  UNL     1       5.693   9.576  19.797  1.00  0.00     0.217 HD
ENDBRANCH  15  16
BRANCH  15  18
HETATM   18  C10 UNL     1       5.831   7.085  19.702  1.00  0.00     0.271 C 
HETATM   19  O4  UNL     1       5.907   7.597  18.556  1.00  0.00    -0.266 OA
HETATM   20  N2  UNL     1       6.051   5.678  19.771  1.00  0.00    -0.344 N 
ATOM     21  H2  UNL     1       5.991   5.221  20.681  1.00  0.00     0.163 HD
BRANCH  20  22
HETATM   22  C11 UNL     1       6.355   4.867  18.613  1.00  0.00     0.157 C 
HETATM   23  C12 UNL     1       5.149   4.172  18.026  1.00  0.00     0.035 C 
HETATM   24  C13 UNL     1       5.617   3.622  16.672  1.00  0.00     0.033 C 
HETATM   25  C14 UNL     1       5.926   2.171  16.742  1.00  0.00     0.273 C 
HETATM   26  N3  UNL     1       6.955   1.765  17.626  1.00  0.00     0.100 N 
HETATM   27  C15 UNL     1       7.869   0.803  16.979  1.00  0.00     0.273 C 
HETATM   28  C18 UNL     1       7.869   2.753  18.080  1.00  0.00     0.294 C 
HETATM   29  C16 UNL     1       9.082   0.748  17.866  1.00  0.00     0.033 C 
HETATM   30  C17 UNL     1       8.878   1.877  18.851  1.00  0.00     0.045 C 
HETATM   31  C19 UNL     1       7.325   3.799  18.948  1.00  0.00     0.182 C 
HETATM   32  O5  UNL     1       7.712   3.803  20.093  1.00  0.00    -0.293 OA
ENDBRANCH  20  22
ENDBRANCH  15  18
ENDBRANCH  14  15
ENDBRANCH   1  14
BRANCH   1  33
HETATM   33  N4  UNL     1       4.625   7.580  24.152  1.00  0.00    -0.403 N 
ATOM     34  H4  UNL     1       4.880   7.075  25.001  1.00  0.00     0.154 HD
BRANCH  33  35
HETATM   35  C20 UNL     1       3.280   7.651  23.819  1.00  0.00     0.113 C 
HETATM   36  C21 UNL     1       2.375   6.500  24.116  1.00  0.00     0.053 C 
HETATM   37  C22 UNL     1       1.126   7.171  24.656  1.00  0.00     0.170 C 
HETATM   38  O6  UNL     1       1.235   8.505  24.320  1.00  0.00    -0.378 OA
HETATM   39  C23 UNL     1       2.555   8.846  24.380  1.00  0.00     0.208 C 
BRANCH  39  40
HETATM   40  C24 UNL     1       2.952   9.260  25.754  1.00  0.00     0.383 C 
HETATM   41  F1  UNL     1       4.037  10.099  25.789  1.00  0.00    -0.212 F 
HETATM   42  F2  UNL     1       1.959   9.699  26.569  1.00  0.00    -0.212 F 
ENDBRANCH  39  40
ENDBRANCH  33  35
ENDBRANCH   1  33
TORSDOF 12
ENDMDL
MODEL 2
REMARK VINA RESULT: -8.793026281      1.213      1.537
REMARK  12 active torsions:
REMARK  status: ('A' for Active; 'I' for Inactive)
REMARK    1  A    between atoms: C2_2  and  O1_3 
REMARK    2  A    between atoms: O1_3  and  C3_4 
REMARK    3  A    between atoms: C3_4  and  C4_6 
REMARK    4  A    between atoms: C6_10  and  C7_11 
REMARK    5  A    between atoms: C7_11  and  C8_12 
REMARK    6  A    between atoms: C7_11  and  N4_31 
REMARK    7  A    between atoms: C8_12  and  C9_13 
REMARK    8  A    between atoms: C9_13  and  O3_14 
REMARK    9  A    between atoms: C9_13  and  C10_16 
REMARK       I    between atoms: C10_16  and  N2_18 
REMARK   10  A    between atoms: N2_18  and  C11_20 
REMARK   11  A    between atoms: N4_31  and  C20_33 
REMARK   12  A    between atoms: C23_37  and  C24_38 
ROOT
HETATM    1  C7  UNL     1       6.140   9.605  23.343  1.00  0.00     0.151 C 
ENDROOT
BRANCH   1   2
HETATM    2  C6  UNL     1       7.409   9.548  24.137  1.00  0.00     0.105 A 
HETATM    3  N1  UNL     1       8.571  10.101  23.816  1.00  0.00    -0.352 N 
HETATM    4  C5  UNL     1       9.512   9.786  24.749  1.00  0.00     0.125 A 
ATOM      5  H1  UNL     1       8.737  10.677  22.991  1.00  0.00     0.166 HD
HETATM    6  C4  UNL     1       8.849   9.000  25.667  1.00  0.00     0.125 A 
HETATM    7  N5  UNL     1       7.563   8.873  25.268  1.00  0.00    -0.338 N 
ATOM      8  H5  UNL     1       6.836   8.347  25.754  1.00  0.00     0.167 HD
BRANCH   6   9
HETATM    9  C3  UNL     1       9.469   8.403  26.857  1.00  0.00     0.311 C 
HETATM   10  O2  UNL     1       8.798   7.612  27.558  1.00  0.00    -0.258 OA
BRANCH   9  11
HETATM   11  O1  UNL     1      10.763   8.677  27.233  1.00  0.00    -0.317 OA
BRANCH  11  12
HETATM   12  C2  UNL     1      11.698   7.674  27.594  1.00  0.00     0.175 C 
HETATM   13  C1  UNL     1      13.022   7.861  26.899  1.00  0.00     0.034 C 
ENDBRANCH  11  12
ENDBRANCH   9  11
ENDBRANCH   6   9
ENDBRANCH   1   2
BRANCH   1  14
HETATM   14  C8  UNL     1       6.229   9.128  21.957  1.00  0.00     0.103 C 
BRANCH  14  15
HETATM   15  C9  UNL     1       7.098   7.917  21.702  1.00  0.00     0.113 C 
BRANCH  15  16
HETATM   16  O3  UNL     1       7.372   7.146  22.793  1.00  0.00    -0.359 OA
ATOM     17  H3  UNL     1       8.154   6.610  22.733  1.00  0.00     0.217 HD
ENDBRANCH  15  16
BRANCH  15  18
HETATM   18  C10 UNL     1       6.858   7.227  20.439  1.00  0.00     0.271 C 
HETATM   19  O4  UNL     1       6.753   7.884  19.372  1.00  0.00    -0.266 OA
HETATM   20  N2  UNL     1       6.733   5.812  20.314  1.00  0.00    -0.344 N 
ATOM     21  H2  UNL     1       6.804   5.242  21.156  1.00  0.00     0.163 HD
BRANCH  20  22
HETATM   22  C11 UNL     1       6.510   5.147  19.050  1.00  0.00     0.157 C 
HETATM   23  C12 UNL     1       5.080   4.708  18.839  1.00  0.00     0.035 C 
HETATM   24  C13 UNL     1       4.993   4.306  17.360  1.00  0.00     0.033 C 
HETATM   25  C14 UNL     1       5.055   2.832  17.185  1.00  0.00     0.273 C 
HETATM   26  N3  UNL     1       6.225   2.171  17.630  1.00  0.00     0.100 N 
HETATM   27  C15 UNL     1       6.707   1.202  16.625  1.00  0.00     0.273 C 
HETATM   28  C18 UNL     1       7.391   2.953  17.842  1.00  0.00     0.294 C 
HETATM   29  C16 UNL     1       8.111   0.859  17.044  1.00  0.00     0.033 C 
HETATM   30  C17 UNL     1       8.426   1.849  18.143  1.00  0.00     0.045 C 
HETATM   31  C19 UNL     1       7.338   3.923  18.937  1.00  0.00     0.182 C 
HETATM   32  O5  UNL     1       8.062   3.710  19.881  1.00  0.00    -0.293 OA
ENDBRANCH  20  22
ENDBRANCH  15  18
ENDBRANCH  14  15
ENDBRANCH   1  14
BRANCH   1  33
HETATM   33  N4  UNL     1       5.184   8.877  24.117  1.00  0.00    -0.403 N 
ATOM     34  H4  UNL     1       5.409   8.687  25.093  1.00  0.00     0.154 HD
BRANCH  33  35
HETATM   35  C20 UNL     1       3.971   8.412  23.629  1.00  0.00     0.113 C 
HETATM   36  C21 UNL     1       3.676   6.947  23.631  1.00  0.00     0.053 C 
HETATM   37  C22 UNL     1       2.235   6.883  24.101  1.00  0.00     0.170 C 
HETATM   38  O6  UNL     1       1.741   8.166  23.987  1.00  0.00    -0.378 OA
HETATM   39  C23 UNL     1       2.756   9.033  24.265  1.00  0.00     0.208 C 
BRANCH  39  40
HETATM   40  C24 UNL     1       2.857   9.307  25.726  1.00  0.00     0.383 C 
HETATM   41  F1  UNL     1       3.292  10.574  26.024  1.00  0.00    -0.212 F 
HETATM   42  F2  UNL     1       1.789   8.958  26.487  1.00  0.00    -0.212 F 
ENDBRANCH  39  40
ENDBRANCH  33  35
ENDBRANCH   1  33
TORSDOF 12
ENDMDL
MODEL 3
REMARK VINA RESULT: -8.773951108      3.001      4.506
REMARK  12 active torsions:
REMARK  status: ('A' for Active; 'I' for Inactive)
REMARK    1  A    between atoms: C2_2  and  O1_3 
REMARK    2  A    between atoms: O1_3  and  C3_4 
REMARK    3  A    between atoms: C3_4  and  C4_6 
REMARK    4  A    between atoms: C6_10  and  C7_11 
REMARK    5  A    between atoms: C7_11  and  C8_12 
REMARK    6  A    between atoms: C7_11  and  N4_31 
REMARK    7  A    between atoms: C8_12  and  C9_13 
REMARK    8  A    between atoms: C9_13  and  O3_14 
REMARK    9  A    between atoms: C9_13  and  C10_16 
REMARK       I    between atoms: C10_16  and  N2_18 
REMARK   10  A    between atoms: N2_18  and  C11_20 
REMARK   11  A    between atoms: N4_31  and  C20_33 
REMARK   12  A    between atoms: C23_37  and  C24_38 
ROOT
HETATM    1  C7  UNL     1       6.975   9.688  22.614  1.00  0.00     0.151 C 
ENDROOT
BRANCH   1   2
HETATM    2  C6  UNL     1       8.080   9.505  23.610  1.00  0.00     0.105 A 
HETATM    3  N1  UNL     1       9.375   9.701  23.403  1.00  0.00    -0.352 N 
HETATM    4  C5  UNL     1      10.081   9.375  24.522  1.00  0.00     0.125 A 
ATOM      5  H1  UNL     1       9.783  10.046  22.535  1.00  0.00     0.166 HD
HETATM    6  C4  UNL     1       9.130   8.964  25.432  1.00  0.00     0.125 A 
HETATM    7  N5  UNL     1       7.915   9.055  24.848  1.00  0.00    -0.338 N 
ATOM      8  H5  UNL     1       7.023   8.819  25.284  1.00  0.00     0.167 HD
BRANCH   6   9
HETATM    9  C3  UNL     1       9.426   8.494  26.791  1.00  0.00     0.311 C 
HETATM   10  O2  UNL     1       8.519   7.934  27.450  1.00  0.00    -0.258 OA
BRANCH   9  11
HETATM   11  O1  UNL     1      10.662   8.643  27.374  1.00  0.00    -0.317 OA
BRANCH  11  12
HETATM   12  C2  UNL     1      11.568   7.569  27.563  1.00  0.00     0.175 C 
HETATM   13  C1  UNL     1      12.912   7.849  26.944  1.00  0.00     0.034 C 
ENDBRANCH  11  12
ENDBRANCH   9  11
ENDBRANCH   6   9
ENDBRANCH   1   2
BRANCH   1  14
HETATM   14  C8  UNL     1       5.617   9.757  23.169  1.00  0.00     0.103 C 
BRANCH  14  15
HETATM   15  C9  UNL     1       4.470   9.619  22.193  1.00  0.00     0.113 C 
BRANCH  15  16
HETATM   16  O3  UNL     1       4.174  10.735  21.468  1.00  0.00    -0.359 OA
ATOM     17  H3  UNL     1       3.264  11.007  21.483  1.00  0.00     0.217 HD
ENDBRANCH  15  16
BRANCH  15  18
HETATM   18  C10 UNL     1       4.381   8.334  21.507  1.00  0.00     0.271 C 
HETATM   19  O4  UNL     1       3.723   8.234  20.440  1.00  0.00    -0.266 OA
HETATM   20  N2  UNL     1       5.008   7.139  21.965  1.00  0.00    -0.344 N 
ATOM     21  H2  UNL     1       5.546   7.175  22.831  1.00  0.00     0.163 HD
BRANCH  20  22
HETATM   22  C11 UNL     1       4.920   5.879  21.262  1.00  0.00     0.157 C 
HETATM   23  C12 UNL     1       4.514   4.720  22.142  1.00  0.00     0.035 C 
HETATM   24  C13 UNL     1       4.195   3.570  21.176  1.00  0.00     0.033 C 
HETATM   25  C14 UNL     1       5.314   2.598  21.088  1.00  0.00     0.273 C 
HETATM   26  N3  UNL     1       6.560   3.078  20.615  1.00  0.00     0.100 N 
HETATM   27  C15 UNL     1       7.143   2.160  19.616  1.00  0.00     0.273 C 
HETATM   28  C18 UNL     1       6.572   4.306  19.904  1.00  0.00     0.294 C 
HETATM   29  C16 UNL     1       8.236   2.946  18.944  1.00  0.00     0.033 C 
HETATM   30  C17 UNL     1       8.045   4.359  19.448  1.00  0.00     0.045 C 
HETATM   31  C19 UNL     1       6.225   5.508  20.665  1.00  0.00     0.182 C 
HETATM   32  O5  UNL     1       7.110   6.312  20.836  1.00  0.00    -0.293 OA
ENDBRANCH  20  22
ENDBRANCH  15  18
ENDBRANCH  14  15
ENDBRANCH   1  14
BRANCH   1  33
HETATM   33  N4  UNL     1       7.330  10.861  21.878  1.00  0.00    -0.403 N 
ATOM     34  H4  UNL     1       7.315  11.754  22.370  1.00  0.00     0.154 HD
BRANCH  33  35
HETATM   35  C20 UNL     1       7.695  10.864  20.539  1.00  0.00     0.113 C 
HETATM   36  C21 UNL     1       7.023   9.938  19.578  1.00  0.00     0.053 C 
HETATM   37  C22 UNL     1       6.787  10.812  18.360  1.00  0.00     0.170 C 
HETATM   38  O6  UNL     1       7.578  11.929  18.535  1.00  0.00    -0.378 OA
HETATM   39  C23 UNL     1       7.617  12.211  19.869  1.00  0.00     0.208 C 
BRANCH  39  40
HETATM   40  C24 UNL     1       6.476  13.075  20.280  1.00  0.00     0.383 C 
HETATM   41  F1  UNL     1       6.843  14.152  21.046  1.00  0.00    -0.212 F 
HETATM   42  F2  UNL     1       5.602  13.435  19.305  1.00  0.00    -0.212 F 
ENDBRANCH  39  40
ENDBRANCH  33  35
ENDBRANCH   1  33
TORSDOF 12
ENDMDL
MODEL 4
REMARK VINA RESULT: -8.768013634      1.436      1.865
REMARK  12 active torsions:
REMARK  status: ('A' for Active; 'I' for Inactive)
REMARK    1  A    between atoms: C2_2  and  O1_3 
REMARK    2  A    between atoms: O1_3  and  C3_4 
REMARK    3  A    between atoms: C3_4  and  C4_6 
REMARK    4  A    between atoms: C6_10  and  C7_11 
REMARK    5  A    between atoms: C7_11  and  C8_12 
REMARK    6  A    between atoms: C7_11  and  N4_31 
REMARK    7  A    between atoms: C8_12  and  C9_13 
REMARK    8  A    between atoms: C9_13  and  O3_14 
REMARK    9  A    between atoms: C9_13  and  C10_16 
REMARK       I    between atoms: C10_16  and  N2_18 
REMARK   10  A    between atoms: N2_18  and  C11_20 
REMARK   11  A    between atoms: N4_31  and  C20_33 
REMARK   12  A    between atoms: C23_37  and  C24_38 
ROOT
HETATM    1  C7  UNL     1       5.590   8.425  23.622  1.00  0.00     0.151 C 
ENDROOT
BRANCH   1   2
HETATM    2  C6  UNL     1       6.881   8.724  24.321  1.00  0.00     0.105 A 
HETATM    3  N1  UNL     1       7.835   9.548  23.906  1.00  0.00    -0.352 N 
HETATM    4  C5  UNL     1       8.886   9.518  24.773  1.00  0.00     0.125 A 
ATOM      5  H1  UNL     1       7.789  10.119  23.063  1.00  0.00     0.166 HD
HETATM    6  C4  UNL     1       8.513   8.620  25.749  1.00  0.00     0.125 A 
HETATM    7  N5  UNL     1       7.281   8.151  25.448  1.00  0.00    -0.338 N 
ATOM      8  H5  UNL     1       6.750   7.472  25.995  1.00  0.00     0.167 HD
BRANCH   6   9
HETATM    9  C3  UNL     1       9.346   8.244  26.899  1.00  0.00     0.311 C 
HETATM   10  O2  UNL     1       8.840   7.555  27.815  1.00  0.00    -0.258 OA
BRANCH   9  11
HETATM   11  O1  UNL     1      10.664   8.618  27.012  1.00  0.00    -0.317 OA
BRANCH  11  12
HETATM   12  C2  UNL     1      11.645   7.829  27.665  1.00  0.00     0.175 C 
HETATM   13  C1  UNL     1      12.969   7.867  26.947  1.00  0.00     0.034 C 
ENDBRANCH  11  12
ENDBRANCH   9  11
ENDBRANCH   6   9
ENDBRANCH   1   2
BRANCH   1  14
HETATM   14  C8  UNL     1       5.694   7.605  22.408  1.00  0.00     0.103 C 
BRANCH  14  15
HETATM   15  C9  UNL     1       5.744   8.339  21.086  1.00  0.00     0.113 C 
BRANCH  15  16
HETATM   16  O3  UNL     1       6.360   9.555  21.109  1.00  0.00    -0.359 OA
ATOM     17  H3  UNL     1       5.855  10.278  20.757  1.00  0.00     0.217 HD
ENDBRANCH  15  16
BRANCH  15  18
HETATM   18  C10 UNL     1       5.962   7.500  19.912  1.00  0.00     0.271 C 
HETATM   19  O4  UNL     1       6.051   8.025  18.772  1.00  0.00    -0.266 OA
HETATM   20  N2  UNL     1       6.094   6.082  19.956  1.00  0.00    -0.344 N 
ATOM     21  H2  UNL     1       6.022   5.616  20.860  1.00  0.00     0.163 HD
BRANCH  20  22
HETATM   22  C11 UNL     1       6.326   5.272  18.781  1.00  0.00     0.157 C 
HETATM   23  C12 UNL     1       5.069   4.654  18.213  1.00  0.00     0.035 C 
HETATM   24  C13 UNL     1       5.476   4.098  16.842  1.00  0.00     0.033 C 
HETATM   25  C14 UNL     1       5.703   2.631  16.886  1.00  0.00     0.273 C 
HETATM   26  N3  UNL     1       6.726   2.155  17.741  1.00  0.00     0.100 N 
HETATM   27  C15 UNL     1       7.570   1.151  17.061  1.00  0.00     0.273 C 
HETATM   28  C18 UNL     1       7.705   3.083  18.187  1.00  0.00     0.294 C 
HETATM   29  C16 UNL     1       8.797   1.015  17.920  1.00  0.00     0.033 C 
HETATM   30  C17 UNL     1       8.679   2.140  18.924  1.00  0.00     0.045 C 
HETATM   31  C19 UNL     1       7.241   4.145  19.081  1.00  0.00     0.182 C 
HETATM   32  O5  UNL     1       7.652   4.112  20.217  1.00  0.00    -0.293 OA
ENDBRANCH  20  22
ENDBRANCH  15  18
ENDBRANCH  14  15
ENDBRANCH   1  14
BRANCH   1  33
HETATM   33  N4  UNL     1       4.756   7.831  24.619  1.00  0.00    -0.403 N 
ATOM     34  H4  UNL     1       5.065   6.953  25.036  1.00  0.00     0.154 HD
BRANCH  33  35
HETATM   35  C20 UNL     1       3.555   8.369  25.058  1.00  0.00     0.113 C 
HETATM   36  C21 UNL     1       3.103   9.701  24.553  1.00  0.00     0.053 C 
HETATM   37  C22 UNL     1       1.624   9.490  24.291  1.00  0.00     0.170 C 
HETATM   38  O6  UNL     1       1.287   8.319  24.938  1.00  0.00    -0.378 OA
HETATM   39  C23 UNL     1       2.358   7.477  24.866  1.00  0.00     0.208 C 
BRANCH  39  40
HETATM   40  C24 UNL     1       2.341   6.674  23.612  1.00  0.00     0.383 C 
HETATM   41  F1  UNL     1       2.942   5.446  23.730  1.00  0.00    -0.212 F 
HETATM   42  F2  UNL     1       1.152   6.582  22.963  1.00  0.00    -0.212 F 
ENDBRANCH  39  40
ENDBRANCH  33  35
ENDBRANCH   1  33
TORSDOF 12
ENDMDL
MODEL 5
REMARK VINA RESULT: -8.726782569      3.086      4.383
REMARK  12 active torsions:
REMARK  status: ('A' for Active; 'I' for Inactive)
REMARK    1  A    between atoms: C2_2  and  O1_3 
REMARK    2  A    between atoms: O1_3  and  C3_4 
REMARK    3  A    between atoms: C3_4  and  C4_6 
REMARK    4  A    between atoms: C6_10  and  C7_11 
REMARK    5  A    between atoms: C7_11  and  C8_12 
REMARK    6  A    between atoms: C7_11  and  N4_31 
REMARK    7  A    between atoms: C8_12  and  C9_13 
REMARK    8  A    between atoms: C9_13  and  O3_14 
REMARK    9  A    between atoms: C9_13  and  C10_16 
REMARK       I    between atoms: C10_16  and  N2_18 
REMARK   10  A    between atoms: N2_18  and  C11_20 
REMARK   11  A    between atoms: N4_31  and  C20_33 
REMARK   12  A    between atoms: C23_37  and  C24_38 
ROOT
HETATM    1  C7  UNL     1       8.531   9.254  21.521  1.00  0.00     0.151 C 
ENDROOT
BRANCH   1   2
HETATM    2  C6  UNL     1       8.256   9.152  22.990  1.00  0.00     0.105 A 
HETATM    3  N1  UNL     1       7.100   9.382  23.599  1.00  0.00    -0.352 N 
HETATM    4  C5  UNL     1       7.247   9.249  24.946  1.00  0.00     0.125 A 
ATOM      5  H1  UNL     1       6.229   9.624  23.127  1.00  0.00     0.166 HD
HETATM    6  C4  UNL     1       8.574   8.922  25.126  1.00  0.00     0.125 A 
HETATM    7  N5  UNL     1       9.167   8.868  23.912  1.00  0.00    -0.338 N 
ATOM      8  H5  UNL     1      10.147   8.646  23.735  1.00  0.00     0.167 HD
BRANCH   6   9
HETATM    9  C3  UNL     1       9.208   8.695  26.431  1.00  0.00     0.311 C 
HETATM   10  O2  UNL     1       8.494   8.344  27.399  1.00  0.00    -0.258 OA
BRANCH   9  11
HETATM   11  O1  UNL     1      10.558   8.854  26.635  1.00  0.00    -0.317 OA
BRANCH  11  12
HETATM   12  C2  UNL     1      11.352   7.922  27.350  1.00  0.00     0.175 C 
HETATM   13  C1  UNL     1      12.771   7.888  26.848  1.00  0.00     0.034 C 
ENDBRANCH  11  12
ENDBRANCH   9  11
ENDBRANCH   6   9
ENDBRANCH   1   2
BRANCH   1  14
HETATM   14  C8  UNL     1       7.920   8.215  20.682  1.00  0.00     0.103 C 
BRANCH  14  15
HETATM   15  C9  UNL     1       6.899   7.314  21.339  1.00  0.00     0.113 C 
BRANCH  15  16
HETATM   16  O3  UNL     1       5.642   7.829  21.452  1.00  0.00    -0.359 OA
ATOM     17  H3  UNL     1       5.531   8.504  22.112  1.00  0.00     0.217 HD
ENDBRANCH  15  16
BRANCH  15  18
HETATM   18  C10 UNL     1       7.014   5.896  21.016  1.00  0.00     0.271 C 
HETATM   19  O4  UNL     1       7.048   5.040  21.937  1.00  0.00    -0.266 OA
HETATM   20  N2  UNL     1       7.088   5.383  19.688  1.00  0.00    -0.344 N 
ATOM     21  H2  UNL     1       7.071   6.043  18.911  1.00  0.00     0.163 HD
BRANCH  20  22
HETATM   22  C11 UNL     1       7.185   3.972  19.389  1.00  0.00     0.157 C 
HETATM   23  C12 UNL     1       8.573   3.532  18.985  1.00  0.00     0.035 C 
HETATM   24  C13 UNL     1       8.533   1.998  19.001  1.00  0.00     0.033 C 
HETATM   25  C14 UNL     1       8.385   1.434  17.635  1.00  0.00     0.273 C 
HETATM   26  N3  UNL     1       7.219   1.778  16.910  1.00  0.00     0.100 N 
HETATM   27  C15 UNL     1       6.617   0.592  16.268  1.00  0.00     0.273 C 
HETATM   28  C18 UNL     1       6.112   2.291  17.637  1.00  0.00     0.294 C 
HETATM   29  C16 UNL     1       5.232   1.017  15.864  1.00  0.00     0.033 C 
HETATM   30  C17 UNL     1       5.047   2.366  16.523  1.00  0.00     0.045 C 
HETATM   31  C19 UNL     1       6.291   3.600  18.267  1.00  0.00     0.182 C 
HETATM   32  O5  UNL     1       5.627   4.507  17.823  1.00  0.00    -0.293 OA
ENDBRANCH  20  22
ENDBRANCH  15  18
ENDBRANCH  14  15
ENDBRANCH   1  14
BRANCH   1  33
HETATM   33  N4  UNL     1       8.118  10.572  21.156  1.00  0.00    -0.403 N 
ATOM     34  H4  UNL     1       8.599  11.359  21.593  1.00  0.00     0.154 HD
BRANCH  33  35
HETATM   35  C20 UNL     1       7.109  10.854  20.247  1.00  0.00     0.113 C 
HETATM   36  C21 UNL     1       5.707  11.058  20.725  1.00  0.00     0.053 C 
HETATM   37  C22 UNL     1       5.235  12.253  19.917  1.00  0.00     0.170 C 
HETATM   38  O6  UNL     1       6.143  12.399  18.888  1.00  0.00    -0.378 OA
HETATM   39  C23 UNL     1       7.373  12.043  19.361  1.00  0.00     0.208 C 
BRANCH  39  40
HETATM   40  C24 UNL     1       8.066  13.192  20.005  1.00  0.00     0.383 C 
HETATM   41  F1  UNL     1       8.084  14.330  19.239  1.00  0.00    -0.212 F 
HETATM   42  F2  UNL     1       7.727  13.466  21.290  1.00  0.00    -0.212 F 
ENDBRANCH  39  40
ENDBRANCH  33  35
ENDBRANCH   1  33
TORSDOF 12
ENDMDL
