MODEL 1
REMARK VINA RESULT: -7.700417566      0.000      0.000
REMARK  4 active torsions:
REMARK  status: ('A' for Active; 'I' for Inactive)
REMARK    1  A    between atoms: C8_8  and  C9_9 
REMARK    2  A    between atoms: C17_19  and  O3_20 
REMARK    3  A    between atoms: C18_23  and  C19_24 
REMARK    4  A    between atoms: C19_24  and  O5_25 
ROOT
HETATM    1  C9  UNL     1      25.264  25.251  41.320  1.00  0.00     0.196 C 
HETATM    2  O1  UNL     1      26.223  24.580  40.520  1.00  0.00    -0.229 OA
HETATM    3  O2  UNL     1      25.684  23.463  40.178  1.00  0.00    -0.197 OA
HETATM    4  C10 UNL     1      25.145  22.685  41.160  1.00  0.00     0.223 C 
HETATM    5  C11 UNL     1      23.635  22.467  40.957  1.00  0.00     0.074 C 
HETATM    6  C12 UNL     1      23.226  22.518  39.526  1.00  0.00     0.006 C 
HETATM    7  C13 UNL     1      22.964  21.196  38.891  1.00  0.00     0.000 C 
HETATM    8  C14 UNL     1      24.039  20.179  39.079  1.00  0.00     0.000 C 
HETATM    9  C15 UNL     1      25.360  20.799  38.750  1.00  0.00     0.003 C 
HETATM   10  C16 UNL     1      26.322  20.865  39.883  1.00  0.00     0.037 C 
HETATM   11  C17 UNL     1      25.775  21.289  41.195  1.00  0.00     0.183 C 
HETATM   12  O4  UNL     1      25.267  23.154  42.455  1.00  0.00    -0.340 OA
HETATM   13  C18 UNL     1      25.329  24.507  42.632  1.00  0.00     0.181 C 
ENDROOT
BRANCH  11  14
HETATM   14  O3  UNL     1      26.859  21.352  42.091  1.00  0.00    -0.390 OA
ATOM     15  H3  UNL     1      26.756  20.629  42.699  1.00  0.00     0.210 HD
ENDBRANCH  11  14
BRANCH  13  16
HETATM   16  C19 UNL     1      26.672  24.746  43.339  1.00  0.00     0.199 C 
BRANCH  16  17
HETATM   17  O5  UNL     1      26.931  23.543  44.038  1.00  0.00    -0.398 OA
ATOM     18  H5  UNL     1      27.298  22.959  43.385  1.00  0.00     0.209 HD
ENDBRANCH  16  17
ENDBRANCH  13  16
BRANCH   1  19
HETATM   19  C8  UNL     1      25.547  26.712  41.397  1.00  0.00     0.028 C 
HETATM   20  C2  UNL     1      25.396  27.280  40.008  1.00  0.00    -0.012 C 
HETATM   21  C1  UNL     1      24.328  26.679  39.174  1.00  0.00     0.010 C 
HETATM   22  C3  UNL     1      25.301  28.772  40.107  1.00  0.00     0.005 C 
HETATM   23  C4  UNL     1      24.016  29.194  40.776  1.00  0.00     0.001 C 
HETATM   24  C5  UNL     1      23.567  28.230  41.827  1.00  0.00     0.005 C 
HETATM   25  C6  UNL     1      24.716  27.436  42.410  1.00  0.00    -0.012 C 
HETATM   26  C7  UNL     1      25.542  28.459  43.207  1.00  0.00     0.010 C 
ENDBRANCH   1  19
TORSDOF 4
ENDMDL
MODEL 2
REMARK VINA RESULT: -7.160040531      2.285      6.768
REMARK  4 active torsions:
REMARK  status: ('A' for Active; 'I' for Inactive)
REMARK    1  A    between atoms: C8_8  and  C9_9 
REMARK    2  A    between atoms: C17_19  and  O3_20 
REMARK    3  A    between atoms: C18_23  and  C19_24 
REMARK    4  A    between atoms: C19_24  and  O5_25 
ROOT
HETATM    1  C9  UNL     1      25.056  25.702  40.809  1.00  0.00     0.196 C 
HETATM    2  O1  UNL     1      26.050  26.663  40.496  1.00  0.00    -0.229 OA
HETATM    3  O2  UNL     1      25.997  27.548  41.430  1.00  0.00    -0.197 OA
HETATM    4  C10 UNL     1      24.783  28.090  41.729  1.00  0.00     0.223 C 
HETATM    5  C11 UNL     1      24.369  27.805  43.184  1.00  0.00     0.074 C 
HETATM    6  C12 UNL     1      25.532  27.647  44.100  1.00  0.00     0.006 C 
HETATM    7  C13 UNL     1      25.821  28.819  44.971  1.00  0.00     0.000 C 
HETATM    8  C14 UNL     1      25.906  30.130  44.262  1.00  0.00     0.000 C 
HETATM    9  C15 UNL     1      26.794  29.981  43.068  1.00  0.00     0.003 C 
HETATM   10  C16 UNL     1      26.128  30.216  41.758  1.00  0.00     0.037 C 
HETATM   11  C17 UNL     1      24.784  29.615  41.579  1.00  0.00     0.183 C 
HETATM   12  O4  UNL     1      23.712  27.666  40.964  1.00  0.00    -0.340 OA
HETATM   13  C18 UNL     1      23.771  26.405  40.442  1.00  0.00     0.181 C 
ENDROOT
BRANCH  11  14
HETATM   14  O3  UNL     1      24.381  29.895  40.259  1.00  0.00    -0.390 OA
ATOM     15  H3  UNL     1      24.007  30.769  40.265  1.00  0.00     0.210 HD
ENDBRANCH  11  14
BRANCH  13  16
HETATM   16  C19 UNL     1      23.664  26.607  38.922  1.00  0.00     0.199 C 
BRANCH  16  17
HETATM   17  O5  UNL     1      24.608  27.619  38.626  1.00  0.00    -0.398 OA
ATOM     18  H5  UNL     1      24.085  28.380  38.406  1.00  0.00     0.209 HD
ENDBRANCH  16  17
ENDBRANCH  13  16
BRANCH   1  19
HETATM   19  C8  UNL     1      25.305  24.413  40.104  1.00  0.00     0.028 C 
HETATM   20  C2  UNL     1      26.203  23.579  40.982  1.00  0.00    -0.012 C 
HETATM   21  C1  UNL     1      25.979  23.703  42.442  1.00  0.00     0.010 C 
HETATM   22  C3  UNL     1      26.169  22.162  40.495  1.00  0.00     0.005 C 
HETATM   23  C4  UNL     1      24.813  21.539  40.725  1.00  0.00     0.001 C 
HETATM   24  C5  UNL     1      23.695  22.522  40.595  1.00  0.00     0.005 C 
HETATM   25  C6  UNL     1      24.056  23.691  39.704  1.00  0.00    -0.012 C 
HETATM   26  C7  UNL     1      24.161  23.097  38.291  1.00  0.00     0.010 C 
ENDBRANCH   1  19
TORSDOF 4
ENDMDL
MODEL 3
REMARK VINA RESULT: -6.947483324      2.520      6.458
REMARK  4 active torsions:
REMARK  status: ('A' for Active; 'I' for Inactive)
REMARK    1  A    between atoms: C8_8  and  C9_9 
REMARK    2  A    between atoms: C17_19  and  O3_20 
REMARK    3  A    between atoms: C18_23  and  C19_24 
REMARK    4  A    between atoms: C19_24  and  O5_25 
ROOT
HETATM    1  C9  UNL     1      28.259  22.168  41.980  1.00  0.00     0.196 C 
HETATM    2  O1  UNL     1      27.301  22.053  43.019  1.00  0.00    -0.229 OA
HETATM    3  O2  UNL     1      26.488  23.039  42.864  1.00  0.00    -0.197 OA
HETATM    4  C10 UNL     1      27.016  24.290  42.738  1.00  0.00     0.223 C 
HETATM    5  C11 UNL     1      26.662  24.929  41.383  1.00  0.00     0.074 C 
HETATM    6  C12 UNL     1      25.370  24.440  40.828  1.00  0.00     0.006 C 
HETATM    7  C13 UNL     1      24.220  25.376  40.970  1.00  0.00     0.000 C 
HETATM    8  C14 UNL     1      24.011  25.919  42.344  1.00  0.00     0.000 C 
HETATM    9  C15 UNL     1      24.047  24.790  43.325  1.00  0.00     0.003 C 
HETATM   10  C16 UNL     1      25.147  24.860  44.323  1.00  0.00     0.037 C 
HETATM   11  C17 UNL     1      26.485  25.246  43.811  1.00  0.00     0.183 C 
HETATM   12  O4  UNL     1      28.392  24.392  42.832  1.00  0.00    -0.340 OA
HETATM   13  C18 UNL     1      29.131  23.311  42.442  1.00  0.00     0.181 C 
ENDROOT
BRANCH  11  14
HETATM   14  O3  UNL     1      27.377  25.176  44.898  1.00  0.00    -0.390 OA
ATOM     15  H3  UNL     1      26.848  25.107  45.684  1.00  0.00     0.210 HD
ENDBRANCH  11  14
BRANCH  13  16
HETATM   16  C19 UNL     1      29.941  22.923  43.689  1.00  0.00     0.199 C 
BRANCH  16  17
HETATM   17  O5  UNL     1      29.028  23.045  44.763  1.00  0.00    -0.398 OA
ATOM     18  H5  UNL     1      28.382  22.366  44.609  1.00  0.00     0.209 HD
ENDBRANCH  16  17
ENDBRANCH  13  16
BRANCH   1  19
HETATM   19  C8  UNL     1      28.966  20.876  41.748  1.00  0.00     0.028 C 
HETATM   20  C2  UNL     1      27.917  19.818  41.519  1.00  0.00    -0.012 C 
HETATM   21  C1  UNL     1      26.707  20.252  40.781  1.00  0.00     0.010 C 
HETATM   22  C3  UNL     1      28.576  18.612  40.920  1.00  0.00     0.005 C 
HETATM   23  C4  UNL     1      29.067  18.897  39.521  1.00  0.00     0.001 C 
HETATM   24  C5  UNL     1      29.530  20.307  39.347  1.00  0.00     0.005 C 
HETATM   25  C6  UNL     1      29.981  20.932  40.649  1.00  0.00    -0.012 C 
HETATM   26  C7  UNL     1      31.273  20.187  41.021  1.00  0.00     0.010 C 
ENDBRANCH   1  19
TORSDOF 4
ENDMDL
MODEL 4
REMARK VINA RESULT: -6.897671646      2.107      4.274
REMARK  4 active torsions:
REMARK  status: ('A' for Active; 'I' for Inactive)
REMARK    1  A    between atoms: C8_8  and  C9_9 
REMARK    2  A    between atoms: C17_19  and  O3_20 
REMARK    3  A    between atoms: C18_23  and  C19_24 
REMARK    4  A    between atoms: C19_24  and  O5_25 
ROOT
HETATM    1  C9  UNL     1      25.273  27.223  42.432  1.00  0.00     0.196 C 
HETATM    2  O1  UNL     1      24.074  26.494  42.231  1.00  0.00    -0.229 OA
HETATM    3  O2  UNL     1      24.427  25.352  41.753  1.00  0.00    -0.197 OA
HETATM    4  C10 UNL     1      25.265  25.341  40.677  1.00  0.00     0.223 C 
HETATM    5  C11 UNL     1      26.594  24.632  40.992  1.00  0.00     0.074 C 
HETATM    6  C12 UNL     1      26.461  23.580  42.037  1.00  0.00     0.006 C 
HETATM    7  C13 UNL     1      26.445  22.179  41.533  1.00  0.00     0.000 C 
HETATM    8  C14 UNL     1      25.485  21.917  40.421  1.00  0.00     0.000 C 
HETATM    9  C15 UNL     1      24.150  22.485  40.784  1.00  0.00     0.003 C 
HETATM   10  C16 UNL     1      23.664  23.568  39.889  1.00  0.00     0.037 C 
HETATM   11  C17 UNL     1      24.657  24.593  39.486  1.00  0.00     0.183 C 
HETATM   12  O4  UNL     1      25.630  26.572  40.165  1.00  0.00    -0.340 OA
HETATM   13  C18 UNL     1      25.668  27.628  41.032  1.00  0.00     0.181 C 
ENDROOT
BRANCH  11  14
HETATM   14  O3  UNL     1      23.971  25.548  38.712  1.00  0.00    -0.390 OA
ATOM     15  H3  UNL     1      23.349  25.975  39.290  1.00  0.00     0.210 HD
ENDBRANCH  11  14
BRANCH  13  16
HETATM   16  C19 UNL     1      24.676  28.647  40.448  1.00  0.00     0.199 C 
BRANCH  16  17
HETATM   17  O5  UNL     1      25.436  29.398  39.521  1.00  0.00    -0.398 OA
ATOM     18  H5  UNL     1      25.075  29.170  38.672  1.00  0.00     0.209 HD
ENDBRANCH  16  17
ENDBRANCH  13  16
BRANCH   1  19
HETATM   19  C8  UNL     1      25.072  28.346  43.391  1.00  0.00     0.028 C 
HETATM   20  C2  UNL     1      25.316  27.810  44.779  1.00  0.00    -0.012 C 
HETATM   21  C1  UNL     1      26.383  26.788  44.901  1.00  0.00     0.010 C 
HETATM   22  C3  UNL     1      25.493  28.966  45.716  1.00  0.00     0.005 C 
HETATM   23  C4  UNL     1      26.770  29.715  45.423  1.00  0.00     0.001 C 
HETATM   24  C5  UNL     1      27.116  29.724  43.969  1.00  0.00     0.005 C 
HETATM   25  C6  UNL     1      25.898  29.557  43.086  1.00  0.00    -0.012 C 
HETATM   26  C7  UNL     1      25.099  30.858  43.260  1.00  0.00     0.010 C 
ENDBRANCH   1  19
TORSDOF 4
ENDMDL
MODEL 5
REMARK VINA RESULT: -6.744274943      2.270      4.270
REMARK  4 active torsions:
REMARK  status: ('A' for Active; 'I' for Inactive)
REMARK    1  A    between atoms: C8_8  and  C9_9 
REMARK    2  A    between atoms: C17_19  and  O3_20 
REMARK    3  A    between atoms: C18_23  and  C19_24 
REMARK    4  A    between atoms: C19_24  and  O5_25 
ROOT
HETATM    1  C9  UNL     1      25.276  25.522  43.369  1.00  0.00     0.196 C 
HETATM    2  O1  UNL     1      24.125  24.767  43.029  1.00  0.00    -0.229 OA
HETATM    3  O2  UNL     1      24.529  23.847  42.224  1.00  0.00    -0.197 OA
HETATM    4  C10 UNL     1      25.278  24.222  41.148  1.00  0.00     0.223 C 
HETATM    5  C11 UNL     1      26.680  23.586  41.176  1.00  0.00     0.074 C 
HETATM    6  C12 UNL     1      26.711  22.273  41.878  1.00  0.00     0.006 C 
HETATM    7  C13 UNL     1      26.765  21.077  40.992  1.00  0.00     0.000 C 
HETATM    8  C14 UNL     1      25.746  21.049  39.903  1.00  0.00     0.000 C 
HETATM    9  C15 UNL     1      24.402  21.358  40.484  1.00  0.00     0.003 C 
HETATM   10  C16 UNL     1      23.764  22.598  39.966  1.00  0.00     0.037 C 
HETATM   11  C17 UNL     1      24.640  23.787  39.826  1.00  0.00     0.183 C 
HETATM   12  O4  UNL     1      25.505  25.577  40.996  1.00  0.00    -0.340 OA
HETATM   13  C18 UNL     1      25.527  26.343  42.127  1.00  0.00     0.181 C 
ENDROOT
BRANCH  11  14
HETATM   14  O3  UNL     1      23.823  24.850  39.397  1.00  0.00    -0.390 OA
ATOM     15  H3  UNL     1      24.343  25.642  39.467  1.00  0.00     0.210 HD
ENDBRANCH  11  14
BRANCH  13  16
HETATM   16  C19 UNL     1      24.417  27.384  41.915  1.00  0.00     0.199 C 
BRANCH  16  17
HETATM   17  O5  UNL     1      23.343  26.655  41.351  1.00  0.00    -0.398 OA
ATOM     18  H5  UNL     1      22.775  27.316  40.973  1.00  0.00     0.209 HD
ENDBRANCH  16  17
ENDBRANCH  13  16
BRANCH   1  19
HETATM   19  C8  UNL     1      25.063  26.303  44.621  1.00  0.00     0.028 C 
HETATM   20  C2  UNL     1      24.814  25.318  45.735  1.00  0.00    -0.012 C 
HETATM   21  C1  UNL     1      25.577  24.049  45.662  1.00  0.00     0.010 C 
HETATM   22  C3  UNL     1      24.969  26.028  47.046  1.00  0.00     0.005 C 
HETATM   23  C4  UNL     1      26.404  26.434  47.280  1.00  0.00     0.001 C 
HETATM   24  C5  UNL     1      27.117  26.793  46.016  1.00  0.00     0.005 C 
HETATM   25  C6  UNL     1      26.171  27.260  44.932  1.00  0.00    -0.012 C 
HETATM   26  C7  UNL     1      25.638  28.616  45.426  1.00  0.00     0.010 C 
ENDBRANCH   1  19
TORSDOF 4
ENDMDL
