MODEL 1
REMARK VINA RESULT: -8.386175035      0.000      0.000
REMARK  15 active torsions:
REMARK  status: ('A' for Active; 'I' for Inactive)
REMARK    1  A    between atoms: C2_2  and  C3_3 
REMARK    2  A    between atoms: C3_3  and  O1_4 
REMARK    3  A    between atoms: C3_3  and  C4_6 
REMARK    4  A    between atoms: C3_3  and  C15_19 
REMARK    5  A    between atoms: C4_6  and  C5_7 
REMARK    6  A    between atoms: C5_7  and  C6_8 
REMARK    7  A    between atoms: C6_8  and  C7_9 
REMARK    8  A    between atoms: C7_9  and  C9_11 
REMARK    9  A    between atoms: C7_9  and  O2_15 
REMARK   10  A    between atoms: C9_11  and  C10_12 
REMARK   11  A    between atoms: O2_15  and  C13_16 
REMARK   12  A    between atoms: C16_20  and  C17_21 
REMARK   13  A    between atoms: C17_21  and  C18_22 
REMARK   14  A    between atoms: C17_21  and  C28_32 
REMARK   15  A    between atoms: C32_36  and  O4_37 
ROOT
HETATM    1  C17 UNL     1      14.873  -2.449  -0.137  1.00  0.00     0.028 C 
ENDROOT
BRANCH   1   2
HETATM    2  C16 UNL     1      13.699  -1.667   0.183  1.00  0.00    -0.022 C 
HETATM    3  C15 UNL     1      13.376  -0.484   0.871  1.00  0.00     0.007 C 
BRANCH   3   4
HETATM    4  C3  UNL     1      13.443  -0.247   2.376  1.00  0.00     0.078 C 
BRANCH   4   5
HETATM    5  C2  UNL     1      12.708   0.941   2.776  1.00  0.00     0.038 C 
HETATM    6  C1  UNL     1      13.345   2.297   2.644  1.00  0.00     0.008 C 
ENDBRANCH   4   5
BRANCH   4   7
HETATM    7  O1  UNL     1      14.822  -0.158   2.719  1.00  0.00    -0.386 OA
ATOM      8  H1  UNL     1      15.329   0.261   2.034  1.00  0.00     0.211 HD
ENDBRANCH   4   7
BRANCH   4   9
HETATM    9  C4  UNL     1      12.980  -1.554   2.953  1.00  0.00     0.068 C 
BRANCH   9  10
HETATM   10  C5  UNL     1      11.566  -1.814   3.164  1.00  0.00    -0.024 C 
BRANCH  10  11
HETATM   11  C6  UNL     1      10.973  -1.923   4.512  1.00  0.00     0.007 C 
BRANCH  11  12
HETATM   12  C7  UNL     1      10.558  -3.230   5.091  1.00  0.00     0.085 C 
HETATM   13  C8  UNL     1      11.309  -3.436   6.395  1.00  0.00     0.051 C 
BRANCH  12  14
HETATM   14  C9  UNL     1      10.838  -4.288   4.091  1.00  0.00     0.046 C 
BRANCH  14  15
HETATM   15  C10 UNL     1       9.904  -5.356   3.798  1.00  0.00    -0.020 C 
HETATM   16  C11 UNL     1       9.898  -5.958   2.419  1.00  0.00     0.009 C 
HETATM   17  C12 UNL     1       9.820  -6.511   4.771  1.00  0.00     0.009 C 
ENDBRANCH  14  15
ENDBRANCH  12  14
BRANCH  12  18
HETATM   18  O2  UNL     1       9.206  -3.206   5.518  1.00  0.00    -0.307 OA
BRANCH  18  19
HETATM   19  C13 UNL     1       8.704  -2.745   6.682  1.00  0.00     0.255 C 
HETATM   20  C14 UNL     1       8.114  -3.613   7.746  1.00  0.00     0.126 C 
HETATM   21  O3  UNL     1       8.722  -1.531   6.907  1.00  0.00    -0.266 OA
ENDBRANCH  18  19
ENDBRANCH  12  18
ENDBRANCH  11  12
ENDBRANCH  10  11
ENDBRANCH   9  10
ENDBRANCH   4   9
ENDBRANCH   3   4
ENDBRANCH   1   2
BRANCH   1  22
HETATM   22  C18 UNL     1      14.704  -3.940   0.160  1.00  0.00     0.004 C 
HETATM   23  C19 UNL     1      14.337  -4.043   1.673  1.00  0.00     0.007 C 
HETATM   24  C20 UNL     1      13.117  -4.770   1.330  1.00  0.00     0.011 C 
HETATM   25  C21 UNL     1      13.665  -4.849  -0.133  1.00  0.00    -0.028 C 
HETATM   26  C22 UNL     1      12.529  -4.836  -1.027  1.00  0.00     0.011 C 
HETATM   27  C26 UNL     1      14.186  -6.313  -0.214  1.00  0.00    -0.032 A 
HETATM   28  C23 UNL     1      12.473  -6.134  -1.851  1.00  0.00     0.006 C 
HETATM   29  C24 UNL     1      13.470  -7.035  -1.241  1.00  0.00    -0.005 A 
HETATM   30  C25 UNL     1      13.203  -7.360   0.235  1.00  0.00     0.015 A 
HETATM   31  C27 UNL     1      15.613  -6.613   0.056  1.00  0.00     0.016 C 
ENDBRANCH   1  22
BRANCH   1  32
HETATM   32  C28 UNL     1      15.500  -2.331  -1.498  1.00  0.00     0.024 C 
HETATM   33  C29 UNL     1      16.799  -3.107  -1.695  1.00  0.00     0.024 C 
HETATM   34  C30 UNL     1      14.619  -3.003  -2.575  1.00  0.00     0.020 C 
HETATM   35  C31 UNL     1      15.158  -2.731  -3.969  1.00  0.00     0.033 C 
HETATM   36  C32 UNL     1      14.914  -1.299  -4.292  1.00  0.00     0.125 C 
HETATM   37  C33 UNL     1      15.098  -0.347  -3.140  1.00  0.00     0.111 C 
HETATM   38  C34 UNL     1      15.802  -0.986  -1.993  1.00  0.00     0.138 C 
HETATM   39  O5  UNL     1      16.677  -0.337  -1.453  1.00  0.00    -0.297 OA
BRANCH  36  40
HETATM   40  O4  UNL     1      13.634  -1.176  -4.844  1.00  0.00    -0.395 OA
ATOM     41  H4  UNL     1      13.665  -0.534  -5.542  1.00  0.00     0.210 HD
ENDBRANCH  36  40
ENDBRANCH   1  32
TORSDOF 15
ENDMDL
MODEL 2
REMARK VINA RESULT: -8.329638640      0.937      1.339
REMARK  15 active torsions:
REMARK  status: ('A' for Active; 'I' for Inactive)
REMARK    1  A    between atoms: C2_2  and  C3_3 
REMARK    2  A    between atoms: C3_3  and  O1_4 
REMARK    3  A    between atoms: C3_3  and  C4_6 
REMARK    4  A    between atoms: C3_3  and  C15_19 
REMARK    5  A    between atoms: C4_6  and  C5_7 
REMARK    6  A    between atoms: C5_7  and  C6_8 
REMARK    7  A    between atoms: C6_8  and  C7_9 
REMARK    8  A    between atoms: C7_9  and  C9_11 
REMARK    9  A    between atoms: C7_9  and  O2_15 
REMARK   10  A    between atoms: C9_11  and  C10_12 
REMARK   11  A    between atoms: O2_15  and  C13_16 
REMARK   12  A    between atoms: C16_20  and  C17_21 
REMARK   13  A    between atoms: C17_21  and  C18_22 
REMARK   14  A    between atoms: C17_21  and  C28_32 
REMARK   15  A    between atoms: C32_36  and  O4_37 
ROOT
HETATM    1  C17 UNL     1      14.690  -2.509  -0.497  1.00  0.00     0.028 C 
ENDROOT
BRANCH   1   2
HETATM    2  C16 UNL     1      13.600  -1.675  -0.037  1.00  0.00    -0.022 C 
HETATM    3  C15 UNL     1      13.419  -0.443   0.616  1.00  0.00     0.007 C 
BRANCH   3   4
HETATM    4  C3  UNL     1      13.741  -0.115   2.070  1.00  0.00     0.078 C 
BRANCH   4   5
HETATM    5  C2  UNL     1      12.988   1.030   2.553  1.00  0.00     0.038 C 
HETATM    6  C1  UNL     1      13.590   2.406   2.482  1.00  0.00     0.008 C 
ENDBRANCH   4   5
BRANCH   4   7
HETATM    7  O1  UNL     1      15.146   0.106   2.141  1.00  0.00    -0.386 OA
ATOM      8  H1  UNL     1      15.593  -0.608   2.580  1.00  0.00     0.211 HD
ENDBRANCH   4   7
BRANCH   4   9
HETATM    9  C4  UNL     1      13.513  -1.421   2.778  1.00  0.00     0.068 C 
BRANCH   9  10
HETATM   10  C5  UNL     1      12.209  -1.752   3.324  1.00  0.00    -0.024 C 
BRANCH  10  11
HETATM   11  C6  UNL     1      11.876  -3.103   3.818  1.00  0.00     0.007 C 
BRANCH  11  12
HETATM   12  C7  UNL     1      10.725  -3.352   4.729  1.00  0.00     0.085 C 
HETATM   13  C8  UNL     1      11.269  -3.667   6.112  1.00  0.00     0.051 C 
BRANCH  12  14
HETATM   14  C9  UNL     1       9.917  -4.458   4.161  1.00  0.00     0.046 C 
BRANCH  14  15
HETATM   15  C10 UNL     1       9.684  -5.700   4.869  1.00  0.00    -0.020 C 
HETATM   16  C11 UNL     1       8.343  -5.929   5.511  1.00  0.00     0.009 C 
HETATM   17  C12 UNL     1      10.053  -6.993   4.174  1.00  0.00     0.009 C 
ENDBRANCH  14  15
ENDBRANCH  12  14
BRANCH  12  18
HETATM   18  O2  UNL     1       9.975  -2.170   4.958  1.00  0.00    -0.307 OA
BRANCH  18  19
HETATM   19  C13 UNL     1       9.473  -1.711   6.122  1.00  0.00     0.255 C 
HETATM   20  C14 UNL     1       8.379  -2.382   6.888  1.00  0.00     0.126 C 
HETATM   21  O3  UNL     1       9.929  -0.671   6.607  1.00  0.00    -0.266 OA
ENDBRANCH  18  19
ENDBRANCH  12  18
ENDBRANCH  11  12
ENDBRANCH  10  11
ENDBRANCH   9  10
ENDBRANCH   4   9
ENDBRANCH   3   4
ENDBRANCH   1   2
BRANCH   1  22
HETATM   22  C18 UNL     1      14.314  -3.987  -0.603  1.00  0.00     0.004 C 
HETATM   23  C19 UNL     1      15.521  -4.786  -0.021  1.00  0.00     0.007 C 
HETATM   24  C20 UNL     1      14.631  -5.433   0.942  1.00  0.00     0.011 C 
HETATM   25  C21 UNL     1      13.439  -4.795   0.154  1.00  0.00    -0.028 C 
HETATM   26  C22 UNL     1      12.379  -4.532   1.101  1.00  0.00     0.011 C 
HETATM   27  C26 UNL     1      12.906  -6.001  -0.675  1.00  0.00    -0.032 A 
HETATM   28  C23 UNL     1      11.117  -5.334   0.740  1.00  0.00     0.006 C 
HETATM   29  C24 UNL     1      11.536  -6.281  -0.312  1.00  0.00    -0.005 A 
HETATM   30  C25 UNL     1      12.645  -7.250   0.122  1.00  0.00     0.015 A 
HETATM   31  C27 UNL     1      13.370  -6.212  -2.068  1.00  0.00     0.016 C 
ENDBRANCH   1  22
BRANCH   1  32
HETATM   32  C28 UNL     1      15.432  -2.142  -1.750  1.00  0.00     0.024 C 
HETATM   33  C29 UNL     1      16.816  -2.768  -1.904  1.00  0.00     0.024 C 
HETATM   34  C30 UNL     1      14.734  -2.725  -2.999  1.00  0.00     0.020 C 
HETATM   35  C31 UNL     1      15.377  -2.210  -4.275  1.00  0.00     0.033 C 
HETATM   36  C32 UNL     1      15.024  -0.773  -4.428  1.00  0.00     0.125 C 
HETATM   37  C33 UNL     1      14.996   0.016  -3.146  1.00  0.00     0.111 C 
HETATM   38  C34 UNL     1      15.645  -0.719  -2.024  1.00  0.00     0.138 C 
HETATM   39  O5  UNL     1      16.393  -0.082  -1.307  1.00  0.00    -0.297 OA
BRANCH  36  40
HETATM   40  O4  UNL     1      13.798  -0.682  -5.098  1.00  0.00    -0.395 OA
ATOM     41  H4  UNL     1      13.818  -1.265  -5.848  1.00  0.00     0.210 HD
ENDBRANCH  36  40
ENDBRANCH   1  32
TORSDOF 15
ENDMDL
MODEL 3
REMARK VINA RESULT: -8.283682894      0.825      2.051
REMARK  15 active torsions:
REMARK  status: ('A' for Active; 'I' for Inactive)
REMARK    1  A    between atoms: C2_2  and  C3_3 
REMARK    2  A    between atoms: C3_3  and  O1_4 
REMARK    3  A    between atoms: C3_3  and  C4_6 
REMARK    4  A    between atoms: C3_3  and  C15_19 
REMARK    5  A    between atoms: C4_6  and  C5_7 
REMARK    6  A    between atoms: C5_7  and  C6_8 
REMARK    7  A    between atoms: C6_8  and  C7_9 
REMARK    8  A    between atoms: C7_9  and  C9_11 
REMARK    9  A    between atoms: C7_9  and  O2_15 
REMARK   10  A    between atoms: C9_11  and  C10_12 
REMARK   11  A    between atoms: O2_15  and  C13_16 
REMARK   12  A    between atoms: C16_20  and  C17_21 
REMARK   13  A    between atoms: C17_21  and  C18_22 
REMARK   14  A    between atoms: C17_21  and  C28_32 
REMARK   15  A    between atoms: C32_36  and  O4_37 
ROOT
HETATM    1  C17 UNL     1      14.889  -2.442  -0.177  1.00  0.00     0.028 C 
ENDROOT
BRANCH   1   2
HETATM    2  C16 UNL     1      13.737  -1.622   0.131  1.00  0.00    -0.022 C 
HETATM    3  C15 UNL     1      13.447  -0.424   0.807  1.00  0.00     0.007 C 
BRANCH   3   4
HETATM    4  C3  UNL     1      13.513  -0.176   2.309  1.00  0.00     0.078 C 
BRANCH   4   5
HETATM    5  C2  UNL     1      12.701   0.960   2.713  1.00  0.00     0.038 C 
HETATM    6  C1  UNL     1      13.280   2.347   2.674  1.00  0.00     0.008 C 
ENDBRANCH   4   5
BRANCH   4   7
HETATM    7  O1  UNL     1      14.886   0.012   2.637  1.00  0.00    -0.386 OA
ATOM      8  H1  UNL     1      15.079  -0.273   3.522  1.00  0.00     0.211 HD
ENDBRANCH   4   7
BRANCH   4   9
HETATM    9  C4  UNL     1      13.149  -1.509   2.897  1.00  0.00     0.068 C 
BRANCH   9  10
HETATM   10  C5  UNL     1      11.845  -1.724   3.500  1.00  0.00    -0.024 C 
BRANCH  10  11
HETATM   11  C6  UNL     1      11.486  -2.982   4.185  1.00  0.00     0.007 C 
BRANCH  11  12
HETATM   12  C7  UNL     1      10.519  -3.020   5.316  1.00  0.00     0.085 C 
HETATM   13  C8  UNL     1       9.898  -1.641   5.460  1.00  0.00     0.051 C 
BRANCH  12  14
HETATM   14  C9  UNL     1      11.247  -3.454   6.533  1.00  0.00     0.046 C 
BRANCH  14  15
HETATM   15  C10 UNL     1      10.904  -2.986   7.860  1.00  0.00    -0.020 C 
HETATM   16  C11 UNL     1       9.629  -3.471   8.493  1.00  0.00     0.009 C 
HETATM   17  C12 UNL     1      11.969  -3.053   8.933  1.00  0.00     0.009 C 
ENDBRANCH  14  15
ENDBRANCH  12  14
BRANCH  12  18
HETATM   18  O2  UNL     1       9.395  -3.831   5.015  1.00  0.00    -0.307 OA
BRANCH  18  19
HETATM   19  C13 UNL     1       9.273  -5.169   5.138  1.00  0.00     0.255 C 
HETATM   20  C14 UNL     1      10.035  -6.160   4.320  1.00  0.00     0.126 C 
HETATM   21  O3  UNL     1       8.487  -5.629   5.972  1.00  0.00    -0.266 OA
ENDBRANCH  18  19
ENDBRANCH  12  18
ENDBRANCH  11  12
ENDBRANCH  10  11
ENDBRANCH   9  10
ENDBRANCH   4   9
ENDBRANCH   3   4
ENDBRANCH   1   2
BRANCH   1  22
HETATM   22  C18 UNL     1      14.667  -3.927   0.117  1.00  0.00     0.004 C 
HETATM   23  C19 UNL     1      14.282  -4.018   1.626  1.00  0.00     0.007 C 
HETATM   24  C20 UNL     1      13.041  -4.704   1.269  1.00  0.00     0.011 C 
HETATM   25  C21 UNL     1      13.602  -4.800  -0.188  1.00  0.00    -0.028 C 
HETATM   26  C22 UNL     1      12.476  -4.749  -1.094  1.00  0.00     0.011 C 
HETATM   27  C26 UNL     1      14.075  -6.281  -0.265  1.00  0.00    -0.032 A 
HETATM   28  C23 UNL     1      12.386  -6.044  -1.920  1.00  0.00     0.006 C 
HETATM   29  C24 UNL     1      13.347  -6.977  -1.301  1.00  0.00    -0.005 A 
HETATM   30  C25 UNL     1      13.053  -7.296   0.172  1.00  0.00     0.015 A 
HETATM   31  C27 UNL     1      15.488  -6.629   0.020  1.00  0.00     0.016 C 
ENDBRANCH   1  22
BRANCH   1  32
HETATM   32  C28 UNL     1      15.536  -2.344  -1.530  1.00  0.00     0.024 C 
HETATM   33  C29 UNL     1      16.820  -3.148  -1.707  1.00  0.00     0.024 C 
HETATM   34  C30 UNL     1      14.654  -3.002  -2.615  1.00  0.00     0.020 C 
HETATM   35  C31 UNL     1      15.216  -2.747  -4.003  1.00  0.00     0.033 C 
HETATM   36  C32 UNL     1      15.008  -1.313  -4.335  1.00  0.00     0.125 C 
HETATM   37  C33 UNL     1      15.197  -0.359  -3.186  1.00  0.00     0.111 C 
HETATM   38  C34 UNL     1      15.873  -1.007  -2.027  1.00  0.00     0.138 C 
HETATM   39  O5  UNL     1      16.755  -0.375  -1.478  1.00  0.00    -0.297 OA
BRANCH  36  40
HETATM   40  O4  UNL     1      13.738  -1.165  -4.905  1.00  0.00    -0.395 OA
ATOM     41  H4  UNL     1      13.274  -0.480  -4.439  1.00  0.00     0.210 HD
ENDBRANCH  36  40
ENDBRANCH   1  32
TORSDOF 15
ENDMDL
MODEL 4
REMARK VINA RESULT: -8.238714916      1.068      2.310
REMARK  15 active torsions:
REMARK  status: ('A' for Active; 'I' for Inactive)
REMARK    1  A    between atoms: C2_2  and  C3_3 
REMARK    2  A    between atoms: C3_3  and  O1_4 
REMARK    3  A    between atoms: C3_3  and  C4_6 
REMARK    4  A    between atoms: C3_3  and  C15_19 
REMARK    5  A    between atoms: C4_6  and  C5_7 
REMARK    6  A    between atoms: C5_7  and  C6_8 
REMARK    7  A    between atoms: C6_8  and  C7_9 
REMARK    8  A    between atoms: C7_9  and  C9_11 
REMARK    9  A    between atoms: C7_9  and  O2_15 
REMARK   10  A    between atoms: C9_11  and  C10_12 
REMARK   11  A    between atoms: O2_15  and  C13_16 
REMARK   12  A    between atoms: C16_20  and  C17_21 
REMARK   13  A    between atoms: C17_21  and  C18_22 
REMARK   14  A    between atoms: C17_21  and  C28_32 
REMARK   15  A    between atoms: C32_36  and  O4_37 
ROOT
HETATM    1  C17 UNL     1      14.635  -2.623  -0.449  1.00  0.00     0.028 C 
ENDROOT
BRANCH   1   2
HETATM    2  C16 UNL     1      13.548  -1.782   0.003  1.00  0.00    -0.022 C 
HETATM    3  C15 UNL     1      13.366  -0.610   0.757  1.00  0.00     0.007 C 
BRANCH   3   4
HETATM    4  C3  UNL     1      13.578  -0.439   2.257  1.00  0.00     0.078 C 
BRANCH   4   5
HETATM    5  C2  UNL     1      12.890   0.730   2.779  1.00  0.00     0.038 C 
HETATM    6  C1  UNL     1      13.422   2.106   2.484  1.00  0.00     0.008 C 
ENDBRANCH   4   5
BRANCH   4   7
HETATM    7  O1  UNL     1      14.984  -0.365   2.470  1.00  0.00    -0.386 OA
ATOM      8  H1  UNL     1      15.374  -1.227   2.555  1.00  0.00     0.211 HD
ENDBRANCH   4   7
BRANCH   4   9
HETATM    9  C4  UNL     1      13.167  -1.770   2.819  1.00  0.00     0.068 C 
BRANCH   9  10
HETATM   10  C5  UNL     1      11.873  -1.940   3.458  1.00  0.00    -0.024 C 
BRANCH  10  11
HETATM   11  C6  UNL     1      11.518  -3.156   4.217  1.00  0.00     0.007 C 
BRANCH  11  12
HETATM   12  C7  UNL     1      10.530  -3.133   5.331  1.00  0.00     0.085 C 
HETATM   13  C8  UNL     1       9.927  -1.741   5.407  1.00  0.00     0.051 C 
BRANCH  12  14
HETATM   14  C9  UNL     1      11.231  -3.527   6.577  1.00  0.00     0.046 C 
BRANCH  14  15
HETATM   15  C10 UNL     1      10.843  -3.034   7.883  1.00  0.00    -0.020 C 
HETATM   16  C11 UNL     1       9.564  -3.533   8.496  1.00  0.00     0.009 C 
HETATM   17  C12 UNL     1      11.881  -3.048   8.984  1.00  0.00     0.009 C 
ENDBRANCH  14  15
ENDBRANCH  12  14
BRANCH  12  18
HETATM   18  O2  UNL     1       9.400  -3.940   5.044  1.00  0.00    -0.307 OA
BRANCH  18  19
HETATM   19  C13 UNL     1       9.281  -5.280   5.150  1.00  0.00     0.255 C 
HETATM   20  C14 UNL     1      10.067  -6.260   4.342  1.00  0.00     0.126 C 
HETATM   21  O3  UNL     1       8.478  -5.751   5.961  1.00  0.00    -0.266 OA
ENDBRANCH  18  19
ENDBRANCH  12  18
ENDBRANCH  11  12
ENDBRANCH  10  11
ENDBRANCH   9  10
ENDBRANCH   4   9
ENDBRANCH   3   4
ENDBRANCH   1   2
BRANCH   1  22
HETATM   22  C18 UNL     1      14.242  -4.096  -0.583  1.00  0.00     0.004 C 
HETATM   23  C19 UNL     1      15.428  -4.918   0.012  1.00  0.00     0.007 C 
HETATM   24  C20 UNL     1      14.511  -5.565   0.948  1.00  0.00     0.011 C 
HETATM   25  C21 UNL     1      13.344  -4.902   0.147  1.00  0.00    -0.028 C 
HETATM   26  C22 UNL     1      12.269  -4.637   1.078  1.00  0.00     0.011 C 
HETATM   27  C26 UNL     1      12.811  -6.090  -0.708  1.00  0.00    -0.032 A 
HETATM   28  C23 UNL     1      11.004  -5.418   0.682  1.00  0.00     0.006 C 
HETATM   29  C24 UNL     1      11.431  -6.357  -0.374  1.00  0.00    -0.005 A 
HETATM   30  C25 UNL     1      12.519  -7.346   0.067  1.00  0.00     0.015 A 
HETATM   31  C27 UNL     1      13.298  -6.288  -2.095  1.00  0.00     0.016 C 
ENDBRANCH   1  22
BRANCH   1  32
HETATM   32  C28 UNL     1      15.405  -2.250  -1.684  1.00  0.00     0.024 C 
HETATM   33  C29 UNL     1      16.811  -2.834  -1.786  1.00  0.00     0.024 C 
HETATM   34  C30 UNL     1      14.764  -2.869  -2.946  1.00  0.00     0.020 C 
HETATM   35  C31 UNL     1      15.430  -2.350  -4.208  1.00  0.00     0.033 C 
HETATM   36  C32 UNL     1      15.039  -0.927  -4.391  1.00  0.00     0.125 C 
HETATM   37  C33 UNL     1      14.947  -0.123  -3.121  1.00  0.00     0.111 C 
HETATM   38  C34 UNL     1      15.583  -0.824  -1.969  1.00  0.00     0.138 C 
HETATM   39  O5  UNL     1      16.288  -0.156  -1.239  1.00  0.00    -0.297 OA
BRANCH  36  40
HETATM   40  O4  UNL     1      13.833  -0.882  -5.100  1.00  0.00    -0.395 OA
ATOM     41  H4  UNL     1      13.498   0.006  -5.074  1.00  0.00     0.210 HD
ENDBRANCH  36  40
ENDBRANCH   1  32
TORSDOF 15
ENDMDL
MODEL 5
REMARK VINA RESULT: -7.851186889      1.252      1.742
REMARK  15 active torsions:
REMARK  status: ('A' for Active; 'I' for Inactive)
REMARK    1  A    between atoms: C2_2  and  C3_3 
REMARK    2  A    between atoms: C3_3  and  O1_4 
REMARK    3  A    between atoms: C3_3  and  C4_6 
REMARK    4  A    between atoms: C3_3  and  C15_19 
REMARK    5  A    between atoms: C4_6  and  C5_7 
REMARK    6  A    between atoms: C5_7  and  C6_8 
REMARK    7  A    between atoms: C6_8  and  C7_9 
REMARK    8  A    between atoms: C7_9  and  C9_11 
REMARK    9  A    between atoms: C7_9  and  O2_15 
REMARK   10  A    between atoms: C9_11  and  C10_12 
REMARK   11  A    between atoms: O2_15  and  C13_16 
REMARK   12  A    between atoms: C16_20  and  C17_21 
REMARK   13  A    between atoms: C17_21  and  C18_22 
REMARK   14  A    between atoms: C17_21  and  C28_32 
REMARK   15  A    between atoms: C32_36  and  O4_37 
ROOT
HETATM    1  C17 UNL     1      14.515  -2.475  -0.674  1.00  0.00     0.028 C 
ENDROOT
BRANCH   1   2
HETATM    2  C16 UNL     1      13.456  -1.656  -0.125  1.00  0.00    -0.022 C 
HETATM    3  C15 UNL     1      13.317  -0.465   0.608  1.00  0.00     0.007 C 
BRANCH   3   4
HETATM    4  C3  UNL     1      13.694  -0.233   2.067  1.00  0.00     0.078 C 
BRANCH   4   5
HETATM    5  C2  UNL     1      12.980   0.892   2.646  1.00  0.00     0.038 C 
HETATM    6  C1  UNL     1      13.508   2.289   2.463  1.00  0.00     0.008 C 
ENDBRANCH   4   5
BRANCH   4   7
HETATM    7  O1  UNL     1      15.105  -0.040   2.103  1.00  0.00    -0.386 OA
ATOM      8  H1  UNL     1      15.572  -0.865   2.163  1.00  0.00     0.211 HD
ENDBRANCH   4   7
BRANCH   4   9
HETATM    9  C4  UNL     1      13.467  -1.576   2.702  1.00  0.00     0.068 C 
BRANCH   9  10
HETATM   10  C5  UNL     1      12.195  -1.896   3.327  1.00  0.00    -0.024 C 
BRANCH  10  11
HETATM   11  C6  UNL     1      12.007  -3.091   4.173  1.00  0.00     0.007 C 
BRANCH  11  12
HETATM   12  C7  UNL     1      10.738  -3.348   4.909  1.00  0.00     0.085 C 
HETATM   13  C8  UNL     1      11.081  -3.685   6.350  1.00  0.00     0.051 C 
BRANCH  12  14
HETATM   14  C9  UNL     1      10.016  -4.443   4.216  1.00  0.00     0.046 C 
BRANCH  14  15
HETATM   15  C10 UNL     1       9.723  -5.711   4.851  1.00  0.00    -0.020 C 
HETATM   16  C11 UNL     1       8.362  -5.925   5.453  1.00  0.00     0.009 C 
HETATM   17  C12 UNL     1      10.061  -6.977   4.094  1.00  0.00     0.009 C 
ENDBRANCH  14  15
ENDBRANCH  12  14
BRANCH  12  18
HETATM   18  O2  UNL     1       9.966  -2.166   5.047  1.00  0.00    -0.307 OA
BRANCH  18  19
HETATM   19  C13 UNL     1       9.413  -1.654   6.165  1.00  0.00     0.255 C 
HETATM   20  C14 UNL     1       8.310  -2.308   6.933  1.00  0.00     0.126 C 
HETATM   21  O3  UNL     1       9.828  -0.577   6.604  1.00  0.00    -0.266 OA
ENDBRANCH  18  19
ENDBRANCH  12  18
ENDBRANCH  11  12
ENDBRANCH  10  11
ENDBRANCH   9  10
ENDBRANCH   4   9
ENDBRANCH   3   4
ENDBRANCH   1   2
BRANCH   1  22
HETATM   22  C18 UNL     1      14.167  -3.964  -0.714  1.00  0.00     0.004 C 
HETATM   23  C19 UNL     1      15.399  -4.714  -0.117  1.00  0.00     0.007 C 
HETATM   24  C20 UNL     1      14.536  -5.337   0.885  1.00  0.00     0.011 C 
HETATM   25  C21 UNL     1      13.321  -4.757   0.090  1.00  0.00    -0.028 C 
HETATM   26  C22 UNL     1      12.269  -4.474   1.041  1.00  0.00     0.011 C 
HETATM   27  C26 UNL     1      12.800  -6.006  -0.680  1.00  0.00    -0.032 A 
HETATM   28  C23 UNL     1      11.018  -5.316   0.733  1.00  0.00     0.006 C 
HETATM   29  C24 UNL     1      11.441  -6.297  -0.285  1.00  0.00    -0.005 A 
HETATM   30  C25 UNL     1      12.576  -7.226   0.172  1.00  0.00     0.015 A 
HETATM   31  C27 UNL     1      13.248  -6.266  -2.070  1.00  0.00     0.016 C 
ENDBRANCH   1  22
BRANCH   1  32
HETATM   32  C28 UNL     1      15.121  -2.120  -2.003  1.00  0.00     0.024 C 
HETATM   33  C29 UNL     1      14.923  -3.147  -3.113  1.00  0.00     0.024 C 
HETATM   34  C30 UNL     1      14.405  -0.903  -2.632  1.00  0.00     0.020 C 
HETATM   35  C31 UNL     1      15.125  -0.432  -3.883  1.00  0.00     0.033 C 
HETATM   36  C32 UNL     1      16.405   0.205  -3.472  1.00  0.00     0.125 C 
HETATM   37  C33 UNL     1      17.109  -0.465  -2.322  1.00  0.00     0.111 C 
HETATM   38  C34 UNL     1      16.554  -1.818  -2.038  1.00  0.00     0.138 C 
HETATM   39  O5  UNL     1      17.353  -2.710  -1.829  1.00  0.00    -0.297 OA
BRANCH  36  40
HETATM   40  O4  UNL     1      16.164   1.556  -3.193  1.00  0.00    -0.395 OA
ATOM     41  H4  UNL     1      16.631   2.085  -3.829  1.00  0.00     0.210 HD
ENDBRANCH  36  40
ENDBRANCH   1  32
TORSDOF 15
ENDMDL
