MODEL 1
REMARK VINA RESULT: -8.501170649      0.000      0.000
REMARK  10 active torsions:
REMARK  status: ('A' for Active; 'I' for Inactive)
REMARK    1  A    between atoms: O1_2  and  C2_3 
REMARK    2  A    between atoms: C5_6  and  C6_7 
REMARK    3  A    between atoms: C6_7  and  C7_8 
REMARK    4  A    between atoms: C9_13  and  C10_14 
REMARK    5  A    between atoms: C10_14  and  N2_15 
REMARK    6  A    between atoms: N2_15  and  C13_18 
REMARK    7  A    between atoms: C13_18  and  C14_19 
REMARK    8  A    between atoms: C14_19  and  C15_20 
REMARK    9  A    between atoms: C19_24  and  C20_25 
REMARK   10  A    between atoms: C20_25  and  N3_26 
ROOT
HETATM    1  N2  UNL     1      18.423 -18.776  23.473  1.00  0.00    -0.052 N 
HETATM    2  C11 UNL     1      17.784 -19.497  24.567  1.00  0.00     0.278 C 
HETATM    3  C12 UNL     1      18.135 -19.643  22.320  1.00  0.00     0.278 C 
ENDROOT
BRANCH   1   4
HETATM    4  C10 UNL     1      19.761 -18.599  23.793  1.00  0.00     0.236 C 
BRANCH   4   5
HETATM    5  C9  UNL     1      20.604 -17.501  23.290  1.00  0.00     0.127 C 
HETATM    6  C8  UNL     1      20.651 -17.261  21.853  1.00  0.00     0.270 C 
HETATM    7  N1  UNL     1      20.244 -16.019  21.309  1.00  0.00    -0.342 N 
HETATM    8  O2  UNL     1      21.056 -18.155  21.074  1.00  0.00    -0.266 OA
HETATM    9  C7  UNL     1      20.415 -14.778  22.020  1.00  0.00     0.181 C 
ATOM     10  H1  UNL     1      19.814 -16.003  20.384  1.00  0.00     0.163 HD
HETATM   11  C26 UNL     1      20.146 -15.089  23.463  1.00  0.00     0.245 C 
HETATM   12  N7  UNL     1      20.551 -16.293  24.070  1.00  0.00    -0.320 N 
HETATM   13  O3  UNL     1      19.530 -14.210  24.135  1.00  0.00    -0.271 OA
ATOM     14  H7  UNL     1      20.805 -16.309  25.057  1.00  0.00     0.169 HD
BRANCH   9  15
HETATM   15  C6  UNL     1      19.553 -13.662  21.563  1.00  0.00     0.073 C 
BRANCH  15  16
HETATM   16  C5  UNL     1      19.354 -13.596  20.103  1.00  0.00    -0.056 A 
HETATM   17  C4  UNL     1      20.347 -13.131  19.242  1.00  0.00     0.010 A 
HETATM   18  C3  UNL     1      20.137 -13.059  17.881  1.00  0.00     0.037 A 
HETATM   19  C2  UNL     1      18.949 -13.438  17.318  1.00  0.00     0.068 A 
HETATM   20  C28 UNL     1      17.946 -13.902  18.149  1.00  0.00     0.037 A 
HETATM   21  C27 UNL     1      18.165 -13.972  19.522  1.00  0.00     0.010 A 
BRANCH  19  22
HETATM   22  O1  UNL     1      18.745 -13.360  15.933  1.00  0.00    -0.356 OA
HETATM   23  C1  UNL     1      17.432 -13.546  15.435  1.00  0.00     0.210 C 
ENDBRANCH  19  22
ENDBRANCH  15  16
ENDBRANCH   9  15
ENDBRANCH   4   5
ENDBRANCH   1   4
BRANCH   1  24
HETATM   24  C13 UNL     1      17.636 -17.610  23.232  1.00  0.00     0.248 C 
BRANCH  24  25
HETATM   25  C14 UNL     1      16.952 -17.423  21.942  1.00  0.00     0.085 C 
BRANCH  25  26
HETATM   26  C15 UNL     1      16.123 -16.243  21.734  1.00  0.00     0.013 A 
HETATM   27  C16 UNL     1      16.338 -15.002  22.345  1.00  0.00     0.040 A 
HETATM   28  C17 UNL     1      15.340 -14.163  21.931  1.00  0.00     0.012 A 
HETATM   29  C18 UNL     1      14.769 -12.900  21.983  1.00  0.00     0.042 A 
HETATM   30  C25 UNL     1      14.533 -14.892  21.079  1.00  0.00     0.116 A 
HETATM   31  C19 UNL     1      13.651 -12.879  21.183  1.00  0.00     0.030 A 
HETATM   32  N5  UNL     1      13.521 -14.091  20.642  1.00  0.00    -0.344 N 
ATOM     33  H5  UNL     1      12.778 -14.375  20.001  1.00  0.00     0.167 HD
HETATM   34  N6  UNL     1      15.018 -16.133  20.974  1.00  0.00    -0.345 N 
ATOM     35  H6  UNL     1      14.615 -16.879  20.408  1.00  0.00     0.167 HD
BRANCH  31  36
HETATM   36  C20 UNL     1      12.727 -11.715  20.938  1.00  0.00     0.184 C 
BRANCH  36  37
HETATM   37  N3  UNL     1      12.114 -11.438  22.232  1.00  0.00    -0.358 N 
HETATM   38  C21 UNL     1      11.251 -12.305  22.769  1.00  0.00     0.107 A 
HETATM   39  C22 UNL     1      10.674 -12.026  24.007  1.00  0.00     0.104 A 
HETATM   40  N4  UNL     1      11.010 -10.883  24.621  1.00  0.00    -0.373 N 
HETATM   41  C23 UNL     1      11.883 -10.004  24.077  1.00  0.00     0.104 A 
ATOM     42  H4  UNL     1      10.593 -10.668  25.526  1.00  0.00     0.164 HD
HETATM   43  C24 UNL     1      12.440 -10.299  22.858  1.00  0.00     0.107 A 
ENDBRANCH  36  37
ENDBRANCH  31  36
ENDBRANCH  25  26
ENDBRANCH  24  25
ENDBRANCH   1  24
TORSDOF 10
ENDMDL
MODEL 2
REMARK VINA RESULT: -8.060504833      1.078      1.244
REMARK  10 active torsions:
REMARK  status: ('A' for Active; 'I' for Inactive)
REMARK    1  A    between atoms: O1_2  and  C2_3 
REMARK    2  A    between atoms: C5_6  and  C6_7 
REMARK    3  A    between atoms: C6_7  and  C7_8 
REMARK    4  A    between atoms: C9_13  and  C10_14 
REMARK    5  A    between atoms: C10_14  and  N2_15 
REMARK    6  A    between atoms: N2_15  and  C13_18 
REMARK    7  A    between atoms: C13_18  and  C14_19 
REMARK    8  A    between atoms: C14_19  and  C15_20 
REMARK    9  A    between atoms: C19_24  and  C20_25 
REMARK   10  A    between atoms: C20_25  and  N3_26 
ROOT
HETATM    1  N2  UNL     1      19.279 -18.657  25.045  1.00  0.00    -0.052 N 
HETATM    2  C11 UNL     1      18.792 -19.026  26.369  1.00  0.00     0.278 C 
HETATM    3  C12 UNL     1      18.955 -19.853  24.251  1.00  0.00     0.278 C 
ENDROOT
BRANCH   1   4
HETATM    4  C10 UNL     1      20.623 -18.332  25.151  1.00  0.00     0.236 C 
BRANCH   4   5
HETATM    5  C9  UNL     1      21.307 -17.318  24.332  1.00  0.00     0.127 C 
HETATM    6  C8  UNL     1      21.082 -17.319  22.891  1.00  0.00     0.270 C 
HETATM    7  N1  UNL     1      20.523 -16.192  22.242  1.00  0.00    -0.342 N 
HETATM    8  O2  UNL     1      21.382 -18.323  22.204  1.00  0.00    -0.266 OA
HETATM    9  C7  UNL     1      20.760 -14.848  22.700  1.00  0.00     0.181 C 
ATOM     10  H1  UNL     1      19.934 -16.338  21.423  1.00  0.00     0.163 HD
HETATM   11  C26 UNL     1      20.771 -14.920  24.200  1.00  0.00     0.245 C 
HETATM   12  N7  UNL     1      21.337 -15.999  24.904  1.00  0.00    -0.320 N 
HETATM   13  O3  UNL     1      20.245 -13.953  24.826  1.00  0.00    -0.271 OA
ATOM     14  H7  UNL     1      21.765 -15.846  25.817  1.00  0.00     0.169 HD
BRANCH   9  15
HETATM   15  C6  UNL     1      19.776 -13.839  22.240  1.00  0.00     0.073 C 
BRANCH  15  16
HETATM   16  C5  UNL     1      19.672 -13.705  20.775  1.00  0.00    -0.056 A 
HETATM   17  C4  UNL     1      20.601 -12.980  20.031  1.00  0.00     0.010 A 
HETATM   18  C3  UNL     1      20.477 -12.850  18.663  1.00  0.00     0.037 A 
HETATM   19  C2  UNL     1      19.441 -13.424  17.980  1.00  0.00     0.068 A 
HETATM   20  C28 UNL     1      18.504 -14.148  18.694  1.00  0.00     0.037 A 
HETATM   21  C27 UNL     1      18.635 -14.275  20.074  1.00  0.00     0.010 A 
BRANCH  19  22
HETATM   22  O1  UNL     1      19.324 -13.285  16.589  1.00  0.00    -0.356 OA
HETATM   23  C1  UNL     1      18.046 -13.456  16.002  1.00  0.00     0.210 C 
ENDBRANCH  19  22
ENDBRANCH  15  16
ENDBRANCH   9  15
ENDBRANCH   4   5
ENDBRANCH   1   4
BRANCH   1  24
HETATM   24  C13 UNL     1      18.391 -17.659  24.542  1.00  0.00     0.248 C 
BRANCH  24  25
HETATM   25  C14 UNL     1      17.516 -17.947  23.395  1.00  0.00     0.085 C 
BRANCH  25  26
HETATM   26  C15 UNL     1      16.765 -16.862  22.776  1.00  0.00     0.013 A 
HETATM   27  C16 UNL     1      16.947 -15.504  23.062  1.00  0.00     0.040 A 
HETATM   28  C17 UNL     1      16.041 -14.802  22.314  1.00  0.00     0.012 A 
HETATM   29  C18 UNL     1      15.515 -13.570  21.955  1.00  0.00     0.042 A 
HETATM   30  C25 UNL     1      15.321 -15.730  21.585  1.00  0.00     0.116 A 
HETATM   31  C19 UNL     1      14.510 -13.760  21.038  1.00  0.00     0.030 A 
HETATM   32  N5  UNL     1      14.403 -15.072  20.822  1.00  0.00    -0.344 N 
ATOM     33  H5  UNL     1      13.738 -15.513  20.187  1.00  0.00     0.167 HD
HETATM   34  N6  UNL     1      15.769 -16.956  21.875  1.00  0.00    -0.345 N 
ATOM     35  H6  UNL     1      15.413 -17.824  21.477  1.00  0.00     0.167 HD
BRANCH  31  36
HETATM   36  C20 UNL     1      13.668 -12.700  20.376  1.00  0.00     0.184 C 
BRANCH  36  37
HETATM   37  N3  UNL     1      12.891 -12.103  21.455  1.00  0.00    -0.358 N 
HETATM   38  C21 UNL     1      11.821 -12.734  21.946  1.00  0.00     0.107 A 
HETATM   39  C22 UNL     1      11.089 -12.150  22.978  1.00  0.00     0.104 A 
HETATM   40  N4  UNL     1      11.490 -10.960  23.447  1.00  0.00    -0.373 N 
HETATM   41  C23 UNL     1      12.574 -10.320  22.950  1.00  0.00     0.104 A 
ATOM     42  H4  UNL     1      10.962 -10.523  24.202  1.00  0.00     0.164 HD
HETATM   43  C24 UNL     1      13.281 -10.913  21.934  1.00  0.00     0.107 A 
ENDBRANCH  36  37
ENDBRANCH  31  36
ENDBRANCH  25  26
ENDBRANCH  24  25
ENDBRANCH   1  24
TORSDOF 10
ENDMDL
MODEL 3
REMARK VINA RESULT: -8.030249910      1.192      1.316
REMARK  10 active torsions:
REMARK  status: ('A' for Active; 'I' for Inactive)
REMARK    1  A    between atoms: O1_2  and  C2_3 
REMARK    2  A    between atoms: C5_6  and  C6_7 
REMARK    3  A    between atoms: C6_7  and  C7_8 
REMARK    4  A    between atoms: C9_13  and  C10_14 
REMARK    5  A    between atoms: C10_14  and  N2_15 
REMARK    6  A    between atoms: N2_15  and  C13_18 
REMARK    7  A    between atoms: C13_18  and  C14_19 
REMARK    8  A    between atoms: C14_19  and  C15_20 
REMARK    9  A    between atoms: C19_24  and  C20_25 
REMARK   10  A    between atoms: C20_25  and  N3_26 
ROOT
HETATM    1  N2  UNL     1      17.264 -19.392  22.384  1.00  0.00    -0.052 N 
HETATM    2  C11 UNL     1      18.045 -19.805  23.544  1.00  0.00     0.278 C 
HETATM    3  C12 UNL     1      16.985 -20.677  21.725  1.00  0.00     0.278 C 
ENDROOT
BRANCH   1   4
HETATM    4  C10 UNL     1      18.013 -18.477  21.659  1.00  0.00     0.236 C 
BRANCH   4   5
HETATM    5  C9  UNL     1      18.987 -17.542  22.246  1.00  0.00     0.127 C 
HETATM    6  C8  UNL     1      20.119 -17.114  21.432  1.00  0.00     0.270 C 
HETATM    7  N1  UNL     1      20.318 -15.747  21.124  1.00  0.00    -0.342 N 
HETATM    8  O2  UNL     1      20.937 -17.955  20.992  1.00  0.00    -0.266 OA
HETATM    9  C7  UNL     1      19.941 -14.694  22.032  1.00  0.00     0.181 C 
ATOM     10  H1  UNL     1      20.743 -15.499  20.231  1.00  0.00     0.163 HD
HETATM   11  C26 UNL     1      18.658 -15.139  22.670  1.00  0.00     0.245 C 
HETATM   12  N7  UNL     1      18.410 -16.479  23.025  1.00  0.00    -0.320 N 
HETATM   13  O3  UNL     1      17.783 -14.249  22.885  1.00  0.00    -0.271 OA
ATOM     14  H7  UNL     1      17.825 -16.695  23.831  1.00  0.00     0.169 HD
BRANCH   9  15
HETATM   15  C6  UNL     1      19.774 -13.356  21.416  1.00  0.00     0.073 C 
BRANCH  15  16
HETATM   16  C5  UNL     1      19.478 -13.376  19.971  1.00  0.00    -0.056 A 
HETATM   17  C4  UNL     1      20.444 -13.070  19.014  1.00  0.00     0.010 A 
HETATM   18  C3  UNL     1      20.145 -13.076  17.668  1.00  0.00     0.037 A 
HETATM   19  C2  UNL     1      18.892 -13.381  17.215  1.00  0.00     0.068 A 
HETATM   20  C28 UNL     1      17.913 -13.687  18.142  1.00  0.00     0.037 A 
HETATM   21  C27 UNL     1      18.222 -13.679  19.500  1.00  0.00     0.010 A 
BRANCH  19  22
HETATM   22  O1  UNL     1      18.596 -13.384  15.844  1.00  0.00    -0.356 OA
HETATM   23  C1  UNL     1      17.258 -13.616  15.444  1.00  0.00     0.210 C 
ENDBRANCH  19  22
ENDBRANCH  15  16
ENDBRANCH   9  15
ENDBRANCH   4   5
ENDBRANCH   1   4
BRANCH   1  24
HETATM   24  C13 UNL     1      15.991 -18.972  22.872  1.00  0.00     0.248 C 
BRANCH  24  25
HETATM   25  C14 UNL     1      14.871 -18.746  21.943  1.00  0.00     0.085 C 
BRANCH  25  26
HETATM   26  C15 UNL     1      14.406 -17.387  21.697  1.00  0.00     0.013 A 
HETATM   27  C16 UNL     1      15.225 -16.252  21.701  1.00  0.00     0.040 A 
HETATM   28  C17 UNL     1      14.424 -15.168  21.467  1.00  0.00     0.012 A 
HETATM   29  C18 UNL     1      14.323 -13.794  21.308  1.00  0.00     0.042 A 
HETATM   30  C25 UNL     1      13.136 -15.646  21.324  1.00  0.00     0.116 A 
HETATM   31  C19 UNL     1      13.009 -13.464  21.077  1.00  0.00     0.030 A 
HETATM   32  N5  UNL     1      12.301 -14.595  21.089  1.00  0.00    -0.344 N 
ATOM     33  H5  UNL     1      11.293 -14.662  20.945  1.00  0.00     0.167 HD
HETATM   34  N6  UNL     1      13.146 -16.976  21.465  1.00  0.00    -0.345 N 
ATOM     35  H6  UNL     1      12.328 -17.582  21.406  1.00  0.00     0.167 HD
BRANCH  31  36
HETATM   36  C20 UNL     1      12.442 -12.088  20.845  1.00  0.00     0.184 C 
BRANCH  36  37
HETATM   37  N3  UNL     1      12.127 -11.577  22.173  1.00  0.00    -0.358 N 
HETATM   38  C21 UNL     1      11.271 -12.230  22.963  1.00  0.00     0.107 A 
HETATM   39  C22 UNL     1      10.981 -11.729  24.231  1.00  0.00     0.104 A 
HETATM   40  N4  UNL     1      11.581 -10.595  24.617  1.00  0.00    -0.373 N 
HETATM   41  C23 UNL     1      12.449  -9.932  23.818  1.00  0.00     0.104 A 
ATOM     42  H4  UNL     1      11.376 -10.219  25.543  1.00  0.00     0.164 HD
HETATM   43  C24 UNL     1      12.720 -10.443  22.574  1.00  0.00     0.107 A 
ENDBRANCH  36  37
ENDBRANCH  31  36
ENDBRANCH  25  26
ENDBRANCH  24  25
ENDBRANCH   1  24
TORSDOF 10
ENDMDL
MODEL 4
REMARK VINA RESULT: -7.946343365      1.799      2.741
REMARK  10 active torsions:
REMARK  status: ('A' for Active; 'I' for Inactive)
REMARK    1  A    between atoms: O1_2  and  C2_3 
REMARK    2  A    between atoms: C5_6  and  C6_7 
REMARK    3  A    between atoms: C6_7  and  C7_8 
REMARK    4  A    between atoms: C9_13  and  C10_14 
REMARK    5  A    between atoms: C10_14  and  N2_15 
REMARK    6  A    between atoms: N2_15  and  C13_18 
REMARK    7  A    between atoms: C13_18  and  C14_19 
REMARK    8  A    between atoms: C14_19  and  C15_20 
REMARK    9  A    between atoms: C19_24  and  C20_25 
REMARK   10  A    between atoms: C20_25  and  N3_26 
ROOT
HETATM    1  N2  UNL     1      20.476 -18.535  26.294  1.00  0.00    -0.052 N 
HETATM    2  C11 UNL     1      20.266 -19.074  27.633  1.00  0.00     0.278 C 
HETATM    3  C12 UNL     1      20.220 -19.708  25.444  1.00  0.00     0.278 C 
ENDROOT
BRANCH   1   4
HETATM    4  C10 UNL     1      21.753 -17.999  26.238  1.00  0.00     0.236 C 
BRANCH   4   5
HETATM    5  C9  UNL     1      22.189 -16.973  25.276  1.00  0.00     0.127 C 
HETATM    6  C8  UNL     1      21.964 -17.210  23.855  1.00  0.00     0.270 C 
HETATM    7  N1  UNL     1      21.164 -16.328  23.089  1.00  0.00    -0.342 N 
HETATM    8  O2  UNL     1      22.479 -18.202  23.289  1.00  0.00    -0.266 OA
HETATM    9  C7  UNL     1      21.095 -14.917  23.367  1.00  0.00     0.181 C 
ATOM     10  H1  UNL     1      20.619 -16.705  22.314  1.00  0.00     0.163 HD
HETATM   11  C26 UNL     1      21.129 -14.790  24.863  1.00  0.00     0.245 C 
HETATM   12  N7  UNL     1      21.925 -15.617  25.678  1.00  0.00    -0.320 N 
HETATM   13  O3  UNL     1      20.402 -13.892  25.380  1.00  0.00    -0.271 OA
ATOM     14  H7  UNL     1      22.312 -15.257  26.549  1.00  0.00     0.169 HD
BRANCH   9  15
HETATM   15  C6  UNL     1      19.908 -14.219  22.817  1.00  0.00     0.073 C 
BRANCH  15  16
HETATM   16  C5  UNL     1      19.948 -13.993  21.360  1.00  0.00    -0.056 A 
HETATM   17  C4  UNL     1      20.720 -12.983  20.789  1.00  0.00     0.010 A 
HETATM   18  C3  UNL     1      20.731 -12.775  19.426  1.00  0.00     0.037 A 
HETATM   19  C2  UNL     1      19.986 -13.547  18.578  1.00  0.00     0.068 A 
HETATM   20  C28 UNL     1      19.210 -14.555  19.117  1.00  0.00     0.037 A 
HETATM   21  C27 UNL     1      19.204 -14.761  20.494  1.00  0.00     0.010 A 
BRANCH  19  22
HETATM   22  O1  UNL     1      20.003 -13.326  17.193  1.00  0.00    -0.356 OA
HETATM   23  C1  UNL     1      18.785 -13.439  16.479  1.00  0.00     0.210 C 
ENDBRANCH  19  22
ENDBRANCH  15  16
ENDBRANCH   9  15
ENDBRANCH   4   5
ENDBRANCH   1   4
BRANCH   1  24
HETATM   24  C13 UNL     1      19.377 -17.666  26.022  1.00  0.00     0.248 C 
BRANCH  24  25
HETATM   25  C14 UNL     1      18.214 -18.148  25.259  1.00  0.00     0.085 C 
BRANCH  25  26
HETATM   26  C15 UNL     1      17.556 -17.254  24.314  1.00  0.00     0.013 A 
HETATM   27  C16 UNL     1      17.042 -17.646  23.072  1.00  0.00     0.040 A 
HETATM   28  C17 UNL     1      16.538 -16.528  22.466  1.00  0.00     0.012 A 
HETATM   29  C18 UNL     1      15.908 -15.973  21.362  1.00  0.00     0.042 A 
HETATM   30  C25 UNL     1      16.747 -15.474  23.334  1.00  0.00     0.116 A 
HETATM   31  C19 UNL     1      15.747 -14.624  21.569  1.00  0.00     0.030 A 
HETATM   32  N5  UNL     1      16.259 -14.335  22.766  1.00  0.00    -0.344 N 
ATOM     33  H5  UNL     1      16.282 -13.408  23.190  1.00  0.00     0.167 HD
HETATM   34  N6  UNL     1      17.357 -15.928  24.433  1.00  0.00    -0.345 N 
ATOM     35  H6  UNL     1      17.629 -15.361  25.235  1.00  0.00     0.167 HD
BRANCH  31  36
HETATM   36  C20 UNL     1      15.108 -13.629  20.635  1.00  0.00     0.184 C 
BRANCH  36  37
HETATM   37  N3  UNL     1      14.136 -12.911  21.450  1.00  0.00    -0.358 N 
HETATM   38  C21 UNL     1      14.214 -11.585  21.582  1.00  0.00     0.107 A 
HETATM   39  C22 UNL     1      13.275 -10.914  22.366  1.00  0.00     0.104 A 
HETATM   40  N4  UNL     1      12.318 -11.633  22.965  1.00  0.00    -0.373 N 
HETATM   41  C23 UNL     1      12.238 -12.978  22.832  1.00  0.00     0.104 A 
ATOM     42  H4  UNL     1      11.626 -11.153  23.541  1.00  0.00     0.164 HD
HETATM   43  C24 UNL     1      13.171 -13.618  22.056  1.00  0.00     0.107 A 
ENDBRANCH  36  37
ENDBRANCH  31  36
ENDBRANCH  25  26
ENDBRANCH  24  25
ENDBRANCH   1  24
TORSDOF 10
ENDMDL
MODEL 5
REMARK VINA RESULT: -7.928815002      2.881      4.192
REMARK  10 active torsions:
REMARK  status: ('A' for Active; 'I' for Inactive)
REMARK    1  A    between atoms: O1_2  and  C2_3 
REMARK    2  A    between atoms: C5_6  and  C6_7 
REMARK    3  A    between atoms: C6_7  and  C7_8 
REMARK    4  A    between atoms: C9_13  and  C10_14 
REMARK    5  A    between atoms: C10_14  and  N2_15 
REMARK    6  A    between atoms: N2_15  and  C13_18 
REMARK    7  A    between atoms: C13_18  and  C14_19 
REMARK    8  A    between atoms: C14_19  and  C15_20 
REMARK    9  A    between atoms: C19_24  and  C20_25 
REMARK   10  A    between atoms: C20_25  and  N3_26 
ROOT
HETATM    1  N2  UNL     1      21.708 -18.608  26.435  1.00  0.00    -0.052 N 
HETATM    2  C11 UNL     1      21.841 -19.513  27.572  1.00  0.00     0.278 C 
HETATM    3  C12 UNL     1      22.262 -19.410  25.334  1.00  0.00     0.278 C 
ENDROOT
BRANCH   1   4
HETATM    4  C10 UNL     1      22.374 -17.430  26.738  1.00  0.00     0.236 C 
BRANCH   4   5
HETATM    5  C9  UNL     1      22.314 -16.202  25.928  1.00  0.00     0.127 C 
HETATM    6  C8  UNL     1      22.711 -16.273  24.526  1.00  0.00     0.270 C 
HETATM    7  N1  UNL     1      21.799 -15.945  23.495  1.00  0.00    -0.342 N 
HETATM    8  O2  UNL     1      23.872 -16.625  24.214  1.00  0.00    -0.266 OA
HETATM    9  C7  UNL     1      20.776 -14.946  23.666  1.00  0.00     0.181 C 
ATOM     10  H1  UNL     1      21.869 -16.432  22.602  1.00  0.00     0.163 HD
HETATM   11  C26 UNL     1      20.289 -15.090  25.078  1.00  0.00     0.245 C 
HETATM   12  N7  UNL     1      21.150 -15.387  26.152  1.00  0.00    -0.320 N 
HETATM   13  O3  UNL     1      19.049 -14.932  25.278  1.00  0.00    -0.271 OA
ATOM     14  H7  UNL     1      20.949 -15.026  27.084  1.00  0.00     0.169 HD
BRANCH   9  15
HETATM   15  C6  UNL     1      19.639 -15.034  22.717  1.00  0.00     0.073 C 
BRANCH  15  16
HETATM   16  C5  UNL     1      19.882 -14.406  21.405  1.00  0.00    -0.056 A 
HETATM   17  C4  UNL     1      19.394 -14.954  20.221  1.00  0.00     0.010 A 
HETATM   18  C3  UNL     1      19.647 -14.363  19.001  1.00  0.00     0.037 A 
HETATM   19  C2  UNL     1      20.385 -13.217  18.900  1.00  0.00     0.068 A 
HETATM   20  C28 UNL     1      20.883 -12.651  20.059  1.00  0.00     0.037 A 
HETATM   21  C27 UNL     1      20.624 -13.253  21.287  1.00  0.00     0.010 A 
BRANCH  19  22
HETATM   22  O1  UNL     1      20.637 -12.623  17.654  1.00  0.00    -0.356 OA
HETATM   23  C1  UNL     1      20.191 -13.290  16.488  1.00  0.00     0.210 C 
ENDBRANCH  19  22
ENDBRANCH  15  16
ENDBRANCH   9  15
ENDBRANCH   4   5
ENDBRANCH   1   4
BRANCH   1  24
HETATM   24  C13 UNL     1      20.315 -18.526  26.135  1.00  0.00     0.248 C 
BRANCH  24  25
HETATM   25  C14 UNL     1      19.770 -19.179  24.933  1.00  0.00     0.085 C 
BRANCH  25  26
HETATM   26  C15 UNL     1      18.779 -18.480  24.125  1.00  0.00     0.013 A 
HETATM   27  C16 UNL     1      18.688 -18.561  22.730  1.00  0.00     0.040 A 
HETATM   28  C17 UNL     1      17.663 -17.745  22.338  1.00  0.00     0.012 A 
HETATM   29  C18 UNL     1      16.906 -17.225  21.298  1.00  0.00     0.042 A 
HETATM   30  C25 UNL     1      17.142 -17.178  23.485  1.00  0.00     0.116 A 
HETATM   31  C19 UNL     1      15.960 -16.372  21.814  1.00  0.00     0.030 A 
HETATM   32  N5  UNL     1      16.114 -16.353  23.139  1.00  0.00    -0.344 N 
ATOM     33  H5  UNL     1      15.551 -15.806  23.790  1.00  0.00     0.167 HD
HETATM   34  N6  UNL     1      17.823 -17.630  24.543  1.00  0.00    -0.345 N 
ATOM     35  H6  UNL     1      17.646 -17.372  25.513  1.00  0.00     0.167 HD
BRANCH  31  36
HETATM   36  C20 UNL     1      14.924 -15.591  21.049  1.00  0.00     0.184 C 
BRANCH  36  37
HETATM   37  N3  UNL     1      15.597 -14.365  20.639  1.00  0.00    -0.358 N 
HETATM   38  C21 UNL     1      16.096 -13.530  21.555  1.00  0.00     0.107 A 
HETATM   39  C22 UNL     1      16.737 -12.362  21.147  1.00  0.00     0.104 A 
HETATM   40  N4  UNL     1      16.832 -12.115  19.833  1.00  0.00    -0.373 N 
HETATM   41  C23 UNL     1      16.327 -12.960  18.905  1.00  0.00     0.104 A 
ATOM     42  H4  UNL     1      17.299 -11.263  19.523  1.00  0.00     0.164 HD
HETATM   43  C24 UNL     1      15.700 -14.105  19.328  1.00  0.00     0.107 A 
ENDBRANCH  36  37
ENDBRANCH  31  36
ENDBRANCH  25  26
ENDBRANCH  24  25
ENDBRANCH   1  24
TORSDOF 10
ENDMDL
