MODEL 1
REMARK VINA RESULT: -6.583986952      0.000      0.000
REMARK  4 active torsions:
REMARK  status: ('A' for Active; 'I' for Inactive)
REMARK    1  A    between atoms: C4_5  and  C5_6 
REMARK    2  A    between atoms: C12_18  and  C13_19 
REMARK    3  A    between atoms: N5_24  and  C14_25 
REMARK    4  A    between atoms: C14_25  and  C15_26 
REMARK       I    between atoms: C15_26  and  N6_28 
ROOT
HETATM    1  C1  UNL     1      74.753  -7.386  26.842  1.00  0.00     0.070 C 
HETATM    2  C2  UNL     1      75.376  -6.436  25.870  1.00  0.00     0.031 A 
HETATM    3  C3  UNL     1      76.224  -5.422  26.144  1.00  0.00     0.072 A 
HETATM    4 CL1  UNL     1      76.846  -4.917  27.695  1.00  0.00    -0.081 Cl
HETATM    5  C4  UNL     1      76.539  -4.810  24.905  1.00  0.00     0.063 A 
HETATM    6  C12 UNL     1      75.870  -5.470  23.914  1.00  0.00     0.089 A 
HETATM    7  N5  UNL     1      75.161  -6.465  24.515  1.00  0.00    -0.337 N 
ENDROOT
BRANCH   5   8
HETATM    8  C5  UNL     1      77.447  -3.667  24.837  1.00  0.00     0.138 A 
HETATM    9  N1  UNL     1      77.168  -2.361  24.715  1.00  0.00    -0.283 N 
HETATM   10  N2  UNL     1      78.275  -1.624  24.760  1.00  0.00    -0.287 N 
ATOM     11  H1  UNL     1      76.229  -1.981  24.602  1.00  0.00     0.188 HD
HETATM   12  C6  UNL     1      79.300  -2.509  24.918  1.00  0.00     0.099 A 
ATOM     13  H2  UNL     1      78.342  -0.609  24.690  1.00  0.00     0.188 HD
HETATM   14  N3  UNL     1      78.783  -3.767  24.964  1.00  0.00    -0.320 N 
HETATM   15  C11 UNL     1      80.706  -2.083  25.011  1.00  0.00     0.078 C 
HETATM   16  C7  UNL     1      79.529  -4.979  25.125  1.00  0.00     0.132 C 
HETATM   17  C8  UNL     1      80.179  -5.066  26.484  1.00  0.00     0.020 C 
HETATM   18  C9  UNL     1      80.598  -3.681  26.957  1.00  0.00     0.002 C 
HETATM   19  C10 UNL     1      81.447  -2.976  25.955  1.00  0.00     0.007 C 
ENDBRANCH   5   8
BRANCH   6  20
HETATM   20  C13 UNL     1      75.921  -5.136  22.486  1.00  0.00     0.125 C 
HETATM   21  N4  UNL     1      76.658  -5.621  21.626  1.00  0.00    -0.388 N 
ATOM     22  H42 UNL     1      77.314  -6.337  21.936  1.00  0.00     0.157 HD
ATOM     23  H41 UNL     1      76.693  -5.389  20.633  1.00  0.00     0.157 HD
HETATM   24 CL2  UNL     1      74.764  -3.872  21.937  1.00  0.00    -0.062 Cl
ENDBRANCH   6  20
BRANCH   7  25
HETATM   25  C14 UNL     1      74.321  -7.396  23.841  1.00  0.00     0.233 C 
BRANCH  25  26
HETATM   26  C15 UNL     1      74.962  -8.640  23.437  1.00  0.00     0.252 C 
HETATM   27  O1  UNL     1      75.990  -8.608  22.726  1.00  0.00    -0.270 OA
HETATM   28  N6  UNL     1      74.462  -9.904  23.821  1.00  0.00    -0.263 N 
HETATM   29  C16 UNL     1      73.266 -10.026  24.650  1.00  0.00     0.174 C 
HETATM   30 CL3  UNL     1      75.240 -11.360  23.330  1.00  0.00     0.015 Cl
ENDBRANCH  25  26
ENDBRANCH   7  25
TORSDOF 4
ENDMDL
MODEL 2
REMARK VINA RESULT: -6.554579079      4.217      7.024
REMARK  4 active torsions:
REMARK  status: ('A' for Active; 'I' for Inactive)
REMARK    1  A    between atoms: C4_5  and  C5_6 
REMARK    2  A    between atoms: C12_18  and  C13_19 
REMARK    3  A    between atoms: N5_24  and  C14_25 
REMARK    4  A    between atoms: C14_25  and  C15_26 
REMARK       I    between atoms: C15_26  and  N6_28 
ROOT
HETATM    1  C1  UNL     1      76.708  -3.531  24.379  1.00  0.00     0.070 C 
HETATM    2  C2  UNL     1      78.115  -3.533  24.886  1.00  0.00     0.031 A 
HETATM    3  C3  UNL     1      78.730  -4.505  25.591  1.00  0.00     0.072 A 
HETATM    4 CL1  UNL     1      78.083  -6.037  26.121  1.00  0.00    -0.081 Cl
HETATM    5  C4  UNL     1      80.050  -4.053  25.841  1.00  0.00     0.063 A 
HETATM    6  C12 UNL     1      80.197  -2.816  25.280  1.00  0.00     0.089 A 
HETATM    7  N5  UNL     1      79.006  -2.508  24.696  1.00  0.00    -0.337 N 
ENDROOT
BRANCH   5   8
HETATM    8  C5  UNL     1      81.001  -4.873  26.588  1.00  0.00     0.138 A 
HETATM    9  N1  UNL     1      82.226  -5.293  26.240  1.00  0.00    -0.283 N 
HETATM   10  N2  UNL     1      82.805  -5.968  27.229  1.00  0.00    -0.287 N 
ATOM     11  H1  UNL     1      82.657  -5.118  25.333  1.00  0.00     0.188 HD
HETATM   12  C6  UNL     1      81.901  -5.974  28.250  1.00  0.00     0.099 A 
ATOM     13  H2  UNL     1      83.732  -6.392  27.224  1.00  0.00     0.188 HD
HETATM   14  N3  UNL     1      80.790  -5.298  27.848  1.00  0.00    -0.320 N 
HETATM   15  C11 UNL     1      82.168  -6.631  29.540  1.00  0.00     0.078 C 
HETATM   16  C7  UNL     1      79.611  -5.075  28.630  1.00  0.00     0.132 C 
HETATM   17  C8  UNL     1      79.879  -4.175  29.811  1.00  0.00     0.020 C 
HETATM   18  C9  UNL     1      81.284  -4.414  30.347  1.00  0.00     0.002 C 
HETATM   19  C10 UNL     1      81.535  -5.852  30.649  1.00  0.00     0.007 C 
ENDBRANCH   5   8
BRANCH   6  20
HETATM   20  C13 UNL     1      81.416  -2.001  25.325  1.00  0.00     0.125 C 
HETATM   21  N4  UNL     1      81.531  -0.841  25.723  1.00  0.00    -0.388 N 
ATOM     22  H42 UNL     1      80.682  -0.386  26.059  1.00  0.00     0.157 HD
ATOM     23  H41 UNL     1      82.378  -0.274  25.755  1.00  0.00     0.157 HD
HETATM   24 CL2  UNL     1      82.914  -2.802  24.732  1.00  0.00    -0.062 Cl
ENDBRANCH   6  20
BRANCH   7  25
HETATM   25  C14 UNL     1      78.724  -1.300  23.995  1.00  0.00     0.233 C 
BRANCH  25  26
HETATM   26  C15 UNL     1      78.009  -0.286  24.757  1.00  0.00     0.252 C 
HETATM   27  O1  UNL     1      77.044  -0.616  25.480  1.00  0.00    -0.270 OA
HETATM   28  N6  UNL     1      78.365   1.080  24.711  1.00  0.00    -0.263 N 
HETATM   29  C16 UNL     1      79.480   1.546  23.890  1.00  0.00     0.174 C 
HETATM   30 CL3  UNL     1      77.503   2.259  25.624  1.00  0.00     0.015 Cl
ENDBRANCH  25  26
ENDBRANCH   7  25
TORSDOF 4
ENDMDL
MODEL 3
REMARK VINA RESULT: -6.255931796      2.561      7.460
REMARK  4 active torsions:
REMARK  status: ('A' for Active; 'I' for Inactive)
REMARK    1  A    between atoms: C4_5  and  C5_6 
REMARK    2  A    between atoms: C12_18  and  C13_19 
REMARK    3  A    between atoms: N5_24  and  C14_25 
REMARK    4  A    between atoms: C14_25  and  C15_26 
REMARK       I    between atoms: C15_26  and  N6_28 
ROOT
HETATM    1  C1  UNL     1      76.297  -3.942  22.321  1.00  0.00     0.070 C 
HETATM    2  C2  UNL     1      76.002  -5.037  23.294  1.00  0.00     0.031 A 
HETATM    3  C3  UNL     1      75.173  -6.088  23.118  1.00  0.00     0.072 A 
HETATM    4 CL1  UNL     1      74.205  -6.485  21.720  1.00  0.00    -0.081 Cl
HETATM    5  C4  UNL     1      75.223  -6.850  24.312  1.00  0.00     0.063 A 
HETATM    6  C12 UNL     1      76.081  -6.237  25.180  1.00  0.00     0.089 A 
HETATM    7  N5  UNL     1      76.554  -5.128  24.546  1.00  0.00    -0.337 N 
ENDROOT
BRANCH   5   8
HETATM    8  C5  UNL     1      74.436  -8.072  24.461  1.00  0.00     0.138 A 
HETATM    9  N1  UNL     1      73.330  -8.293  25.185  1.00  0.00    -0.283 N 
HETATM   10  N2  UNL     1      72.871  -9.528  25.003  1.00  0.00    -0.287 N 
ATOM     11  H1  UNL     1      72.896  -7.603  25.798  1.00  0.00     0.188 HD
HETATM   12  C6  UNL     1      73.730 -10.114  24.121  1.00  0.00     0.099 A 
ATOM     13  H2  UNL     1      72.048  -9.949  25.433  1.00  0.00     0.188 HD
HETATM   14  N3  UNL     1      74.693  -9.211  23.791  1.00  0.00    -0.320 N 
HETATM   15  C11 UNL     1      73.566 -11.502  23.658  1.00  0.00     0.078 C 
HETATM   16  C7  UNL     1      75.783  -9.433  22.888  1.00  0.00     0.132 C 
HETATM   17  C8  UNL     1      75.309  -9.627  21.468  1.00  0.00     0.020 C 
HETATM   18  C9  UNL     1      73.966 -10.345  21.455  1.00  0.00     0.002 C 
HETATM   19  C10 UNL     1      74.000 -11.617  22.231  1.00  0.00     0.007 C 
ENDBRANCH   5   8
BRANCH   6  20
HETATM   20  C13 UNL     1      76.400  -6.706  26.533  1.00  0.00     0.125 C 
HETATM   21  N4  UNL     1      75.617  -7.107  27.395  1.00  0.00    -0.388 N 
ATOM     22  H42 UNL     1      74.628  -7.115  27.146  1.00  0.00     0.157 HD
ATOM     23  H41 UNL     1      75.839  -7.434  28.335  1.00  0.00     0.157 HD
HETATM   24 CL2  UNL     1      78.145  -6.693  26.973  1.00  0.00    -0.062 Cl
ENDBRANCH   6  20
BRANCH   7  25
HETATM   25  C14 UNL     1      77.481  -4.199  25.099  1.00  0.00     0.233 C 
BRANCH  25  26
HETATM   26  C15 UNL     1      76.899  -2.970  25.621  1.00  0.00     0.252 C 
HETATM   27  O1  UNL     1      76.004  -3.025  26.492  1.00  0.00    -0.270 OA
HETATM   28  N6  UNL     1      77.310  -1.694  25.174  1.00  0.00    -0.263 N 
HETATM   29  C16 UNL     1      78.350  -1.545  24.158  1.00  0.00     0.174 C 
HETATM   30 CL3  UNL     1      76.607  -0.256  25.808  1.00  0.00     0.015 Cl
ENDBRANCH  25  26
ENDBRANCH   7  25
TORSDOF 4
ENDMDL
MODEL 4
REMARK VINA RESULT: -6.148415610      2.464      7.836
REMARK  4 active torsions:
REMARK  status: ('A' for Active; 'I' for Inactive)
REMARK    1  A    between atoms: C4_5  and  C5_6 
REMARK    2  A    between atoms: C12_18  and  C13_19 
REMARK    3  A    between atoms: N5_24  and  C14_25 
REMARK    4  A    between atoms: C14_25  and  C15_26 
REMARK       I    between atoms: C15_26  and  N6_28 
ROOT
HETATM    1  C1  UNL     1      76.656  -4.978  22.337  1.00  0.00     0.070 C 
HETATM    2  C2  UNL     1      75.930  -6.072  23.051  1.00  0.00     0.031 A 
HETATM    3  C3  UNL     1      75.338  -7.155  22.505  1.00  0.00     0.072 A 
HETATM    4 CL1  UNL     1      75.241  -7.605  20.821  1.00  0.00    -0.081 Cl
HETATM    5  C4  UNL     1      74.784  -7.900  23.577  1.00  0.00     0.063 A 
HETATM    6  C12 UNL     1      75.055  -7.244  24.744  1.00  0.00     0.089 A 
HETATM    7  N5  UNL     1      75.758  -6.126  24.411  1.00  0.00    -0.337 N 
ENDROOT
BRANCH   5   8
HETATM    8  C5  UNL     1      74.065  -9.149  23.336  1.00  0.00     0.138 A 
HETATM    9  N1  UNL     1      74.442 -10.412  23.581  1.00  0.00    -0.283 N 
HETATM   10  N2  UNL     1      73.473 -11.272  23.282  1.00  0.00    -0.287 N 
ATOM     11  H1  UNL     1      75.354 -10.679  23.950  1.00  0.00     0.188 HD
HETATM   12  C6  UNL     1      72.435 -10.515  22.825  1.00  0.00     0.099 A 
ATOM     13  H2  UNL     1      73.500 -12.288  23.374  1.00  0.00     0.188 HD
HETATM   14  N3  UNL     1      72.807  -9.206  22.861  1.00  0.00    -0.320 N 
HETATM   15  C11 UNL     1      71.159 -11.102  22.385  1.00  0.00     0.078 C 
HETATM   16  C7  UNL     1      72.000  -8.090  22.466  1.00  0.00     0.132 C 
HETATM   17  C8  UNL     1      70.813  -7.902  23.379  1.00  0.00     0.020 C 
HETATM   18  C9  UNL     1      70.306  -9.252  23.869  1.00  0.00     0.002 C 
HETATM   19  C10 UNL     1      70.028 -10.191  22.745  1.00  0.00     0.007 C 
ENDBRANCH   5   8
BRANCH   6  20
HETATM   20  C13 UNL     1      74.642  -7.684  26.082  1.00  0.00     0.125 C 
HETATM   21  N4  UNL     1      75.164  -8.551  26.783  1.00  0.00    -0.388 N 
ATOM     22  H42 UNL     1      75.979  -9.025  26.393  1.00  0.00     0.157 HD
ATOM     23  H41 UNL     1      74.878  -8.857  27.713  1.00  0.00     0.157 HD
HETATM   24 CL2  UNL     1      73.204  -6.849  26.770  1.00  0.00    -0.062 Cl
ENDBRANCH   6  20
BRANCH   7  25
HETATM   25  C14 UNL     1      76.242  -5.157  25.335  1.00  0.00     0.233 C 
BRANCH  25  26
HETATM   26  C15 UNL     1      77.537  -5.452  25.933  1.00  0.00     0.252 C 
HETATM   27  O1  UNL     1      77.686  -6.490  26.614  1.00  0.00    -0.270 OA
HETATM   28  N6  UNL     1      78.652  -4.600  25.773  1.00  0.00    -0.263 N 
HETATM   29  C16 UNL     1      78.560  -3.369  24.992  1.00  0.00     0.174 C 
HETATM   30 CL3  UNL     1      80.173  -4.975  26.489  1.00  0.00     0.015 Cl
ENDBRANCH  25  26
ENDBRANCH   7  25
TORSDOF 4
ENDMDL
MODEL 5
REMARK VINA RESULT: -5.994536749      2.521      7.434
REMARK  4 active torsions:
REMARK  status: ('A' for Active; 'I' for Inactive)
REMARK    1  A    between atoms: C4_5  and  C5_6 
REMARK    2  A    between atoms: C12_18  and  C13_19 
REMARK    3  A    between atoms: N5_24  and  C14_25 
REMARK    4  A    between atoms: C14_25  and  C15_26 
REMARK       I    between atoms: C15_26  and  N6_28 
ROOT
HETATM    1  C1  UNL     1      76.581  -4.686  22.505  1.00  0.00     0.070 C 
HETATM    2  C2  UNL     1      75.838  -5.819  23.136  1.00  0.00     0.031 A 
HETATM    3  C3  UNL     1      75.200  -6.830  22.509  1.00  0.00     0.072 A 
HETATM    4 CL1  UNL     1      75.047  -7.120  20.794  1.00  0.00    -0.081 Cl
HETATM    5  C4  UNL     1      74.650  -7.654  23.523  1.00  0.00     0.063 A 
HETATM    6  C12 UNL     1      74.970  -7.117  24.737  1.00  0.00     0.089 A 
HETATM    7  N5  UNL     1      75.699  -5.995  24.489  1.00  0.00    -0.337 N 
ENDROOT
BRANCH   5   8
HETATM    8  C5  UNL     1      73.886  -8.855  23.188  1.00  0.00     0.138 A 
HETATM    9  N1  UNL     1      72.559  -9.032  23.119  1.00  0.00    -0.283 N 
HETATM   10  N2  UNL     1      72.256 -10.261  22.712  1.00  0.00    -0.287 N 
ATOM     11  H1  UNL     1      71.871  -8.316  23.350  1.00  0.00     0.188 HD
HETATM   12  C6  UNL     1      73.450 -10.889  22.515  1.00  0.00     0.099 A 
ATOM     13  H2  UNL     1      71.324 -10.652  22.575  1.00  0.00     0.188 HD
HETATM   14  N3  UNL     1      74.451 -10.016  22.811  1.00  0.00    -0.320 N 
HETATM   15  C11 UNL     1      73.544 -12.285  22.057  1.00  0.00     0.078 C 
HETATM   16  C7  UNL     1      75.856 -10.287  22.730  1.00  0.00     0.132 C 
HETATM   17  C8  UNL     1      76.307 -10.509  21.307  1.00  0.00     0.020 C 
HETATM   18  C9  UNL     1      75.208 -11.198  20.508  1.00  0.00     0.002 C 
HETATM   19  C10 UNL     1      74.734 -12.449  21.165  1.00  0.00     0.007 C 
ENDBRANCH   5   8
BRANCH   6  20
HETATM   20  C13 UNL     1      74.577  -7.667  26.040  1.00  0.00     0.125 C 
HETATM   21  N4  UNL     1      75.078  -8.622  26.636  1.00  0.00    -0.388 N 
ATOM     22  H42 UNL     1      75.857  -9.092  26.174  1.00  0.00     0.157 HD
ATOM     23  H41 UNL     1      74.805  -9.003  27.541  1.00  0.00     0.157 HD
HETATM   24 CL2  UNL     1      73.203  -6.839  26.855  1.00  0.00    -0.062 Cl
ENDBRANCH   6  20
BRANCH   7  25
HETATM   25  C14 UNL     1      76.236  -5.129  25.484  1.00  0.00     0.233 C 
BRANCH  25  26
HETATM   26  C15 UNL     1      77.517  -5.537  26.044  1.00  0.00     0.252 C 
HETATM   27  O1  UNL     1      77.612  -6.624  26.655  1.00  0.00    -0.270 OA
HETATM   28  N6  UNL     1      78.678  -4.741  25.926  1.00  0.00    -0.263 N 
HETATM   29  C16 UNL     1      78.650  -3.458  25.228  1.00  0.00     0.174 C 
HETATM   30 CL3  UNL     1      80.181  -5.248  26.597  1.00  0.00     0.015 Cl
ENDBRANCH  25  26
ENDBRANCH   7  25
TORSDOF 4
ENDMDL
