MODEL 1
REMARK VINA RESULT: -7.017037330      0.000      0.000
REMARK  3 active torsions:
REMARK  status: ('A' for Active; 'I' for Inactive)
REMARK    1  A    between atoms: N2_6  and  C5_7 
REMARK    2  A    between atoms: C5_7  and  C6_8 
REMARK    3  A    between atoms: C6_8  and  N3_9 
REMARK       I    between atoms: N3_9  and  C7_11 
ROOT
HETATM    1  C1  UNL     1      76.074  30.370  40.512  1.00  0.00     0.037 C 
HETATM    2  C2  UNL     1      76.584  29.322  40.175  1.00  0.00    -0.002 C 
HETATM    3  N1  UNL     1      77.181  28.124  39.806  1.00  0.00    -0.314 N 
HETATM    4  C3  UNL     1      76.993  27.369  38.584  1.00  0.00     0.165 C 
HETATM    5  C4  UNL     1      77.597  26.004  38.845  1.00  0.00     0.295 C 
HETATM    6  N2  UNL     1      77.933  25.992  40.218  1.00  0.00     0.109 N 
HETATM    7  C8  UNL     1      78.144  27.371  40.620  1.00  0.00     0.405 C 
ENDROOT
BRANCH   6   8
HETATM    8  C5  UNL     1      77.088  25.280  41.115  1.00  0.00     0.294 C 
BRANCH   8   9
HETATM    9  C6  UNL     1      77.750  25.224  42.474  1.00  0.00     0.152 C 
BRANCH   9  10
HETATM   10  N3  UNL     1      77.473  26.394  43.276  1.00  0.00    -0.363 N 
HETATM   11  C7  UNL     1      76.159  26.578  43.767  1.00  0.00     0.181 C 
HETATM   12  N4  UNL     1      75.323  27.305  43.079  1.00  0.00    -0.374 N 
HETATM   13  N5  UNL     1      75.712  26.002  44.978  1.00  0.00    -0.064 NA
ATOM     14  H42 UNL     1      75.646  27.721  42.205  1.00  0.00     0.158 HD
ATOM     15  H41 UNL     1      74.376  27.438  43.433  1.00  0.00     0.158 HD
ATOM     16  H3  UNL     1      78.208  27.070  43.483  1.00  0.00     0.162 HD
ENDBRANCH   9  10
ENDBRANCH   8   9
ENDBRANCH   6   8
TORSDOF 3
ENDMDL
MODEL 2
REMARK VINA RESULT: -6.067858133      1.587      3.232
REMARK  3 active torsions:
REMARK  status: ('A' for Active; 'I' for Inactive)
REMARK    1  A    between atoms: N2_6  and  C5_7 
REMARK    2  A    between atoms: C5_7  and  C6_8 
REMARK    3  A    between atoms: C6_8  and  N3_9 
REMARK       I    between atoms: N3_9  and  C7_11 
ROOT
HETATM    1  C1  UNL     1      79.464  23.930  38.023  1.00  0.00     0.037 C 
HETATM    2  C2  UNL     1      78.907  24.973  38.296  1.00  0.00    -0.002 C 
HETATM    3  N1  UNL     1      78.254  26.156  38.616  1.00  0.00    -0.314 N 
HETATM    4  C3  UNL     1      78.648  27.512  38.293  1.00  0.00     0.165 C 
HETATM    5  C4  UNL     1      77.790  28.410  39.161  1.00  0.00     0.295 C 
HETATM    6  N2  UNL     1      77.094  27.544  40.034  1.00  0.00     0.109 N 
HETATM    7  C8  UNL     1      76.999  26.254  39.373  1.00  0.00     0.405 C 
ENDROOT
BRANCH   6   8
HETATM    8  C5  UNL     1      77.540  27.440  41.382  1.00  0.00     0.294 C 
BRANCH   8   9
HETATM    9  C6  UNL     1      76.385  27.753  42.308  1.00  0.00     0.152 C 
BRANCH   9  10
HETATM   10  N3  UNL     1      75.835  26.570  42.929  1.00  0.00    -0.363 N 
HETATM   11  C7  UNL     1      76.295  26.211  44.218  1.00  0.00     0.181 C 
HETATM   12  N4  UNL     1      77.279  25.361  44.324  1.00  0.00    -0.374 N 
HETATM   13  N5  UNL     1      75.730  26.739  45.401  1.00  0.00    -0.064 NA
ATOM     14  H42 UNL     1      77.686  24.980  43.471  1.00  0.00     0.158 HD
ATOM     15  H41 UNL     1      77.610  25.103  45.254  1.00  0.00     0.158 HD
ATOM     16  H3  UNL     1      75.132  26.007  42.450  1.00  0.00     0.162 HD
ENDBRANCH   9  10
ENDBRANCH   8   9
ENDBRANCH   6   8
TORSDOF 3
ENDMDL
MODEL 3
REMARK VINA RESULT: -5.647376650      1.092      1.447
REMARK  3 active torsions:
REMARK  status: ('A' for Active; 'I' for Inactive)
REMARK    1  A    between atoms: N2_6  and  C5_7 
REMARK    2  A    between atoms: C5_7  and  C6_8 
REMARK    3  A    between atoms: C6_8  and  N3_9 
REMARK       I    between atoms: N3_9  and  C7_11 
ROOT
HETATM    1  C1  UNL     1      75.998  30.200  40.525  1.00  0.00     0.037 C 
HETATM    2  C2  UNL     1      76.746  29.382  40.031  1.00  0.00    -0.002 C 
HETATM    3  N1  UNL     1      77.612  28.443  39.485  1.00  0.00    -0.314 N 
HETATM    4  C3  UNL     1      77.818  28.122  38.088  1.00  0.00     0.165 C 
HETATM    5  C4  UNL     1      78.591  26.818  38.074  1.00  0.00     0.295 C 
HETATM    6  N2  UNL     1      78.636  26.387  39.419  1.00  0.00     0.109 N 
HETATM    7  C8  UNL     1      78.508  27.569  40.253  1.00  0.00     0.405 C 
ENDROOT
BRANCH   6   8
HETATM    8  C5  UNL     1      77.766  25.334  39.820  1.00  0.00     0.294 C 
BRANCH   8   9
HETATM    9  C6  UNL     1      77.964  25.069  41.296  1.00  0.00     0.152 C 
BRANCH   9  10
HETATM   10  N3  UNL     1      76.721  25.081  42.034  1.00  0.00    -0.363 N 
HETATM   11  C7  UNL     1      76.580  26.000  43.100  1.00  0.00     0.181 C 
HETATM   12  N4  UNL     1      76.868  25.613  44.311  1.00  0.00    -0.374 N 
HETATM   13  N5  UNL     1      76.138  27.329  42.905  1.00  0.00    -0.064 NA
ATOM     14  H42 UNL     1      77.187  24.654  44.452  1.00  0.00     0.158 HD
ATOM     15  H41 UNL     1      76.766  26.276  45.080  1.00  0.00     0.158 HD
ATOM     16  H3  UNL     1      75.964  24.442  41.791  1.00  0.00     0.162 HD
ENDBRANCH   9  10
ENDBRANCH   8   9
ENDBRANCH   6   8
TORSDOF 3
ENDMDL
MODEL 4
REMARK VINA RESULT: -5.633028358      1.584      3.370
REMARK  3 active torsions:
REMARK  status: ('A' for Active; 'I' for Inactive)
REMARK    1  A    between atoms: N2_6  and  C5_7 
REMARK    2  A    between atoms: C5_7  and  C6_8 
REMARK    3  A    between atoms: C6_8  and  N3_9 
REMARK       I    between atoms: N3_9  and  C7_11 
ROOT
HETATM    1  C1  UNL     1      79.378  24.016  38.351  1.00  0.00     0.037 C 
HETATM    2  C2  UNL     1      78.838  25.102  38.368  1.00  0.00    -0.002 C 
HETATM    3  N1  UNL     1      78.205  26.338  38.398  1.00  0.00    -0.314 N 
HETATM    4  C3  UNL     1      78.548  27.538  37.662  1.00  0.00     0.165 C 
HETATM    5  C4  UNL     1      77.769  28.661  38.317  1.00  0.00     0.295 C 
HETATM    6  N2  UNL     1      77.175  28.093  39.466  1.00  0.00     0.109 N 
HETATM    7  C8  UNL     1      77.031  26.670  39.216  1.00  0.00     0.405 C 
ENDROOT
BRANCH   6   8
HETATM    8  C5  UNL     1      77.755  28.373  40.736  1.00  0.00     0.294 C 
BRANCH   8   9
HETATM    9  C6  UNL     1      76.981  27.632  41.804  1.00  0.00     0.152 C 
BRANCH   9  10
HETATM   10  N3  UNL     1      77.819  26.758  42.593  1.00  0.00    -0.363 N 
HETATM   11  C7  UNL     1      77.268  25.546  43.070  1.00  0.00     0.181 C 
HETATM   12  N4  UNL     1      76.746  25.516  44.265  1.00  0.00    -0.374 N 
HETATM   13  N5  UNL     1      77.259  24.360  42.301  1.00  0.00    -0.064 NA
ATOM     14  H42 UNL     1      76.753  26.371  44.820  1.00  0.00     0.158 HD
ATOM     15  H41 UNL     1      76.349  24.642  44.609  1.00  0.00     0.158 HD
ATOM     16  H3  UNL     1      78.786  27.010  42.800  1.00  0.00     0.162 HD
ENDBRANCH   9  10
ENDBRANCH   8   9
ENDBRANCH   6   8
TORSDOF 3
ENDMDL
MODEL 5
REMARK VINA RESULT: -5.452238506      1.788      4.559
REMARK  3 active torsions:
REMARK  status: ('A' for Active; 'I' for Inactive)
REMARK    1  A    between atoms: N2_6  and  C5_7 
REMARK    2  A    between atoms: C5_7  and  C6_8 
REMARK    3  A    between atoms: C6_8  and  N3_9 
REMARK       I    between atoms: N3_9  and  C7_11 
ROOT
HETATM    1  C1  UNL     1      77.321  25.791  43.256  1.00  0.00     0.037 C 
HETATM    2  C2  UNL     1      77.199  26.777  42.560  1.00  0.00    -0.002 C 
HETATM    3  N1  UNL     1      77.077  27.903  41.755  1.00  0.00    -0.314 N 
HETATM    4  C3  UNL     1      76.009  28.880  41.738  1.00  0.00     0.165 C 
HETATM    5  C4  UNL     1      76.200  29.679  40.465  1.00  0.00     0.295 C 
HETATM    6  N2  UNL     1      77.233  29.025  39.756  1.00  0.00     0.109 N 
HETATM    7  C8  UNL     1      78.045  28.322  40.733  1.00  0.00     0.405 C 
ENDROOT
BRANCH   6   8
HETATM    8  C5  UNL     1      76.878  28.208  38.645  1.00  0.00     0.294 C 
BRANCH   8   9
HETATM    9  C6  UNL     1      78.038  27.293  38.318  1.00  0.00     0.152 C 
BRANCH   9  10
HETATM   10  N3  UNL     1      77.662  25.898  38.316  1.00  0.00    -0.363 N 
HETATM   11  C7  UNL     1      78.606  24.945  38.765  1.00  0.00     0.181 C 
HETATM   12  N4  UNL     1      79.376  24.358  37.892  1.00  0.00    -0.374 N 
HETATM   13  N5  UNL     1      78.751  24.603  40.129  1.00  0.00    -0.064 NA
ATOM     14  H42 UNL     1      79.272  24.605  36.908  1.00  0.00     0.158 HD
ATOM     15  H41 UNL     1      80.057  23.672  38.216  1.00  0.00     0.158 HD
ATOM     16  H3  UNL     1      76.737  25.607  37.999  1.00  0.00     0.162 HD
ENDBRANCH   9  10
ENDBRANCH   8   9
ENDBRANCH   6   8
TORSDOF 3
ENDMDL
