MODEL 1
REMARK VINA RESULT: -8.154704277      0.000      0.000
REMARK  12 active torsions:
REMARK  status: ('A' for Active; 'I' for Inactive)
REMARK    1  A    between atoms: C2_2  and  C3_3 
REMARK    2  A    between atoms: C3_3  and  N1_4 
REMARK    3  A    between atoms: C3_3  and  C7_11 
REMARK       I    between atoms: N1_4  and  C4_6 
REMARK       I    between atoms: C4_6  and  N2_8 
REMARK       I    between atoms: C7_11  and  N3_13 
REMARK       I    between atoms: N3_13  and  C8_15 
REMARK    4  A    between atoms: C8_15  and  C9_17 
REMARK    5  A    between atoms: C9_17  and  C10_18 
REMARK    6  A    between atoms: C9_17  and  N4_22 
REMARK    7  A    between atoms: C10_18  and  C11_19 
REMARK       I    between atoms: N4_22  and  C14_23 
REMARK    8  A    between atoms: C14_23  and  O5_25 
REMARK    9  A    between atoms: O5_25  and  C15_26 
REMARK   10  A    between atoms: C20_32  and  O7_33 
REMARK   11  A    between atoms: C20_32  and  C22_35 
REMARK   12  A    between atoms: C22_35  and  C24_37 
ROOT
HETATM    1  C9  UNL     1       7.683   8.428  21.863  1.00  0.00     0.261 C 
ENDROOT
BRANCH   1   2
HETATM    2  C8  UNL     1       7.949   9.928  21.836  1.00  0.00     0.260 C 
HETATM    3  N3  UNL     1       7.343  10.656  20.811  1.00  0.00    -0.293 N 
HETATM    4  C7  UNL     1       7.450  12.089  20.792  1.00  0.00     0.247 C 
ATOM      5  H3  UNL     1       6.825  10.173  20.077  1.00  0.00     0.172 HD
HETATM    6  O2  UNL     1       8.184  12.692  21.595  1.00  0.00    -0.271 OA
HETATM    7  O3  UNL     1       8.657  10.417  22.703  1.00  0.00    -0.270 OA
BRANCH   4   8
HETATM    8  C3  UNL     1       6.651  12.800  19.794  1.00  0.00     0.178 C 
BRANCH   8   9
HETATM    9  C2  UNL     1       7.287  14.210  19.684  1.00  0.00     0.030 C 
HETATM   10  C1  UNL     1       6.305  15.259  20.093  1.00  0.00     0.007 C 
ENDBRANCH   8   9
BRANCH   8  11
HETATM   11  N1  UNL     1       6.693  12.189  18.489  1.00  0.00    -0.330 N 
HETATM   12  C4  UNL     1       5.582  12.321  17.639  1.00  0.00     0.318 C 
HETATM   13  O1  UNL     1       4.544  12.949  17.984  1.00  0.00    -0.247 OA
HETATM   14  N2  UNL     1       5.597  11.744  16.344  1.00  0.00    -0.343 N 
HETATM   15  C5  UNL     1       4.447  11.898  15.453  1.00  0.00     0.154 C 
HETATM   16  C6  UNL     1       6.728  11.004  15.859  1.00  0.00     0.154 C 
ATOM     17  H1  UNL     1       7.517  11.670  18.188  1.00  0.00     0.165 HD
ENDBRANCH   8  11
ENDBRANCH   4   8
ENDBRANCH   1   2
BRANCH   1  18
HETATM   18  C10 UNL     1       6.277   8.219  22.419  1.00  0.00     0.053 C 
BRANCH  18  19
HETATM   19  C11 UNL     1       6.284   8.576  23.872  1.00  0.00    -0.019 C 
HETATM   20  C12 UNL     1       4.908   8.611  24.467  1.00  0.00     0.009 C 
HETATM   21  C13 UNL     1       7.148   7.639  24.692  1.00  0.00     0.009 C 
ENDBRANCH  18  19
ENDBRANCH   1  18
BRANCH   1  22
HETATM   22  N4  UNL     1       7.901   7.882  20.641  1.00  0.00    -0.375 NA
HETATM   23  C14 UNL     1       8.141   7.326  19.382  1.00  0.00     0.435 C 
HETATM   24  O4  UNL     1       9.147   7.341  18.673  1.00  0.00    -0.221 OA
BRANCH  23  25
HETATM   25  O5  UNL     1       7.080   6.602  18.788  1.00  0.00    -0.285 OA
BRANCH  25  26
HETATM   26  C15 UNL     1       6.749   5.308  19.193  1.00  0.00     0.168 C 
HETATM   27  C16 UNL     1       5.294   5.374  19.743  1.00  0.00     0.204 C 
HETATM   28  O6  UNL     1       4.496   4.357  19.426  1.00  0.00    -0.359 OA
HETATM   29  C17 UNL     1       4.576   3.717  18.236  1.00  0.00     0.264 C 
HETATM   30  C18 UNL     1       5.615   4.348  17.303  1.00  0.00     0.073 C 
HETATM   31  O8  UNL     1       5.256   2.503  18.450  1.00  0.00    -0.325 OA
HETATM   32  C19 UNL     1       6.828   4.237  18.211  1.00  0.00     0.085 C 
HETATM   33  C20 UNL     1       6.500   2.870  18.912  1.00  0.00     0.176 C 
BRANCH  33  34
HETATM   34  O7  UNL     1       6.520   3.107  20.253  1.00  0.00    -0.359 OA
HETATM   35  C21 UNL     1       6.511   2.145  21.175  1.00  0.00     0.205 C 
ENDBRANCH  33  34
BRANCH  33  36
HETATM   36  C22 UNL     1       7.531   1.896  18.488  1.00  0.00     0.044 C 
HETATM   37  C23 UNL     1       6.970   1.031  17.363  1.00  0.00     0.015 C 
BRANCH  36  38
HETATM   38  C24 UNL     1       8.901   2.301  18.191  1.00  0.00     0.005 C 
HETATM   39  C25 UNL     1       9.818   1.336  17.523  1.00  0.00     0.005 C 
ENDBRANCH  36  38
ENDBRANCH  33  36
ENDBRANCH  25  26
ENDBRANCH  23  25
ENDBRANCH   1  22
TORSDOF 12
ENDMDL
MODEL 2
REMARK VINA RESULT: -7.962635965      2.477      7.696
REMARK  12 active torsions:
REMARK  status: ('A' for Active; 'I' for Inactive)
REMARK    1  A    between atoms: C2_2  and  C3_3 
REMARK    2  A    between atoms: C3_3  and  N1_4 
REMARK    3  A    between atoms: C3_3  and  C7_11 
REMARK       I    between atoms: N1_4  and  C4_6 
REMARK       I    between atoms: C4_6  and  N2_8 
REMARK       I    between atoms: C7_11  and  N3_13 
REMARK       I    between atoms: N3_13  and  C8_15 
REMARK    4  A    between atoms: C8_15  and  C9_17 
REMARK    5  A    between atoms: C9_17  and  C10_18 
REMARK    6  A    between atoms: C9_17  and  N4_22 
REMARK    7  A    between atoms: C10_18  and  C11_19 
REMARK       I    between atoms: N4_22  and  C14_23 
REMARK    8  A    between atoms: C14_23  and  O5_25 
REMARK    9  A    between atoms: O5_25  and  C15_26 
REMARK   10  A    between atoms: C20_32  and  O7_33 
REMARK   11  A    between atoms: C20_32  and  C22_35 
REMARK   12  A    between atoms: C22_35  and  C24_37 
ROOT
HETATM    1  C9  UNL     1       7.231   6.395  18.587  1.00  0.00     0.261 C 
ENDROOT
BRANCH   1   2
HETATM    2  C8  UNL     1       8.006   7.560  19.191  1.00  0.00     0.260 C 
HETATM    3  N3  UNL     1       7.448   8.172  20.315  1.00  0.00    -0.293 N 
HETATM    4  C7  UNL     1       8.181   9.196  21.008  1.00  0.00     0.247 C 
ATOM      5  H3  UNL     1       6.524   7.893  20.644  1.00  0.00     0.172 HD
HETATM    6  O2  UNL     1       9.247   9.647  20.553  1.00  0.00    -0.271 OA
HETATM    7  O3  UNL     1       9.065   7.891  18.680  1.00  0.00    -0.270 OA
BRANCH   4   8
HETATM    8  C3  UNL     1       7.619   9.672  22.272  1.00  0.00     0.178 C 
BRANCH   8   9
HETATM    9  C2  UNL     1       6.083   9.521  22.125  1.00  0.00     0.030 C 
HETATM   10  C1  UNL     1       5.511   8.815  23.311  1.00  0.00     0.007 C 
ENDBRANCH   8   9
BRANCH   8  11
HETATM   11  N1  UNL     1       8.035   8.891  23.410  1.00  0.00    -0.330 N 
HETATM   12  C4  UNL     1       9.277   9.165  24.007  1.00  0.00     0.318 C 
HETATM   13  O1  UNL     1      10.045  10.067  23.573  1.00  0.00    -0.247 OA
HETATM   14  N2  UNL     1       9.710   8.425  25.135  1.00  0.00    -0.343 N 
HETATM   15  C5  UNL     1      10.996   8.724  25.767  1.00  0.00     0.154 C 
HETATM   16  C6  UNL     1       8.913   7.373  25.701  1.00  0.00     0.154 C 
ATOM     17  H1  UNL     1       7.437   8.150  23.776  1.00  0.00     0.165 HD
ENDBRANCH   8  11
ENDBRANCH   4   8
ENDBRANCH   1   2
BRANCH   1  18
HETATM   18  C10 UNL     1       6.952   5.397  19.708  1.00  0.00     0.053 C 
BRANCH  18  19
HETATM   19  C11 UNL     1       7.026   4.015  19.141  1.00  0.00    -0.019 C 
HETATM   20  C12 UNL     1       8.338   3.732  18.472  1.00  0.00     0.009 C 
HETATM   21  C13 UNL     1       6.770   2.947  20.186  1.00  0.00     0.009 C 
ENDBRANCH  18  19
ENDBRANCH   1  18
BRANCH   1  22
HETATM   22  N4  UNL     1       6.130   6.842  17.934  1.00  0.00    -0.375 NA
HETATM   23  C14 UNL     1       5.000   7.294  17.247  1.00  0.00     0.435 C 
HETATM   24  O4  UNL     1       4.608   7.067  16.103  1.00  0.00    -0.221 OA
BRANCH  23  25
HETATM   25  O5  UNL     1       4.121   8.150  17.952  1.00  0.00    -0.285 OA
BRANCH  25  26
HETATM   26  C15 UNL     1       4.016   9.510  17.657  1.00  0.00     0.168 C 
HETATM   27  C16 UNL     1       2.517   9.780  17.337  1.00  0.00     0.204 C 
HETATM   28  O6  UNL     1       2.005  10.912  17.815  1.00  0.00    -0.359 OA
HETATM   29  C17 UNL     1       2.388  11.435  19.004  1.00  0.00     0.264 C 
HETATM   30  C18 UNL     1       3.393  10.541  19.738  1.00  0.00     0.073 C 
HETATM   31  O8  UNL     1       3.271  12.499  18.736  1.00  0.00    -0.325 OA
HETATM   32  C19 UNL     1       4.459  10.469  18.658  1.00  0.00     0.085 C 
HETATM   33  C20 UNL     1       4.330  11.921  18.073  1.00  0.00     0.176 C 
BRANCH  33  34
HETATM   34  O7  UNL     1       4.108  11.782  16.736  1.00  0.00    -0.359 OA
HETATM   35  C21 UNL     1       4.337  12.745  15.844  1.00  0.00     0.205 C 
ENDBRANCH  33  34
BRANCH  33  36
HETATM   36  C22 UNL     1       5.594  12.633  18.371  1.00  0.00     0.044 C 
HETATM   37  C23 UNL     1       5.287  13.858  19.228  1.00  0.00     0.015 C 
BRANCH  36  38
HETATM   38  C24 UNL     1       6.773  11.936  18.874  1.00  0.00     0.005 C 
HETATM   39  C25 UNL     1       7.718  12.657  19.772  1.00  0.00     0.005 C 
ENDBRANCH  36  38
ENDBRANCH  33  36
ENDBRANCH  25  26
ENDBRANCH  23  25
ENDBRANCH   1  22
TORSDOF 12
ENDMDL
MODEL 3
REMARK VINA RESULT: -7.870273973      3.117      5.608
REMARK  12 active torsions:
REMARK  status: ('A' for Active; 'I' for Inactive)
REMARK    1  A    between atoms: C2_2  and  C3_3 
REMARK    2  A    between atoms: C3_3  and  N1_4 
REMARK    3  A    between atoms: C3_3  and  C7_11 
REMARK       I    between atoms: N1_4  and  C4_6 
REMARK       I    between atoms: C4_6  and  N2_8 
REMARK       I    between atoms: C7_11  and  N3_13 
REMARK       I    between atoms: N3_13  and  C8_15 
REMARK    4  A    between atoms: C8_15  and  C9_17 
REMARK    5  A    between atoms: C9_17  and  C10_18 
REMARK    6  A    between atoms: C9_17  and  N4_22 
REMARK    7  A    between atoms: C10_18  and  C11_19 
REMARK       I    between atoms: N4_22  and  C14_23 
REMARK    8  A    between atoms: C14_23  and  O5_25 
REMARK    9  A    between atoms: O5_25  and  C15_26 
REMARK   10  A    between atoms: C20_32  and  O7_33 
REMARK   11  A    between atoms: C20_32  and  C22_35 
REMARK   12  A    between atoms: C22_35  and  C24_37 
ROOT
HETATM    1  C9  UNL     1       7.350   6.114  18.781  1.00  0.00     0.261 C 
ENDROOT
BRANCH   1   2
HETATM    2  C8  UNL     1       7.950   7.429  19.261  1.00  0.00     0.260 C 
HETATM    3  N3  UNL     1       7.374   8.007  20.394  1.00  0.00    -0.293 N 
HETATM    4  C7  UNL     1       7.964   9.182  20.974  1.00  0.00     0.247 C 
ATOM      5  H3  UNL     1       6.538   7.597  20.809  1.00  0.00     0.172 HD
HETATM    6  O2  UNL     1       8.900   9.779  20.414  1.00  0.00    -0.271 OA
HETATM    7  O3  UNL     1       8.897   7.902  18.652  1.00  0.00    -0.270 OA
BRANCH   4   8
HETATM    8  C3  UNL     1       7.417   9.634  22.254  1.00  0.00     0.178 C 
BRANCH   8   9
HETATM    9  C2  UNL     1       5.885   9.425  22.146  1.00  0.00     0.030 C 
HETATM   10  C1  UNL     1       5.371   8.700  23.348  1.00  0.00     0.007 C 
ENDBRANCH   8   9
BRANCH   8  11
HETATM   11  N1  UNL     1       7.893   8.869  23.379  1.00  0.00    -0.330 N 
HETATM   12  C4  UNL     1       9.140   9.188  23.941  1.00  0.00     0.318 C 
HETATM   13  O1  UNL     1       9.862  10.118  23.488  1.00  0.00    -0.247 OA
HETATM   14  N2  UNL     1       9.631   8.464  25.057  1.00  0.00    -0.343 N 
HETATM   15  C5  UNL     1      10.921   8.809  25.654  1.00  0.00     0.154 C 
HETATM   16  C6  UNL     1       8.889   7.383  25.643  1.00  0.00     0.154 C 
ATOM     17  H1  UNL     1       7.333   8.107  23.761  1.00  0.00     0.165 HD
ENDBRANCH   8  11
ENDBRANCH   4   8
ENDBRANCH   1   2
BRANCH   1  18
HETATM   18  C10 UNL     1       7.046   5.268  20.015  1.00  0.00     0.053 C 
BRANCH  18  19
HETATM   19  C11 UNL     1       7.380   3.843  19.706  1.00  0.00    -0.019 C 
HETATM   20  C12 UNL     1       6.167   3.012  19.414  1.00  0.00     0.009 C 
HETATM   21  C13 UNL     1       8.351   3.716  18.548  1.00  0.00     0.009 C 
ENDBRANCH  18  19
ENDBRANCH   1  18
BRANCH   1  22
HETATM   22  N4  UNL     1       6.288   6.342  17.969  1.00  0.00    -0.375 NA
HETATM   23  C14 UNL     1       5.189   6.590  17.142  1.00  0.00     0.435 C 
HETATM   24  O4  UNL     1       4.300   7.438  17.215  1.00  0.00    -0.221 OA
BRANCH  23  25
HETATM   25  O5  UNL     1       5.040   5.758  16.007  1.00  0.00    -0.285 OA
BRANCH  25  26
HETATM   26  C15 UNL     1       4.587   4.442  16.108  1.00  0.00     0.168 C 
HETATM   27  C16 UNL     1       3.081   4.459  15.713  1.00  0.00     0.204 C 
HETATM   28  O6  UNL     1       2.656   3.445  14.963  1.00  0.00    -0.359 OA
HETATM   29  C17 UNL     1       3.436   2.861  14.024  1.00  0.00     0.264 C 
HETATM   30  C18 UNL     1       4.798   3.550  13.886  1.00  0.00     0.073 C 
HETATM   31  O8  UNL     1       3.913   1.649  14.560  1.00  0.00    -0.325 OA
HETATM   32  C19 UNL     1       5.263   3.418  15.326  1.00  0.00     0.085 C 
HETATM   33  C20 UNL     1       4.644   2.015  15.668  1.00  0.00     0.176 C 
BRANCH  33  34
HETATM   34  O7  UNL     1       3.872   2.192  16.777  1.00  0.00    -0.359 OA
HETATM   35  C21 UNL     1       3.428   1.191  17.536  1.00  0.00     0.205 C 
ENDBRANCH  33  34
BRANCH  33  36
HETATM   36  C22 UNL     1       5.766   1.078  15.896  1.00  0.00     0.044 C 
HETATM   37  C23 UNL     1       5.704  -0.039  14.857  1.00  0.00     0.015 C 
BRANCH  36  38
HETATM   38  C24 UNL     1       7.138   1.543  16.068  1.00  0.00     0.005 C 
HETATM   39  C25 UNL     1       8.227   0.546  16.264  1.00  0.00     0.005 C 
ENDBRANCH  36  38
ENDBRANCH  33  36
ENDBRANCH  25  26
ENDBRANCH  23  25
ENDBRANCH   1  22
TORSDOF 12
ENDMDL
MODEL 4
REMARK VINA RESULT: -7.827949023      2.096      4.904
REMARK  12 active torsions:
REMARK  status: ('A' for Active; 'I' for Inactive)
REMARK    1  A    between atoms: C2_2  and  C3_3 
REMARK    2  A    between atoms: C3_3  and  N1_4 
REMARK    3  A    between atoms: C3_3  and  C7_11 
REMARK       I    between atoms: N1_4  and  C4_6 
REMARK       I    between atoms: C4_6  and  N2_8 
REMARK       I    between atoms: C7_11  and  N3_13 
REMARK       I    between atoms: N3_13  and  C8_15 
REMARK    4  A    between atoms: C8_15  and  C9_17 
REMARK    5  A    between atoms: C9_17  and  C10_18 
REMARK    6  A    between atoms: C9_17  and  N4_22 
REMARK    7  A    between atoms: C10_18  and  C11_19 
REMARK       I    between atoms: N4_22  and  C14_23 
REMARK    8  A    between atoms: C14_23  and  O5_25 
REMARK    9  A    between atoms: O5_25  and  C15_26 
REMARK   10  A    between atoms: C20_32  and  O7_33 
REMARK   11  A    between atoms: C20_32  and  C22_35 
REMARK   12  A    between atoms: C22_35  and  C24_37 
ROOT
HETATM    1  C9  UNL     1       7.026  10.136  20.562  1.00  0.00     0.261 C 
ENDROOT
BRANCH   1   2
HETATM    2  C8  UNL     1       7.141   9.749  22.030  1.00  0.00     0.260 C 
HETATM    3  N3  UNL     1       5.993   9.239  22.639  1.00  0.00    -0.293 N 
HETATM    4  C7  UNL     1       6.059   8.742  23.985  1.00  0.00     0.247 C 
ATOM      5  H3  UNL     1       5.109   9.218  22.129  1.00  0.00     0.172 HD
HETATM    6  O2  UNL     1       7.085   8.876  24.674  1.00  0.00    -0.271 OA
HETATM    7  O3  UNL     1       8.215   9.891  22.595  1.00  0.00    -0.270 OA
BRANCH   4   8
HETATM    8  C3  UNL     1       4.868   8.064  24.500  1.00  0.00     0.178 C 
BRANCH   8   9
HETATM    9  C2  UNL     1       4.195   9.081  25.457  1.00  0.00     0.030 C 
HETATM   10  C1  UNL     1       2.774   8.696  25.712  1.00  0.00     0.007 C 
ENDBRANCH   8   9
BRANCH   8  11
HETATM   11  N1  UNL     1       3.917   7.723  23.472  1.00  0.00    -0.330 N 
HETATM   12  C4  UNL     1       3.681   6.368  23.185  1.00  0.00     0.318 C 
HETATM   13  O1  UNL     1       4.281   5.439  23.792  1.00  0.00    -0.247 OA
HETATM   14  N2  UNL     1       2.742   5.998  22.190  1.00  0.00    -0.343 N 
HETATM   15  C5  UNL     1       2.482   4.587  21.905  1.00  0.00     0.154 C 
HETATM   16  C6  UNL     1       2.011   6.980  21.438  1.00  0.00     0.154 C 
ATOM     17  H1  UNL     1       3.423   8.454  22.961  1.00  0.00     0.165 HD
ENDBRANCH   8  11
ENDBRANCH   4   8
ENDBRANCH   1   2
BRANCH   1  18
HETATM   18  C10 UNL     1       7.680  11.506  20.393  1.00  0.00     0.053 C 
BRANCH  18  19
HETATM   19  C11 UNL     1       6.847  12.315  19.451  1.00  0.00    -0.019 C 
HETATM   20  C12 UNL     1       5.384  12.007  19.558  1.00  0.00     0.009 C 
HETATM   21  C13 UNL     1       7.049  13.807  19.638  1.00  0.00     0.009 C 
ENDBRANCH  18  19
ENDBRANCH   1  18
BRANCH   1  22
HETATM   22  N4  UNL     1       7.533   9.160  19.769  1.00  0.00    -0.375 NA
HETATM   23  C14 UNL     1       8.071   8.158  18.956  1.00  0.00     0.435 C 
HETATM   24  O4  UNL     1       9.239   7.848  18.727  1.00  0.00    -0.221 OA
BRANCH  23  25
HETATM   25  O5  UNL     1       7.154   7.326  18.272  1.00  0.00    -0.285 OA
BRANCH  25  26
HETATM   26  C15 UNL     1       6.669   6.143  18.829  1.00  0.00     0.168 C 
HETATM   27  C16 UNL     1       5.198   6.423  19.255  1.00  0.00     0.204 C 
HETATM   28  O6  UNL     1       4.321   5.447  19.025  1.00  0.00    -0.359 OA
HETATM   29  C17 UNL     1       4.408   4.633  17.947  1.00  0.00     0.264 C 
HETATM   30  C18 UNL     1       5.560   5.021  17.015  1.00  0.00     0.073 C 
HETATM   31  O8  UNL     1       4.947   3.407  18.382  1.00  0.00    -0.325 OA
HETATM   32  C19 UNL     1       6.699   4.935  18.018  1.00  0.00     0.085 C 
HETATM   33  C20 UNL     1       6.191   3.723  18.878  1.00  0.00     0.176 C 
BRANCH  33  34
HETATM   34  O7  UNL     1       6.153   4.153  20.171  1.00  0.00    -0.359 OA
HETATM   35  C21 UNL     1       5.962   3.347  21.213  1.00  0.00     0.205 C 
ENDBRANCH  33  34
BRANCH  33  36
HETATM   36  C22 UNL     1       7.142   2.607  18.675  1.00  0.00     0.044 C 
HETATM   37  C23 UNL     1       6.474   1.528  17.826  1.00  0.00     0.015 C 
BRANCH  36  38
HETATM   38  C24 UNL     1       8.514   2.831  18.234  1.00  0.00     0.005 C 
HETATM   39  C25 UNL     1       9.358   1.664  17.855  1.00  0.00     0.005 C 
ENDBRANCH  36  38
ENDBRANCH  33  36
ENDBRANCH  25  26
ENDBRANCH  23  25
ENDBRANCH   1  22
TORSDOF 12
ENDMDL
MODEL 5
REMARK VINA RESULT: -7.824733456      1.949      3.401
REMARK  12 active torsions:
REMARK  status: ('A' for Active; 'I' for Inactive)
REMARK    1  A    between atoms: C2_2  and  C3_3 
REMARK    2  A    between atoms: C3_3  and  N1_4 
REMARK    3  A    between atoms: C3_3  and  C7_11 
REMARK       I    between atoms: N1_4  and  C4_6 
REMARK       I    between atoms: C4_6  and  N2_8 
REMARK       I    between atoms: C7_11  and  N3_13 
REMARK       I    between atoms: N3_13  and  C8_15 
REMARK    4  A    between atoms: C8_15  and  C9_17 
REMARK    5  A    between atoms: C9_17  and  C10_18 
REMARK    6  A    between atoms: C9_17  and  N4_22 
REMARK    7  A    between atoms: C10_18  and  C11_19 
REMARK       I    between atoms: N4_22  and  C14_23 
REMARK    8  A    between atoms: C14_23  and  O5_25 
REMARK    9  A    between atoms: O5_25  and  C15_26 
REMARK   10  A    between atoms: C20_32  and  O7_33 
REMARK   11  A    between atoms: C20_32  and  C22_35 
REMARK   12  A    between atoms: C22_35  and  C24_37 
ROOT
HETATM    1  C9  UNL     1       5.648   7.410  23.980  1.00  0.00     0.261 C 
ENDROOT
BRANCH   1   2
HETATM    2  C8  UNL     1       6.991   8.008  23.584  1.00  0.00     0.260 C 
HETATM    3  N3  UNL     1       7.140   8.393  22.250  1.00  0.00    -0.293 N 
HETATM    4  C7  UNL     1       8.334   9.074  21.832  1.00  0.00     0.247 C 
ATOM      5  H3  UNL     1       6.403   8.192  21.574  1.00  0.00     0.172 HD
HETATM    6  O2  UNL     1       9.302   9.213  22.602  1.00  0.00    -0.271 OA
HETATM    7  O3  UNL     1       7.856   8.132  24.437  1.00  0.00    -0.270 OA
BRANCH   4   8
HETATM    8  C3  UNL     1       8.353   9.602  20.467  1.00  0.00     0.178 C 
BRANCH   8   9
HETATM    9  C2  UNL     1       8.444   8.359  19.545  1.00  0.00     0.030 C 
HETATM   10  C1  UNL     1       7.786   8.634  18.232  1.00  0.00     0.007 C 
ENDBRANCH   8   9
BRANCH   8  11
HETATM   11  N1  UNL     1       7.156  10.326  20.121  1.00  0.00    -0.330 N 
HETATM   12  C4  UNL     1       7.212  11.727  20.021  1.00  0.00     0.318 C 
HETATM   13  O1  UNL     1       8.275  12.373  20.235  1.00  0.00    -0.247 OA
HETATM   14  N2  UNL     1       6.057  12.468  19.668  1.00  0.00    -0.343 N 
HETATM   15  C5  UNL     1       6.121  13.925  19.547  1.00  0.00     0.154 C 
HETATM   16  C6  UNL     1       4.797  11.828  19.412  1.00  0.00     0.154 C 
ATOM     17  H1  UNL     1       6.282   9.830  19.950  1.00  0.00     0.165 HD
ENDBRANCH   8  11
ENDBRANCH   4   8
ENDBRANCH   1   2
BRANCH   1  18
HETATM   18  C10 UNL     1       4.674   8.566  24.196  1.00  0.00     0.053 C 
BRANCH  18  19
HETATM   19  C11 UNL     1       3.937   8.331  25.477  1.00  0.00    -0.019 C 
HETATM   20  C12 UNL     1       3.472   9.603  26.120  1.00  0.00     0.009 C 
HETATM   21  C13 UNL     1       2.747   7.409  25.297  1.00  0.00     0.009 C 
ENDBRANCH  18  19
ENDBRANCH   1  18
BRANCH   1  22
HETATM   22  N4  UNL     1       5.247   6.489  23.068  1.00  0.00    -0.375 NA
HETATM   23  C14 UNL     1       4.821   5.538  22.138  1.00  0.00     0.435 C 
HETATM   24  O4  UNL     1       3.814   4.832  22.111  1.00  0.00    -0.221 OA
BRANCH  23  25
HETATM   25  O5  UNL     1       5.651   5.326  21.012  1.00  0.00    -0.285 OA
BRANCH  25  26
HETATM   26  C15 UNL     1       5.275   4.489  19.961  1.00  0.00     0.168 C 
HETATM   27  C16 UNL     1       4.335   5.324  19.043  1.00  0.00     0.204 C 
HETATM   28  O6  UNL     1       4.496   5.164  17.731  1.00  0.00    -0.359 OA
HETATM   29  C17 UNL     1       5.708   4.938  17.172  1.00  0.00     0.264 C 
HETATM   30  C18 UNL     1       6.841   4.972  18.202  1.00  0.00     0.073 C 
HETATM   31  O8  UNL     1       5.790   3.565  16.874  1.00  0.00    -0.325 OA
HETATM   32  C19 UNL     1       6.321   3.897  19.142  1.00  0.00     0.085 C 
HETATM   33  C20 UNL     1       5.668   2.931  18.090  1.00  0.00     0.176 C 
BRANCH  33  34
HETATM   34  O7  UNL     1       4.372   2.760  18.472  1.00  0.00    -0.359 OA
HETATM   35  C21 UNL     1       3.671   1.652  18.237  1.00  0.00     0.205 C 
ENDBRANCH  33  34
BRANCH  33  36
HETATM   36  C22 UNL     1       6.440   1.668  18.108  1.00  0.00     0.044 C 
HETATM   37  C23 UNL     1       6.666   1.198  16.673  1.00  0.00     0.015 C 
BRANCH  36  38
HETATM   38  C24 UNL     1       7.659   1.519  18.895  1.00  0.00     0.005 C 
HETATM   39  C25 UNL     1       8.931   1.157  18.209  1.00  0.00     0.005 C 
ENDBRANCH  36  38
ENDBRANCH  33  36
ENDBRANCH  25  26
ENDBRANCH  23  25
ENDBRANCH   1  22
TORSDOF 12
ENDMDL
