MODEL 1
REMARK VINA RESULT: -8.486415393      0.000      0.000
REMARK  13 active torsions:
REMARK  status: ('A' for Active; 'I' for Inactive)
REMARK    1  A    between atoms: C2_2  and  C3_3 
REMARK    2  A    between atoms: C3_3  and  C4_4 
REMARK    3  A    between atoms: C4_4  and  C5_5 
REMARK    4  A    between atoms: C5_5  and  C6_6 
REMARK    5  A    between atoms: N1_7  and  C8_9 
REMARK    6  A    between atoms: C8_9  and  C9_10 
REMARK    7  A    between atoms: C9_10  and  O1_11 
REMARK    8  A    between atoms: C9_10  and  C10_13 
REMARK    9  A    between atoms: C12_18  and  C13_19 
REMARK   10  A    between atoms: C13_19  and  S1_20 
REMARK   11  A    between atoms: C15_24  and  O3_25 
REMARK       I    between atoms: N4_28  and  C17_30 
REMARK   12  A    between atoms: C17_30  and  O5_32 
REMARK   13  A    between atoms: O5_32  and  C18_33 
ROOT
HETATM    1  C10 UNL     1       5.171   5.881  18.530  1.00  0.00     0.118 C 
HETATM    2  N2  UNL     1       5.774   6.875  17.685  1.00  0.00    -0.352 N 
ATOM      3  H2  UNL     1       6.389   6.490  16.969  1.00  0.00     0.163 HD
HETATM    4  C11 UNL     1       5.679   8.252  17.658  1.00  0.00     0.241 C 
HETATM    5  O2  UNL     1       5.319   8.754  16.515  1.00  0.00    -0.271 OA
HETATM    6  C12 UNL     1       5.927   9.261  18.737  1.00  0.00     0.185 C 
HETATM    7  N3  UNL     1       7.246   9.164  19.266  1.00  0.00    -0.353 N 
ATOM      8  H3  UNL     1       7.927   8.885  18.560  1.00  0.00     0.162 HD
HETATM    9  C15 UNL     1       7.828   9.357  20.511  1.00  0.00     0.189 C 
HETATM   10  C16 UNL     1       7.640   8.621  21.759  1.00  0.00     0.198 C 
HETATM   11  N4  UNL     1       7.919   9.196  22.879  1.00  0.00    -0.279 N 
ATOM     12  H4  UNL     1       8.266  10.155  22.865  1.00  0.00     0.173 HD
HETATM   13  C17 UNL     1       7.766   8.561  24.102  1.00  0.00     0.367 C 
HETATM   14  O4  UNL     1       6.718   8.693  24.790  1.00  0.00    -0.238 OA
HETATM   15  O6  UNL     1       7.172   7.313  21.834  1.00  0.00    -0.332 OA
HETATM   16  C22 UNL     1       7.569   6.334  20.854  1.00  0.00     0.178 C 
HETATM   17  C23 UNL     1       6.374   5.477  20.610  1.00  0.00     0.033 C 
HETATM   18  C24 UNL     1       6.218   4.995  19.209  1.00  0.00     0.009 C 
HETATM   19  C25 UNL     1       7.461   4.968  18.384  1.00  0.00     0.012 C 
ENDROOT
BRANCH   1  20
HETATM   20  C9  UNL     1       4.314   4.892  17.695  1.00  0.00     0.159 C 
BRANCH  20  21
HETATM   21  C8  UNL     1       4.547   5.035  16.233  1.00  0.00     0.155 C 
BRANCH  21  22
HETATM   22  N1  UNL     1       5.076   3.869  15.600  1.00  0.00    -0.392 N 
HETATM   23  C6  UNL     1       5.338   2.727  16.298  1.00  0.00     0.081 C 
HETATM   24  C7  UNL     1       5.006   3.911  14.188  1.00  0.00     0.148 C 
BRANCH  23  25
HETATM   25  C5  UNL     1       6.615   2.031  16.482  1.00  0.00    -0.010 C 
BRANCH  25  26
HETATM   26  C4  UNL     1       6.917   1.092  17.568  1.00  0.00     0.028 C 
BRANCH  26  27
HETATM   27  C3  UNL     1       7.939   1.453  18.587  1.00  0.00     0.003 C 
BRANCH  27  28
HETATM   28  C2  UNL     1       9.283   1.768  17.906  1.00  0.00    -0.004 C 
HETATM   29  C1  UNL     1       9.957   0.485  17.495  1.00  0.00     0.005 C 
ENDBRANCH  27  28
ENDBRANCH  26  27
ENDBRANCH  25  26
ENDBRANCH  23  25
ENDBRANCH  21  22
ENDBRANCH  20  21
BRANCH  20  30
HETATM   30  O1  UNL     1       2.985   5.024  18.057  1.00  0.00    -0.392 OA
ATOM     31  H1  UNL     1       2.755   4.537  18.839  1.00  0.00     0.210 HD
ENDBRANCH  20  30
ENDBRANCH   1  20
BRANCH   6  32
HETATM   32  C13 UNL     1       4.793   9.381  19.685  1.00  0.00     0.108 C 
BRANCH  32  33
HETATM   33  S1  UNL     1       4.029  11.000  19.620  1.00  0.00    -0.171 SA
HETATM   34  C14 UNL     1       5.230  12.335  19.450  1.00  0.00     0.089 C 
ENDBRANCH  32  33
ENDBRANCH   6  32
BRANCH   9  35
HETATM   35  O3  UNL     1       8.691  10.336  20.654  1.00  0.00    -0.343 OA
ATOM     36  H3  UNL     1       9.351  10.459  19.982  1.00  0.00     0.219 HD
ENDBRANCH   9  35
BRANCH  13  37
HETATM   37  O5  UNL     1       8.789   7.762  24.586  1.00  0.00    -0.298 OA
BRANCH  37  38
HETATM   38  C18 UNL     1       9.578   8.229  25.643  1.00  0.00     0.133 C 
HETATM   39  C19 UNL     1      10.990   8.540  25.217  1.00  0.00     0.033 C 
HETATM   40  C20 UNL     1      11.478   7.802  26.431  1.00  0.00     0.005 C 
HETATM   41  C21 UNL     1      10.147   7.082  26.460  1.00  0.00     0.033 C 
ENDBRANCH  37  38
ENDBRANCH  13  37
TORSDOF 13
ENDMDL
MODEL 2
REMARK VINA RESULT: -8.189986625      1.015      1.177
REMARK  13 active torsions:
REMARK  status: ('A' for Active; 'I' for Inactive)
REMARK    1  A    between atoms: C2_2  and  C3_3 
REMARK    2  A    between atoms: C3_3  and  C4_4 
REMARK    3  A    between atoms: C4_4  and  C5_5 
REMARK    4  A    between atoms: C5_5  and  C6_6 
REMARK    5  A    between atoms: N1_7  and  C8_9 
REMARK    6  A    between atoms: C8_9  and  C9_10 
REMARK    7  A    between atoms: C9_10  and  O1_11 
REMARK    8  A    between atoms: C9_10  and  C10_13 
REMARK    9  A    between atoms: C12_18  and  C13_19 
REMARK   10  A    between atoms: C13_19  and  S1_20 
REMARK   11  A    between atoms: C15_24  and  O3_25 
REMARK       I    between atoms: N4_28  and  C17_30 
REMARK   12  A    between atoms: C17_30  and  O5_32 
REMARK   13  A    between atoms: O5_32  and  C18_33 
ROOT
HETATM    1  C10 UNL     1       4.966   5.984  18.701  1.00  0.00     0.118 C 
HETATM    2  N2  UNL     1       5.709   6.833  17.812  1.00  0.00    -0.352 N 
ATOM      3  H2  UNL     1       6.262   6.325  17.122  1.00  0.00     0.163 HD
HETATM    4  C11 UNL     1       5.818   8.205  17.711  1.00  0.00     0.241 C 
HETATM    5  O2  UNL     1       5.538   8.693  16.541  1.00  0.00    -0.271 OA
HETATM    6  C12 UNL     1       6.210   9.223  18.739  1.00  0.00     0.185 C 
HETATM    7  N3  UNL     1       7.499   8.961  19.284  1.00  0.00    -0.353 N 
ATOM      8  H3  UNL     1       8.133   8.549  18.600  1.00  0.00     0.162 HD
HETATM    9  C15 UNL     1       8.102   9.133  20.523  1.00  0.00     0.189 C 
HETATM   10  C16 UNL     1       7.806   8.500  21.806  1.00  0.00     0.198 C 
HETATM   11  N4  UNL     1       8.165   9.087  22.896  1.00  0.00    -0.279 N 
ATOM     12  H4  UNL     1       8.649   9.982  22.835  1.00  0.00     0.173 HD
HETATM   13  C17 UNL     1       7.919   8.547  24.150  1.00  0.00     0.367 C 
HETATM   14  O4  UNL     1       6.901   8.867  24.820  1.00  0.00    -0.238 OA
HETATM   15  O6  UNL     1       7.151   7.280  21.944  1.00  0.00    -0.332 OA
HETATM   16  C22 UNL     1       7.402   6.204  21.021  1.00  0.00     0.178 C 
HETATM   17  C23 UNL     1       6.094   5.519  20.811  1.00  0.00     0.033 C 
HETATM   18  C24 UNL     1       5.870   4.991  19.436  1.00  0.00     0.009 C 
HETATM   19  C25 UNL     1       7.098   4.739  18.625  1.00  0.00     0.012 C 
ENDROOT
BRANCH   1  20
HETATM   20  C9  UNL     1       3.974   5.088  17.911  1.00  0.00     0.159 C 
BRANCH  20  21
HETATM   21  C8  UNL     1       3.615   3.850  18.652  1.00  0.00     0.155 C 
BRANCH  21  22
HETATM   22  N1  UNL     1       3.613   2.663  17.857  1.00  0.00    -0.392 N 
HETATM   23  C6  UNL     1       4.645   1.771  17.894  1.00  0.00     0.081 C 
HETATM   24  C7  UNL     1       2.352   2.361  17.294  1.00  0.00     0.148 C 
BRANCH  23  25
HETATM   25  C5  UNL     1       5.531   1.341  16.808  1.00  0.00    -0.010 C 
BRANCH  25  26
HETATM   26  C4  UNL     1       6.986   1.191  16.915  1.00  0.00     0.028 C 
BRANCH  26  27
HETATM   27  C3  UNL     1       7.636   1.270  18.251  1.00  0.00     0.003 C 
BRANCH  27  28
HETATM   28  C2  UNL     1       9.119   1.654  18.100  1.00  0.00    -0.004 C 
HETATM   29  C1  UNL     1       9.887   0.498  17.515  1.00  0.00     0.005 C 
ENDBRANCH  27  28
ENDBRANCH  26  27
ENDBRANCH  25  26
ENDBRANCH  23  25
ENDBRANCH  21  22
ENDBRANCH  20  21
BRANCH  20  30
HETATM   30  O1  UNL     1       4.486   4.847  16.648  1.00  0.00    -0.392 OA
ATOM     31  H1  UNL     1       3.928   5.163  15.947  1.00  0.00     0.210 HD
ENDBRANCH  20  30
ENDBRANCH   1  20
BRANCH   6  32
HETATM   32  C13 UNL     1       5.105   9.558  19.668  1.00  0.00     0.108 C 
BRANCH  32  33
HETATM   33  S1  UNL     1       4.525  11.238  19.448  1.00  0.00    -0.171 SA
HETATM   34  C14 UNL     1       5.863  12.447  19.450  1.00  0.00     0.089 C 
ENDBRANCH  32  33
ENDBRANCH   6  32
BRANCH   9  35
HETATM   35  O3  UNL     1       9.099   9.982  20.621  1.00  0.00    -0.343 OA
ATOM     36  H3  UNL     1       8.915  10.864  20.921  1.00  0.00     0.219 HD
ENDBRANCH   9  35
BRANCH  13  37
HETATM   37  O5  UNL     1       8.812   7.633  24.684  1.00  0.00    -0.298 OA
BRANCH  37  38
HETATM   38  C18 UNL     1       9.576   7.997  25.799  1.00  0.00     0.133 C 
HETATM   39  C19 UNL     1      11.014   8.278  25.449  1.00  0.00     0.033 C 
HETATM   40  C20 UNL     1      11.424   7.442  26.628  1.00  0.00     0.005 C 
HETATM   41  C21 UNL     1      10.066   6.776  26.558  1.00  0.00     0.033 C 
ENDBRANCH  37  38
ENDBRANCH  13  37
TORSDOF 13
ENDMDL
MODEL 3
REMARK VINA RESULT: -7.450190715      1.464      1.725
REMARK  13 active torsions:
REMARK  status: ('A' for Active; 'I' for Inactive)
REMARK    1  A    between atoms: C2_2  and  C3_3 
REMARK    2  A    between atoms: C3_3  and  C4_4 
REMARK    3  A    between atoms: C4_4  and  C5_5 
REMARK    4  A    between atoms: C5_5  and  C6_6 
REMARK    5  A    between atoms: N1_7  and  C8_9 
REMARK    6  A    between atoms: C8_9  and  C9_10 
REMARK    7  A    between atoms: C9_10  and  O1_11 
REMARK    8  A    between atoms: C9_10  and  C10_13 
REMARK    9  A    between atoms: C12_18  and  C13_19 
REMARK   10  A    between atoms: C13_19  and  S1_20 
REMARK   11  A    between atoms: C15_24  and  O3_25 
REMARK       I    between atoms: N4_28  and  C17_30 
REMARK   12  A    between atoms: C17_30  and  O5_32 
REMARK   13  A    between atoms: O5_32  and  C18_33 
ROOT
HETATM    1  C10 UNL     1       4.862   6.157  18.788  1.00  0.00     0.118 C 
HETATM    2  N2  UNL     1       5.658   6.940  17.882  1.00  0.00    -0.352 N 
ATOM      3  H2  UNL     1       6.172   6.384  17.200  1.00  0.00     0.163 HD
HETATM    4  C11 UNL     1       5.859   8.300  17.760  1.00  0.00     0.241 C 
HETATM    5  O2  UNL     1       5.608   8.787  16.582  1.00  0.00    -0.271 OA
HETATM    6  C12 UNL     1       6.323   9.304  18.769  1.00  0.00     0.185 C 
HETATM    7  N3  UNL     1       7.594   8.965  19.315  1.00  0.00    -0.353 N 
ATOM      8  H3  UNL     1       8.195   8.499  18.636  1.00  0.00     0.162 HD
HETATM    9  C15 UNL     1       8.212   9.115  20.549  1.00  0.00     0.189 C 
HETATM   10  C16 UNL     1       7.878   8.524  21.843  1.00  0.00     0.198 C 
HETATM   11  N4  UNL     1       8.281   9.102  22.923  1.00  0.00    -0.279 N 
ATOM     12  H4  UNL     1       8.824   9.961  22.846  1.00  0.00     0.173 HD
HETATM   13  C17 UNL     1       8.004   8.600  24.185  1.00  0.00     0.367 C 
HETATM   14  O4  UNL     1       7.012   8.999  24.853  1.00  0.00    -0.238 OA
HETATM   15  O6  UNL     1       7.142   7.353  22.003  1.00  0.00    -0.332 OA
HETATM   16  C22 UNL     1       7.316   6.248  21.096  1.00  0.00     0.178 C 
HETATM   17  C23 UNL     1       5.964   5.651  20.901  1.00  0.00     0.033 C 
HETATM   18  C24 UNL     1       5.700   5.117  19.535  1.00  0.00     0.009 C 
HETATM   19  C25 UNL     1       6.904   4.769  18.725  1.00  0.00     0.012 C 
ENDROOT
BRANCH   1  20
HETATM   20  C9  UNL     1       3.808   5.319  18.015  1.00  0.00     0.159 C 
BRANCH  20  21
HETATM   21  C8  UNL     1       4.228   5.029  16.618  1.00  0.00     0.155 C 
BRANCH  21  22
HETATM   22  N1  UNL     1       4.473   3.648  16.347  1.00  0.00    -0.392 N 
HETATM   23  C6  UNL     1       3.738   2.659  16.932  1.00  0.00     0.081 C 
HETATM   24  C7  UNL     1       5.302   3.431  15.222  1.00  0.00     0.148 C 
BRANCH  23  25
HETATM   25  C5  UNL     1       4.187   1.573  17.809  1.00  0.00    -0.010 C 
BRANCH  25  26
HETATM   26  C4  UNL     1       4.861   1.753  19.099  1.00  0.00     0.028 C 
BRANCH  26  27
HETATM   27  C3  UNL     1       4.050   1.949  20.330  1.00  0.00     0.003 C 
BRANCH  27  28
HETATM   28  C2  UNL     1       4.948   1.872  21.578  1.00  0.00    -0.004 C 
HETATM   29  C1  UNL     1       6.396   1.915  21.165  1.00  0.00     0.005 C 
ENDBRANCH  27  28
ENDBRANCH  26  27
ENDBRANCH  25  26
ENDBRANCH  23  25
ENDBRANCH  21  22
ENDBRANCH  20  21
BRANCH  20  30
HETATM   30  O1  UNL     1       2.577   5.944  18.102  1.00  0.00    -0.392 OA
ATOM     31  H1  UNL     1       2.027   5.806  17.339  1.00  0.00     0.210 HD
ENDBRANCH  20  30
ENDBRANCH   1  20
BRANCH   6  32
HETATM   32  C13 UNL     1       5.247   9.729  19.697  1.00  0.00     0.108 C 
BRANCH  32  33
HETATM   33  S1  UNL     1       4.719  11.413  19.391  1.00  0.00    -0.171 SA
HETATM   34  C14 UNL     1       6.097  12.532  19.069  1.00  0.00     0.089 C 
ENDBRANCH  32  33
ENDBRANCH   6  32
BRANCH   9  35
HETATM   35  O3  UNL     1       9.265   9.895  20.631  1.00  0.00    -0.343 OA
ATOM     36  H3  UNL     1       9.459  10.307  21.465  1.00  0.00     0.219 HD
ENDBRANCH   9  35
BRANCH  13  37
HETATM   37  O5  UNL     1       8.835   7.636  24.732  1.00  0.00    -0.298 OA
BRANCH  37  38
HETATM   38  C18 UNL     1       9.565   7.940  25.886  1.00  0.00     0.133 C 
HETATM   39  C19 UNL     1      11.023   8.188  25.600  1.00  0.00     0.033 C 
HETATM   40  C20 UNL     1      11.363   7.301  26.764  1.00  0.00     0.005 C 
HETATM   41  C21 UNL     1       9.990   6.680  26.622  1.00  0.00     0.033 C 
ENDBRANCH  37  38
ENDBRANCH  13  37
TORSDOF 13
ENDMDL
MODEL 4
REMARK VINA RESULT: -7.317925219      0.916      1.203
REMARK  13 active torsions:
REMARK  status: ('A' for Active; 'I' for Inactive)
REMARK    1  A    between atoms: C2_2  and  C3_3 
REMARK    2  A    between atoms: C3_3  and  C4_4 
REMARK    3  A    between atoms: C4_4  and  C5_5 
REMARK    4  A    between atoms: C5_5  and  C6_6 
REMARK    5  A    between atoms: N1_7  and  C8_9 
REMARK    6  A    between atoms: C8_9  and  C9_10 
REMARK    7  A    between atoms: C9_10  and  O1_11 
REMARK    8  A    between atoms: C9_10  and  C10_13 
REMARK    9  A    between atoms: C12_18  and  C13_19 
REMARK   10  A    between atoms: C13_19  and  S1_20 
REMARK   11  A    between atoms: C15_24  and  O3_25 
REMARK       I    between atoms: N4_28  and  C17_30 
REMARK   12  A    between atoms: C17_30  and  O5_32 
REMARK   13  A    between atoms: O5_32  and  C18_33 
ROOT
HETATM    1  C10 UNL     1       4.860   5.898  18.797  1.00  0.00     0.118 C 
HETATM    2  N2  UNL     1       5.627   6.656  17.848  1.00  0.00    -0.352 N 
ATOM      3  H2  UNL     1       6.139   6.081  17.179  1.00  0.00     0.163 HD
HETATM    4  C11 UNL     1       5.804   8.013  17.667  1.00  0.00     0.241 C 
HETATM    5  O2  UNL     1       5.525   8.448  16.476  1.00  0.00    -0.271 OA
HETATM    6  C12 UNL     1       6.269   9.064  18.628  1.00  0.00     0.185 C 
HETATM    7  N3  UNL     1       7.554   8.766  19.165  1.00  0.00    -0.353 N 
ATOM      8  H3  UNL     1       8.151   8.284  18.494  1.00  0.00     0.162 HD
HETATM    9  C15 UNL     1       8.189   8.976  20.381  1.00  0.00     0.189 C 
HETATM   10  C16 UNL     1       7.887   8.432  21.703  1.00  0.00     0.198 C 
HETATM   11  N4  UNL     1       8.298   9.059  22.752  1.00  0.00    -0.279 N 
ATOM     12  H4  UNL     1       8.826   9.923  22.631  1.00  0.00     0.173 HD
HETATM   13  C17 UNL     1       8.050   8.604  24.038  1.00  0.00     0.367 C 
HETATM   14  O4  UNL     1       7.064   9.014  24.706  1.00  0.00    -0.238 OA
HETATM   15  O6  UNL     1       7.173   7.258  21.923  1.00  0.00    -0.332 OA
HETATM   16  C22 UNL     1       7.350   6.119  21.058  1.00  0.00     0.178 C 
HETATM   17  C23 UNL     1       6.005   5.494  20.910  1.00  0.00     0.033 C 
HETATM   18  C24 UNL     1       5.726   4.902  19.571  1.00  0.00     0.009 C 
HETATM   19  C25 UNL     1       6.922   4.541  18.755  1.00  0.00     0.012 C 
ENDROOT
BRANCH   1  20
HETATM   20  C9  UNL     1       3.807   5.013  18.077  1.00  0.00     0.159 C 
BRANCH  20  21
HETATM   21  C8  UNL     1       3.313   5.631  16.819  1.00  0.00     0.155 C 
BRANCH  21  22
HETATM   22  N1  UNL     1       3.699   4.944  15.627  1.00  0.00    -0.392 N 
HETATM   23  C6  UNL     1       4.167   3.663  15.656  1.00  0.00     0.081 C 
HETATM   24  C7  UNL     1       3.271   5.583  14.441  1.00  0.00     0.148 C 
BRANCH  23  25
HETATM   25  C5  UNL     1       5.470   3.148  15.226  1.00  0.00    -0.010 C 
BRANCH  25  26
HETATM   26  C4  UNL     1       6.347   2.289  16.030  1.00  0.00     0.028 C 
BRANCH  26  27
HETATM   27  C3  UNL     1       6.694   0.929  15.538  1.00  0.00     0.003 C 
BRANCH  27  28
HETATM   28  C2  UNL     1       7.934   0.396  16.279  1.00  0.00    -0.004 C 
HETATM   29  C1  UNL     1       8.322   1.353  17.375  1.00  0.00     0.005 C 
ENDBRANCH  27  28
ENDBRANCH  26  27
ENDBRANCH  25  26
ENDBRANCH  23  25
ENDBRANCH  21  22
ENDBRANCH  20  21
BRANCH  20  30
HETATM   30  O1  UNL     1       2.797   4.691  18.967  1.00  0.00    -0.392 OA
ATOM     31  H1  UNL     1       3.108   4.244  19.746  1.00  0.00     0.210 HD
ENDBRANCH  20  30
ENDBRANCH   1  20
BRANCH   6  32
HETATM   32  C13 UNL     1       5.201   9.509  19.556  1.00  0.00     0.108 C 
BRANCH  32  33
HETATM   33  S1  UNL     1       4.797  11.240  19.340  1.00  0.00    -0.171 SA
HETATM   34  C14 UNL     1       5.647  11.987  17.935  1.00  0.00     0.089 C 
ENDBRANCH  32  33
ENDBRANCH   6  32
BRANCH   9  35
HETATM   35  O3  UNL     1       9.230   9.775  20.414  1.00  0.00    -0.343 OA
ATOM     36  H3  UNL     1       9.082  10.713  20.401  1.00  0.00     0.219 HD
ENDBRANCH   9  35
BRANCH  13  37
HETATM   37  O5  UNL     1       8.906   7.676  24.608  1.00  0.00    -0.298 OA
BRANCH  37  38
HETATM   38  C18 UNL     1       9.680   8.050  25.713  1.00  0.00     0.133 C 
HETATM   39  C19 UNL     1      11.125   8.282  25.355  1.00  0.00     0.033 C 
HETATM   40  C20 UNL     1      11.513   7.468  26.556  1.00  0.00     0.005 C 
HETATM   41  C21 UNL     1      10.138   6.837  26.505  1.00  0.00     0.033 C 
ENDBRANCH  37  38
ENDBRANCH  13  37
TORSDOF 13
ENDMDL
MODEL 5
REMARK VINA RESULT: -7.284464852      1.856      2.239
REMARK  13 active torsions:
REMARK  status: ('A' for Active; 'I' for Inactive)
REMARK    1  A    between atoms: C2_2  and  C3_3 
REMARK    2  A    between atoms: C3_3  and  C4_4 
REMARK    3  A    between atoms: C4_4  and  C5_5 
REMARK    4  A    between atoms: C5_5  and  C6_6 
REMARK    5  A    between atoms: N1_7  and  C8_9 
REMARK    6  A    between atoms: C8_9  and  C9_10 
REMARK    7  A    between atoms: C9_10  and  O1_11 
REMARK    8  A    between atoms: C9_10  and  C10_13 
REMARK    9  A    between atoms: C12_18  and  C13_19 
REMARK   10  A    between atoms: C13_19  and  S1_20 
REMARK   11  A    between atoms: C15_24  and  O3_25 
REMARK       I    between atoms: N4_28  and  C17_30 
REMARK   12  A    between atoms: C17_30  and  O5_32 
REMARK   13  A    between atoms: O5_32  and  C18_33 
ROOT
HETATM    1  C10 UNL     1       4.309   5.743  19.801  1.00  0.00     0.118 C 
HETATM    2  N2  UNL     1       4.966   5.747  18.523  1.00  0.00    -0.352 N 
ATOM      3  H2  UNL     1       5.197   4.817  18.175  1.00  0.00     0.163 HD
HETATM    4  C11 UNL     1       5.343   6.769  17.675  1.00  0.00     0.241 C 
HETATM    5  O2  UNL     1       4.885   6.673  16.464  1.00  0.00    -0.271 OA
HETATM    6  C12 UNL     1       6.200   7.971  17.930  1.00  0.00     0.185 C 
HETATM    7  N3  UNL     1       7.496   7.613  18.398  1.00  0.00    -0.353 N 
ATOM      8  H3  UNL     1       7.826   6.737  17.994  1.00  0.00     0.162 HD
HETATM    9  C15 UNL     1       8.420   8.170  19.272  1.00  0.00     0.189 C 
HETATM   10  C16 UNL     1       8.333   8.391  20.714  1.00  0.00     0.198 C 
HETATM   11  N4  UNL     1       9.080   9.288  21.261  1.00  0.00    -0.279 N 
ATOM     12  H4  UNL     1       9.716   9.823  20.670  1.00  0.00     0.173 HD
HETATM   13  C17 UNL     1       9.053   9.552  22.622  1.00  0.00     0.367 C 
HETATM   14  O4  UNL     1       8.337  10.471  23.103  1.00  0.00    -0.238 OA
HETATM   15  O6  UNL     1       7.484   7.688  21.564  1.00  0.00    -0.332 OA
HETATM   16  C22 UNL     1       7.247   6.281  21.364  1.00  0.00     0.178 C 
HETATM   17  C23 UNL     1       5.812   6.048  21.695  1.00  0.00     0.033 C 
HETATM   18  C24 UNL     1       5.132   5.014  20.866  1.00  0.00     0.009 C 
HETATM   19  C25 UNL     1       6.022   4.012  20.210  1.00  0.00     0.012 C 
ENDROOT
BRANCH   1  20
HETATM   20  C9  UNL     1       2.976   4.950  19.735  1.00  0.00     0.159 C 
BRANCH  20  21
HETATM   21  C8  UNL     1       2.585   4.613  18.341  1.00  0.00     0.155 C 
BRANCH  21  22
HETATM   22  N1  UNL     1       2.571   3.214  18.050  1.00  0.00    -0.392 N 
HETATM   23  C6  UNL     1       3.552   2.377  18.496  1.00  0.00     0.081 C 
HETATM   24  C7  UNL     1       1.333   2.754  17.547  1.00  0.00     0.148 C 
BRANCH  23  25
HETATM   25  C5  UNL     1       4.480   1.549  17.721  1.00  0.00    -0.010 C 
BRANCH  25  26
HETATM   26  C4  UNL     1       5.742   2.015  17.136  1.00  0.00     0.028 C 
BRANCH  26  27
HETATM   27  C3  UNL     1       6.918   1.105  17.109  1.00  0.00     0.003 C 
BRANCH  27  28
HETATM   28  C2  UNL     1       7.789   1.324  18.359  1.00  0.00    -0.004 C 
HETATM   29  C1  UNL     1       9.238   1.419  17.959  1.00  0.00     0.005 C 
ENDBRANCH  27  28
ENDBRANCH  26  27
ENDBRANCH  25  26
ENDBRANCH  23  25
ENDBRANCH  21  22
ENDBRANCH  20  21
BRANCH  20  30
HETATM   30  O1  UNL     1       2.000   5.644  20.429  1.00  0.00    -0.392 OA
ATOM     31  H1  UNL     1       1.442   6.173  19.870  1.00  0.00     0.210 HD
ENDBRANCH  20  30
ENDBRANCH   1  20
BRANCH   6  32
HETATM   32  C13 UNL     1       5.473   9.059  18.627  1.00  0.00     0.108 C 
BRANCH  32  33
HETATM   33  S1  UNL     1       5.875  10.673  17.962  1.00  0.00    -0.171 SA
HETATM   34  C14 UNL     1       6.677  10.586  16.348  1.00  0.00     0.089 C 
ENDBRANCH  32  33
ENDBRANCH   6  32
BRANCH   9  35
HETATM   35  O3  UNL     1       9.570   8.581  18.789  1.00  0.00    -0.343 OA
ATOM     36  H3  UNL     1      10.002   8.047  18.134  1.00  0.00     0.219 HD
ENDBRANCH   9  35
BRANCH  13  37
HETATM   37  O5  UNL     1       9.831   8.791  23.479  1.00  0.00    -0.298 OA
BRANCH  37  38
HETATM   38  C18 UNL     1       9.532   8.784  24.846  1.00  0.00     0.133 C 
HETATM   39  C19 UNL     1      10.592   8.097  25.666  1.00  0.00     0.033 C 
HETATM   40  C20 UNL     1       9.500   7.362  26.391  1.00  0.00     0.005 C 
HETATM   41  C21 UNL     1       8.602   7.637  25.204  1.00  0.00     0.033 C 
ENDBRANCH  37  38
ENDBRANCH  13  37
TORSDOF 13
ENDMDL
