MODEL 1
REMARK VINA RESULT: -7.802105873      0.000      0.000
REMARK  12 active torsions:
REMARK  status: ('A' for Active; 'I' for Inactive)
REMARK    1  A    between atoms: C2_2  and  C3_3 
REMARK    2  A    between atoms: C3_3  and  C4_4 
REMARK    3  A    between atoms: C4_4  and  C5_5 
REMARK    4  A    between atoms: C5_5  and  C6_6 
REMARK       I    between atoms: C6_6  and  N1_8 
REMARK    5  A    between atoms: N1_8  and  C7_10 
REMARK    6  A    between atoms: C8_11  and  C9_12 
REMARK    7  A    between atoms: C9_12  and  O2_13 
REMARK    8  A    between atoms: C9_12  and  C10_15 
REMARK    9  A    between atoms: C18_24  and  O4_25 
REMARK   10  A    between atoms: C21_29  and  C22_30 
REMARK   11  A    between atoms: C23_31  and  O6_32 
REMARK   12  A    between atoms: O6_32  and  C24_33 
ROOT
HETATM    1  C7  UNL     1       5.896   5.976  20.988  1.00  0.00     0.058 C 
HETATM    2  C8  UNL     1       5.706   6.750  22.250  1.00  0.00     0.199 C 
HETATM    3  O3  UNL     1       4.676   7.628  21.782  1.00  0.00    -0.368 OA
HETATM    4  C13 UNL     1       5.058   8.051  20.509  1.00  0.00     0.167 C 
HETATM    5  C14 UNL     1       3.861   8.397  19.735  1.00  0.00     0.019 C 
HETATM    6  C15 UNL     1       3.407   7.277  18.878  1.00  0.00     0.019 C 
HETATM    7  C16 UNL     1       4.530   6.987  17.902  1.00  0.00     0.059 C 
HETATM    8  C17 UNL     1       5.781   6.565  18.559  1.00  0.00     0.059 C 
HETATM    9  C18 UNL     1       6.042   7.043  19.952  1.00  0.00     0.128 C 
HETATM   10  C20 UNL     1       4.666   8.231  17.096  1.00  0.00     0.135 C 
HETATM   11  O5  UNL     1       4.616   8.154  15.879  1.00  0.00    -0.297 OA
HETATM   12  C21 UNL     1       4.858   9.565  17.755  1.00  0.00     0.064 C 
HETATM   13  C28 UNL     1       4.014   9.706  18.987  1.00  0.00     0.020 C 
ENDROOT
BRANCH  12  14
HETATM   14  C22 UNL     1       4.747  10.632  16.745  1.00  0.00     0.043 A 
HETATM   15  C23 UNL     1       5.283  12.005  16.906  1.00  0.00     0.152 A 
HETATM   16  C25 UNL     1       5.945  11.043  16.042  1.00  0.00     0.036 A 
HETATM   17  C26 UNL     1       6.165  11.112  14.605  1.00  0.00     0.182 A 
HETATM   18  C27 UNL     1       7.325  10.540  16.223  1.00  0.00     0.182 A 
HETATM   19  O8  UNL     1       7.491  10.674  14.822  1.00  0.00    -0.389 OA
BRANCH  15  20
HETATM   20  O6  UNL     1       5.993  12.430  18.039  1.00  0.00    -0.300 OA
BRANCH  20  21
HETATM   21  C24 UNL     1       5.486  13.228  19.050  1.00  0.00     0.373 C 
HETATM   22  N2  UNL     1       4.129  13.377  19.353  1.00  0.00    -0.032 NA
HETATM   23  O7  UNL     1       6.332  13.864  19.741  1.00  0.00    -0.242 OA
ENDBRANCH  20  21
ENDBRANCH  15  20
ENDBRANCH  12  14
BRANCH   9  24
HETATM   24  O4  UNL     1       7.249   7.637  20.017  1.00  0.00    -0.376 OA
HETATM   25  C19 UNL     1       8.049   8.012  19.048  1.00  0.00     0.203 C 
ENDBRANCH   9  24
BRANCH   1  26
HETATM   26  N1  UNL     1       6.706   4.847  20.951  1.00  0.00    -0.329 N 
HETATM   27  C6  UNL     1       6.179   3.587  20.572  1.00  0.00     0.221 C 
HETATM   28  O1  UNL     1       4.963   3.492  20.294  1.00  0.00    -0.273 OA
ATOM     29  H1  UNL     1       7.692   4.927  21.198  1.00  0.00     0.168 HD
BRANCH  27  30
HETATM   30  C5  UNL     1       6.963   2.328  20.475  1.00  0.00     0.103 C 
BRANCH  30  31
HETATM   31  C4  UNL     1       7.027   1.894  18.996  1.00  0.00     0.013 C 
BRANCH  31  32
HETATM   32  C3  UNL     1       8.108   2.736  18.362  1.00  0.00     0.027 C 
BRANCH  32  33
HETATM   33  C2  UNL     1       9.281   2.013  17.891  1.00  0.00    -0.037 C 
HETATM   34  C1  UNL     1       9.499   0.719  17.872  1.00  0.00     0.007 C 
ENDBRANCH  32  33
ENDBRANCH  31  32
ENDBRANCH  30  31
ENDBRANCH  27  30
ENDBRANCH   1  26
BRANCH   2  35
HETATM   35  C9  UNL     1       6.750   7.564  22.838  1.00  0.00     0.156 C 
BRANCH  35  36
HETATM   36  O2  UNL     1       8.044   7.126  22.721  1.00  0.00    -0.392 OA
ATOM     37  H2  UNL     1       8.701   7.754  22.445  1.00  0.00     0.210 HD
ENDBRANCH  35  36
BRANCH  35  38
HETATM   38  C10 UNL     1       6.493   7.531  24.376  1.00  0.00     0.009 C 
HETATM   39  C11 UNL     1       7.745   7.604  25.163  1.00  0.00     0.012 C 
HETATM   40  C12 UNL     1       5.554   8.665  24.672  1.00  0.00     0.012 C 
ENDBRANCH  35  38
ENDBRANCH   2  35
TORSDOF 12
ENDMDL
MODEL 2
REMARK VINA RESULT: -7.450174586      1.322      1.539
REMARK  12 active torsions:
REMARK  status: ('A' for Active; 'I' for Inactive)
REMARK    1  A    between atoms: C2_2  and  C3_3 
REMARK    2  A    between atoms: C3_3  and  C4_4 
REMARK    3  A    between atoms: C4_4  and  C5_5 
REMARK    4  A    between atoms: C5_5  and  C6_6 
REMARK       I    between atoms: C6_6  and  N1_8 
REMARK    5  A    between atoms: N1_8  and  C7_10 
REMARK    6  A    between atoms: C8_11  and  C9_12 
REMARK    7  A    between atoms: C9_12  and  O2_13 
REMARK    8  A    between atoms: C9_12  and  C10_15 
REMARK    9  A    between atoms: C18_24  and  O4_25 
REMARK   10  A    between atoms: C21_29  and  C22_30 
REMARK   11  A    between atoms: C23_31  and  O6_32 
REMARK   12  A    between atoms: O6_32  and  C24_33 
ROOT
HETATM    1  C7  UNL     1       6.480   7.057  21.268  1.00  0.00     0.058 C 
HETATM    2  C8  UNL     1       6.727   7.960  22.431  1.00  0.00     0.199 C 
HETATM    3  O3  UNL     1       5.584   8.805  22.263  1.00  0.00    -0.368 OA
HETATM    4  C13 UNL     1       5.493   9.089  20.900  1.00  0.00     0.167 C 
HETATM    5  C14 UNL     1       4.096   9.378  20.559  1.00  0.00     0.019 C 
HETATM    6  C15 UNL     1       3.392   8.186  20.033  1.00  0.00     0.019 C 
HETATM    7  C16 UNL     1       4.110   7.776  18.762  1.00  0.00     0.059 C 
HETATM    8  C17 UNL     1       5.519   7.399  18.984  1.00  0.00     0.059 C 
HETATM    9  C18 UNL     1       6.239   8.010  20.143  1.00  0.00     0.128 C 
HETATM   10  C20 UNL     1       3.937   8.930  17.837  1.00  0.00     0.135 C 
HETATM   11  O5  UNL     1       3.468   8.731  16.727  1.00  0.00    -0.297 OA
HETATM   12  C21 UNL     1       4.323  10.319  18.248  1.00  0.00     0.064 C 
HETATM   13  C28 UNL     1       3.957  10.601  19.676  1.00  0.00     0.020 C 
ENDROOT
BRANCH  12  14
HETATM   14  C22 UNL     1       3.850  11.281  17.237  1.00  0.00     0.043 A 
HETATM   15  C23 UNL     1       4.336  12.674  17.105  1.00  0.00     0.152 A 
HETATM   16  C25 UNL     1       4.749  11.649  16.162  1.00  0.00     0.036 A 
HETATM   17  C26 UNL     1       4.510  11.582  14.728  1.00  0.00     0.182 A 
HETATM   18  C27 UNL     1       6.142  11.197  15.945  1.00  0.00     0.182 A 
HETATM   19  O8  UNL     1       5.859  11.198  14.556  1.00  0.00    -0.389 OA
BRANCH  15  20
HETATM   20  O6  UNL     1       5.339  13.224  17.919  1.00  0.00    -0.300 OA
BRANCH  20  21
HETATM   21  C24 UNL     1       5.123  13.934  19.087  1.00  0.00     0.373 C 
HETATM   22  N2  UNL     1       6.128  14.429  19.923  1.00  0.00    -0.032 NA
HETATM   23  O7  UNL     1       3.917  14.139  19.406  1.00  0.00    -0.242 OA
ENDBRANCH  20  21
ENDBRANCH  15  20
ENDBRANCH  12  14
BRANCH   9  24
HETATM   24  O4  UNL     1       7.384   8.584  19.724  1.00  0.00    -0.376 OA
HETATM   25  C19 UNL     1       7.881   8.668  18.514  1.00  0.00     0.203 C 
ENDBRANCH   9  24
BRANCH   1  26
HETATM   26  N1  UNL     1       7.246   5.916  21.067  1.00  0.00    -0.329 N 
HETATM   27  C6  UNL     1       6.634   4.676  20.753  1.00  0.00     0.221 C 
HETATM   28  O1  UNL     1       5.387   4.612  20.684  1.00  0.00    -0.273 OA
ATOM     29  H1  UNL     1       8.262   5.970  21.146  1.00  0.00     0.168 HD
BRANCH  27  30
HETATM   30  C5  UNL     1       7.360   3.405  20.495  1.00  0.00     0.103 C 
BRANCH  30  31
HETATM   31  C4  UNL     1       7.656   3.299  18.985  1.00  0.00     0.013 C 
BRANCH  31  32
HETATM   32  C3  UNL     1       7.489   1.841  18.629  1.00  0.00     0.027 C 
BRANCH  32  33
HETATM   33  C2  UNL     1       8.710   1.130  18.276  1.00  0.00    -0.037 C 
HETATM   34  C1  UNL     1       9.740   1.555  17.581  1.00  0.00     0.007 C 
ENDBRANCH  32  33
ENDBRANCH  31  32
ENDBRANCH  30  31
ENDBRANCH  27  30
ENDBRANCH   1  26
BRANCH   2  35
HETATM   35  C9  UNL     1       7.897   8.808  22.534  1.00  0.00     0.156 C 
BRANCH  35  36
HETATM   36  O2  UNL     1       9.049   8.385  21.923  1.00  0.00    -0.392 OA
ATOM     37  H2  UNL     1       9.597   9.041  21.509  1.00  0.00     0.210 HD
ENDBRANCH  35  36
BRANCH  35  38
HETATM   38  C10 UNL     1       8.272   8.824  24.047  1.00  0.00     0.009 C 
HETATM   39  C11 UNL     1       7.855   7.588  24.749  1.00  0.00     0.012 C 
HETATM   40  C12 UNL     1       9.755   9.057  24.114  1.00  0.00     0.012 C 
ENDBRANCH  35  38
ENDBRANCH   2  35
TORSDOF 12
ENDMDL
MODEL 3
REMARK VINA RESULT: -7.386645106      2.946      4.939
REMARK  12 active torsions:
REMARK  status: ('A' for Active; 'I' for Inactive)
REMARK    1  A    between atoms: C2_2  and  C3_3 
REMARK    2  A    between atoms: C3_3  and  C4_4 
REMARK    3  A    between atoms: C4_4  and  C5_5 
REMARK    4  A    between atoms: C5_5  and  C6_6 
REMARK       I    between atoms: C6_6  and  N1_8 
REMARK    5  A    between atoms: N1_8  and  C7_10 
REMARK    6  A    between atoms: C8_11  and  C9_12 
REMARK    7  A    between atoms: C9_12  and  O2_13 
REMARK    8  A    between atoms: C9_12  and  C10_15 
REMARK    9  A    between atoms: C18_24  and  O4_25 
REMARK   10  A    between atoms: C21_29  and  C22_30 
REMARK   11  A    between atoms: C23_31  and  O6_32 
REMARK   12  A    between atoms: O6_32  and  C24_33 
ROOT
HETATM    1  C7  UNL     1       4.730   2.846  18.678  1.00  0.00     0.058 C 
HETATM    2  C8  UNL     1       3.758   2.489  19.753  1.00  0.00     0.199 C 
HETATM    3  O3  UNL     1       3.084   3.750  19.827  1.00  0.00    -0.368 OA
HETATM    4  C13 UNL     1       4.071   4.735  19.790  1.00  0.00     0.167 C 
HETATM    5  C14 UNL     1       3.502   5.968  19.237  1.00  0.00     0.019 C 
HETATM    6  C15 UNL     1       3.762   6.102  17.785  1.00  0.00     0.019 C 
HETATM    7  C16 UNL     1       5.267   6.160  17.612  1.00  0.00     0.059 C 
HETATM    8  C17 UNL     1       5.956   4.942  18.076  1.00  0.00     0.059 C 
HETATM    9  C18 UNL     1       5.311   4.136  19.158  1.00  0.00     0.128 C 
HETATM   10  C20 UNL     1       5.686   7.397  18.328  1.00  0.00     0.135 C 
HETATM   11  O5  UNL     1       6.352   8.227  17.731  1.00  0.00    -0.297 OA
HETATM   12  C21 UNL     1       5.301   7.633  19.758  1.00  0.00     0.064 C 
HETATM   13  C28 UNL     1       3.893   7.195  20.037  1.00  0.00     0.020 C 
ENDROOT
BRANCH  12  14
HETATM   14  C22 UNL     1       5.658   9.010  20.142  1.00  0.00     0.043 A 
HETATM   15  C23 UNL     1       5.955   9.450  21.525  1.00  0.00     0.152 A 
HETATM   16  C25 UNL     1       7.021   9.280  20.553  1.00  0.00     0.036 A 
HETATM   17  C26 UNL     1       7.939  10.277  20.025  1.00  0.00     0.182 A 
HETATM   18  C27 UNL     1       8.142   8.320  20.673  1.00  0.00     0.182 A 
HETATM   19  O8  UNL     1       8.991   9.350  20.198  1.00  0.00    -0.389 OA
BRANCH  15  20
HETATM   20  O6  UNL     1       5.961   8.582  22.628  1.00  0.00    -0.300 OA
BRANCH  20  21
HETATM   21  C24 UNL     1       6.510   8.864  23.867  1.00  0.00     0.373 C 
HETATM   22  N2  UNL     1       7.876   9.019  24.124  1.00  0.00    -0.032 NA
HETATM   23  O7  UNL     1       5.698   8.985  24.828  1.00  0.00    -0.242 OA
ENDBRANCH  20  21
ENDBRANCH  15  20
ENDBRANCH  12  14
BRANCH   9  24
HETATM   24  O4  UNL     1       6.179   3.944  20.170  1.00  0.00    -0.376 OA
HETATM   25  C19 UNL     1       7.298   4.571  20.441  1.00  0.00     0.203 C 
ENDBRANCH   9  24
BRANCH   1  26
HETATM   26  N1  UNL     1       5.546   1.883  18.096  1.00  0.00    -0.329 N 
HETATM   27  C6  UNL     1       5.465   1.603  16.709  1.00  0.00     0.221 C 
HETATM   28  O1  UNL     1       4.627   2.216  16.011  1.00  0.00    -0.273 OA
ATOM     29  H1  UNL     1       6.213   1.372  18.675  1.00  0.00     0.168 HD
BRANCH  27  30
HETATM   30  C5  UNL     1       6.307   0.615  15.986  1.00  0.00     0.103 C 
BRANCH  30  31
HETATM   31  C4  UNL     1       7.687   1.246  15.708  1.00  0.00     0.013 C 
BRANCH  31  32
HETATM   32  C3  UNL     1       8.685   0.423  16.487  1.00  0.00     0.027 C 
BRANCH  32  33
HETATM   33  C2  UNL     1       9.321   1.096  17.612  1.00  0.00    -0.037 C 
HETATM   34  C1  UNL     1       9.089   2.295  18.093  1.00  0.00     0.007 C 
ENDBRANCH  32  33
ENDBRANCH  31  32
ENDBRANCH  30  31
ENDBRANCH  27  30
ENDBRANCH   1  26
BRANCH   2  35
HETATM   35  C9  UNL     1       4.167   2.123  21.094  1.00  0.00     0.156 C 
BRANCH  35  36
HETATM   36  O2  UNL     1       5.332   1.415  21.236  1.00  0.00    -0.392 OA
ATOM     37  H2  UNL     1       6.013   1.788  21.784  1.00  0.00     0.210 HD
ENDBRANCH  35  36
BRANCH  35  38
HETATM   38  C10 UNL     1       3.076   1.137  21.612  1.00  0.00     0.009 C 
HETATM   39  C11 UNL     1       2.493   0.315  20.527  1.00  0.00     0.012 C 
HETATM   40  C12 UNL     1       3.728   0.309  22.682  1.00  0.00     0.012 C 
ENDBRANCH  35  38
ENDBRANCH   2  35
TORSDOF 12
ENDMDL
MODEL 4
REMARK VINA RESULT: -7.211076920      1.790      2.672
REMARK  12 active torsions:
REMARK  status: ('A' for Active; 'I' for Inactive)
REMARK    1  A    between atoms: C2_2  and  C3_3 
REMARK    2  A    between atoms: C3_3  and  C4_4 
REMARK    3  A    between atoms: C4_4  and  C5_5 
REMARK    4  A    between atoms: C5_5  and  C6_6 
REMARK       I    between atoms: C6_6  and  N1_8 
REMARK    5  A    between atoms: N1_8  and  C7_10 
REMARK    6  A    between atoms: C8_11  and  C9_12 
REMARK    7  A    between atoms: C9_12  and  O2_13 
REMARK    8  A    between atoms: C9_12  and  C10_15 
REMARK    9  A    between atoms: C18_24  and  O4_25 
REMARK   10  A    between atoms: C21_29  and  C22_30 
REMARK   11  A    between atoms: C23_31  and  O6_32 
REMARK   12  A    between atoms: O6_32  and  C24_33 
ROOT
HETATM    1  C7  UNL     1       5.424   6.013  21.058  1.00  0.00     0.058 C 
HETATM    2  C8  UNL     1       4.374   6.398  22.047  1.00  0.00     0.199 C 
HETATM    3  O3  UNL     1       3.778   7.457  21.290  1.00  0.00    -0.368 OA
HETATM    4  C13 UNL     1       4.826   8.201  20.747  1.00  0.00     0.167 C 
HETATM    5  C14 UNL     1       4.368   8.857  19.518  1.00  0.00     0.019 C 
HETATM    6  C15 UNL     1       4.716   8.078  18.307  1.00  0.00     0.019 C 
HETATM    7  C16 UNL     1       6.228   7.994  18.258  1.00  0.00     0.059 C 
HETATM    8  C17 UNL     1       6.812   7.294  19.418  1.00  0.00     0.059 C 
HETATM    9  C18 UNL     1       6.058   7.320  20.709  1.00  0.00     0.128 C 
HETATM   10  C20 UNL     1       6.686   9.403  18.115  1.00  0.00     0.135 C 
HETATM   11  O5  UNL     1       7.435   9.690  17.195  1.00  0.00    -0.297 OA
HETATM   12  C21 UNL     1       6.239  10.465  19.075  1.00  0.00     0.064 C 
HETATM   13  C28 UNL     1       4.793  10.310  19.445  1.00  0.00     0.020 C 
ENDROOT
BRANCH  12  14
HETATM   14  C22 UNL     1       6.661  11.786  18.579  1.00  0.00     0.043 A 
HETATM   15  C23 UNL     1       5.899  13.042  18.770  1.00  0.00     0.152 A 
HETATM   16  C25 UNL     1       7.100  12.776  19.542  1.00  0.00     0.036 A 
HETATM   17  C26 UNL     1       8.352  13.517  19.562  1.00  0.00     0.182 A 
HETATM   18  C27 UNL     1       7.158  12.649  21.016  1.00  0.00     0.182 A 
HETATM   19  O8  UNL     1       8.350  13.416  20.972  1.00  0.00    -0.389 OA
BRANCH  15  20
HETATM   20  O6  UNL     1       4.693  13.114  19.483  1.00  0.00    -0.300 OA
BRANCH  20  21
HETATM   21  C24 UNL     1       3.515  13.668  19.012  1.00  0.00     0.373 C 
HETATM   22  N2  UNL     1       2.230  13.267  19.393  1.00  0.00    -0.032 NA
HETATM   23  O7  UNL     1       3.630  14.606  18.173  1.00  0.00    -0.242 OA
ENDBRANCH  20  21
ENDBRANCH  15  20
ENDBRANCH  12  14
BRANCH   9  24
HETATM   24  O4  UNL     1       6.856   7.766  21.699  1.00  0.00    -0.376 OA
HETATM   25  C19 UNL     1       8.012   8.380  21.628  1.00  0.00     0.203 C 
ENDBRANCH   9  24
BRANCH   1  26
HETATM   26  N1  UNL     1       6.208   4.881  21.244  1.00  0.00    -0.329 N 
HETATM   27  C6  UNL     1       5.922   3.678  20.553  1.00  0.00     0.221 C 
HETATM   28  O1  UNL     1       4.934   3.634  19.786  1.00  0.00    -0.273 OA
ATOM     29  H1  UNL     1       7.000   4.918  21.886  1.00  0.00     0.168 HD
BRANCH  27  30
HETATM   30  C5  UNL     1       6.710   2.422  20.660  1.00  0.00     0.103 C 
BRANCH  30  31
HETATM   31  C4  UNL     1       6.984   1.883  19.241  1.00  0.00     0.013 C 
BRANCH  31  32
HETATM   32  C3  UNL     1       8.085   2.746  18.673  1.00  0.00     0.027 C 
BRANCH  32  33
HETATM   33  C2  UNL     1       9.121   2.044  17.928  1.00  0.00    -0.037 C 
HETATM   34  C1  UNL     1       9.444   0.772  17.964  1.00  0.00     0.007 C 
ENDBRANCH  32  33
ENDBRANCH  31  32
ENDBRANCH  30  31
ENDBRANCH  27  30
ENDBRANCH   1  26
BRANCH   2  35
HETATM   35  C9  UNL     1       4.685   6.913  23.365  1.00  0.00     0.156 C 
BRANCH  35  36
HETATM   36  O2  UNL     1       5.319   6.075  24.245  1.00  0.00    -0.392 OA
ATOM     37  H2  UNL     1       5.966   6.453  24.828  1.00  0.00     0.210 HD
ENDBRANCH  35  36
BRANCH  35  38
HETATM   38  C10 UNL     1       3.309   7.183  24.046  1.00  0.00     0.009 C 
HETATM   39  C11 UNL     1       2.516   5.946  24.235  1.00  0.00     0.012 C 
HETATM   40  C12 UNL     1       3.607   7.885  25.340  1.00  0.00     0.012 C 
ENDBRANCH  35  38
ENDBRANCH   2  35
TORSDOF 12
ENDMDL
MODEL 5
REMARK VINA RESULT: -7.076928670      2.977      7.639
REMARK  12 active torsions:
REMARK  status: ('A' for Active; 'I' for Inactive)
REMARK    1  A    between atoms: C2_2  and  C3_3 
REMARK    2  A    between atoms: C3_3  and  C4_4 
REMARK    3  A    between atoms: C4_4  and  C5_5 
REMARK    4  A    between atoms: C5_5  and  C6_6 
REMARK       I    between atoms: C6_6  and  N1_8 
REMARK    5  A    between atoms: N1_8  and  C7_10 
REMARK    6  A    between atoms: C8_11  and  C9_12 
REMARK    7  A    between atoms: C9_12  and  O2_13 
REMARK    8  A    between atoms: C9_12  and  C10_15 
REMARK    9  A    between atoms: C18_24  and  O4_25 
REMARK   10  A    between atoms: C21_29  and  C22_30 
REMARK   11  A    between atoms: C23_31  and  O6_32 
REMARK   12  A    between atoms: O6_32  and  C24_33 
ROOT
HETATM    1  C7  UNL     1       7.141   8.938  21.672  1.00  0.00     0.058 C 
HETATM    2  C8  UNL     1       8.122   8.216  22.534  1.00  0.00     0.199 C 
HETATM    3  O3  UNL     1       8.014   6.931  21.913  1.00  0.00    -0.368 OA
HETATM    4  C13 UNL     1       6.655   6.701  21.701  1.00  0.00     0.167 C 
HETATM    5  C14 UNL     1       6.490   5.787  20.566  1.00  0.00     0.019 C 
HETATM    6  C15 UNL     1       6.240   6.511  19.298  1.00  0.00     0.019 C 
HETATM    7  C16 UNL     1       4.943   7.275  19.477  1.00  0.00     0.059 C 
HETATM    8  C17 UNL     1       5.001   8.278  20.556  1.00  0.00     0.059 C 
HETATM    9  C18 UNL     1       5.946   8.040  21.690  1.00  0.00     0.128 C 
HETATM   10  C20 UNL     1       3.907   6.226  19.686  1.00  0.00     0.135 C 
HETATM   11  O5  UNL     1       2.917   6.224  18.973  1.00  0.00    -0.297 OA
HETATM   12  C21 UNL     1       4.065   5.182  20.751  1.00  0.00     0.064 C 
HETATM   13  C28 UNL     1       5.480   4.692  20.846  1.00  0.00     0.020 C 
ENDROOT
BRANCH  12  14
HETATM   14  C22 UNL     1       3.016   4.159  20.596  1.00  0.00     0.043 A 
HETATM   15  C23 UNL     1       2.688   3.127  21.607  1.00  0.00     0.152 A 
HETATM   16  C25 UNL     1       1.818   4.273  21.403  1.00  0.00     0.036 A 
HETATM   17  C26 UNL     1       0.433   4.296  20.958  1.00  0.00     0.182 A 
HETATM   18  C27 UNL     1       1.502   5.299  22.423  1.00  0.00     0.182 A 
HETATM   19  O8  UNL     1       0.159   5.240  21.973  1.00  0.00    -0.389 OA
BRANCH  15  20
HETATM   20  O6  UNL     1       3.327   3.034  22.853  1.00  0.00    -0.300 OA
BRANCH  20  21
HETATM   21  C24 UNL     1       2.889   2.276  23.924  1.00  0.00     0.373 C 
HETATM   22  N2  UNL     1       2.884   0.878  23.971  1.00  0.00    -0.032 NA
HETATM   23  O7  UNL     1       2.464   2.914  24.929  1.00  0.00    -0.242 OA
ENDBRANCH  20  21
ENDBRANCH  15  20
ENDBRANCH  12  14
BRANCH   9  24
HETATM   24  O4  UNL     1       5.288   8.114  22.863  1.00  0.00    -0.376 OA
HETATM   25  C19 UNL     1       4.008   7.974  23.113  1.00  0.00     0.203 C 
ENDBRANCH   9  24
BRANCH   1  26
HETATM   26  N1  UNL     1       6.983  10.315  21.757  1.00  0.00    -0.329 N 
HETATM   27  C6  UNL     1       7.657  11.181  20.858  1.00  0.00     0.221 C 
HETATM   28  O1  UNL     1       8.421  10.692  19.997  1.00  0.00    -0.273 OA
ATOM     29  H1  UNL     1       6.375  10.709  22.475  1.00  0.00     0.168 HD
BRANCH  27  30
HETATM   30  C5  UNL     1       7.537  12.662  20.847  1.00  0.00     0.103 C 
BRANCH  30  31
HETATM   31  C4  UNL     1       7.459  13.145  19.385  1.00  0.00     0.013 C 
BRANCH  31  32
HETATM   32  C3  UNL     1       5.998  13.099  19.008  1.00  0.00     0.027 C 
BRANCH  32  33
HETATM   33  C2  UNL     1       5.679  12.355  17.797  1.00  0.00    -0.037 C 
HETATM   34  C1  UNL     1       6.332  11.357  17.246  1.00  0.00     0.007 C 
ENDBRANCH  32  33
ENDBRANCH  31  32
ENDBRANCH  30  31
ENDBRANCH  27  30
ENDBRANCH   1  26
BRANCH   2  35
HETATM   35  C9  UNL     1       7.934   8.038  23.960  1.00  0.00     0.156 C 
BRANCH  35  36
HETATM   36  O2  UNL     1       7.271   9.022  24.645  1.00  0.00    -0.392 OA
ATOM     37  H2  UNL     1       7.000   8.837  25.536  1.00  0.00     0.210 HD
ENDBRANCH  35  36
BRANCH  35  38
HETATM   38  C10 UNL     1       9.365   8.066  24.579  1.00  0.00     0.009 C 
HETATM   39  C11 UNL     1      10.102   9.308  24.250  1.00  0.00     0.012 C 
HETATM   40  C12 UNL     1       9.191   7.868  26.057  1.00  0.00     0.012 C 
ENDBRANCH  35  38
ENDBRANCH   2  35
TORSDOF 12
ENDMDL
