MODEL 1
REMARK VINA RESULT: -9.820429660      0.000      0.000
REMARK  15 active torsions:
REMARK  status: ('A' for Active; 'I' for Inactive)
REMARK    1  A    between atoms: C2_2  and  O2_4 
REMARK    2  A    between atoms: O2_4  and  C3_5 
REMARK    3  A    between atoms: C3_5  and  C5_7 
REMARK    4  A    between atoms: C5_7  and  C6_8 
REMARK    5  A    between atoms: C6_8  and  C7_9 
REMARK       I    between atoms: N1_15  and  C12_17 
REMARK    6  A    between atoms: C12_17  and  C13_19 
REMARK    7  A    between atoms: C14_20  and  C15_21 
REMARK       I    between atoms: C15_21  and  N2_23 
REMARK    8  A    between atoms: N2_23  and  C16_25 
REMARK    9  A    between atoms: C16_25  and  C17_26 
REMARK   10  A    between atoms: C16_25  and  C21_30 
REMARK   11  A    between atoms: C17_26  and  C18_27 
REMARK       I    between atoms: C21_30  and  N3_32 
REMARK   12  A    between atoms: N3_32  and  C22_34 
REMARK   13  A    between atoms: C26_38  and  C27_39 
REMARK   14  A    between atoms: C32_46  and  C33_47 
REMARK   15  A    between atoms: C33_47  and  O9_50 
ROOT
HETATM    1  C13 UNL     1      12.489  23.849   6.485  1.00  0.00     0.133 C 
HETATM    2  C14 UNL     1      12.207  22.744   7.501  1.00  0.00     0.237 C 
HETATM    3  O7  UNL     1      11.584  21.718   6.749  1.00  0.00    -0.305 OA
HETATM    4  C31 UNL     1      11.248  22.113   5.494  1.00  0.00     0.267 C 
HETATM    5  O8  UNL     1      10.711  21.453   4.572  1.00  0.00    -0.265 OA
HETATM    6  C32 UNL     1      11.622  23.559   5.316  1.00  0.00     0.135 C 
ENDROOT
BRANCH   2   7
HETATM    7  C15 UNL     1      13.411  22.265   8.195  1.00  0.00     0.252 C 
HETATM    8  O5  UNL     1      13.499  22.449   9.425  1.00  0.00    -0.270 OA
HETATM    9  N2  UNL     1      14.478  21.597   7.524  1.00  0.00    -0.324 N 
ATOM     10  H2  UNL     1      14.420  21.452   6.516  1.00  0.00     0.169 HD
BRANCH   9  11
HETATM   11  C16 UNL     1      15.617  21.132   8.230  1.00  0.00     0.080 C 
BRANCH  11  12
HETATM   12  C17 UNL     1      15.438  20.434   9.511  1.00  0.00     0.067 C 
BRANCH  12  13
HETATM   13  C18 UNL     1      16.526  19.465   9.846  1.00  0.00    -0.017 C 
HETATM   14  C19 UNL     1      15.928  18.171  10.432  1.00  0.00     0.010 C 
HETATM   15  C20 UNL     1      17.560  19.942  10.825  1.00  0.00     0.010 C 
ENDBRANCH  12  13
ENDBRANCH  11  12
BRANCH  11  16
HETATM   16  C21 UNL     1      16.707  20.662   7.340  1.00  0.00     0.264 C 
HETATM   17  O6  UNL     1      17.858  21.167   7.517  1.00  0.00    -0.266 OA
HETATM   18  N3  UNL     1      16.588  19.705   6.315  1.00  0.00    -0.351 N 
ATOM     19  H3  UNL     1      15.666  19.301   6.146  1.00  0.00     0.163 HD
BRANCH  18  20
HETATM   20  C22 UNL     1      17.674  19.260   5.494  1.00  0.00     0.089 C 
HETATM   21  C23 UNL     1      18.221  17.919   5.885  1.00  0.00     0.026 C 
HETATM   22  C24 UNL     1      18.854  17.343   4.636  1.00  0.00     0.002 C 
HETATM   23  C25 UNL     1      18.568  18.328   3.539  1.00  0.00     0.007 C 
HETATM   24  C26 UNL     1      17.462  19.231   4.028  1.00  0.00     0.016 C 
BRANCH  24  25
HETATM   25  C27 UNL     1      16.175  18.830   3.468  1.00  0.00    -0.046 C 
HETATM   26  C28 UNL     1      15.473  17.684   4.082  1.00  0.00     0.015 C 
HETATM   27  C29 UNL     1      16.461  18.403   2.004  1.00  0.00     0.015 C 
HETATM   28  C30 UNL     1      15.183  19.980   3.286  1.00  0.00     0.015 C 
ENDBRANCH  24  25
ENDBRANCH  18  20
ENDBRANCH  11  16
ENDBRANCH   9  11
ENDBRANCH   2   7
BRANCH   1  29
HETATM   29  C12 UNL     1      12.048  25.124   7.123  1.00  0.00     0.230 C 
HETATM   30  N1  UNL     1      11.080  26.009   6.669  1.00  0.00    -0.331 N 
HETATM   31  C5  UNL     1       9.917  26.185   7.180  1.00  0.00     0.019 C 
ATOM     32  H1  UNL     1      11.317  26.572   5.852  1.00  0.00     0.168 HD
HETATM   33  O4  UNL     1      12.662  25.419   8.226  1.00  0.00    -0.273 OA
BRANCH  31  34
HETATM   34  C3  UNL     1       9.510  25.384   8.370  1.00  0.00     0.173 C 
HETATM   35  C4  UNL     1       8.059  25.028   8.429  1.00  0.00     0.046 C 
BRANCH  34  36
HETATM   36  O2  UNL     1       9.897  26.086   9.562  1.00  0.00    -0.311 OA
BRANCH  36  37
HETATM   37  C2  UNL     1      10.055  27.449   9.631  1.00  0.00     0.255 C 
HETATM   38  C1  UNL     1       8.884  28.324   9.968  1.00  0.00     0.126 C 
HETATM   39  O1  UNL     1      11.190  27.920   9.407  1.00  0.00    -0.266 OA
ENDBRANCH  36  37
ENDBRANCH  34  36
ENDBRANCH  31  34
BRANCH  31  40
HETATM   40  C6  UNL     1       9.051  27.227   6.587  1.00  0.00     0.062 C 
BRANCH  40  41
HETATM   41  C7  UNL     1       8.863  27.112   5.136  1.00  0.00     0.022 C 
HETATM   42  C8  UNL     1       8.544  25.638   4.734  1.00  0.00     0.010 C 
HETATM   43  C9  UNL     1       7.152  25.698   4.117  1.00  0.00     0.035 C 
HETATM   44  C10 UNL     1       6.640  26.855   4.918  1.00  0.00     0.151 A 
HETATM   45  O3  UNL     1       6.533  28.137   4.726  1.00  0.00    -0.375 OA
HETATM   46  C11 UNL     1       7.768  27.796   4.471  1.00  0.00     0.155 A 
ENDBRANCH  40  41
ENDBRANCH  31  40
ENDBRANCH   1  29
BRANCH   6  47
HETATM   47  C33 UNL     1      12.114  23.807   3.960  1.00  0.00     0.064 C 
HETATM   48  C34 UNL     1      13.099  22.803   3.415  1.00  0.00     0.046 C 
HETATM   49  C35 UNL     1      11.050  23.979   2.903  1.00  0.00     0.046 C 
BRANCH  47  50
HETATM   50  O9  UNL     1      12.826  25.034   3.990  1.00  0.00    -0.390 OA
ATOM     51  H9  UNL     1      13.745  24.828   3.862  1.00  0.00     0.210 HD
ENDBRANCH  47  50
ENDBRANCH   6  47
TORSDOF 15
ENDMDL
MODEL 2
REMARK VINA RESULT: -9.386137992      1.889      2.940
REMARK  15 active torsions:
REMARK  status: ('A' for Active; 'I' for Inactive)
REMARK    1  A    between atoms: C2_2  and  O2_4 
REMARK    2  A    between atoms: O2_4  and  C3_5 
REMARK    3  A    between atoms: C3_5  and  C5_7 
REMARK    4  A    between atoms: C5_7  and  C6_8 
REMARK    5  A    between atoms: C6_8  and  C7_9 
REMARK       I    between atoms: N1_15  and  C12_17 
REMARK    6  A    between atoms: C12_17  and  C13_19 
REMARK    7  A    between atoms: C14_20  and  C15_21 
REMARK       I    between atoms: C15_21  and  N2_23 
REMARK    8  A    between atoms: N2_23  and  C16_25 
REMARK    9  A    between atoms: C16_25  and  C17_26 
REMARK   10  A    between atoms: C16_25  and  C21_30 
REMARK   11  A    between atoms: C17_26  and  C18_27 
REMARK       I    between atoms: C21_30  and  N3_32 
REMARK   12  A    between atoms: N3_32  and  C22_34 
REMARK   13  A    between atoms: C26_38  and  C27_39 
REMARK   14  A    between atoms: C32_46  and  C33_47 
REMARK   15  A    between atoms: C33_47  and  O9_50 
ROOT
HETATM    1  C13 UNL     1      11.268  24.523   4.370  1.00  0.00     0.133 C 
HETATM    2  C14 UNL     1      11.531  23.357   5.319  1.00  0.00     0.237 C 
HETATM    3  O7  UNL     1      10.685  22.320   4.855  1.00  0.00    -0.305 OA
HETATM    4  C31 UNL     1       9.797  22.743   3.918  1.00  0.00     0.267 C 
HETATM    5  O8  UNL     1       8.933  22.084   3.291  1.00  0.00    -0.265 OA
HETATM    6  C32 UNL     1       9.979  24.220   3.698  1.00  0.00     0.135 C 
ENDROOT
BRANCH   2   7
HETATM    7  C15 UNL     1      12.942  22.941   5.359  1.00  0.00     0.252 C 
HETATM    8  O5  UNL     1      13.799  23.706   4.876  1.00  0.00    -0.270 OA
HETATM    9  N2  UNL     1      13.368  21.705   5.928  1.00  0.00    -0.324 N 
ATOM     10  H2  UNL     1      12.673  21.067   6.316  1.00  0.00     0.169 HD
BRANCH   9  11
HETATM   11  C16 UNL     1      14.740  21.345   5.966  1.00  0.00     0.080 C 
BRANCH  11  12
HETATM   12  C17 UNL     1      15.394  21.127   7.264  1.00  0.00     0.067 C 
BRANCH  12  13
HETATM   13  C18 UNL     1      15.082  22.162   8.297  1.00  0.00    -0.017 C 
HETATM   14  C19 UNL     1      16.302  23.076   8.523  1.00  0.00     0.010 C 
HETATM   15  C20 UNL     1      14.673  21.648   9.648  1.00  0.00     0.010 C 
ENDBRANCH  12  13
ENDBRANCH  11  12
BRANCH  11  16
HETATM   16  C21 UNL     1      15.149  20.474   4.837  1.00  0.00     0.264 C 
HETATM   17  O6  UNL     1      15.262  21.019   3.697  1.00  0.00    -0.266 OA
HETATM   18  N3  UNL     1      15.426  19.096   4.910  1.00  0.00    -0.351 N 
ATOM     19  H3  UNL     1      15.322  18.637   5.815  1.00  0.00     0.163 HD
BRANCH  18  20
HETATM   20  C22 UNL     1      15.845  18.295   3.798  1.00  0.00     0.089 C 
HETATM   21  C23 UNL     1      16.149  19.086   2.560  1.00  0.00     0.026 C 
HETATM   22  C24 UNL     1      17.123  18.250   1.757  1.00  0.00     0.002 C 
HETATM   23  C25 UNL     1      17.425  17.046   2.602  1.00  0.00     0.007 C 
HETATM   24  C26 UNL     1      16.977  17.364   4.008  1.00  0.00     0.016 C 
BRANCH  24  25
HETATM   25  C27 UNL     1      18.112  17.747   4.843  1.00  0.00    -0.046 C 
HETATM   26  C28 UNL     1      18.493  19.174   4.894  1.00  0.00     0.015 C 
HETATM   27  C29 UNL     1      19.344  17.012   4.252  1.00  0.00     0.015 C 
HETATM   28  C30 UNL     1      18.056  17.196   6.269  1.00  0.00     0.015 C 
ENDBRANCH  24  25
ENDBRANCH  18  20
ENDBRANCH  11  16
ENDBRANCH   9  11
ENDBRANCH   2   7
BRANCH   1  29
HETATM   29  C12 UNL     1      11.104  25.732   5.230  1.00  0.00     0.230 C 
HETATM   30  N1  UNL     1       9.960  26.498   5.406  1.00  0.00    -0.331 N 
HETATM   31  C5  UNL     1       9.225  26.530   6.457  1.00  0.00     0.019 C 
ATOM     32  H1  UNL     1       9.678  27.092   4.626  1.00  0.00     0.168 HD
HETATM   33  O4  UNL     1      12.171  26.088   5.873  1.00  0.00    -0.273 OA
BRANCH  31  34
HETATM   34  C3  UNL     1       9.581  25.678   7.627  1.00  0.00     0.173 C 
HETATM   35  C4  UNL     1       9.022  24.291   7.595  1.00  0.00     0.046 C 
BRANCH  34  36
HETATM   36  O2  UNL     1       9.181  26.346   8.834  1.00  0.00    -0.311 OA
BRANCH  36  37
HETATM   37  C2  UNL     1       9.890  27.371   9.412  1.00  0.00     0.255 C 
HETATM   38  C1  UNL     1       9.164  28.506  10.072  1.00  0.00     0.126 C 
HETATM   39  O1  UNL     1      11.137  27.320   9.368  1.00  0.00    -0.266 OA
ENDBRANCH  36  37
ENDBRANCH  34  36
ENDBRANCH  31  34
BRANCH  31  40
HETATM   40  C6  UNL     1       8.080  27.466   6.473  1.00  0.00     0.062 C 
BRANCH  40  41
HETATM   41  C7  UNL     1       6.764  26.820   6.542  1.00  0.00     0.022 C 
HETATM   42  C8  UNL     1       5.932  27.384   7.736  1.00  0.00     0.010 C 
HETATM   43  C9  UNL     1       4.711  28.024   7.087  1.00  0.00     0.035 C 
HETATM   44  C10 UNL     1       5.363  28.413   5.797  1.00  0.00     0.151 A 
HETATM   45  O3  UNL     1       5.441  27.893   4.607  1.00  0.00    -0.375 OA
HETATM   46  C11 UNL     1       5.800  26.978   5.467  1.00  0.00     0.155 A 
ENDBRANCH  40  41
ENDBRANCH  31  40
ENDBRANCH   1  29
BRANCH   6  47
HETATM   47  C33 UNL     1       9.789  24.564   2.288  1.00  0.00     0.064 C 
HETATM   48  C34 UNL     1       8.648  25.501   1.980  1.00  0.00     0.046 C 
HETATM   49  C35 UNL     1      11.003  25.122   1.585  1.00  0.00     0.046 C 
BRANCH  47  50
HETATM   50  O9  UNL     1       9.468  23.364   1.604  1.00  0.00    -0.390 OA
ATOM     51  H9  UNL     1       9.057  23.610   0.784  1.00  0.00     0.210 HD
ENDBRANCH  47  50
ENDBRANCH   6  47
TORSDOF 15
ENDMDL
MODEL 3
REMARK VINA RESULT: -9.098155840      2.482     10.182
REMARK  15 active torsions:
REMARK  status: ('A' for Active; 'I' for Inactive)
REMARK    1  A    between atoms: C2_2  and  O2_4 
REMARK    2  A    between atoms: O2_4  and  C3_5 
REMARK    3  A    between atoms: C3_5  and  C5_7 
REMARK    4  A    between atoms: C5_7  and  C6_8 
REMARK    5  A    between atoms: C6_8  and  C7_9 
REMARK       I    between atoms: N1_15  and  C12_17 
REMARK    6  A    between atoms: C12_17  and  C13_19 
REMARK    7  A    between atoms: C14_20  and  C15_21 
REMARK       I    between atoms: C15_21  and  N2_23 
REMARK    8  A    between atoms: N2_23  and  C16_25 
REMARK    9  A    between atoms: C16_25  and  C17_26 
REMARK   10  A    between atoms: C16_25  and  C21_30 
REMARK   11  A    between atoms: C17_26  and  C18_27 
REMARK       I    between atoms: C21_30  and  N3_32 
REMARK   12  A    between atoms: N3_32  and  C22_34 
REMARK   13  A    between atoms: C26_38  and  C27_39 
REMARK   14  A    between atoms: C32_46  and  C33_47 
REMARK   15  A    between atoms: C33_47  and  O9_50 
ROOT
HETATM    1  C13 UNL     1      10.553  23.655   5.314  1.00  0.00     0.133 C 
HETATM    2  C14 UNL     1      11.272  24.899   5.830  1.00  0.00     0.237 C 
HETATM    3  O7  UNL     1      11.528  25.672   4.671  1.00  0.00    -0.305 OA
HETATM    4  C31 UNL     1      11.275  24.996   3.520  1.00  0.00     0.267 C 
HETATM    5  O8  UNL     1      11.370  25.390   2.333  1.00  0.00    -0.265 OA
HETATM    6  C32 UNL     1      10.829  23.599   3.856  1.00  0.00     0.135 C 
ENDROOT
BRANCH   2   7
HETATM    7  C15 UNL     1      10.501  25.648   6.833  1.00  0.00     0.252 C 
HETATM    8  O5  UNL     1      10.952  25.722   7.993  1.00  0.00    -0.270 OA
HETATM    9  N2  UNL     1       9.266  26.295   6.536  1.00  0.00    -0.324 N 
ATOM     10  H2  UNL     1       8.883  26.231   5.592  1.00  0.00     0.169 HD
BRANCH   9  11
HETATM   11  C16 UNL     1       8.558  27.025   7.524  1.00  0.00     0.080 C 
BRANCH  11  12
HETATM   12  C17 UNL     1       8.836  28.457   7.702  1.00  0.00     0.067 C 
BRANCH  12  13
HETATM   13  C18 UNL     1       8.763  28.931   9.119  1.00  0.00    -0.017 C 
HETATM   14  C19 UNL     1       9.440  27.914  10.058  1.00  0.00     0.010 C 
HETATM   15  C20 UNL     1       7.386  29.172   9.667  1.00  0.00     0.010 C 
ENDBRANCH  12  13
ENDBRANCH  11  12
BRANCH  11  16
HETATM   16  C21 UNL     1       7.156  26.572   7.696  1.00  0.00     0.264 C 
HETATM   17  O6  UNL     1       6.944  25.652   8.546  1.00  0.00    -0.266 OA
HETATM   18  N3  UNL     1       6.033  27.066   7.008  1.00  0.00    -0.351 N 
ATOM     19  H3  UNL     1       6.186  27.793   6.308  1.00  0.00     0.163 HD
BRANCH  18  20
HETATM   20  C22 UNL     1       4.689  26.619   7.224  1.00  0.00     0.089 C 
HETATM   21  C23 UNL     1       3.809  27.635   7.887  1.00  0.00     0.026 C 
HETATM   22  C24 UNL     1       2.391  27.294   7.480  1.00  0.00     0.002 C 
HETATM   23  C25 UNL     1       2.506  26.148   6.516  1.00  0.00     0.007 C 
HETATM   24  C26 UNL     1       3.943  26.094   6.057  1.00  0.00     0.016 C 
BRANCH  24  25
HETATM   25  C27 UNL     1       4.092  26.705   4.739  1.00  0.00    -0.046 C 
HETATM   26  C28 UNL     1       4.102  28.180   4.650  1.00  0.00     0.015 C 
HETATM   27  C29 UNL     1       2.861  26.248   3.915  1.00  0.00     0.015 C 
HETATM   28  C30 UNL     1       5.259  26.150   3.919  1.00  0.00     0.015 C 
ENDBRANCH  24  25
ENDBRANCH  18  20
ENDBRANCH  11  16
ENDBRANCH   9  11
ENDBRANCH   2   7
BRANCH   1  29
HETATM   29  C12 UNL     1      11.200  22.490   5.984  1.00  0.00     0.230 C 
HETATM   30  N1  UNL     1      12.025  21.532   5.411  1.00  0.00    -0.331 N 
HETATM   31  C5  UNL     1      13.291  21.423   5.584  1.00  0.00     0.019 C 
ATOM     32  H1  UNL     1      11.582  20.851   4.795  1.00  0.00     0.168 HD
HETATM   33  O4  UNL     1      10.940  22.380   7.250  1.00  0.00    -0.273 OA
BRANCH  31  34
HETATM   34  C3  UNL     1      13.997  22.394   6.469  1.00  0.00     0.173 C 
HETATM   35  C4  UNL     1      14.772  23.455   5.754  1.00  0.00     0.046 C 
BRANCH  34  36
HETATM   36  O2  UNL     1      14.854  21.674   7.368  1.00  0.00    -0.311 OA
BRANCH  36  37
HETATM   37  C2  UNL     1      14.549  21.428   8.685  1.00  0.00     0.255 C 
HETATM   38  C1  UNL     1      15.347  20.426   9.465  1.00  0.00     0.126 C 
HETATM   39  O1  UNL     1      13.600  22.060   9.195  1.00  0.00    -0.266 OA
ENDBRANCH  36  37
ENDBRANCH  34  36
ENDBRANCH  31  34
BRANCH  31  40
HETATM   40  C6  UNL     1      13.984  20.290   4.934  1.00  0.00     0.062 C 
BRANCH  40  41
HETATM   41  C7  UNL     1      15.176  20.664   4.164  1.00  0.00     0.022 C 
HETATM   42  C8  UNL     1      16.477  20.257   4.924  1.00  0.00     0.010 C 
HETATM   43  C9  UNL     1      17.162  19.253   4.005  1.00  0.00     0.035 C 
HETATM   44  C10 UNL     1      15.924  18.696   3.375  1.00  0.00     0.151 A 
HETATM   45  O3  UNL     1      15.270  18.915   2.273  1.00  0.00    -0.375 OA
HETATM   46  C11 UNL     1      15.443  20.063   2.868  1.00  0.00     0.155 A 
ENDBRANCH  40  41
ENDBRANCH  31  40
ENDBRANCH   1  29
BRANCH   6  47
HETATM   47  C33 UNL     1       9.791  23.146   2.930  1.00  0.00     0.064 C 
HETATM   48  C34 UNL     1       9.747  21.665   2.651  1.00  0.00     0.046 C 
HETATM   49  C35 UNL     1       8.381  23.557   3.282  1.00  0.00     0.046 C 
BRANCH  47  50
HETATM   50  O9  UNL     1      10.061  23.744   1.672  1.00  0.00    -0.390 OA
ATOM     51  H9  UNL     1      10.045  23.051   1.023  1.00  0.00     0.210 HD
ENDBRANCH  47  50
ENDBRANCH   6  47
TORSDOF 15
ENDMDL
MODEL 4
REMARK VINA RESULT: -9.048383528      3.128      6.800
REMARK  15 active torsions:
REMARK  status: ('A' for Active; 'I' for Inactive)
REMARK    1  A    between atoms: C2_2  and  O2_4 
REMARK    2  A    between atoms: O2_4  and  C3_5 
REMARK    3  A    between atoms: C3_5  and  C5_7 
REMARK    4  A    between atoms: C5_7  and  C6_8 
REMARK    5  A    between atoms: C6_8  and  C7_9 
REMARK       I    between atoms: N1_15  and  C12_17 
REMARK    6  A    between atoms: C12_17  and  C13_19 
REMARK    7  A    between atoms: C14_20  and  C15_21 
REMARK       I    between atoms: C15_21  and  N2_23 
REMARK    8  A    between atoms: N2_23  and  C16_25 
REMARK    9  A    between atoms: C16_25  and  C17_26 
REMARK   10  A    between atoms: C16_25  and  C21_30 
REMARK   11  A    between atoms: C17_26  and  C18_27 
REMARK       I    between atoms: C21_30  and  N3_32 
REMARK   12  A    between atoms: N3_32  and  C22_34 
REMARK   13  A    between atoms: C26_38  and  C27_39 
REMARK   14  A    between atoms: C32_46  and  C33_47 
REMARK   15  A    between atoms: C33_47  and  O9_50 
ROOT
HETATM    1  C13 UNL     1       9.064  26.378   6.295  1.00  0.00     0.133 C 
HETATM    2  C14 UNL     1      10.203  26.405   5.279  1.00  0.00     0.237 C 
HETATM    3  O7  UNL     1      11.379  26.268   6.056  1.00  0.00    -0.305 OA
HETATM    4  C31 UNL     1      11.146  26.383   7.390  1.00  0.00     0.267 C 
HETATM    5  O8  UNL     1      11.953  26.289   8.346  1.00  0.00    -0.265 OA
HETATM    6  C32 UNL     1       9.685  26.662   7.613  1.00  0.00     0.135 C 
ENDROOT
BRANCH   2   7
HETATM    7  C15 UNL     1      10.097  25.358   4.251  1.00  0.00     0.252 C 
HETATM    8  O5  UNL     1      10.933  25.348   3.327  1.00  0.00    -0.270 OA
HETATM    9  N2  UNL     1       9.083  24.355   4.270  1.00  0.00    -0.324 N 
ATOM     10  H2  UNL     1       8.388  24.362   5.016  1.00  0.00     0.169 HD
BRANCH   9  11
HETATM   11  C16 UNL     1       9.022  23.350   3.271  1.00  0.00     0.080 C 
BRANCH  11  12
HETATM   12  C17 UNL     1       8.577  23.703   1.916  1.00  0.00     0.067 C 
BRANCH  12  13
HETATM   13  C18 UNL     1       7.598  24.831   1.860  1.00  0.00    -0.017 C 
HETATM   14  C19 UNL     1       6.357  24.423   1.042  1.00  0.00     0.010 C 
HETATM   15  C20 UNL     1       8.100  26.116   1.267  1.00  0.00     0.010 C 
ENDBRANCH  12  13
ENDBRANCH  11  12
BRANCH  11  16
HETATM   16  C21 UNL     1      10.095  22.333   3.397  1.00  0.00     0.264 C 
HETATM   17  O6  UNL     1       9.863  21.183   2.914  1.00  0.00    -0.266 OA
HETATM   18  N3  UNL     1      11.352  22.523   4.001  1.00  0.00    -0.351 N 
ATOM     19  H3  UNL     1      11.550  23.435   4.412  1.00  0.00     0.163 HD
BRANCH  18  20
HETATM   20  C22 UNL     1      12.372  21.520   4.079  1.00  0.00     0.089 C 
HETATM   21  C23 UNL     1      13.539  21.769   3.170  1.00  0.00     0.026 C 
HETATM   22  C24 UNL     1      14.718  21.051   3.793  1.00  0.00     0.002 C 
HETATM   23  C25 UNL     1      14.217  20.491   5.093  1.00  0.00     0.007 C 
HETATM   24  C26 UNL     1      12.924  21.201   5.416  1.00  0.00     0.016 C 
BRANCH  24  25
HETATM   25  C27 UNL     1      13.140  22.253   6.405  1.00  0.00    -0.046 C 
HETATM   26  C28 UNL     1      13.765  23.514   5.957  1.00  0.00     0.015 C 
HETATM   27  C29 UNL     1      14.113  21.658   7.455  1.00  0.00     0.015 C 
HETATM   28  C30 UNL     1      11.908  22.582   7.250  1.00  0.00     0.015 C 
ENDBRANCH  24  25
ENDBRANCH  18  20
ENDBRANCH  11  16
ENDBRANCH   9  11
ENDBRANCH   2   7
BRANCH   1  29
HETATM   29  C12 UNL     1       8.151  27.499   5.928  1.00  0.00     0.230 C 
HETATM   30  N1  UNL     1       7.009  27.440   5.141  1.00  0.00    -0.331 N 
HETATM   31  C5  UNL     1       5.798  27.538   5.555  1.00  0.00     0.019 C 
ATOM     32  H1  UNL     1       7.145  27.307   4.139  1.00  0.00     0.168 HD
HETATM   33  O4  UNL     1       8.489  28.655   6.409  1.00  0.00    -0.273 OA
BRANCH  31  34
HETATM   34  C3  UNL     1       5.535  27.726   7.010  1.00  0.00     0.173 C 
HETATM   35  C4  UNL     1       4.300  27.054   7.523  1.00  0.00     0.046 C 
BRANCH  34  36
HETATM   36  O2  UNL     1       5.491  29.132   7.302  1.00  0.00    -0.311 OA
BRANCH  36  37
HETATM   37  C2  UNL     1       5.642  29.657   8.562  1.00  0.00     0.255 C 
HETATM   38  C1  UNL     1       6.932  29.469   9.304  1.00  0.00     0.126 C 
HETATM   39  O1  UNL     1       4.681  30.286   9.055  1.00  0.00    -0.266 OA
ENDBRANCH  36  37
ENDBRANCH  34  36
ENDBRANCH  31  34
BRANCH  31  40
HETATM   40  C6  UNL     1       4.717  27.516   4.546  1.00  0.00     0.062 C 
BRANCH  40  41
HETATM   41  C7  UNL     1       4.584  26.246   3.822  1.00  0.00     0.022 C 
HETATM   42  C8  UNL     1       3.576  25.299   4.546  1.00  0.00     0.010 C 
HETATM   43  C9  UNL     1       2.454  25.087   3.538  1.00  0.00     0.035 C 
HETATM   44  C10 UNL     1       2.564  26.412   2.850  1.00  0.00     0.151 A 
HETATM   45  O3  UNL     1       3.144  26.846   1.770  1.00  0.00    -0.375 OA
HETATM   46  C11 UNL     1       4.040  26.210   2.476  1.00  0.00     0.155 A 
ENDBRANCH  40  41
ENDBRANCH  31  40
ENDBRANCH   1  29
BRANCH   6  47
HETATM   47  C33 UNL     1       9.201  25.980   8.814  1.00  0.00     0.064 C 
HETATM   48  C34 UNL     1       9.297  26.754  10.104  1.00  0.00     0.046 C 
HETATM   49  C35 UNL     1       7.790  25.449   8.736  1.00  0.00     0.046 C 
BRANCH  47  50
HETATM   50  O9  UNL     1      10.027  24.843   9.011  1.00  0.00    -0.390 OA
ATOM     51  H9  UNL     1      10.229  24.800   9.938  1.00  0.00     0.210 HD
ENDBRANCH  47  50
ENDBRANCH   6  47
TORSDOF 15
ENDMDL
MODEL 5
REMARK VINA RESULT: -8.986783933      4.740      9.194
REMARK  15 active torsions:
REMARK  status: ('A' for Active; 'I' for Inactive)
REMARK    1  A    between atoms: C2_2  and  O2_4 
REMARK    2  A    between atoms: O2_4  and  C3_5 
REMARK    3  A    between atoms: C3_5  and  C5_7 
REMARK    4  A    between atoms: C5_7  and  C6_8 
REMARK    5  A    between atoms: C6_8  and  C7_9 
REMARK       I    between atoms: N1_15  and  C12_17 
REMARK    6  A    between atoms: C12_17  and  C13_19 
REMARK    7  A    between atoms: C14_20  and  C15_21 
REMARK       I    between atoms: C15_21  and  N2_23 
REMARK    8  A    between atoms: N2_23  and  C16_25 
REMARK    9  A    between atoms: C16_25  and  C17_26 
REMARK   10  A    between atoms: C16_25  and  C21_30 
REMARK   11  A    between atoms: C17_26  and  C18_27 
REMARK       I    between atoms: C21_30  and  N3_32 
REMARK   12  A    between atoms: N3_32  and  C22_34 
REMARK   13  A    between atoms: C26_38  and  C27_39 
REMARK   14  A    between atoms: C32_46  and  C33_47 
REMARK   15  A    between atoms: C33_47  and  O9_50 
ROOT
HETATM    1  C13 UNL     1       4.389  27.881   6.261  1.00  0.00     0.133 C 
HETATM    2  C14 UNL     1       5.394  29.002   6.513  1.00  0.00     0.237 C 
HETATM    3  O7  UNL     1       4.716  29.904   7.370  1.00  0.00    -0.305 OA
HETATM    4  C31 UNL     1       3.395  29.618   7.497  1.00  0.00     0.267 C 
HETATM    5  O8  UNL     1       2.522  30.194   8.191  1.00  0.00    -0.265 OA
HETATM    6  C32 UNL     1       3.062  28.429   6.637  1.00  0.00     0.135 C 
ENDROOT
BRANCH   2   7
HETATM    7  C15 UNL     1       6.660  28.533   7.096  1.00  0.00     0.252 C 
HETATM    8  O5  UNL     1       7.631  29.314   7.108  1.00  0.00    -0.270 OA
HETATM    9  N2  UNL     1       6.822  27.229   7.650  1.00  0.00    -0.324 N 
ATOM     10  H2  UNL     1       6.036  26.579   7.635  1.00  0.00     0.169 HD
BRANCH   9  11
HETATM   11  C16 UNL     1       8.053  26.818   8.221  1.00  0.00     0.080 C 
BRANCH  11  12
HETATM   12  C17 UNL     1       8.359  27.173   9.614  1.00  0.00     0.067 C 
BRANCH  12  13
HETATM   13  C18 UNL     1       9.285  28.337   9.768  1.00  0.00    -0.017 C 
HETATM   14  C19 UNL     1      10.750  27.873   9.647  1.00  0.00     0.010 C 
HETATM   15  C20 UNL     1       9.182  29.101  11.056  1.00  0.00     0.010 C 
ENDBRANCH  12  13
ENDBRANCH  11  12
BRANCH  11  16
HETATM   16  C21 UNL     1       8.511  25.493   7.735  1.00  0.00     0.264 C 
HETATM   17  O6  UNL     1       8.066  24.469   8.339  1.00  0.00    -0.266 OA
HETATM   18  N3  UNL     1       9.394  25.262   6.664  1.00  0.00    -0.351 N 
ATOM     19  H3  UNL     1       9.776  26.073   6.178  1.00  0.00     0.163 HD
BRANCH  18  20
HETATM   20  C22 UNL     1       9.791  23.962   6.209  1.00  0.00     0.089 C 
HETATM   21  C23 UNL     1      10.291  23.940   4.795  1.00  0.00     0.026 C 
HETATM   22  C24 UNL     1      11.208  22.739   4.693  1.00  0.00     0.002 C 
HETATM   23  C25 UNL     1      11.284  22.162   6.077  1.00  0.00     0.007 C 
HETATM   24  C26 UNL     1      10.773  23.216   7.029  1.00  0.00     0.016 C 
BRANCH  24  25
HETATM   25  C27 UNL     1      11.880  23.910   7.682  1.00  0.00    -0.046 C 
HETATM   26  C28 UNL     1      12.570  24.982   6.935  1.00  0.00     0.015 C 
HETATM   27  C29 UNL     1      12.961  22.830   7.950  1.00  0.00     0.015 C 
HETATM   28  C30 UNL     1      11.562  24.412   9.091  1.00  0.00     0.015 C 
ENDBRANCH  24  25
ENDBRANCH  18  20
ENDBRANCH  11  16
ENDBRANCH   9  11
ENDBRANCH   2   7
BRANCH   1  29
HETATM   29  C12 UNL     1       4.416  27.619   4.792  1.00  0.00     0.230 C 
HETATM   30  N1  UNL     1       5.206  26.706   4.108  1.00  0.00    -0.331 N 
HETATM   31  C5  UNL     1       4.806  25.611   3.572  1.00  0.00     0.019 C 
ATOM     32  H1  UNL     1       6.198  26.927   4.023  1.00  0.00     0.168 HD
HETATM   33  O4  UNL     1       3.599  28.346   4.096  1.00  0.00    -0.273 OA
BRANCH  31  34
HETATM   34  C3  UNL     1       3.368  25.229   3.670  1.00  0.00     0.173 C 
HETATM   35  C4  UNL     1       3.105  23.909   4.323  1.00  0.00     0.046 C 
BRANCH  34  36
HETATM   36  O2  UNL     1       2.784  25.258   2.358  1.00  0.00    -0.311 OA
BRANCH  36  37
HETATM   37  C2  UNL     1       2.412  26.412   1.711  1.00  0.00     0.255 C 
HETATM   38  C1  UNL     1       1.024  26.955   1.885  1.00  0.00     0.126 C 
HETATM   39  O1  UNL     1       3.258  26.978   0.987  1.00  0.00    -0.266 OA
ENDBRANCH  36  37
ENDBRANCH  34  36
ENDBRANCH  31  34
BRANCH  31  40
HETATM   40  C6  UNL     1       5.795  24.802   2.827  1.00  0.00     0.062 C 
BRANCH  40  41
HETATM   41  C7  UNL     1       7.187  25.001   3.249  1.00  0.00     0.022 C 
HETATM   42  C8  UNL     1       8.168  24.251   2.294  1.00  0.00     0.010 C 
HETATM   43  C9  UNL     1       9.023  25.350   1.678  1.00  0.00     0.035 C 
HETATM   44  C10 UNL     1       7.994  26.437   1.719  1.00  0.00     0.151 A 
HETATM   45  O3  UNL     1       7.718  27.418   2.527  1.00  0.00    -0.375 OA
HETATM   46  C11 UNL     1       7.787  26.324   3.236  1.00  0.00     0.155 A 
ENDBRANCH  40  41
ENDBRANCH  31  40
ENDBRANCH   1  29
BRANCH   6  47
HETATM   47  C33 UNL     1       2.073  27.572   7.293  1.00  0.00     0.064 C 
HETATM   48  C34 UNL     1       0.628  27.854   6.970  1.00  0.00     0.046 C 
HETATM   49  C35 UNL     1       2.272  26.087   7.103  1.00  0.00     0.046 C 
BRANCH  47  50
HETATM   50  O9  UNL     1       2.184  27.797   8.689  1.00  0.00    -0.390 OA
ATOM     51  H9  UNL     1       2.240  26.945   9.107  1.00  0.00     0.210 HD
ENDBRANCH  47  50
ENDBRANCH   6  47
TORSDOF 15
ENDMDL
