MODEL 1
REMARK VINA RESULT: -6.355975864      0.000      0.000
REMARK  4 active torsions:
REMARK  status: ('A' for Active; 'I' for Inactive)
REMARK       I    between atoms: C1_2  and  N4_12 
REMARK    1  A    between atoms: N2_3  and  C2_5 
REMARK    2  A    between atoms: N4_12  and  C6_14 
REMARK    3  A    between atoms: C6_14  and  C7_15 
REMARK    4  A    between atoms: C7_15  and  N5_16 
ROOT
HETATM    1  N1  UNL     1      42.313  -0.109  31.958  1.00  0.00    -0.064 NA
HETATM    2  C1  UNL     1      41.883  -0.241  30.648  1.00  0.00     0.184 C 
HETATM    3  N2  UNL     1      40.637  -0.369  30.341  1.00  0.00    -0.358 N 
ATOM      4  H2  UNL     1      40.360  -0.461  29.364  1.00  0.00     0.162 HD
HETATM    5  N4  UNL     1      42.781  -0.243  29.535  1.00  0.00    -0.363 N 
ATOM      6  H4  UNL     1      43.078   0.628  29.095  1.00  0.00     0.162 HD
ENDROOT
BRANCH   5   7
HETATM    7  C6  UNL     1      43.250  -1.510  29.058  1.00  0.00     0.142 C 
BRANCH   7   8
HETATM    8  C7  UNL     1      44.460  -1.406  28.210  1.00  0.00     0.141 C 
BRANCH   8   9
HETATM    9  N5  UNL     1      44.512  -2.220  27.058  1.00  0.00    -0.389 N 
HETATM   10  C8  UNL     1      44.236  -3.618  27.320  1.00  0.00     0.149 C 
HETATM   11  C9  UNL     1      43.409  -4.179  26.172  1.00  0.00     0.252 C 
HETATM   12  N6  UNL     1      44.218  -4.045  24.973  1.00  0.00    -0.069 N 
HETATM   13  C10 UNL     1      44.426  -2.658  24.695  1.00  0.00     0.276 C 
ATOM     14  H62 UNL     1      45.096  -4.561  25.039  1.00  0.00     0.277 HD
ATOM     15  H61 UNL     1      43.817  -4.542  24.179  1.00  0.00     0.277 HD
HETATM   16  C11 UNL     1      44.064  -1.737  25.834  1.00  0.00     0.085 C 
ENDBRANCH   8   9
ENDBRANCH   7   8
ENDBRANCH   5   7
BRANCH   3  17
HETATM   17  C2  UNL     1      39.638  -0.383  31.372  1.00  0.00     0.111 C 
HETATM   18  C3  UNL     1      38.473  -1.288  30.962  1.00  0.00     0.054 C 
HETATM   19  C4  UNL     1      37.323  -0.691  31.712  1.00  0.00     0.234 C 
HETATM   20  N3  UNL     1      37.691   0.632  32.099  1.00  0.00    -0.073 N 
HETATM   21  C5  UNL     1      38.920   0.969  31.452  1.00  0.00     0.257 C 
ATOM     22  H32 UNL     1      36.953   1.312  31.918  1.00  0.00     0.277 HD
ATOM     23  H31 UNL     1      37.737   0.745  33.112  1.00  0.00     0.277 HD
ENDBRANCH   3  17
TORSDOF 4
ENDMDL
MODEL 2
REMARK VINA RESULT: -6.184993165      0.847      1.352
REMARK  4 active torsions:
REMARK  status: ('A' for Active; 'I' for Inactive)
REMARK       I    between atoms: C1_2  and  N4_12 
REMARK    1  A    between atoms: N2_3  and  C2_5 
REMARK    2  A    between atoms: N4_12  and  C6_14 
REMARK    3  A    between atoms: C6_14  and  C7_15 
REMARK    4  A    between atoms: C7_15  and  N5_16 
ROOT
HETATM    1  N1  UNL     1      42.324   0.105  32.178  1.00  0.00    -0.064 NA
HETATM    2  C1  UNL     1      41.933  -0.254  30.898  1.00  0.00     0.184 C 
HETATM    3  N2  UNL     1      40.696  -0.436  30.582  1.00  0.00    -0.358 N 
ATOM      4  H2  UNL     1      40.449  -0.697  29.628  1.00  0.00     0.162 HD
HETATM    5  N4  UNL     1      42.864  -0.450  29.830  1.00  0.00    -0.363 N 
ATOM      6  H4  UNL     1      43.177   0.332  29.254  1.00  0.00     0.162 HD
ENDROOT
BRANCH   5   7
HETATM    7  C6  UNL     1      43.342  -1.780  29.596  1.00  0.00     0.142 C 
BRANCH   7   8
HETATM    8  C7  UNL     1      42.535  -2.527  28.605  1.00  0.00     0.141 C 
BRANCH   8   9
HETATM    9  N5  UNL     1      43.075  -2.670  27.309  1.00  0.00    -0.389 N 
HETATM   10  C8  UNL     1      43.807  -1.505  26.852  1.00  0.00     0.149 C 
HETATM   11  C9  UNL     1      45.030  -1.969  26.074  1.00  0.00     0.252 C 
HETATM   12  N6  UNL     1      44.537  -2.727  24.937  1.00  0.00    -0.069 N 
HETATM   13  C10 UNL     1      43.874  -3.904  25.406  1.00  0.00     0.276 C 
ATOM     14  H62 UNL     1      43.943  -2.166  24.327  1.00  0.00     0.277 HD
ATOM     15  H61 UNL     1      45.274  -2.940  24.266  1.00  0.00     0.277 HD
HETATM   16  C11 UNL     1      43.571  -3.898  26.883  1.00  0.00     0.085 C 
ENDBRANCH   8   9
ENDBRANCH   7   8
ENDBRANCH   5   7
BRANCH   3  17
HETATM   17  C2  UNL     1      39.667  -0.271  31.569  1.00  0.00     0.111 C 
HETATM   18  C3  UNL     1      38.523  -1.254  31.304  1.00  0.00     0.054 C 
HETATM   19  C4  UNL     1      37.346  -0.544  31.896  1.00  0.00     0.234 C 
HETATM   20  N3  UNL     1      37.689   0.833  32.038  1.00  0.00    -0.073 N 
HETATM   21  C5  UNL     1      38.934   1.061  31.373  1.00  0.00     0.257 C 
ATOM     22  H32 UNL     1      36.950   1.456  31.711  1.00  0.00     0.277 HD
ATOM     23  H31 UNL     1      37.704   1.135  33.012  1.00  0.00     0.277 HD
ENDBRANCH   3  17
TORSDOF 4
ENDMDL
MODEL 3
REMARK VINA RESULT: -6.142473668      3.020      7.440
REMARK  4 active torsions:
REMARK  status: ('A' for Active; 'I' for Inactive)
REMARK       I    between atoms: C1_2  and  N4_12 
REMARK    1  A    between atoms: N2_3  and  C2_5 
REMARK    2  A    between atoms: N4_12  and  C6_14 
REMARK    3  A    between atoms: C6_14  and  C7_15 
REMARK    4  A    between atoms: C7_15  and  N5_16 
ROOT
HETATM    1  N1  UNL     1      41.542  -1.639  29.307  1.00  0.00    -0.064 NA
HETATM    2  C1  UNL     1      42.848  -1.337  29.659  1.00  0.00     0.184 C 
HETATM    3  N2  UNL     1      43.842  -1.546  28.865  1.00  0.00    -0.358 N 
ATOM      4  H2  UNL     1      44.788  -1.308  29.161  1.00  0.00     0.162 HD
HETATM    5  N4  UNL     1      43.197  -0.769  30.925  1.00  0.00    -0.363 N 
ATOM      6  H4  UNL     1      43.179   0.240  31.073  1.00  0.00     0.162 HD
ENDROOT
BRANCH   5   7
HETATM    7  C6  UNL     1      43.571  -1.665  31.978  1.00  0.00     0.142 C 
BRANCH   7   8
HETATM    8  C7  UNL     1      43.032  -1.274  33.301  1.00  0.00     0.141 C 
BRANCH   8   9
HETATM    9  N5  UNL     1      43.763  -0.317  34.037  1.00  0.00    -0.389 N 
HETATM   10  C8  UNL     1      45.199  -0.462  33.916  1.00  0.00     0.149 C 
HETATM   11  C9  UNL     1      45.829   0.923  33.850  1.00  0.00     0.252 C 
HETATM   12  N6  UNL     1      45.497   1.590  35.097  1.00  0.00    -0.069 N 
HETATM   13  C10 UNL     1      44.082   1.781  35.169  1.00  0.00     0.276 C 
ATOM     14  H62 UNL     1      45.861   1.093  35.910  1.00  0.00     0.277 HD
ATOM     15  H61 UNL     1      46.011   2.462  35.217  1.00  0.00     0.277 HD
HETATM   16  C11 UNL     1      43.296   0.989  34.153  1.00  0.00     0.085 C 
ENDBRANCH   8   9
ENDBRANCH   7   8
ENDBRANCH   5   7
BRANCH   3  17
HETATM   17  C2  UNL     1      43.619  -2.115  27.566  1.00  0.00     0.111 C 
HETATM   18  C3  UNL     1      43.849  -3.628  27.608  1.00  0.00     0.054 C 
HETATM   19  C4  UNL     1      44.253  -3.931  26.199  1.00  0.00     0.234 C 
HETATM   20  N3  UNL     1      44.656  -2.708  25.585  1.00  0.00    -0.073 N 
HETATM   21  C5  UNL     1      44.727  -1.697  26.592  1.00  0.00     0.257 C 
ATOM     22  H32 UNL     1      45.526  -2.802  25.061  1.00  0.00     0.277 HD
ATOM     23  H31 UNL     1      44.053  -2.444  24.806  1.00  0.00     0.277 HD
ENDBRANCH   3  17
TORSDOF 4
ENDMDL
MODEL 4
REMARK VINA RESULT: -6.134095926      3.125      4.503
REMARK  4 active torsions:
REMARK  status: ('A' for Active; 'I' for Inactive)
REMARK       I    between atoms: C1_2  and  N4_12 
REMARK    1  A    between atoms: N2_3  and  C2_5 
REMARK    2  A    between atoms: N4_12  and  C6_14 
REMARK    3  A    between atoms: C6_14  and  C7_15 
REMARK    4  A    between atoms: C7_15  and  N5_16 
ROOT
HETATM    1  N1  UNL     1      42.790  -2.147  33.011  1.00  0.00    -0.064 NA
HETATM    2  C1  UNL     1      43.662  -1.559  32.109  1.00  0.00     0.184 C 
HETATM    3  N2  UNL     1      44.464  -0.607  32.447  1.00  0.00    -0.358 N 
ATOM      4  H2  UNL     1      45.092  -0.202  31.754  1.00  0.00     0.162 HD
HETATM    5  N4  UNL     1      43.744  -1.957  30.738  1.00  0.00    -0.363 N 
ATOM      6  H4  UNL     1      44.347  -2.727  30.448  1.00  0.00     0.162 HD
ENDROOT
BRANCH   5   7
HETATM    7  C6  UNL     1      42.950  -1.240  29.785  1.00  0.00     0.142 C 
BRANCH   7   8
HETATM    8  C7  UNL     1      42.271  -2.119  28.806  1.00  0.00     0.141 C 
BRANCH   8   9
HETATM    9  N5  UNL     1      42.944  -2.371  27.591  1.00  0.00    -0.389 N 
HETATM   10  C8  UNL     1      43.752  -1.260  27.131  1.00  0.00     0.149 C 
HETATM   11  C9  UNL     1      45.039  -1.805  26.528  1.00  0.00     0.252 C 
HETATM   12  N6  UNL     1      44.650  -2.638  25.404  1.00  0.00    -0.069 N 
HETATM   13  C10 UNL     1      43.909  -3.763  25.884  1.00  0.00     0.276 C 
ATOM     14  H62 UNL     1      44.140  -2.115  24.692  1.00  0.00     0.277 HD
ATOM     15  H61 UNL     1      45.449  -2.917  24.835  1.00  0.00     0.277 HD
HETATM   16  C11 UNL     1      43.449  -3.638  27.315  1.00  0.00     0.085 C 
ENDBRANCH   8   9
ENDBRANCH   7   8
ENDBRANCH   5   7
BRANCH   3  17
HETATM   17  C2  UNL     1      44.474  -0.118  33.797  1.00  0.00     0.111 C 
HETATM   18  C3  UNL     1      43.812   1.261  33.860  1.00  0.00     0.054 C 
HETATM   19  C4  UNL     1      44.479   1.883  35.047  1.00  0.00     0.234 C 
HETATM   20  N3  UNL     1      45.674   1.151  35.313  1.00  0.00    -0.073 N 
HETATM   21  C5  UNL     1      45.899   0.242  34.234  1.00  0.00     0.257 C 
ATOM     22  H32 UNL     1      46.474   1.759  35.487  1.00  0.00     0.277 HD
ATOM     23  H31 UNL     1      45.653   0.685  36.220  1.00  0.00     0.277 HD
ENDBRANCH   3  17
TORSDOF 4
ENDMDL
MODEL 5
REMARK VINA RESULT: -6.075886869      3.202      7.512
REMARK  4 active torsions:
REMARK  status: ('A' for Active; 'I' for Inactive)
REMARK       I    between atoms: C1_2  and  N4_12 
REMARK    1  A    between atoms: N2_3  and  C2_5 
REMARK    2  A    between atoms: N4_12  and  C6_14 
REMARK    3  A    between atoms: C6_14  and  C7_15 
REMARK    4  A    between atoms: C7_15  and  N5_16 
ROOT
HETATM    1  N1  UNL     1      41.436  -1.909  29.149  1.00  0.00    -0.064 NA
HETATM    2  C1  UNL     1      42.731  -1.459  29.356  1.00  0.00     0.184 C 
HETATM    3  N2  UNL     1      43.658  -1.601  28.472  1.00  0.00    -0.358 N 
ATOM      4  H2  UNL     1      44.598  -1.254  28.661  1.00  0.00     0.162 HD
HETATM    5  N4  UNL     1      43.140  -0.804  30.560  1.00  0.00    -0.363 N 
ATOM      6  H4  UNL     1      43.030   0.204  30.675  1.00  0.00     0.162 HD
ENDROOT
BRANCH   5   7
HETATM    7  C6  UNL     1      43.710  -1.609  31.598  1.00  0.00     0.142 C 
BRANCH   7   8
HETATM    8  C7  UNL     1      43.396  -1.119  32.960  1.00  0.00     0.141 C 
BRANCH   8   9
HETATM    9  N5  UNL     1      44.368  -0.318  33.597  1.00  0.00    -0.389 N 
HETATM   10  C8  UNL     1      43.894   1.005  33.949  1.00  0.00     0.149 C 
HETATM   11  C9  UNL     1      44.476   1.391  35.301  1.00  0.00     0.252 C 
HETATM   12  N6  UNL     1      45.920   1.404  35.144  1.00  0.00    -0.069 N 
HETATM   13  C10 UNL     1      46.376   0.079  34.860  1.00  0.00     0.276 C 
ATOM     14  H62 UNL     1      46.226   2.076  34.441  1.00  0.00     0.277 HD
ATOM     15  H61 UNL     1      46.393   1.810  35.950  1.00  0.00     0.277 HD
HETATM   16  C11 UNL     1      45.280  -0.886  34.480  1.00  0.00     0.085 C 
ENDBRANCH   8   9
ENDBRANCH   7   8
ENDBRANCH   5   7
BRANCH   3  17
HETATM   17  C2  UNL     1      43.371  -2.246  27.222  1.00  0.00     0.111 C 
HETATM   18  C3  UNL     1      43.989  -3.647  27.200  1.00  0.00     0.054 C 
HETATM   19  C4  UNL     1      44.209  -3.877  25.738  1.00  0.00     0.234 C 
HETATM   20  N3  UNL     1      44.170  -2.611  25.082  1.00  0.00    -0.073 N 
HETATM   21  C5  UNL     1      44.149  -1.586  26.078  1.00  0.00     0.257 C 
ATOM     22  H32 UNL     1      44.931  -2.492  24.414  1.00  0.00     0.277 HD
ATOM     23  H31 UNL     1      43.395  -2.534  24.424  1.00  0.00     0.277 HD
ENDBRANCH   3  17
TORSDOF 4
ENDMDL
