MODEL 1
REMARK VINA RESULT: -7.056497729      0.000      0.000
REMARK  9 active torsions:
REMARK  status: ('A' for Active; 'I' for Inactive)
REMARK    1  A    between atoms: C2_2  and  O2_4 
REMARK    2  A    between atoms: O2_4  and  C3_5 
REMARK    3  A    between atoms: C3_5  and  C4_6 
REMARK    4  A    between atoms: C4_6  and  O3_7 
REMARK    5  A    between atoms: O3_7  and  N1_8 
REMARK    6  A    between atoms: C5_10  and  C7_12 
REMARK    7  A    between atoms: N3_18  and  N4_20 
REMARK       I    between atoms: N4_20  and  C10_22 
REMARK       I    between atoms: C10_22  and  N6_26 
REMARK    8  A    between atoms: N6_26  and  N7_28 
REMARK    9  A    between atoms: C11_31  and  C12_32 
REMARK       I    between atoms: C12_32  and  N8_34 
ROOT
HETATM    1  C12 UNL     1      -0.012 -11.786  37.705  1.00  0.00     0.284 C 
HETATM    2  O4  UNL     1      -0.093 -10.814  36.890  1.00  0.00    -0.265 OA
HETATM    3  N8  UNL     1      -1.182 -12.312  38.264  1.00  0.00    -0.258 N 
ATOM      4  H8  UNL     1      -1.120 -13.088  38.923  1.00  0.00     0.181 HD
HETATM    5  C13 UNL     1      -2.435 -11.787  37.931  1.00  0.00     0.184 C 
HETATM    6  N9  UNL     1      -3.483 -11.354  37.636  1.00  0.00    -0.172 NA
ENDROOT
BRANCH   1   7
HETATM    7  C11 UNL     1       1.288 -12.348  38.072  1.00  0.00     0.148 A 
HETATM    8  C9  UNL     1       2.116 -12.813  37.091  1.00  0.00     0.154 A 
HETATM    9  N2  UNL     1       3.284 -13.434  37.531  1.00  0.00    -0.332 N 
HETATM   10  N3  UNL     1       2.022 -12.725  35.887  1.00  0.00    -0.269 N 
HETATM   11  C8  UNL     1       3.544 -13.543  38.845  1.00  0.00     0.104 A 
ATOM     12  H2  UNL     1       3.947 -13.807  36.851  1.00  0.00     0.168 HD
HETATM   13  S1  UNL     1       4.855 -14.227  39.748  1.00  0.00    -0.068 SA
HETATM   14  C14 UNL     1       2.724 -13.076  39.825  1.00  0.00     0.074 A 
HETATM   15  C7  UNL     1       4.309 -13.893  41.319  1.00  0.00     0.039 A 
HETATM   16  C15 UNL     1       3.121 -13.258  41.117  1.00  0.00    -0.013 A 
HETATM   17  C16 UNL     1       2.318 -12.794  42.329  1.00  0.00     0.052 C 
HETATM   18  N10 UNL     1       1.566 -12.464  39.401  1.00  0.00    -0.346 N 
ATOM     19  H10 UNL     1       0.910 -12.094  40.088  1.00  0.00     0.166 HD
ATOM     20  H3  UNL     1       2.852 -13.146  35.470  1.00  0.00     0.189 HD
BRANCH  15  21
HETATM   21  C5  UNL     1       4.980 -14.224  42.578  1.00  0.00     0.046 C 
HETATM   22  N1  UNL     1       5.931 -13.533  43.045  1.00  0.00    -0.270 N 
ATOM     23  H1  UNL     1       6.217 -12.720  42.498  1.00  0.00     0.194 HD
HETATM   24  C6  UNL     1       4.519 -15.411  43.320  1.00  0.00     0.071 C 
BRANCH  22  25
HETATM   25  O3  UNL     1       6.607 -13.758  44.190  1.00  0.00    -0.278 OA
BRANCH  25  26
HETATM   26  C4  UNL     1       7.920 -14.269  44.269  1.00  0.00     0.228 C 
BRANCH  26  27
HETATM   27  C3  UNL     1       8.266 -14.782  45.627  1.00  0.00     0.207 C 
BRANCH  27  28
HETATM   28  O2  UNL     1       9.526 -14.282  46.031  1.00  0.00    -0.320 OA
BRANCH  28  29
HETATM   29  C2  UNL     1       9.690 -13.455  47.132  1.00  0.00     0.254 C 
HETATM   30  C1  UNL     1       8.662 -13.503  48.195  1.00  0.00     0.126 C 
HETATM   31  O1  UNL     1      10.694 -12.713  47.173  1.00  0.00    -0.266 OA
ENDBRANCH  28  29
ENDBRANCH  27  28
ENDBRANCH  26  27
ENDBRANCH  25  26
ENDBRANCH  22  25
ENDBRANCH  15  21
BRANCH  10  32
HETATM   32  N4  UNL     1       1.243 -12.287  34.911  1.00  0.00    -0.130 N 
HETATM   33  C10 UNL     1       1.402 -12.646  33.510  1.00  0.00     0.704 C 
HETATM   34  N5  UNL     1       0.584 -13.402  32.887  1.00  0.00    -0.232 N 
HETATM   35  N6  UNL     1       2.526 -12.125  32.814  1.00  0.00    -0.138 N 
ATOM     36  H52 UNL     1      -0.222 -13.775  33.387  1.00  0.00     0.174 HD
ATOM     37  H51 UNL     1       0.697 -13.654  31.905  1.00  0.00     0.174 HD
ATOM     38  H6  UNL     1       2.868 -12.600  31.979  1.00  0.00     0.205 HD
ATOM     39  H4  UNL     1       0.480 -11.655  35.157  1.00  0.00     0.205 HD
BRANCH  35  40
HETATM   40  N7  UNL     1       3.157 -10.982  33.260  1.00  0.00    -0.331 N 
ATOM     41  H72 UNL     1       3.478 -10.298  32.574  1.00  0.00     0.177 HD
ATOM     42  H71 UNL     1       3.300 -10.825  34.258  1.00  0.00     0.177 HD
ENDBRANCH  35  40
ENDBRANCH  10  32
ENDBRANCH   1   7
TORSDOF 9
ENDMDL
MODEL 2
REMARK VINA RESULT: -6.951383148      1.045      1.402
REMARK  9 active torsions:
REMARK  status: ('A' for Active; 'I' for Inactive)
REMARK    1  A    between atoms: C2_2  and  O2_4 
REMARK    2  A    between atoms: O2_4  and  C3_5 
REMARK    3  A    between atoms: C3_5  and  C4_6 
REMARK    4  A    between atoms: C4_6  and  O3_7 
REMARK    5  A    between atoms: O3_7  and  N1_8 
REMARK    6  A    between atoms: C5_10  and  C7_12 
REMARK    7  A    between atoms: N3_18  and  N4_20 
REMARK       I    between atoms: N4_20  and  C10_22 
REMARK       I    between atoms: C10_22  and  N6_26 
REMARK    8  A    between atoms: N6_26  and  N7_28 
REMARK    9  A    between atoms: C11_31  and  C12_32 
REMARK       I    between atoms: C12_32  and  N8_34 
ROOT
HETATM    1  C12 UNL     1       0.008 -11.770  37.731  1.00  0.00     0.284 C 
HETATM    2  O4  UNL     1      -0.081 -10.795  36.921  1.00  0.00    -0.265 OA
HETATM    3  N8  UNL     1      -1.159 -12.308  38.287  1.00  0.00    -0.258 N 
ATOM      4  H8  UNL     1      -1.091 -13.086  38.943  1.00  0.00     0.181 HD
HETATM    5  C13 UNL     1      -2.416 -11.792  37.955  1.00  0.00     0.184 C 
HETATM    6  N9  UNL     1      -3.467 -11.367  37.662  1.00  0.00    -0.172 NA
ENDROOT
BRANCH   1   7
HETATM    7  C11 UNL     1       1.312 -12.323  38.096  1.00  0.00     0.148 A 
HETATM    8  C9  UNL     1       2.142 -12.780  37.114  1.00  0.00     0.154 A 
HETATM    9  N2  UNL     1       3.316 -13.393  37.552  1.00  0.00    -0.332 N 
HETATM   10  N3  UNL     1       2.047 -12.691  35.910  1.00  0.00    -0.269 N 
HETATM   11  C8  UNL     1       3.578 -13.502  38.866  1.00  0.00     0.104 A 
ATOM     12  H2  UNL     1       3.981 -13.760  36.871  1.00  0.00     0.168 HD
HETATM   13  S1  UNL     1       4.894 -14.177  39.767  1.00  0.00    -0.068 SA
HETATM   14  C14 UNL     1       2.754 -13.042  39.847  1.00  0.00     0.074 A 
HETATM   15  C7  UNL     1       4.347 -13.849  41.338  1.00  0.00     0.039 A 
HETATM   16  C15 UNL     1       3.154 -13.222  41.138  1.00  0.00    -0.013 A 
HETATM   17  C16 UNL     1       2.349 -12.766  42.352  1.00  0.00     0.052 C 
HETATM   18  N10 UNL     1       1.592 -12.438  39.425  1.00  0.00    -0.346 N 
ATOM     19  H10 UNL     1       0.934 -12.074  40.113  1.00  0.00     0.166 HD
ATOM     20  H3  UNL     1       2.880 -13.105  35.492  1.00  0.00     0.189 HD
BRANCH  15  21
HETATM   21  C5  UNL     1       5.021 -14.176  42.597  1.00  0.00     0.046 C 
HETATM   22  N1  UNL     1       5.971 -13.481  43.061  1.00  0.00    -0.270 N 
ATOM     23  H1  UNL     1       6.252 -12.668  42.514  1.00  0.00     0.194 HD
HETATM   24  C6  UNL     1       4.567 -15.365  43.341  1.00  0.00     0.071 C 
BRANCH  22  25
HETATM   25  O3  UNL     1       6.650 -13.703  44.206  1.00  0.00    -0.278 OA
BRANCH  25  26
HETATM   26  C4  UNL     1       7.889 -14.371  44.296  1.00  0.00     0.228 C 
BRANCH  26  27
HETATM   27  C3  UNL     1       8.292 -14.666  45.702  1.00  0.00     0.207 C 
BRANCH  27  28
HETATM   28  O2  UNL     1       8.680 -16.021  45.825  1.00  0.00    -0.320 OA
BRANCH  28  29
HETATM   29  C2  UNL     1       9.947 -16.474  45.492  1.00  0.00     0.254 C 
HETATM   30  C1  UNL     1      11.101 -15.607  45.815  1.00  0.00     0.126 C 
HETATM   31  O1  UNL     1      10.052 -17.589  44.938  1.00  0.00    -0.266 OA
ENDBRANCH  28  29
ENDBRANCH  27  28
ENDBRANCH  26  27
ENDBRANCH  25  26
ENDBRANCH  22  25
ENDBRANCH  15  21
BRANCH  10  32
HETATM   32  N4  UNL     1       1.263 -12.257  34.935  1.00  0.00    -0.130 N 
HETATM   33  C10 UNL     1       1.417 -12.624  33.536  1.00  0.00     0.704 C 
HETATM   34  N5  UNL     1       0.596 -13.383  32.920  1.00  0.00    -0.232 N 
HETATM   35  N6  UNL     1       2.537 -12.108  32.832  1.00  0.00    -0.138 N 
ATOM     36  H52 UNL     1      -0.209 -13.753  33.426  1.00  0.00     0.174 HD
ATOM     37  H51 UNL     1       0.704 -13.640  31.939  1.00  0.00     0.174 HD
ATOM     38  H6  UNL     1       2.875 -12.587  31.998  1.00  0.00     0.205 HD
ATOM     39  H4  UNL     1       0.502 -11.625  35.181  1.00  0.00     0.205 HD
BRANCH  35  40
HETATM   40  N7  UNL     1       3.171 -10.962  33.270  1.00  0.00    -0.331 N 
ATOM     41  H72 UNL     1       2.605 -10.147  33.508  1.00  0.00     0.177 HD
ATOM     42  H71 UNL     1       4.188 -10.933  33.352  1.00  0.00     0.177 HD
ENDBRANCH  35  40
ENDBRANCH  10  32
ENDBRANCH   1   7
TORSDOF 9
ENDMDL
MODEL 3
REMARK VINA RESULT: -6.386139096      2.694      4.510
REMARK  9 active torsions:
REMARK  status: ('A' for Active; 'I' for Inactive)
REMARK    1  A    between atoms: C2_2  and  O2_4 
REMARK    2  A    between atoms: O2_4  and  C3_5 
REMARK    3  A    between atoms: C3_5  and  C4_6 
REMARK    4  A    between atoms: C4_6  and  O3_7 
REMARK    5  A    between atoms: O3_7  and  N1_8 
REMARK    6  A    between atoms: C5_10  and  C7_12 
REMARK    7  A    between atoms: N3_18  and  N4_20 
REMARK       I    between atoms: N4_20  and  C10_22 
REMARK       I    between atoms: C10_22  and  N6_26 
REMARK    8  A    between atoms: N6_26  and  N7_28 
REMARK    9  A    between atoms: C11_31  and  C12_32 
REMARK       I    between atoms: C12_32  and  N8_34 
ROOT
HETATM    1  C12 UNL     1       3.700 -11.905  39.192  1.00  0.00     0.284 C 
HETATM    2  O4  UNL     1       3.014 -10.857  39.403  1.00  0.00    -0.265 OA
HETATM    3  N8  UNL     1       4.416 -12.027  37.996  1.00  0.00    -0.258 N 
ATOM      4  H8  UNL     1       4.963 -12.871  37.820  1.00  0.00     0.181 HD
HETATM    5  C13 UNL     1       4.391 -11.009  37.037  1.00  0.00     0.184 C 
HETATM    6  N9  UNL     1       4.379 -10.147  36.244  1.00  0.00    -0.172 NA
ENDROOT
BRANCH   1   7
HETATM    7  C11 UNL     1       3.738 -12.985  40.179  1.00  0.00     0.148 A 
HETATM    8  C9  UNL     1       2.719 -13.892  40.215  1.00  0.00     0.154 A 
HETATM    9  N2  UNL     1       2.775 -14.821  41.254  1.00  0.00    -0.332 N 
HETATM   10  N3  UNL     1       1.793 -14.054  39.452  1.00  0.00    -0.269 N 
HETATM   11  C8  UNL     1       3.786 -14.795  42.138  1.00  0.00     0.104 A 
ATOM     12  H2  UNL     1       2.043 -15.527  41.343  1.00  0.00     0.168 HD
HETATM   13  S1  UNL     1       4.187 -15.758  43.521  1.00  0.00    -0.068 SA
HETATM   14  C14 UNL     1       4.807 -13.895  42.101  1.00  0.00     0.074 A 
HETATM   15  C7  UNL     1       5.621 -14.983  43.988  1.00  0.00     0.039 A 
HETATM   16  C15 UNL     1       5.765 -13.992  43.066  1.00  0.00    -0.013 A 
HETATM   17  C16 UNL     1       6.972 -13.063  43.165  1.00  0.00     0.052 C 
HETATM   18  N10 UNL     1       4.759 -12.972  41.081  1.00  0.00    -0.346 N 
ATOM     19  H10 UNL     1       5.495 -12.270  41.000  1.00  0.00     0.166 HD
ATOM     20  H3  UNL     1       1.256 -14.861  39.768  1.00  0.00     0.189 HD
BRANCH  15  21
HETATM   21  C5  UNL     1       6.481 -15.323  45.124  1.00  0.00     0.046 C 
HETATM   22  N1  UNL     1       6.096 -16.068  46.071  1.00  0.00    -0.270 N 
ATOM     23  H1  UNL     1       5.143 -16.429  46.010  1.00  0.00     0.194 HD
HETATM   24  C6  UNL     1       7.847 -14.769  45.153  1.00  0.00     0.071 C 
BRANCH  22  25
HETATM   25  O3  UNL     1       6.812 -16.434  47.154  1.00  0.00    -0.278 OA
BRANCH  25  26
HETATM   26  C4  UNL     1       6.431 -16.208  48.493  1.00  0.00     0.228 C 
BRANCH  26  27
HETATM   27  C3  UNL     1       7.563 -16.350  49.454  1.00  0.00     0.207 C 
BRANCH  27  28
HETATM   28  O2  UNL     1       8.781 -15.990  48.832  1.00  0.00    -0.320 OA
BRANCH  28  29
HETATM   29  C2  UNL     1       9.521 -14.881  49.211  1.00  0.00     0.254 C 
HETATM   30  C1  UNL     1       9.018 -13.545  48.821  1.00  0.00     0.126 C 
HETATM   31  O1  UNL     1      10.572 -15.062  49.861  1.00  0.00    -0.266 OA
ENDBRANCH  28  29
ENDBRANCH  27  28
ENDBRANCH  26  27
ENDBRANCH  25  26
ENDBRANCH  22  25
ENDBRANCH  15  21
BRANCH  10  32
HETATM   32  N4  UNL     1       1.219 -13.573  38.360  1.00  0.00    -0.130 N 
HETATM   33  C10 UNL     1       0.531 -12.293  38.292  1.00  0.00     0.704 C 
HETATM   34  N5  UNL     1       0.992 -11.287  37.655  1.00  0.00    -0.232 N 
HETATM   35  N6  UNL     1      -0.710 -12.168  38.970  1.00  0.00    -0.138 N 
ATOM     36  H52 UNL     1       1.884 -11.378  37.168  1.00  0.00     0.174 HD
ATOM     37  H51 UNL     1       0.510 -10.390  37.608  1.00  0.00     0.174 HD
ATOM     38  H6  UNL     1      -1.048 -11.245  39.242  1.00  0.00     0.205 HD
ATOM     39  H4  UNL     1       1.261 -14.137  37.512  1.00  0.00     0.205 HD
BRANCH  35  40
HETATM   40  N7  UNL     1      -1.464 -13.287  39.263  1.00  0.00    -0.331 N 
ATOM     41  H72 UNL     1      -1.092 -13.970  39.925  1.00  0.00     0.177 HD
ATOM     42  H71 UNL     1      -2.375 -13.426  38.826  1.00  0.00     0.177 HD
ENDBRANCH  35  40
ENDBRANCH  10  32
ENDBRANCH   1   7
TORSDOF 9
ENDMDL
MODEL 4
REMARK VINA RESULT: -6.041224060      4.206     11.594
REMARK  9 active torsions:
REMARK  status: ('A' for Active; 'I' for Inactive)
REMARK    1  A    between atoms: C2_2  and  O2_4 
REMARK    2  A    between atoms: O2_4  and  C3_5 
REMARK    3  A    between atoms: C3_5  and  C4_6 
REMARK    4  A    between atoms: C4_6  and  O3_7 
REMARK    5  A    between atoms: O3_7  and  N1_8 
REMARK    6  A    between atoms: C5_10  and  C7_12 
REMARK    7  A    between atoms: N3_18  and  N4_20 
REMARK       I    between atoms: N4_20  and  C10_22 
REMARK       I    between atoms: C10_22  and  N6_26 
REMARK    8  A    between atoms: N6_26  and  N7_28 
REMARK    9  A    between atoms: C11_31  and  C12_32 
REMARK       I    between atoms: C12_32  and  N8_34 
ROOT
HETATM    1  C12 UNL     1       7.298 -15.970  46.888  1.00  0.00     0.284 C 
HETATM    2  O4  UNL     1       8.378 -16.621  47.036  1.00  0.00    -0.265 OA
HETATM    3  N8  UNL     1       6.360 -15.951  47.927  1.00  0.00    -0.258 N 
ATOM      4  H8  UNL     1       5.489 -15.434  47.810  1.00  0.00     0.181 HD
HETATM    5  C13 UNL     1       6.603 -16.633  49.124  1.00  0.00     0.184 C 
HETATM    6  N9  UNL     1       6.818 -17.192  50.131  1.00  0.00    -0.172 NA
ENDROOT
BRANCH   1   7
HETATM    7  C11 UNL     1       7.021 -15.253  45.643  1.00  0.00     0.148 A 
HETATM    8  C9  UNL     1       7.798 -14.184  45.301  1.00  0.00     0.154 A 
HETATM    9  N2  UNL     1       7.399 -13.489  44.159  1.00  0.00    -0.332 N 
HETATM   10  N3  UNL     1       8.819 -13.771  45.804  1.00  0.00    -0.269 N 
HETATM   11  C8  UNL     1       6.316 -13.881  43.467  1.00  0.00     0.104 A 
ATOM     12  H2  UNL     1       7.934 -12.678  43.847  1.00  0.00     0.168 HD
HETATM   13  S1  UNL     1       5.535 -13.287  42.038  1.00  0.00    -0.068 SA
HETATM   14  C14 UNL     1       5.543 -14.949  43.803  1.00  0.00     0.074 A 
HETATM   15  C7  UNL     1       4.271 -14.411  41.931  1.00  0.00     0.039 A 
HETATM   16  C15 UNL     1       4.475 -15.227  43.003  1.00  0.00    -0.013 A 
HETATM   17  C16 UNL     1       3.510 -16.386  43.240  1.00  0.00     0.052 C 
HETATM   18  N10 UNL     1       5.926 -15.639  44.930  1.00  0.00    -0.346 N 
ATOM     19  H10 UNL     1       5.386 -16.449  45.233  1.00  0.00     0.166 HD
ATOM     20  H3  UNL     1       9.151 -12.982  45.250  1.00  0.00     0.189 HD
BRANCH  15  21
HETATM   21  C5  UNL     1       3.219 -14.466  40.912  1.00  0.00     0.046 C 
HETATM   22  N1  UNL     1       2.001 -14.254  41.180  1.00  0.00    -0.270 N 
ATOM     23  H1  UNL     1       1.777 -14.039  42.152  1.00  0.00     0.194 HD
HETATM   24  C6  UNL     1       3.609 -14.782  39.526  1.00  0.00     0.071 C 
BRANCH  22  25
HETATM   25  O3  UNL     1       0.967 -14.283  40.314  1.00  0.00    -0.278 OA
BRANCH  25  26
HETATM   26  C4  UNL     1      -0.266 -13.624  40.501  1.00  0.00     0.228 C 
BRANCH  26  27
HETATM   27  C3  UNL     1      -0.777 -12.978  39.256  1.00  0.00     0.207 C 
BRANCH  27  28
HETATM   28  O2  UNL     1      -2.187 -12.875  39.304  1.00  0.00    -0.320 OA
BRANCH  28  29
HETATM   29  C2  UNL     1      -2.886 -11.831  38.716  1.00  0.00     0.254 C 
HETATM   30  C1  UNL     1      -3.850 -12.159  37.643  1.00  0.00     0.126 C 
HETATM   31  O1  UNL     1      -2.668 -10.669  39.120  1.00  0.00    -0.266 OA
ENDBRANCH  28  29
ENDBRANCH  27  28
ENDBRANCH  26  27
ENDBRANCH  25  26
ENDBRANCH  22  25
ENDBRANCH  15  21
BRANCH  10  32
HETATM   32  N4  UNL     1       9.664 -13.963  46.805  1.00  0.00    -0.130 N 
HETATM   33  C10 UNL     1      11.112 -13.912  46.677  1.00  0.00     0.704 C 
HETATM   34  N5  UNL     1      11.823 -12.974  47.169  1.00  0.00    -0.232 N 
HETATM   35  N6  UNL     1      11.754 -14.962  45.967  1.00  0.00    -0.138 N 
ATOM     36  H52 UNL     1      11.362 -12.220  47.679  1.00  0.00     0.174 HD
ATOM     37  H51 UNL     1      12.838 -12.939  47.079  1.00  0.00     0.174 HD
ATOM     38  H6  UNL     1      12.675 -14.807  45.559  1.00  0.00     0.205 HD
ATOM     39  H4  UNL     1       9.274 -14.159  47.727  1.00  0.00     0.205 HD
BRANCH  35  40
HETATM   40  N7  UNL     1      11.139 -16.190  45.825  1.00  0.00    -0.331 N 
ATOM     41  H72 UNL     1      11.179 -16.658  44.919  1.00  0.00     0.177 HD
ATOM     42  H71 UNL     1      10.653 -16.619  46.613  1.00  0.00     0.177 HD
ENDBRANCH  35  40
ENDBRANCH  10  32
ENDBRANCH   1   7
TORSDOF 9
ENDMDL
MODEL 5
REMARK VINA RESULT: -5.851886987      3.823     11.009
REMARK  9 active torsions:
REMARK  status: ('A' for Active; 'I' for Inactive)
REMARK    1  A    between atoms: C2_2  and  O2_4 
REMARK    2  A    between atoms: O2_4  and  C3_5 
REMARK    3  A    between atoms: C3_5  and  C4_6 
REMARK    4  A    between atoms: C4_6  and  O3_7 
REMARK    5  A    between atoms: O3_7  and  N1_8 
REMARK    6  A    between atoms: C5_10  and  C7_12 
REMARK    7  A    between atoms: N3_18  and  N4_20 
REMARK       I    between atoms: N4_20  and  C10_22 
REMARK       I    between atoms: C10_22  and  N6_26 
REMARK    8  A    between atoms: N6_26  and  N7_28 
REMARK    9  A    between atoms: C11_31  and  C12_32 
REMARK       I    between atoms: C12_32  and  N8_34 
ROOT
HETATM    1  C12 UNL     1       7.500 -16.026  46.890  1.00  0.00     0.284 C 
HETATM    2  O4  UNL     1       8.553 -16.734  46.939  1.00  0.00    -0.265 OA
HETATM    3  N8  UNL     1       6.671 -15.950  48.016  1.00  0.00    -0.258 N 
ATOM      4  H8  UNL     1       5.821 -15.387  47.978  1.00  0.00     0.181 HD
HETATM    5  C13 UNL     1       6.993 -16.636  49.191  1.00  0.00     0.184 C 
HETATM    6  N9  UNL     1       7.275 -17.199  50.179  1.00  0.00    -0.172 NA
ENDROOT
BRANCH   1   7
HETATM    7  C11 UNL     1       7.140 -15.303  45.670  1.00  0.00     0.148 A 
HETATM    8  C9  UNL     1       7.862 -14.202  45.308  1.00  0.00     0.154 A 
HETATM    9  N2  UNL     1       7.387 -13.507  44.197  1.00  0.00    -0.332 N 
HETATM   10  N3  UNL     1       8.889 -13.759  45.771  1.00  0.00    -0.269 N 
HETATM   11  C8  UNL     1       6.288 -13.929  43.548  1.00  0.00     0.104 A 
ATOM     12  H2  UNL     1       7.877 -12.673  43.873  1.00  0.00     0.168 HD
HETATM   13  S1  UNL     1       5.421 -13.345  42.166  1.00  0.00    -0.068 SA
HETATM   14  C14 UNL     1       5.569 -15.029  43.903  1.00  0.00     0.074 A 
HETATM   15  C7  UNL     1       4.194 -14.514  42.099  1.00  0.00     0.039 A 
HETATM   16  C15 UNL     1       4.476 -15.335  43.148  1.00  0.00    -0.013 A 
HETATM   17  C16 UNL     1       3.566 -16.532  43.412  1.00  0.00     0.052 C 
HETATM   18  N10 UNL     1       6.029 -15.720  45.001  1.00  0.00    -0.346 N 
ATOM     19  H10 UNL     1       5.532 -16.553  45.317  1.00  0.00     0.166 HD
ATOM     20  H3  UNL     1       9.168 -12.951  45.215  1.00  0.00     0.189 HD
BRANCH  15  21
HETATM   21  C5  UNL     1       3.100 -14.593  41.129  1.00  0.00     0.046 C 
HETATM   22  N1  UNL     1       3.203 -14.150  39.948  1.00  0.00    -0.270 N 
ATOM     23  H1  UNL     1       4.097 -13.727  39.695  1.00  0.00     0.194 HD
HETATM   24  C6  UNL     1       1.834 -15.215  41.557  1.00  0.00     0.071 C 
BRANCH  22  25
HETATM   25  O3  UNL     1       2.255 -14.177  38.989  1.00  0.00    -0.278 OA
BRANCH  25  26
HETATM   26  C4  UNL     1       1.213 -13.236  38.853  1.00  0.00     0.228 C 
BRANCH  26  27
HETATM   27  C3  UNL     1       1.589 -12.066  38.006  1.00  0.00     0.207 C 
BRANCH  27  28
HETATM   28  O2  UNL     1       2.826 -11.531  38.435  1.00  0.00    -0.320 OA
BRANCH  28  29
HETATM   29  C2  UNL     1       3.965 -11.541  37.644  1.00  0.00     0.254 C 
HETATM   30  C1  UNL     1       3.875 -12.166  36.306  1.00  0.00     0.126 C 
HETATM   31  O1  UNL     1       5.008 -11.025  38.098  1.00  0.00    -0.266 OA
ENDBRANCH  28  29
ENDBRANCH  27  28
ENDBRANCH  26  27
ENDBRANCH  25  26
ENDBRANCH  22  25
ENDBRANCH  15  21
BRANCH  10  32
HETATM   32  N4  UNL     1       9.786 -13.933  46.730  1.00  0.00    -0.130 N 
HETATM   33  C10 UNL     1      11.225 -13.847  46.532  1.00  0.00     0.704 C 
HETATM   34  N5  UNL     1      11.935 -12.893  46.995  1.00  0.00    -0.232 N 
HETATM   35  N6  UNL     1      11.857 -14.878  45.788  1.00  0.00    -0.138 N 
ATOM     36  H52 UNL     1      11.481 -12.152  47.529  1.00  0.00     0.174 HD
ATOM     37  H51 UNL     1      12.944 -12.833  46.856  1.00  0.00     0.174 HD
ATOM     38  H6  UNL     1      12.754 -14.700  45.337  1.00  0.00     0.205 HD
ATOM     39  H4  UNL     1       9.445 -14.141  47.668  1.00  0.00     0.205 HD
BRANCH  35  40
HETATM   40  N7  UNL     1      11.265 -16.121  45.671  1.00  0.00    -0.331 N 
ATOM     41  H72 UNL     1      10.889 -16.402  44.766  1.00  0.00     0.177 HD
ATOM     42  H71 UNL     1      11.207 -16.743  46.477  1.00  0.00     0.177 HD
ENDBRANCH  35  40
ENDBRANCH  10  32
ENDBRANCH   1   7
TORSDOF 9
ENDMDL
