MODEL 1
REMARK VINA RESULT: -6.363537321      0.000      0.000
REMARK  5 active torsions:
REMARK  status: ('A' for Active; 'I' for Inactive)
REMARK    1  A    between atoms: N1_2  and  C2_4 
REMARK    2  A    between atoms: C2_4  and  N2_6 
REMARK    3  A    between atoms: C5_9  and  N3_10 
REMARK       I    between atoms: N3_10  and  C6_12 
REMARK    4  A    between atoms: C6_12  and  C7_14 
REMARK    5  A    between atoms: C11_18  and  O2_19 
ROOT
HETATM    1  N2  UNL     1      -4.148   4.438  11.783  1.00  0.00    -0.356 N 
HETATM    2  C3  UNL     1      -2.927   4.736  12.577  1.00  0.00     0.127 C 
HETATM    3  C4  UNL     1      -3.203   4.507  14.021  1.00  0.00     0.047 C 
HETATM    4  C5  UNL     1      -3.588   3.094  14.304  1.00  0.00     0.116 C 
HETATM    5  C11 UNL     1      -3.992   2.396  13.054  1.00  0.00     0.161 C 
HETATM    6  C13 UNL     1      -4.877   3.275  12.159  1.00  0.00     0.159 C 
ENDROOT
BRANCH   4   7
HETATM    7  N3  UNL     1      -4.629   2.973  15.286  1.00  0.00    -0.354 N 
HETATM    8  C6  UNL     1      -4.572   2.059  16.364  1.00  0.00     0.222 C 
HETATM    9  O1  UNL     1      -3.564   1.317  16.467  1.00  0.00    -0.273 OA
ATOM     10  H3  UNL     1      -5.448   3.575  15.202  1.00  0.00     0.163 HD
BRANCH   8  11
HETATM   11  C7  UNL     1      -5.654   1.948  17.366  1.00  0.00     0.078 C 
HETATM   12  C8  UNL     1      -6.161   0.520  17.447  1.00  0.00     0.014 C 
HETATM   13  C9  UNL     1      -7.599   1.013  17.330  1.00  0.00     0.002 C 
HETATM   14  C10 UNL     1      -7.020   2.356  16.892  1.00  0.00     0.014 C 
ENDBRANCH   8  11
ENDBRANCH   4   7
BRANCH   5  15
HETATM   15  O2  UNL     1      -2.965   1.914  12.287  1.00  0.00    -0.387 OA
HETATM   16  C12 UNL     1      -3.180   0.636  11.786  1.00  0.00     0.202 C 
ENDBRANCH   5  15
BRANCH   1  17
HETATM   17  C2  UNL     1      -4.494   5.315  10.734  1.00  0.00     0.169 C 
HETATM   18  S1  UNL     1      -5.097   6.836  11.173  1.00  0.00    -0.041 SA
BRANCH  17  19
HETATM   19  N1  UNL     1      -4.408   5.106   9.371  1.00  0.00    -0.371 N 
HETATM   20  C1  UNL     1      -4.402   6.080   8.320  1.00  0.00     0.148 C 
ATOM     21  H1  UNL     1      -4.341   4.132   9.075  1.00  0.00     0.161 HD
ENDBRANCH  17  19
ENDBRANCH   1  17
TORSDOF 5
ENDMDL
MODEL 2
REMARK VINA RESULT: -6.203034232      1.770      1.864
REMARK  5 active torsions:
REMARK  status: ('A' for Active; 'I' for Inactive)
REMARK    1  A    between atoms: N1_2  and  C2_4 
REMARK    2  A    between atoms: C2_4  and  N2_6 
REMARK    3  A    between atoms: C5_9  and  N3_10 
REMARK       I    between atoms: N3_10  and  C6_12 
REMARK    4  A    between atoms: C6_12  and  C7_14 
REMARK    5  A    between atoms: C11_18  and  O2_19 
ROOT
HETATM    1  N2  UNL     1      -3.926   3.704  10.690  1.00  0.00    -0.356 N 
HETATM    2  C3  UNL     1      -2.780   2.779  10.892  1.00  0.00     0.127 C 
HETATM    3  C4  UNL     1      -2.691   2.399  12.327  1.00  0.00     0.047 C 
HETATM    4  C5  UNL     1      -3.920   1.698  12.801  1.00  0.00     0.116 C 
HETATM    5  C11 UNL     1      -5.052   1.924  11.862  1.00  0.00     0.161 C 
HETATM    6  C13 UNL     1      -5.127   3.379  11.382  1.00  0.00     0.159 C 
ENDROOT
BRANCH   4   7
HETATM    7  N3  UNL     1      -4.312   2.073  14.131  1.00  0.00    -0.354 N 
HETATM    8  C6  UNL     1      -4.752   1.140  15.099  1.00  0.00     0.222 C 
HETATM    9  O1  UNL     1      -4.803  -0.074  14.780  1.00  0.00    -0.273 OA
ATOM     10  H3  UNL     1      -4.271   3.059  14.390  1.00  0.00     0.163 HD
BRANCH   8  11
HETATM   11  C7  UNL     1      -5.152   1.544  16.464  1.00  0.00     0.078 C 
HETATM   12  C8  UNL     1      -5.900   0.419  17.155  1.00  0.00     0.014 C 
HETATM   13  C9  UNL     1      -7.006   1.388  17.559  1.00  0.00     0.002 C 
HETATM   14  C10 UNL     1      -6.404   2.368  16.555  1.00  0.00     0.014 C 
ENDBRANCH   8  11
ENDBRANCH   4   7
BRANCH   5  15
HETATM   15  O2  UNL     1      -5.073   1.114  10.757  1.00  0.00    -0.387 OA
HETATM   16  C12 UNL     1      -4.823  -0.225  11.027  1.00  0.00     0.202 C 
ENDBRANCH   5  15
BRANCH   1  17
HETATM   17  C2  UNL     1      -3.745   4.819   9.846  1.00  0.00     0.169 C 
HETATM   18  S1  UNL     1      -2.173   5.437   9.718  1.00  0.00    -0.041 SA
BRANCH  17  19
HETATM   19  N1  UNL     1      -4.688   5.492   9.092  1.00  0.00    -0.371 N 
HETATM   20  C1  UNL     1      -5.483   6.624   9.467  1.00  0.00     0.148 C 
ATOM     21  H1  UNL     1      -4.835   5.138   8.147  1.00  0.00     0.161 HD
ENDBRANCH  17  19
ENDBRANCH   1  17
TORSDOF 5
ENDMDL
MODEL 3
REMARK VINA RESULT: -6.194148537      1.081      1.325
REMARK  5 active torsions:
REMARK  status: ('A' for Active; 'I' for Inactive)
REMARK    1  A    between atoms: N1_2  and  C2_4 
REMARK    2  A    between atoms: C2_4  and  N2_6 
REMARK    3  A    between atoms: C5_9  and  N3_10 
REMARK       I    between atoms: N3_10  and  C6_12 
REMARK    4  A    between atoms: C6_12  and  C7_14 
REMARK    5  A    between atoms: C11_18  and  O2_19 
ROOT
HETATM    1  N2  UNL     1      -4.045   4.709  12.032  1.00  0.00    -0.356 N 
HETATM    2  C3  UNL     1      -2.830   4.946  12.854  1.00  0.00     0.127 C 
HETATM    3  C4  UNL     1      -3.122   4.634  14.278  1.00  0.00     0.047 C 
HETATM    4  C5  UNL     1      -3.522   3.209  14.472  1.00  0.00     0.116 C 
HETATM    5  C11 UNL     1      -3.920   2.592  13.177  1.00  0.00     0.161 C 
HETATM    6  C13 UNL     1      -4.788   3.532  12.329  1.00  0.00     0.159 C 
ENDROOT
BRANCH   4   7
HETATM    7  N3  UNL     1      -4.574   3.039  15.434  1.00  0.00    -0.354 N 
HETATM    8  C6  UNL     1      -4.546   2.046  16.441  1.00  0.00     0.222 C 
HETATM    9  O1  UNL     1      -3.555   1.276  16.496  1.00  0.00    -0.273 OA
ATOM     10  H3  UNL     1      -5.379   3.663  15.390  1.00  0.00     0.163 HD
BRANCH   8  11
HETATM   11  C7  UNL     1      -5.639   1.885  17.424  1.00  0.00     0.078 C 
HETATM   12  C8  UNL     1      -6.210   0.480  17.361  1.00  0.00     0.014 C 
HETATM   13  C9  UNL     1      -7.623   1.045  17.291  1.00  0.00     0.002 C 
HETATM   14  C10 UNL     1      -6.982   2.398  16.989  1.00  0.00     0.014 C 
ENDBRANCH   8  11
ENDBRANCH   4   7
BRANCH   5  15
HETATM   15  O2  UNL     1      -2.889   2.148  12.392  1.00  0.00    -0.387 OA
HETATM   16  C12 UNL     1      -3.129   0.926  11.776  1.00  0.00     0.202 C 
ENDBRANCH   5  15
BRANCH   1  17
HETATM   17  C2  UNL     1      -4.373   5.651  11.034  1.00  0.00     0.169 C 
HETATM   18  S1  UNL     1      -3.612   5.472   9.531  1.00  0.00    -0.041 SA
BRANCH  17  19
HETATM   19  N1  UNL     1      -5.244   6.721  11.110  1.00  0.00    -0.371 N 
HETATM   20  C1  UNL     1      -5.894   7.258  12.270  1.00  0.00     0.148 C 
ATOM     21  H1  UNL     1      -5.451   7.189  10.228  1.00  0.00     0.161 HD
ENDBRANCH  17  19
ENDBRANCH   1  17
TORSDOF 5
ENDMDL
MODEL 4
REMARK VINA RESULT: -5.971822811      1.858      2.159
REMARK  5 active torsions:
REMARK  status: ('A' for Active; 'I' for Inactive)
REMARK    1  A    between atoms: N1_2  and  C2_4 
REMARK    2  A    between atoms: C2_4  and  N2_6 
REMARK    3  A    between atoms: C5_9  and  N3_10 
REMARK       I    between atoms: N3_10  and  C6_12 
REMARK    4  A    between atoms: C6_12  and  C7_14 
REMARK    5  A    between atoms: C11_18  and  O2_19 
ROOT
HETATM    1  N2  UNL     1      -3.377   3.660  10.737  1.00  0.00    -0.356 N 
HETATM    2  C3  UNL     1      -2.467   2.512  10.991  1.00  0.00     0.127 C 
HETATM    3  C4  UNL     1      -2.582   2.089  12.413  1.00  0.00     0.047 C 
HETATM    4  C5  UNL     1      -3.966   1.648  12.758  1.00  0.00     0.116 C 
HETATM    5  C11 UNL     1      -4.941   2.126  11.742  1.00  0.00     0.161 C 
HETATM    6  C13 UNL     1      -4.674   3.576  11.317  1.00  0.00     0.159 C 
ENDROOT
BRANCH   4   7
HETATM    7  N3  UNL     1      -4.385   2.065  14.067  1.00  0.00    -0.354 N 
HETATM    8  C6  UNL     1      -4.786   1.158  15.075  1.00  0.00     0.222 C 
HETATM    9  O1  UNL     1      -4.776  -0.071  14.813  1.00  0.00    -0.273 OA
ATOM     10  H3  UNL     1      -4.394   3.062  14.280  1.00  0.00     0.163 HD
BRANCH   8  11
HETATM   11  C7  UNL     1      -5.215   1.605  16.418  1.00  0.00     0.078 C 
HETATM   12  C8  UNL     1      -5.970   0.498  17.132  1.00  0.00     0.014 C 
HETATM   13  C9  UNL     1      -7.090   1.472  17.481  1.00  0.00     0.002 C 
HETATM   14  C10 UNL     1      -6.475   2.423  16.456  1.00  0.00     0.014 C 
ENDBRANCH   8  11
ENDBRANCH   4   7
BRANCH   5  15
HETATM   15  O2  UNL     1      -5.033   1.365  10.607  1.00  0.00    -0.387 OA
HETATM   16  C12 UNL     1      -4.980  -0.005  10.833  1.00  0.00     0.202 C 
ENDBRANCH   5  15
BRANCH   1  17
HETATM   17  C2  UNL     1      -2.899   4.733   9.956  1.00  0.00     0.169 C 
HETATM   18  S1  UNL     1      -4.060   5.767   9.282  1.00  0.00    -0.041 SA
BRANCH  17  19
HETATM   19  N1  UNL     1      -1.593   5.067   9.656  1.00  0.00    -0.371 N 
HETATM   20  C1  UNL     1      -0.630   5.727  10.489  1.00  0.00     0.148 C 
ATOM     21  H1  UNL     1      -1.272   4.811   8.723  1.00  0.00     0.161 HD
ENDBRANCH  17  19
ENDBRANCH   1  17
TORSDOF 5
ENDMDL
MODEL 5
REMARK VINA RESULT: -5.923224149      1.777      2.329
REMARK  5 active torsions:
REMARK  status: ('A' for Active; 'I' for Inactive)
REMARK    1  A    between atoms: N1_2  and  C2_4 
REMARK    2  A    between atoms: C2_4  and  N2_6 
REMARK    3  A    between atoms: C5_9  and  N3_10 
REMARK       I    between atoms: N3_10  and  C6_12 
REMARK    4  A    between atoms: C6_12  and  C7_14 
REMARK    5  A    between atoms: C11_18  and  O2_19 
ROOT
HETATM    1  N2  UNL     1      -3.587   5.890  12.969  1.00  0.00    -0.356 N 
HETATM    2  C3  UNL     1      -2.370   5.220  13.497  1.00  0.00     0.127 C 
HETATM    3  C4  UNL     1      -2.732   4.380  14.671  1.00  0.00     0.047 C 
HETATM    4  C5  UNL     1      -3.713   3.312  14.318  1.00  0.00     0.116 C 
HETATM    5  C11 UNL     1      -4.376   3.613  13.021  1.00  0.00     0.161 C 
HETATM    6  C13 UNL     1      -4.764   5.092  12.895  1.00  0.00     0.159 C 
ENDROOT
BRANCH   4   7
HETATM    7  N3  UNL     1      -4.707   3.095  15.332  1.00  0.00    -0.354 N 
HETATM    8  C6  UNL     1      -4.571   2.124  16.351  1.00  0.00     0.222 C 
HETATM    9  O1  UNL     1      -3.533   1.417  16.370  1.00  0.00    -0.273 OA
ATOM     10  H3  UNL     1      -5.550   3.668  15.316  1.00  0.00     0.163 HD
BRANCH   8  11
HETATM   11  C7  UNL     1      -5.605   1.914  17.387  1.00  0.00     0.078 C 
HETATM   12  C8  UNL     1      -6.140   0.494  17.326  1.00  0.00     0.014 C 
HETATM   13  C9  UNL     1      -7.570   1.022  17.342  1.00  0.00     0.002 C 
HETATM   14  C10 UNL     1      -6.982   2.397  17.035  1.00  0.00     0.014 C 
ENDBRANCH   8  11
ENDBRANCH   4   7
BRANCH   5  15
HETATM   15  O2  UNL     1      -3.668   3.267  11.900  1.00  0.00    -0.387 OA
HETATM   16  C12 UNL     1      -3.299   1.928  11.850  1.00  0.00     0.202 C 
ENDBRANCH   5  15
BRANCH   1  17
HETATM   17  C2  UNL     1      -3.493   7.244  12.586  1.00  0.00     0.169 C 
HETATM   18  S1  UNL     1      -3.400   7.567  10.926  1.00  0.00    -0.041 SA
BRANCH  17  19
HETATM   19  N1  UNL     1      -3.465   8.368  13.390  1.00  0.00    -0.371 N 
HETATM   20  C1  UNL     1      -3.726   8.462  14.797  1.00  0.00     0.148 C 
ATOM     21  H1  UNL     1      -3.229   9.242  12.922  1.00  0.00     0.161 HD
ENDBRANCH  17  19
ENDBRANCH   1  17
TORSDOF 5
ENDMDL
