MODEL 1
REMARK VINA RESULT: -6.845568265      0.000      0.000
REMARK  4 active torsions:
REMARK  status: ('A' for Active; 'I' for Inactive)
REMARK    1  A    between atoms: N1_5  and  C5_6 
REMARK    2  A    between atoms: C5_6  and  C6_7 
REMARK    3  A    between atoms: C6_7  and  C7_8 
REMARK    4  A    between atoms: C7_8  and  N2_9 
REMARK       I    between atoms: C8_11  and  N4_13 
ROOT
HETATM    1  C6  UNL     1      -4.323   4.482  11.972  1.00  0.00     0.050 C 
ENDROOT
BRANCH   1   2
HETATM    2  C5  UNL     1      -3.000   3.834  11.755  1.00  0.00     0.274 C 
BRANCH   2   3
HETATM    3  N1  UNL     1      -3.028   2.907  10.673  1.00  0.00     0.092 N 
HETATM    4  C4  UNL     1      -4.129   1.976  10.754  1.00  0.00     0.310 C 
HETATM    5  C2  UNL     1      -3.904   0.632  11.272  1.00  0.00     0.144 C 
HETATM    6  C1  UNL     1      -4.932  -0.297  10.591  1.00  0.00     0.048 C 
HETATM    7  C3  UNL     1      -4.189   0.496  12.757  1.00  0.00     0.048 C 
HETATM    8  N5  UNL     1      -2.605   0.067  10.978  1.00  0.00    -0.064 N 
HETATM    9  C15 UNL     1      -1.639   1.079  11.429  1.00  0.00     0.263 C 
ATOM     10  H52 UNL     1      -2.455  -0.857  11.383  1.00  0.00     0.278 HD
ATOM     11  H51 UNL     1      -2.487  -0.212  10.004  1.00  0.00     0.278 HD
HETATM   12  C14 UNL     1      -1.760   2.232  10.466  1.00  0.00     0.300 C 
ENDBRANCH   2   3
ENDBRANCH   1   2
BRANCH   1  13
HETATM   13  C7  UNL     1      -4.348   4.947  13.433  1.00  0.00     0.124 C 
BRANCH  13  14
HETATM   14  N2  UNL     1      -5.002   4.042  14.258  1.00  0.00    -0.364 N 
HETATM   15  C8  UNL     1      -4.584   3.286  15.173  1.00  0.00     0.186 C 
HETATM   16  N3  UNL     1      -3.217   3.238  15.540  1.00  0.00    -0.064 NA
HETATM   17  N4  UNL     1      -5.505   2.461  15.875  1.00  0.00    -0.356 N 
HETATM   18  C9  UNL     1      -6.784   3.016  16.245  1.00  0.00     0.125 C 
HETATM   19  C13 UNL     1      -5.177   1.106  16.216  1.00  0.00     0.125 C 
HETATM   20  C10 UNL     1      -7.737   2.026  16.816  1.00  0.00     0.020 C 
HETATM   21  C11 UNL     1      -7.152   0.943  17.648  1.00  0.00     0.003 C 
HETATM   22  C12 UNL     1      -5.643   0.935  17.674  1.00  0.00     0.020 C 
ATOM     23  H2  UNL     1      -6.006   3.978  14.092  1.00  0.00     0.162 HD
ENDBRANCH  13  14
ENDBRANCH   1  13
TORSDOF 4
ENDMDL
MODEL 2
REMARK VINA RESULT: -6.678825578      0.690      1.503
REMARK  4 active torsions:
REMARK  status: ('A' for Active; 'I' for Inactive)
REMARK    1  A    between atoms: N1_5  and  C5_6 
REMARK    2  A    between atoms: C5_6  and  C6_7 
REMARK    3  A    between atoms: C6_7  and  C7_8 
REMARK    4  A    between atoms: C7_8  and  N2_9 
REMARK       I    between atoms: C8_11  and  N4_13 
ROOT
HETATM    1  C6  UNL     1      -3.911   4.708  12.347  1.00  0.00     0.050 C 
ENDROOT
BRANCH   1   2
HETATM    2  C5  UNL     1      -2.979   3.547  12.286  1.00  0.00     0.274 C 
BRANCH   2   3
HETATM    3  N1  UNL     1      -3.098   2.828  11.062  1.00  0.00     0.092 N 
HETATM    4  C4  UNL     1      -4.204   1.898  11.058  1.00  0.00     0.310 C 
HETATM    5  C2  UNL     1      -3.960   0.483  11.311  1.00  0.00     0.144 C 
HETATM    6  C1  UNL     1      -5.048  -0.309  10.553  1.00  0.00     0.048 C 
HETATM    7  C3  UNL     1      -4.138   0.085  12.764  1.00  0.00     0.048 C 
HETATM    8  N5  UNL     1      -2.694  -0.021  10.825  1.00  0.00    -0.064 N 
HETATM    9  C15 UNL     1      -1.684   0.894  11.376  1.00  0.00     0.263 C 
ATOM     10  H52 UNL     1      -2.528  -1.003  11.047  1.00  0.00     0.278 HD
ATOM     11  H51 UNL     1      -2.651  -0.122   9.811  1.00  0.00     0.278 HD
HETATM   12  C14 UNL     1      -1.859   2.200  10.645  1.00  0.00     0.300 C 
ENDBRANCH   2   3
ENDBRANCH   1   2
BRANCH   1  13
HETATM   13  C7  UNL     1      -3.902   5.200  13.800  1.00  0.00     0.124 C 
BRANCH  13  14
HETATM   14  N2  UNL     1      -4.457   4.270  14.669  1.00  0.00    -0.364 N 
HETATM   15  C8  UNL     1      -5.652   3.975  14.931  1.00  0.00     0.186 C 
HETATM   16  N3  UNL     1      -6.741   4.627  14.305  1.00  0.00    -0.064 NA
HETATM   17  N4  UNL     1      -5.928   2.946  15.874  1.00  0.00    -0.356 N 
HETATM   18  C9  UNL     1      -5.123   1.749  15.844  1.00  0.00     0.125 C 
HETATM   19  C13 UNL     1      -6.984   3.085  16.835  1.00  0.00     0.125 C 
HETATM   20  C10 UNL     1      -5.374   0.817  16.976  1.00  0.00     0.020 C 
HETATM   21  C11 UNL     1      -6.772   0.735  17.473  1.00  0.00     0.003 C 
HETATM   22  C12 UNL     1      -7.711   1.727  16.832  1.00  0.00     0.020 C 
ATOM     23  H2  UNL     1      -3.770   3.728  15.191  1.00  0.00     0.162 HD
ENDBRANCH  13  14
ENDBRANCH   1  13
TORSDOF 4
ENDMDL
MODEL 3
REMARK VINA RESULT: -6.251327794      2.330      6.164
REMARK  4 active torsions:
REMARK  status: ('A' for Active; 'I' for Inactive)
REMARK    1  A    between atoms: N1_5  and  C5_6 
REMARK    2  A    between atoms: C5_6  and  C6_7 
REMARK    3  A    between atoms: C6_7  and  C7_8 
REMARK    4  A    between atoms: C7_8  and  N2_9 
REMARK       I    between atoms: C8_11  and  N4_13 
ROOT
HETATM    1  C6  UNL     1      -6.171   3.163  15.849  1.00  0.00     0.050 C 
ENDROOT
BRANCH   1   2
HETATM    2  C5  UNL     1      -6.173   4.160  14.742  1.00  0.00     0.274 C 
BRANCH   2   3
HETATM    3  N1  UNL     1      -5.349   5.284  15.032  1.00  0.00     0.092 N 
HETATM    4  C4  UNL     1      -6.104   6.488  15.292  1.00  0.00     0.310 C 
HETATM    5  C2  UNL     1      -6.267   7.481  14.237  1.00  0.00     0.144 C 
HETATM    6  C1  UNL     1      -6.412   8.856  14.926  1.00  0.00     0.048 C 
HETATM    7  C3  UNL     1      -7.545   7.317  13.437  1.00  0.00     0.048 C 
HETATM    8  N5  UNL     1      -5.146   7.609  13.332  1.00  0.00    -0.064 N 
HETATM    9  C15 UNL     1      -4.878   6.242  12.864  1.00  0.00     0.263 C 
ATOM     10  H52 UNL     1      -5.297   8.282  12.580  1.00  0.00     0.278 HD
ATOM     11  H51 UNL     1      -4.335   8.072  13.742  1.00  0.00     0.278 HD
HETATM   12  C14 UNL     1      -4.307   5.499  14.045  1.00  0.00     0.300 C 
ENDBRANCH   2   3
ENDBRANCH   1   2
BRANCH   1  13
HETATM   13  C7  UNL     1      -4.828   2.427  15.773  1.00  0.00     0.124 C 
BRANCH  13  14
HETATM   14  N2  UNL     1      -4.548   1.983  14.488  1.00  0.00    -0.364 N 
HETATM   15  C8  UNL     1      -4.463   0.827  13.999  1.00  0.00     0.186 C 
HETATM   16  N3  UNL     1      -4.661  -0.336  14.782  1.00  0.00    -0.064 NA
HETATM   17  N4  UNL     1      -4.172   0.671  12.615  1.00  0.00    -0.356 N 
HETATM   18  C9  UNL     1      -4.813   1.556  11.673  1.00  0.00     0.125 C 
HETATM   19  C13 UNL     1      -3.265  -0.342  12.156  1.00  0.00     0.125 C 
HETATM   20  C10 UNL     1      -4.311   1.428  10.278  1.00  0.00     0.020 C 
HETATM   21  C11 UNL     1      -3.914   0.067   9.835  1.00  0.00     0.003 C 
HETATM   22  C12 UNL     1      -3.952  -0.971  10.930  1.00  0.00     0.020 C 
ATOM     23  H2  UNL     1      -4.380   2.732  13.817  1.00  0.00     0.162 HD
ENDBRANCH  13  14
ENDBRANCH   1  13
TORSDOF 4
ENDMDL
MODEL 4
REMARK VINA RESULT: -6.207247510      1.934      4.059
REMARK  4 active torsions:
REMARK  status: ('A' for Active; 'I' for Inactive)
REMARK    1  A    between atoms: N1_5  and  C5_6 
REMARK    2  A    between atoms: C5_6  and  C6_7 
REMARK    3  A    between atoms: C6_7  and  C7_8 
REMARK    4  A    between atoms: C7_8  and  N2_9 
REMARK       I    between atoms: C8_11  and  N4_13 
ROOT
HETATM    1  C6  UNL     1      -1.659   1.018  11.060  1.00  0.00     0.050 C 
ENDROOT
BRANCH   1   2
HETATM    2  C5  UNL     1      -1.734   2.447  10.646  1.00  0.00     0.274 C 
BRANCH   2   3
HETATM    3  N1  UNL     1      -0.818   3.264  11.368  1.00  0.00     0.092 N 
HETATM    4  C4  UNL     1      -1.389   3.830  12.568  1.00  0.00     0.310 C 
HETATM    5  C2  UNL     1      -1.869   5.206  12.561  1.00  0.00     0.144 C 
HETATM    6  C1  UNL     1      -1.712   5.751  13.998  1.00  0.00     0.048 C 
HETATM    7  C3  UNL     1      -3.351   5.333  12.263  1.00  0.00     0.048 C 
HETATM    8  N5  UNL     1      -1.128   6.113  11.712  1.00  0.00    -0.064 N 
HETATM    9  C15 UNL     1      -1.093   5.459  10.396  1.00  0.00     0.263 C 
ATOM     10  H52 UNL     1      -1.505   7.061  11.692  1.00  0.00     0.278 HD
ATOM     11  H51 UNL     1      -0.208   6.361  12.075  1.00  0.00     0.278 HD
HETATM   12  C14 UNL     1      -0.176   4.271  10.544  1.00  0.00     0.300 C 
ENDBRANCH   2   3
ENDBRANCH   1   2
BRANCH   1  13
HETATM   13  C7  UNL     1      -3.101   0.556  11.302  1.00  0.00     0.124 C 
BRANCH  13  14
HETATM   14  N2  UNL     1      -3.571   0.946  12.549  1.00  0.00    -0.364 N 
HETATM   15  C8  UNL     1      -4.560   1.645  12.893  1.00  0.00     0.186 C 
HETATM   16  N3  UNL     1      -5.446   2.209  11.944  1.00  0.00    -0.064 NA
HETATM   17  N4  UNL     1      -4.811   1.871  14.275  1.00  0.00    -0.356 N 
HETATM   18  C9  UNL     1      -4.646   0.771  15.194  1.00  0.00     0.125 C 
HETATM   19  C13 UNL     1      -5.224   3.159  14.753  1.00  0.00     0.125 C 
HETATM   20  C10 UNL     1      -4.760   1.152  16.628  1.00  0.00     0.020 C 
HETATM   21  C11 UNL     1      -5.733   2.227  16.955  1.00  0.00     0.003 C 
HETATM   22  C12 UNL     1      -6.366   2.872  15.746  1.00  0.00     0.020 C 
ATOM     23  H2  UNL     1      -3.012   0.604  13.330  1.00  0.00     0.162 HD
ENDBRANCH  13  14
ENDBRANCH   1  13
TORSDOF 4
ENDMDL
MODEL 5
REMARK VINA RESULT: -6.106013799      2.851      6.592
REMARK  4 active torsions:
REMARK  status: ('A' for Active; 'I' for Inactive)
REMARK    1  A    between atoms: N1_5  and  C5_6 
REMARK    2  A    between atoms: C5_6  and  C6_7 
REMARK    3  A    between atoms: C6_7  and  C7_8 
REMARK    4  A    between atoms: C7_8  and  N2_9 
REMARK       I    between atoms: C8_11  and  N4_13 
ROOT
HETATM    1  C6  UNL     1      -3.035   5.878  14.154  1.00  0.00     0.050 C 
ENDROOT
BRANCH   1   2
HETATM    2  C5  UNL     1      -4.002   6.879  14.685  1.00  0.00     0.274 C 
BRANCH   2   3
HETATM    3  N1  UNL     1      -5.353   6.514  14.417  1.00  0.00     0.092 N 
HETATM    4  C4  UNL     1      -5.834   7.018  13.152  1.00  0.00     0.310 C 
HETATM    5  C2  UNL     1      -6.655   8.222  13.118  1.00  0.00     0.144 C 
HETATM    6  C1  UNL     1      -7.584   8.105  11.889  1.00  0.00     0.048 C 
HETATM    7  C3  UNL     1      -5.862   9.494  12.879  1.00  0.00     0.048 C 
HETATM    8  N5  UNL     1      -7.527   8.406  14.256  1.00  0.00    -0.064 N 
HETATM    9  C15 UNL     1      -6.651   8.282  15.430  1.00  0.00     0.263 C 
ATOM     10  H52 UNL     1      -8.063   9.274  14.230  1.00  0.00     0.278 HD
ATOM     11  H51 UNL     1      -8.328   7.775  14.270  1.00  0.00     0.278 HD
HETATM   12  C14 UNL     1      -6.257   6.830  15.507  1.00  0.00     0.300 C 
ENDBRANCH   2   3
ENDBRANCH   1   2
BRANCH   1  13
HETATM   13  C7  UNL     1      -3.396   4.535  14.799  1.00  0.00     0.124 C 
BRANCH  13  14
HETATM   14  N2  UNL     1      -3.317   3.484  13.896  1.00  0.00    -0.364 N 
HETATM   15  C8  UNL     1      -4.200   2.865  13.247  1.00  0.00     0.186 C 
HETATM   16  N3  UNL     1      -5.575   3.186  13.358  1.00  0.00    -0.064 NA
HETATM   17  N4  UNL     1      -3.817   1.819  12.364  1.00  0.00    -0.356 N 
HETATM   18  C9  UNL     1      -2.647   2.006  11.541  1.00  0.00     0.125 C 
HETATM   19  C13 UNL     1      -4.573   0.601  12.282  1.00  0.00     0.125 C 
HETATM   20  C10 UNL     1      -2.231   0.793  10.786  1.00  0.00     0.020 C 
HETATM   21  C11 UNL     1      -3.320  -0.095  10.302  1.00  0.00     0.003 C 
HETATM   22  C12 UNL     1      -4.696   0.305  10.776  1.00  0.00     0.020 C 
ATOM     23  H2  UNL     1      -2.368   3.151  13.727  1.00  0.00     0.162 HD
ENDBRANCH  13  14
ENDBRANCH   1  13
TORSDOF 4
ENDMDL
