MODEL 1
REMARK VINA RESULT: -6.253673098      0.000      0.000
REMARK  7 active torsions:
REMARK  status: ('A' for Active; 'I' for Inactive)
REMARK    1  A    between atoms: C2_2  and  C4_4 
REMARK    2  A    between atoms: N2_12  and  C11_13 
REMARK    3  A    between atoms: C11_13  and  N3_15 
REMARK    4  A    between atoms: N3_15  and  C12_17 
REMARK    5  A    between atoms: C12_17  and  C13_18 
REMARK    6  A    between atoms: C13_18  and  C14_19 
REMARK    7  A    between atoms: C14_19  and  O1_20 
ROOT
HETATM    1  C4  UNL     1      -5.490   6.211  14.436  1.00  0.00     0.025 C 
HETATM    2  C5  UNL     1      -4.981   5.825  13.038  1.00  0.00     0.280 C 
HETATM    3  N1  UNL     1      -4.405   4.469  13.251  1.00  0.00     0.108 N 
HETATM    4  C6  UNL     1      -3.150   4.668  13.896  1.00  0.00     0.312 C 
HETATM    5  C7  UNL     1      -5.455   3.926  13.999  1.00  0.00     0.330 C 
HETATM    6  C8  UNL     1      -5.526   4.960  15.146  1.00  0.00     0.046 C 
HETATM    7  C9  UNL     1      -6.708   4.420  15.825  1.00  0.00     0.029 C 
HETATM    8  C10 UNL     1      -6.270   2.933  15.882  1.00  0.00     0.128 C 
HETATM    9  N2  UNL     1      -5.400   2.762  14.736  1.00  0.00    -0.328 N 
ENDROOT
BRANCH   9  10
HETATM   10  C11 UNL     1      -4.667   1.578  14.486  1.00  0.00     0.171 C 
HETATM   11  S1  UNL     1      -4.417   0.465  15.687  1.00  0.00    -0.041 SA
BRANCH  10  12
HETATM   12  N3  UNL     1      -4.106   1.281  13.217  1.00  0.00    -0.367 N 
ATOM     13  H3  UNL     1      -3.560   1.993  12.730  1.00  0.00     0.161 HD
BRANCH  12  14
HETATM   14  C12 UNL     1      -4.292   0.006  12.612  1.00  0.00     0.124 C 
BRANCH  14  15
HETATM   15  C13 UNL     1      -4.593   0.192  11.122  1.00  0.00     0.046 C 
BRANCH  15  16
HETATM   16  C14 UNL     1      -4.734   1.685  10.898  1.00  0.00     0.165 C 
BRANCH  16  17
HETATM   17  O1  UNL     1      -6.075   2.057  11.046  1.00  0.00    -0.401 OA
ATOM     18  H1  UNL     1      -6.623   1.498  10.507  1.00  0.00     0.209 HD
ENDBRANCH  16  17
ENDBRANCH  15  16
ENDBRANCH  14  15
ENDBRANCH  12  14
ENDBRANCH  10  12
ENDBRANCH   9  10
BRANCH   1  19
HETATM   19  C2  UNL     1      -6.624   7.136  14.423  1.00  0.00    -0.016 C 
HETATM   20  C1  UNL     1      -6.257   8.369  15.268  1.00  0.00     0.010 C 
HETATM   21  C3  UNL     1      -7.150   7.625  13.134  1.00  0.00     0.010 C 
ENDBRANCH   1  19
TORSDOF 7
ENDMDL
MODEL 2
REMARK VINA RESULT: -5.962696914      2.949      4.564
REMARK  7 active torsions:
REMARK  status: ('A' for Active; 'I' for Inactive)
REMARK    1  A    between atoms: C2_2  and  C4_4 
REMARK    2  A    between atoms: N2_12  and  C11_13 
REMARK    3  A    between atoms: C11_13  and  N3_15 
REMARK    4  A    between atoms: N3_15  and  C12_17 
REMARK    5  A    between atoms: C12_17  and  C13_18 
REMARK    6  A    between atoms: C13_18  and  C14_19 
REMARK    7  A    between atoms: C14_19  and  O1_20 
ROOT
HETATM    1  C4  UNL     1      -5.357   2.137  16.557  1.00  0.00     0.025 C 
HETATM    2  C5  UNL     1      -5.951   3.351  15.823  1.00  0.00     0.280 C 
HETATM    3  N1  UNL     1      -5.096   3.462  14.610  1.00  0.00     0.108 N 
HETATM    4  C6  UNL     1      -3.868   4.042  15.040  1.00  0.00     0.312 C 
HETATM    5  C7  UNL     1      -5.099   2.112  14.245  1.00  0.00     0.330 C 
HETATM    6  C8  UNL     1      -4.562   1.483  15.552  1.00  0.00     0.046 C 
HETATM    7  C9  UNL     1      -4.700   0.076  15.164  1.00  0.00     0.029 C 
HETATM    8  C10 UNL     1      -4.017   0.161  13.774  1.00  0.00     0.128 C 
HETATM    9  N2  UNL     1      -4.247   1.523  13.335  1.00  0.00    -0.328 N 
ENDROOT
BRANCH   9  10
HETATM   10  C11 UNL     1      -3.669   2.070  12.165  1.00  0.00     0.171 C 
HETATM   11  S1  UNL     1      -4.591   2.374  10.824  1.00  0.00    -0.041 SA
BRANCH  10  12
HETATM   12  N3  UNL     1      -2.286   2.379  12.070  1.00  0.00    -0.367 N 
ATOM     13  H3  UNL     1      -1.596   1.639  12.203  1.00  0.00     0.161 HD
BRANCH  12  14
HETATM   14  C12 UNL     1      -1.848   3.705  11.791  1.00  0.00     0.124 C 
BRANCH  14  15
HETATM   15  C13 UNL     1      -0.356   3.682  11.449  1.00  0.00     0.046 C 
BRANCH  15  16
HETATM   16  C14 UNL     1      -0.266   3.613   9.937  1.00  0.00     0.165 C 
BRANCH  16  17
HETATM   17  O1  UNL     1      -1.013   2.525   9.471  1.00  0.00    -0.401 OA
ATOM     18  H1  UNL     1      -1.880   2.819   9.215  1.00  0.00     0.209 HD
ENDBRANCH  16  17
ENDBRANCH  15  16
ENDBRANCH  14  15
ENDBRANCH  12  14
ENDBRANCH  10  12
ENDBRANCH   9  10
BRANCH   1  19
HETATM   19  C2  UNL     1      -6.322   1.412  17.386  1.00  0.00    -0.016 C 
HETATM   20  C1  UNL     1      -6.301   2.018  18.800  1.00  0.00     0.010 C 
HETATM   21  C3  UNL     1      -7.732   1.333  16.961  1.00  0.00     0.010 C 
ENDBRANCH   1  19
TORSDOF 7
ENDMDL
MODEL 3
REMARK VINA RESULT: -5.944759676      2.691      4.086
REMARK  7 active torsions:
REMARK  status: ('A' for Active; 'I' for Inactive)
REMARK    1  A    between atoms: C2_2  and  C4_4 
REMARK    2  A    between atoms: N2_12  and  C11_13 
REMARK    3  A    between atoms: C11_13  and  N3_15 
REMARK    4  A    between atoms: N3_15  and  C12_17 
REMARK    5  A    between atoms: C12_17  and  C13_18 
REMARK    6  A    between atoms: C13_18  and  C14_19 
REMARK    7  A    between atoms: C14_19  and  O1_20 
ROOT
HETATM    1  C4  UNL     1      -5.460   2.224  16.607  1.00  0.00     0.025 C 
HETATM    2  C5  UNL     1      -6.083   3.431  15.887  1.00  0.00     0.280 C 
HETATM    3  N1  UNL     1      -5.223   3.585  14.681  1.00  0.00     0.108 N 
HETATM    4  C6  UNL     1      -4.015   4.193  15.130  1.00  0.00     0.312 C 
HETATM    5  C7  UNL     1      -5.183   2.240  14.297  1.00  0.00     0.330 C 
HETATM    6  C8  UNL     1      -4.639   1.608  15.599  1.00  0.00     0.046 C 
HETATM    7  C9  UNL     1      -4.733   0.203  15.190  1.00  0.00     0.029 C 
HETATM    8  C10 UNL     1      -4.041   0.329  13.806  1.00  0.00     0.128 C 
HETATM    9  N2  UNL     1      -4.307   1.690  13.385  1.00  0.00    -0.328 N 
ENDROOT
BRANCH   9  10
HETATM   10  C11 UNL     1      -3.736   2.271  12.228  1.00  0.00     0.171 C 
HETATM   11  S1  UNL     1      -4.586   3.363  11.319  1.00  0.00    -0.041 SA
BRANCH  10  12
HETATM   12  N3  UNL     1      -2.427   1.952  11.782  1.00  0.00    -0.367 N 
ATOM     13  H3  UNL     1      -1.622   2.247  12.335  1.00  0.00     0.161 HD
BRANCH  12  14
HETATM   14  C12 UNL     1      -2.219   1.227  10.574  1.00  0.00     0.124 C 
BRANCH  14  15
HETATM   15  C13 UNL     1      -2.550  -0.249  10.808  1.00  0.00     0.046 C 
BRANCH  15  16
HETATM   16  C14 UNL     1      -3.888  -0.497  10.142  1.00  0.00     0.165 C 
BRANCH  16  17
HETATM   17  O1  UNL     1      -4.143   0.514   9.207  1.00  0.00    -0.401 OA
ATOM     18  H1  UNL     1      -4.864   0.255   8.645  1.00  0.00     0.209 HD
ENDBRANCH  16  17
ENDBRANCH  15  16
ENDBRANCH  14  15
ENDBRANCH  12  14
ENDBRANCH  10  12
ENDBRANCH   9  10
BRANCH   1  19
HETATM   19  C2  UNL     1      -6.409   1.459  17.417  1.00  0.00    -0.016 C 
HETATM   20  C1  UNL     1      -6.401   2.030  18.846  1.00  0.00     0.010 C 
HETATM   21  C3  UNL     1      -7.818   1.361  16.990  1.00  0.00     0.010 C 
ENDBRANCH   1  19
TORSDOF 7
ENDMDL
MODEL 4
REMARK VINA RESULT: -5.895427219      3.104      4.581
REMARK  7 active torsions:
REMARK  status: ('A' for Active; 'I' for Inactive)
REMARK    1  A    between atoms: C2_2  and  C4_4 
REMARK    2  A    between atoms: N2_12  and  C11_13 
REMARK    3  A    between atoms: C11_13  and  N3_15 
REMARK    4  A    between atoms: N3_15  and  C12_17 
REMARK    5  A    between atoms: C12_17  and  C13_18 
REMARK    6  A    between atoms: C13_18  and  C14_19 
REMARK    7  A    between atoms: C14_19  and  O1_20 
ROOT
HETATM    1  C4  UNL     1      -5.348   2.120  16.558  1.00  0.00     0.025 C 
HETATM    2  C5  UNL     1      -5.951   3.330  15.827  1.00  0.00     0.280 C 
HETATM    3  N1  UNL     1      -5.104   3.446  14.608  1.00  0.00     0.108 N 
HETATM    4  C6  UNL     1      -3.876   4.032  15.032  1.00  0.00     0.312 C 
HETATM    5  C7  UNL     1      -5.101   2.095  14.245  1.00  0.00     0.330 C 
HETATM    6  C8  UNL     1      -4.555   1.470  15.549  1.00  0.00     0.046 C 
HETATM    7  C9  UNL     1      -4.688   0.061  15.163  1.00  0.00     0.029 C 
HETATM    8  C10 UNL     1      -4.012   0.150  13.769  1.00  0.00     0.128 C 
HETATM    9  N2  UNL     1      -4.251   1.510  13.331  1.00  0.00    -0.328 N 
ENDROOT
BRANCH   9  10
HETATM   10  C11 UNL     1      -3.681   2.059  12.157  1.00  0.00     0.171 C 
HETATM   11  S1  UNL     1      -4.612   2.355  10.820  1.00  0.00    -0.041 SA
BRANCH  10  12
HETATM   12  N3  UNL     1      -2.302   2.378  12.056  1.00  0.00    -0.367 N 
ATOM     13  H3  UNL     1      -1.880   3.005  12.741  1.00  0.00     0.161 HD
BRANCH  12  14
HETATM   14  C12 UNL     1      -1.498   1.835  11.014  1.00  0.00     0.124 C 
BRANCH  14  15
HETATM   15  C13 UNL     1      -0.824   2.978  10.249  1.00  0.00     0.046 C 
BRANCH  15  16
HETATM   16  C14 UNL     1      -0.706   4.133  11.222  1.00  0.00     0.165 C 
BRANCH  16  17
HETATM   17  O1  UNL     1       0.347   3.892  12.113  1.00  0.00    -0.401 OA
ATOM     18  H1  UNL     1       1.175   3.951  11.651  1.00  0.00     0.209 HD
ENDBRANCH  16  17
ENDBRANCH  15  16
ENDBRANCH  14  15
ENDBRANCH  12  14
ENDBRANCH  10  12
ENDBRANCH   9  10
BRANCH   1  19
HETATM   19  C2  UNL     1      -6.305   1.391  17.392  1.00  0.00    -0.016 C 
HETATM   20  C1  UNL     1      -6.270   1.989  18.810  1.00  0.00     0.010 C 
HETATM   21  C3  UNL     1      -7.719   1.314  16.980  1.00  0.00     0.010 C 
ENDBRANCH   1  19
TORSDOF 7
ENDMDL
MODEL 5
REMARK VINA RESULT: -5.836495634      2.415      2.683
REMARK  7 active torsions:
REMARK  status: ('A' for Active; 'I' for Inactive)
REMARK    1  A    between atoms: C2_2  and  C4_4 
REMARK    2  A    between atoms: N2_12  and  C11_13 
REMARK    3  A    between atoms: C11_13  and  N3_15 
REMARK    4  A    between atoms: N3_15  and  C12_17 
REMARK    5  A    between atoms: C12_17  and  C13_18 
REMARK    6  A    between atoms: C13_18  and  C14_19 
REMARK    7  A    between atoms: C14_19  and  O1_20 
ROOT
HETATM    1  C4  UNL     1      -4.216   5.828  14.687  1.00  0.00     0.025 C 
HETATM    2  C5  UNL     1      -4.254   6.167  13.188  1.00  0.00     0.280 C 
HETATM    3  N1  UNL     1      -3.906   4.873  12.540  1.00  0.00     0.108 N 
HETATM    4  C6  UNL     1      -2.499   4.715  12.697  1.00  0.00     0.312 C 
HETATM    5  C7  UNL     1      -4.752   4.047  13.289  1.00  0.00     0.330 C 
HETATM    6  C8  UNL     1      -4.262   4.390  14.715  1.00  0.00     0.046 C 
HETATM    7  C9  UNL     1      -5.251   3.602  15.458  1.00  0.00     0.029 C 
HETATM    8  C10 UNL     1      -5.106   2.271  14.674  1.00  0.00     0.128 C 
HETATM    9  N2  UNL     1      -4.689   2.671  13.345  1.00  0.00    -0.328 N 
ENDROOT
BRANCH   9  10
HETATM   10  C11 UNL     1      -4.308   1.750  12.341  1.00  0.00     0.171 C 
HETATM   11  S1  UNL     1      -4.715   2.005  10.756  1.00  0.00    -0.041 SA
BRANCH  10  12
HETATM   12  N3  UNL     1      -3.572   0.569  12.627  1.00  0.00    -0.367 N 
ATOM     13  H3  UNL     1      -3.339   0.346  13.595  1.00  0.00     0.161 HD
BRANCH  12  14
HETATM   14  C12 UNL     1      -3.156  -0.307  11.585  1.00  0.00     0.124 C 
BRANCH  14  15
HETATM   15  C13 UNL     1      -3.824  -1.671  11.775  1.00  0.00     0.046 C 
BRANCH  15  16
HETATM   16  C14 UNL     1      -2.769  -2.712  11.460  1.00  0.00     0.165 C 
BRANCH  16  17
HETATM   17  O1  UNL     1      -3.331  -3.991  11.545  1.00  0.00    -0.401 OA
ATOM     18  H1  UNL     1      -3.057  -4.511  10.799  1.00  0.00     0.209 HD
ENDBRANCH  16  17
ENDBRANCH  15  16
ENDBRANCH  14  15
ENDBRANCH  12  14
ENDBRANCH  10  12
ENDBRANCH   9  10
BRANCH   1  19
HETATM   19  C2  UNL     1      -5.102   6.656  15.508  1.00  0.00    -0.016 C 
HETATM   20  C1  UNL     1      -4.341   7.932  15.909  1.00  0.00     0.010 C 
HETATM   21  C3  UNL     1      -6.411   7.073  14.972  1.00  0.00     0.010 C 
ENDBRANCH   1  19
TORSDOF 7
ENDMDL
