MODEL 1
REMARK VINA RESULT: -6.723495518      0.000      0.000
REMARK  6 active torsions:
REMARK  status: ('A' for Active; 'I' for Inactive)
REMARK    1  A    between atoms: C2_4  and  N2_5 
REMARK    2  A    between atoms: C2_4  and  C7_11 
REMARK    3  A    between atoms: N2_5  and  C3_7 
REMARK    4  A    between atoms: C7_11  and  N3_12 
REMARK    5  A    between atoms: C7_11  and  C13_21 
REMARK       I    between atoms: N3_12  and  C8_14 
REMARK    6  A    between atoms: C8_14  and  C9_16 
ROOT
HETATM    1  C7  UNL     1      -3.598   3.873  13.021  1.00  0.00     0.184 C 
ENDROOT
BRANCH   1   2
HETATM    2  C2  UNL     1      -2.779   3.021  12.132  1.00  0.00     0.099 C 
HETATM    3  N1  UNL     1      -1.979   3.573  11.305  1.00  0.00    -0.383 N 
HETATM    4  C1  UNL     1      -1.162   2.776  10.437  1.00  0.00     0.147 C 
ATOM      5  H1  UNL     1      -1.920   4.591  11.261  1.00  0.00     0.160 HD
BRANCH   2   6
HETATM    6  N2  UNL     1      -2.846   1.611  12.177  1.00  0.00    -0.370 N 
ATOM      7  H2  UNL     1      -2.063   1.139  12.629  1.00  0.00     0.161 HD
BRANCH   6   8
HETATM    8  C3  UNL     1      -3.869   0.773  11.669  1.00  0.00     0.020 C 
HETATM    9  C4  UNL     1      -5.117   1.538  11.207  1.00  0.00     0.037 C 
HETATM   10  C5  UNL     1      -4.352  -0.155  12.766  1.00  0.00     0.037 C 
HETATM   11  C6  UNL     1      -3.449  -0.122  10.523  1.00  0.00     0.037 C 
ENDBRANCH   6   8
ENDBRANCH   2   6
ENDBRANCH   1   2
BRANCH   1  12
HETATM   12  N3  UNL     1      -3.822   3.265  14.328  1.00  0.00    -0.345 N 
HETATM   13  C8  UNL     1      -5.097   3.044  14.898  1.00  0.00     0.247 C 
HETATM   14  O1  UNL     1      -6.146   3.386  14.257  1.00  0.00    -0.271 OA
ATOM     15  H3  UNL     1      -3.003   2.980  14.867  1.00  0.00     0.163 HD
BRANCH  13  16
HETATM   16  C9  UNL     1      -5.202   2.420  16.226  1.00  0.00     0.213 C 
HETATM   17  C10 UNL     1      -5.132   0.918  16.185  1.00  0.00     0.043 C 
HETATM   18  C11 UNL     1      -6.033   0.514  17.333  1.00  0.00     0.029 C 
HETATM   19  C12 UNL     1      -6.426   1.871  17.924  1.00  0.00     0.168 C 
HETATM   20  O2  UNL     1      -6.461   2.654  16.769  1.00  0.00    -0.376 OA
ENDBRANCH  13  16
ENDBRANCH   1  12
BRANCH   1  21
HETATM   21  C13 UNL     1      -2.961   5.240  13.215  1.00  0.00     0.208 C 
HETATM   22 CL1  UNL     1      -1.656   5.156  14.421  1.00  0.00    -0.106 Cl
HETATM   23 CL2  UNL     1      -4.138   6.459  13.689  1.00  0.00    -0.106 Cl
ENDBRANCH   1  21
TORSDOF 6
ENDMDL
MODEL 2
REMARK VINA RESULT: -6.626985950      0.778      1.382
REMARK  6 active torsions:
REMARK  status: ('A' for Active; 'I' for Inactive)
REMARK    1  A    between atoms: C2_4  and  N2_5 
REMARK    2  A    between atoms: C2_4  and  C7_11 
REMARK    3  A    between atoms: N2_5  and  C3_7 
REMARK    4  A    between atoms: C7_11  and  N3_12 
REMARK    5  A    between atoms: C7_11  and  C13_21 
REMARK       I    between atoms: N3_12  and  C8_14 
REMARK    6  A    between atoms: C8_14  and  C9_16 
ROOT
HETATM    1  C7  UNL     1      -3.758   4.012  13.178  1.00  0.00     0.184 C 
ENDROOT
BRANCH   1   2
HETATM    2  C2  UNL     1      -2.954   3.248  12.199  1.00  0.00     0.099 C 
HETATM    3  N1  UNL     1      -2.339   3.876  11.274  1.00  0.00    -0.383 N 
HETATM    4  C1  UNL     1      -1.543   3.166  10.315  1.00  0.00     0.147 C 
ATOM      5  H1  UNL     1      -2.415   4.892  11.215  1.00  0.00     0.160 HD
BRANCH   2   6
HETATM    6  N2  UNL     1      -2.837   1.842  12.262  1.00  0.00    -0.370 N 
ATOM      7  H2  UNL     1      -1.980   1.482  12.681  1.00  0.00     0.161 HD
BRANCH   6   8
HETATM    8  C3  UNL     1      -3.767   0.871  11.813  1.00  0.00     0.020 C 
HETATM    9  C4  UNL     1      -4.251  -0.074  12.922  1.00  0.00     0.037 C 
HETATM   10  C5  UNL     1      -3.105  -0.024  10.785  1.00  0.00     0.037 C 
HETATM   11  C6  UNL     1      -5.001   1.433  11.142  1.00  0.00     0.037 C 
ENDBRANCH   6   8
ENDBRANCH   2   6
ENDBRANCH   1   2
BRANCH   1  12
HETATM   12  N3  UNL     1      -4.314   3.165  14.227  1.00  0.00    -0.345 N 
HETATM   13  C8  UNL     1      -5.672   3.172  14.623  1.00  0.00     0.247 C 
HETATM   14  O1  UNL     1      -6.496   3.958  14.047  1.00  0.00    -0.271 OA
ATOM     15  H3  UNL     1      -3.681   2.526  14.708  1.00  0.00     0.163 HD
BRANCH  13  16
HETATM   16  C9  UNL     1      -6.121   2.271  15.695  1.00  0.00     0.213 C 
HETATM   17  C10 UNL     1      -6.876   2.977  16.788  1.00  0.00     0.043 C 
HETATM   18  C11 UNL     1      -6.501   2.176  18.018  1.00  0.00     0.029 C 
HETATM   19  C12 UNL     1      -5.639   1.060  17.422  1.00  0.00     0.168 C 
HETATM   20  O2  UNL     1      -5.026   1.742  16.370  1.00  0.00    -0.376 OA
ENDBRANCH  13  16
ENDBRANCH   1  12
BRANCH   1  21
HETATM   21  C13 UNL     1      -2.937   5.120  13.819  1.00  0.00     0.208 C 
HETATM   22 CL1  UNL     1      -1.628   4.433  14.810  1.00  0.00    -0.106 Cl
HETATM   23 CL2  UNL     1      -3.927   6.198  14.797  1.00  0.00    -0.106 Cl
ENDBRANCH   1  21
TORSDOF 6
ENDMDL
MODEL 3
REMARK VINA RESULT: -6.439603597      2.487      4.015
REMARK  6 active torsions:
REMARK  status: ('A' for Active; 'I' for Inactive)
REMARK    1  A    between atoms: C2_4  and  N2_5 
REMARK    2  A    between atoms: C2_4  and  C7_11 
REMARK    3  A    between atoms: N2_5  and  C3_7 
REMARK    4  A    between atoms: C7_11  and  N3_12 
REMARK    5  A    between atoms: C7_11  and  C13_21 
REMARK       I    between atoms: N3_12  and  C8_14 
REMARK    6  A    between atoms: C8_14  and  C9_16 
ROOT
HETATM    1  C7  UNL     1      -3.679   2.434  12.676  1.00  0.00     0.184 C 
ENDROOT
BRANCH   1   2
HETATM    2  C2  UNL     1      -4.099   3.700  12.035  1.00  0.00     0.099 C 
HETATM    3  N1  UNL     1      -3.968   3.831  10.772  1.00  0.00    -0.383 N 
HETATM    4  C1  UNL     1      -4.375   5.040  10.118  1.00  0.00     0.147 C 
ATOM      5  H1  UNL     1      -3.572   3.068  10.222  1.00  0.00     0.160 HD
BRANCH   2   6
HETATM    6  N2  UNL     1      -4.649   4.767  12.777  1.00  0.00    -0.370 N 
ATOM      7  H2  UNL     1      -5.666   4.836  12.777  1.00  0.00     0.161 HD
BRANCH   6   8
HETATM    8  C3  UNL     1      -3.959   5.755  13.522  1.00  0.00     0.020 C 
HETATM    9  C4  UNL     1      -2.477   5.427  13.753  1.00  0.00     0.037 C 
HETATM   10  C5  UNL     1      -4.566   5.859  14.906  1.00  0.00     0.037 C 
HETATM   11  C6  UNL     1      -4.017   7.150  12.937  1.00  0.00     0.037 C 
ENDBRANCH   6   8
ENDBRANCH   2   6
ENDBRANCH   1   2
BRANCH   1  12
HETATM   12  N3  UNL     1      -4.653   1.949  13.647  1.00  0.00    -0.345 N 
HETATM   13  C8  UNL     1      -4.501   2.052  15.049  1.00  0.00     0.247 C 
HETATM   14  O1  UNL     1      -3.455   2.598  15.535  1.00  0.00    -0.271 OA
ATOM     15  H3  UNL     1      -5.501   1.507  13.291  1.00  0.00     0.163 HD
BRANCH  13  16
HETATM   16  C9  UNL     1      -5.552   1.528  15.935  1.00  0.00     0.213 C 
HETATM   17  C10 UNL     1      -6.202   2.589  16.779  1.00  0.00     0.043 C 
HETATM   18  C11 UNL     1      -6.536   1.839  18.052  1.00  0.00     0.029 C 
HETATM   19  C12 UNL     1      -6.095   0.414  17.709  1.00  0.00     0.168 C 
HETATM   20  O2  UNL     1      -4.999   0.675  16.884  1.00  0.00    -0.376 OA
ENDBRANCH  13  16
ENDBRANCH   1  12
BRANCH   1  21
HETATM   21  C13 UNL     1      -3.432   1.348  11.640  1.00  0.00     0.208 C 
HETATM   22 CL1  UNL     1      -4.170  -0.187  12.156  1.00  0.00    -0.106 Cl
HETATM   23 CL2  UNL     1      -1.717   1.112  11.323  1.00  0.00    -0.106 Cl
ENDBRANCH   1  21
TORSDOF 6
ENDMDL
MODEL 4
REMARK VINA RESULT: -6.296605461      2.549      3.839
REMARK  6 active torsions:
REMARK  status: ('A' for Active; 'I' for Inactive)
REMARK    1  A    between atoms: C2_4  and  N2_5 
REMARK    2  A    between atoms: C2_4  and  C7_11 
REMARK    3  A    between atoms: N2_5  and  C3_7 
REMARK    4  A    between atoms: C7_11  and  N3_12 
REMARK    5  A    between atoms: C7_11  and  C13_21 
REMARK       I    between atoms: N3_12  and  C8_14 
REMARK    6  A    between atoms: C8_14  and  C9_16 
ROOT
HETATM    1  C7  UNL     1      -3.923   1.248  13.265  1.00  0.00     0.184 C 
ENDROOT
BRANCH   1   2
HETATM    2  C2  UNL     1      -3.463   2.505  12.634  1.00  0.00     0.099 C 
HETATM    3  N1  UNL     1      -2.357   2.511  11.996  1.00  0.00    -0.383 N 
HETATM    4  C1  UNL     1      -1.888   3.709  11.363  1.00  0.00     0.147 C 
ATOM      5  H1  UNL     1      -1.802   1.657  11.936  1.00  0.00     0.160 HD
BRANCH   2   6
HETATM    6  N2  UNL     1      -4.215   3.697  12.706  1.00  0.00    -0.370 N 
ATOM      7  H2  UNL     1      -4.932   3.819  11.991  1.00  0.00     0.161 HD
BRANCH   6   8
HETATM    8  C3  UNL     1      -4.094   4.746  13.651  1.00  0.00     0.020 C 
HETATM    9  C4  UNL     1      -3.210   4.390  14.854  1.00  0.00     0.037 C 
HETATM   10  C5  UNL     1      -5.457   5.059  14.234  1.00  0.00     0.037 C 
HETATM   11  C6  UNL     1      -3.572   6.051  13.090  1.00  0.00     0.037 C 
ENDBRANCH   6   8
ENDBRANCH   2   6
ENDBRANCH   1   2
BRANCH   1  12
HETATM   12  N3  UNL     1      -4.920   1.478  14.305  1.00  0.00    -0.345 N 
HETATM   13  C8  UNL     1      -4.792   1.039  15.643  1.00  0.00     0.247 C 
HETATM   14  O1  UNL     1      -3.750   0.396  16.003  1.00  0.00    -0.271 OA
ATOM     15  H3  UNL     1      -5.765   1.989  14.050  1.00  0.00     0.163 HD
BRANCH  13  16
HETATM   16  C9  UNL     1      -5.863   1.330  16.609  1.00  0.00     0.213 C 
HETATM   17  C10 UNL     1      -6.625   2.587  16.293  1.00  0.00     0.043 C 
HETATM   18  C11 UNL     1      -6.992   3.106  17.668  1.00  0.00     0.029 C 
HETATM   19  C12 UNL     1      -6.448   2.004  18.581  1.00  0.00     0.168 C 
HETATM   20  O2  UNL     1      -5.320   1.606  17.860  1.00  0.00    -0.376 OA
ENDBRANCH  13  16
ENDBRANCH   1  12
BRANCH   1  21
HETATM   21  C13 UNL     1      -4.498   0.291  12.233  1.00  0.00     0.208 C 
HETATM   22 CL1  UNL     1      -3.219  -0.755  11.571  1.00  0.00    -0.106 Cl
HETATM   23 CL2  UNL     1      -5.315   1.138  10.925  1.00  0.00    -0.106 Cl
ENDBRANCH   1  21
TORSDOF 6
ENDMDL
MODEL 5
REMARK VINA RESULT: -6.249562496      2.686      5.304
REMARK  6 active torsions:
REMARK  status: ('A' for Active; 'I' for Inactive)
REMARK    1  A    between atoms: C2_4  and  N2_5 
REMARK    2  A    between atoms: C2_4  and  C7_11 
REMARK    3  A    between atoms: N2_5  and  C3_7 
REMARK    4  A    between atoms: C7_11  and  N3_12 
REMARK    5  A    between atoms: C7_11  and  C13_21 
REMARK       I    between atoms: N3_12  and  C8_14 
REMARK    6  A    between atoms: C8_14  and  C9_16 
ROOT
HETATM    1  C7  UNL     1      -4.475   2.900  14.149  1.00  0.00     0.184 C 
ENDROOT
BRANCH   1   2
HETATM    2  C2  UNL     1      -3.375   3.889  14.115  1.00  0.00     0.099 C 
HETATM    3  N1  UNL     1      -2.388   3.694  13.330  1.00  0.00    -0.383 N 
HETATM    4  C1  UNL     1      -1.311   4.639  13.264  1.00  0.00     0.147 C 
ATOM      5  H1  UNL     1      -2.364   2.860  12.744  1.00  0.00     0.160 HD
BRANCH   2   6
HETATM    6  N2  UNL     1      -3.388   5.050  14.917  1.00  0.00    -0.370 N 
ATOM      7  H2  UNL     1      -2.828   5.014  15.768  1.00  0.00     0.161 HD
BRANCH   6   8
HETATM    8  C3  UNL     1      -4.087   6.261  14.684  1.00  0.00     0.020 C 
HETATM    9  C4  UNL     1      -3.348   7.505  15.196  1.00  0.00     0.037 C 
HETATM   10  C5  UNL     1      -5.402   6.238  15.437  1.00  0.00     0.037 C 
HETATM   11  C6  UNL     1      -4.442   6.522  13.236  1.00  0.00     0.037 C 
ENDBRANCH   6   8
ENDBRANCH   2   6
ENDBRANCH   1   2
BRANCH   1  12
HETATM   12  N3  UNL     1      -4.218   1.748  13.293  1.00  0.00    -0.345 N 
HETATM   13  C8  UNL     1      -4.908   1.478  12.089  1.00  0.00     0.247 C 
HETATM   14  O1  UNL     1      -5.825   2.272  11.693  1.00  0.00    -0.271 OA
ATOM     15  H3  UNL     1      -3.491   1.092  13.583  1.00  0.00     0.163 HD
BRANCH  13  16
HETATM   16  C9  UNL     1      -4.563   0.283  11.304  1.00  0.00     0.213 C 
HETATM   17  C10 UNL     1      -4.177  -0.896  12.154  1.00  0.00     0.043 C 
HETATM   18  C11 UNL     1      -3.147  -1.599  11.294  1.00  0.00     0.029 C 
HETATM   19  C12 UNL     1      -3.159  -0.749  10.021  1.00  0.00     0.168 C 
HETATM   20  O2  UNL     1      -3.412   0.515  10.558  1.00  0.00    -0.376 OA
ENDBRANCH  13  16
ENDBRANCH   1  12
BRANCH   1  21
HETATM   21  C13 UNL     1      -4.734   2.414  15.567  1.00  0.00     0.208 C 
HETATM   22 CL1  UNL     1      -4.505   0.653  15.675  1.00  0.00    -0.106 Cl
HETATM   23 CL2  UNL     1      -6.344   2.845  16.132  1.00  0.00    -0.106 Cl
ENDBRANCH   1  21
TORSDOF 6
ENDMDL
