MODEL 1
REMARK VINA RESULT: -6.982569721      0.000      0.000
REMARK  4 active torsions:
REMARK  status: ('A' for Active; 'I' for Inactive)
REMARK       I    between atoms: N2_3  and  C2_5 
REMARK       I    between atoms: C2_5  and  N4_9 
REMARK    1  A    between atoms: N4_9  and  C3_11 
REMARK    2  A    between atoms: C3_11  and  C4_12 
REMARK    3  A    between atoms: C4_12  and  N5_13 
REMARK    4  A    between atoms: N6_16  and  C7_17 
ROOT
HETATM    1  N1  UNL     1      -3.926   0.681  16.297  1.00  0.00    -0.171 NA
HETATM    2  C1  UNL     1      -4.228   1.000  15.212  1.00  0.00     0.196 C 
HETATM    3  N2  UNL     1      -4.582   1.356  13.921  1.00  0.00    -0.125 N 
ATOM      4  H2  UNL     1      -5.135   2.198  13.761  1.00  0.00     0.197 HD
HETATM    5  C2  UNL     1      -4.182   0.566  12.832  1.00  0.00     0.701 C 
HETATM    6  N3  UNL     1      -4.233  -0.718  12.875  1.00  0.00    -0.130 N 
ATOM      7  H3  UNL     1      -4.573  -1.167  13.726  1.00  0.00     0.199 HD
HETATM    8 CL1  UNL     1      -3.747  -1.712  11.550  1.00  0.00     0.026 Cl
HETATM    9  N4  UNL     1      -3.699   1.166  11.603  1.00  0.00    -0.202 N 
ATOM     10  H4  UNL     1      -3.596   0.624  10.744  1.00  0.00     0.183 HD
ENDROOT
BRANCH   9  11
HETATM   11  C3  UNL     1      -3.381   2.533  11.657  1.00  0.00     0.109 C 
BRANCH  11  12
HETATM   12  C4  UNL     1      -2.054   3.029  11.317  1.00  0.00     0.317 C 
BRANCH  12  13
HETATM   13  N5  UNL     1      -1.398   3.966  12.208  1.00  0.00     0.096 N 
HETATM   14  C5  UNL     1      -2.308   4.308  13.289  1.00  0.00     0.303 C 
HETATM   15  C6  UNL     1      -1.975   5.523  14.040  1.00  0.00     0.303 C 
HETATM   16  N6  UNL     1      -1.614   6.663  13.184  1.00  0.00     0.099 N 
HETATM   17  C13 UNL     1      -1.996   6.277  11.851  1.00  0.00     0.303 C 
HETATM   18  C14 UNL     1      -1.052   5.138  11.437  1.00  0.00     0.303 C 
BRANCH  16  19
HETATM   19  C7  UNL     1      -2.310   7.857  13.649  1.00  0.00     0.256 C 
HETATM   20  C8  UNL     1      -2.595   7.768  15.128  1.00  0.00     0.038 C 
HETATM   21  C9  UNL     1      -2.233   8.963  15.929  1.00  0.00     0.002 C 
HETATM   22  C10 UNL     1      -0.845   9.480  15.674  1.00  0.00     0.003 C 
HETATM   23  C11 UNL     1      -0.286   9.003  14.351  1.00  0.00     0.039 C 
HETATM   24  C12 UNL     1      -1.461   9.062  13.374  1.00  0.00     0.203 C 
HETATM   25  F1  UNL     1      -2.177  10.248  13.644  1.00  0.00    -0.247 F 
ENDBRANCH  16  19
ENDBRANCH  12  13
ENDBRANCH  11  12
ENDBRANCH   9  11
TORSDOF 4
ENDMDL
MODEL 2
REMARK VINA RESULT: -6.976669512      3.711      6.131
REMARK  4 active torsions:
REMARK  status: ('A' for Active; 'I' for Inactive)
REMARK       I    between atoms: N2_3  and  C2_5 
REMARK       I    between atoms: C2_5  and  N4_9 
REMARK    1  A    between atoms: N4_9  and  C3_11 
REMARK    2  A    between atoms: C3_11  and  C4_12 
REMARK    3  A    between atoms: C4_12  and  N5_13 
REMARK    4  A    between atoms: N6_16  and  C7_17 
ROOT
HETATM    1  N1  UNL     1      -4.620   0.280  12.801  1.00  0.00    -0.171 NA
HETATM    2  C1  UNL     1      -4.534   1.253  12.157  1.00  0.00     0.196 C 
HETATM    3  N2  UNL     1      -4.411   2.399  11.389  1.00  0.00    -0.125 N 
ATOM      4  H2  UNL     1      -5.247   2.879  11.056  1.00  0.00     0.197 HD
HETATM    5  C2  UNL     1      -3.141   2.904  11.065  1.00  0.00     0.701 C 
HETATM    6  N3  UNL     1      -2.177   2.131  10.711  1.00  0.00    -0.130 N 
ATOM      7  H3  UNL     1      -2.346   1.126  10.666  1.00  0.00     0.199 HD
HETATM    8 CL1  UNL     1      -0.608   2.728  10.310  1.00  0.00     0.026 Cl
HETATM    9  N4  UNL     1      -2.863   4.327  11.111  1.00  0.00    -0.202 N 
ATOM     10  H4  UNL     1      -2.020   4.724  10.694  1.00  0.00     0.183 HD
ENDROOT
BRANCH   9  11
HETATM   11  C3  UNL     1      -3.815   5.131  11.761  1.00  0.00     0.109 C 
BRANCH  11  12
HETATM   12  C4  UNL     1      -3.472   5.953  12.913  1.00  0.00     0.317 C 
BRANCH  12  13
HETATM   13  N5  UNL     1      -3.827   5.495  14.242  1.00  0.00     0.096 N 
HETATM   14  C5  UNL     1      -3.441   4.100  14.381  1.00  0.00     0.303 C 
HETATM   15  C6  UNL     1      -4.074   3.372  15.484  1.00  0.00     0.303 C 
HETATM   16  N6  UNL     1      -5.524   3.599  15.583  1.00  0.00     0.099 N 
HETATM   17  C13 UNL     1      -5.894   4.253  14.356  1.00  0.00     0.303 C 
HETATM   18  C14 UNL     1      -5.255   5.650  14.394  1.00  0.00     0.303 C 
BRANCH  16  19
HETATM   19  C7  UNL     1      -6.202   2.322  15.772  1.00  0.00     0.256 C 
HETATM   20  C8  UNL     1      -5.230   1.262  16.227  1.00  0.00     0.038 C 
HETATM   21  C9  UNL     1      -5.659   0.450  17.392  1.00  0.00     0.002 C 
HETATM   22  C10 UNL     1      -6.165   1.257  18.554  1.00  0.00     0.003 C 
HETATM   23  C11 UNL     1      -6.586   2.652  18.148  1.00  0.00     0.039 C 
HETATM   24  C12 UNL     1      -7.284   2.484  16.798  1.00  0.00     0.203 C 
HETATM   25  F1  UNL     1      -8.077   1.320  16.874  1.00  0.00    -0.247 F 
ENDBRANCH  16  19
ENDBRANCH  12  13
ENDBRANCH  11  12
ENDBRANCH   9  11
TORSDOF 4
ENDMDL
MODEL 3
REMARK VINA RESULT: -6.797680464      3.819      6.411
REMARK  4 active torsions:
REMARK  status: ('A' for Active; 'I' for Inactive)
REMARK       I    between atoms: N2_3  and  C2_5 
REMARK       I    between atoms: C2_5  and  N4_9 
REMARK    1  A    between atoms: N4_9  and  C3_11 
REMARK    2  A    between atoms: C3_11  and  C4_12 
REMARK    3  A    between atoms: C4_12  and  N5_13 
REMARK    4  A    between atoms: N6_16  and  C7_17 
ROOT
HETATM    1  N1  UNL     1      -1.983   0.353  11.446  1.00  0.00    -0.171 NA
HETATM    2  C1  UNL     1      -2.118   1.469  11.123  1.00  0.00     0.196 C 
HETATM    3  N2  UNL     1      -2.255   2.794  10.741  1.00  0.00    -0.125 N 
ATOM      4  H2  UNL     1      -3.115   3.105  10.289  1.00  0.00     0.197 HD
HETATM    5  C2  UNL     1      -1.217   3.710  10.971  1.00  0.00     0.701 C 
HETATM    6  N3  UNL     1       0.014   3.403  10.762  1.00  0.00    -0.130 N 
ATOM      7  H3  UNL     1       0.235   2.468  10.419  1.00  0.00     0.199 HD
HETATM    8 CL1  UNL     1       1.307   4.512  11.038  1.00  0.00     0.026 Cl
HETATM    9  N4  UNL     1      -1.489   5.052  11.452  1.00  0.00    -0.202 N 
ATOM     10  H4  UNL     1      -0.778   5.783  11.434  1.00  0.00     0.183 HD
ENDROOT
BRANCH   9  11
HETATM   11  C3  UNL     1      -2.784   5.289  11.943  1.00  0.00     0.109 C 
BRANCH  11  12
HETATM   12  C4  UNL     1      -3.027   6.163  13.083  1.00  0.00     0.317 C 
BRANCH  12  13
HETATM   13  N5  UNL     1      -3.354   5.577  14.368  1.00  0.00     0.096 N 
HETATM   14  C5  UNL     1      -3.164   4.137  14.294  1.00  0.00     0.303 C 
HETATM   15  C6  UNL     1      -3.820   3.354  15.346  1.00  0.00     0.303 C 
HETATM   16  N6  UNL     1      -5.212   3.757  15.598  1.00  0.00     0.099 N 
HETATM   17  C13 UNL     1      -5.566   4.618  14.500  1.00  0.00     0.303 C 
HETATM   18  C14 UNL     1      -4.732   5.898  14.661  1.00  0.00     0.303 C 
BRANCH  16  19
HETATM   19  C7  UNL     1      -6.052   2.569  15.680  1.00  0.00     0.256 C 
HETATM   20  C8  UNL     1      -5.229   1.354  16.031  1.00  0.00     0.038 C 
HETATM   21  C9  UNL     1      -5.764   0.506  17.124  1.00  0.00     0.002 C 
HETATM   22  C10 UNL     1      -6.163   1.266  18.357  1.00  0.00     0.003 C 
HETATM   23  C11 UNL     1      -6.395   2.735  18.079  1.00  0.00     0.039 C 
HETATM   24  C12 UNL     1      -7.106   2.780  16.726  1.00  0.00     0.203 C 
HETATM   25  F1  UNL     1      -8.046   1.727  16.706  1.00  0.00    -0.247 F 
ENDBRANCH  16  19
ENDBRANCH  12  13
ENDBRANCH  11  12
ENDBRANCH   9  11
TORSDOF 4
ENDMDL
MODEL 4
REMARK VINA RESULT: -6.789442093      3.863      6.433
REMARK  4 active torsions:
REMARK  status: ('A' for Active; 'I' for Inactive)
REMARK       I    between atoms: N2_3  and  C2_5 
REMARK       I    between atoms: C2_5  and  N4_9 
REMARK    1  A    between atoms: N4_9  and  C3_11 
REMARK    2  A    between atoms: C3_11  and  C4_12 
REMARK    3  A    between atoms: C4_12  and  N5_13 
REMARK    4  A    between atoms: N6_16  and  C7_17 
ROOT
HETATM    1  N1  UNL     1      -4.615   1.140  10.305  1.00  0.00    -0.171 NA
HETATM    2  C1  UNL     1      -4.573   2.223  10.746  1.00  0.00     0.196 C 
HETATM    3  N2  UNL     1      -4.525   3.513  11.248  1.00  0.00    -0.125 N 
ATOM      4  H2  UNL     1      -4.782   3.690  12.219  1.00  0.00     0.197 HD
HETATM    5  C2  UNL     1      -4.123   4.579  10.428  1.00  0.00     0.701 C 
HETATM    6  N3  UNL     1      -4.526   4.683   9.211  1.00  0.00    -0.130 N 
ATOM      7  H3  UNL     1      -5.153   3.970   8.839  1.00  0.00     0.199 HD
HETATM    8 CL1  UNL     1      -4.046   5.984   8.183  1.00  0.00     0.026 Cl
HETATM    9  N4  UNL     1      -3.238   5.617  10.920  1.00  0.00    -0.202 N 
ATOM     10  H4  UNL     1      -3.099   6.491  10.412  1.00  0.00     0.183 HD
ENDROOT
BRANCH   9  11
HETATM   11  C3  UNL     1      -2.583   5.356  12.136  1.00  0.00     0.109 C 
BRANCH  11  12
HETATM   12  C4  UNL     1      -2.747   6.217  13.300  1.00  0.00     0.317 C 
BRANCH  12  13
HETATM   13  N5  UNL     1      -3.180   5.636  14.555  1.00  0.00     0.096 N 
HETATM   14  C5  UNL     1      -2.992   4.195  14.501  1.00  0.00     0.303 C 
HETATM   15  C6  UNL     1      -3.735   3.419  15.497  1.00  0.00     0.303 C 
HETATM   16  N6  UNL     1      -5.141   3.829  15.635  1.00  0.00     0.099 N 
HETATM   17  C13 UNL     1      -5.400   4.689  14.509  1.00  0.00     0.303 C 
HETATM   18  C14 UNL     1      -4.575   5.965  14.734  1.00  0.00     0.303 C 
BRANCH  16  19
HETATM   19  C7  UNL     1      -5.991   2.645  15.650  1.00  0.00     0.256 C 
HETATM   20  C8  UNL     1      -5.179   1.406  15.931  1.00  0.00     0.038 C 
HETATM   21  C9  UNL     1      -5.719   0.502  16.976  1.00  0.00     0.002 C 
HETATM   22  C10 UNL     1      -6.110   1.195  18.251  1.00  0.00     0.003 C 
HETATM   23  C11 UNL     1      -6.330   2.679  18.056  1.00  0.00     0.039 C 
HETATM   24  C12 UNL     1      -7.042   2.806  16.709  1.00  0.00     0.203 C 
HETATM   25  F1  UNL     1      -7.991   1.764  16.631  1.00  0.00    -0.247 F 
ENDBRANCH  16  19
ENDBRANCH  12  13
ENDBRANCH  11  12
ENDBRANCH   9  11
TORSDOF 4
ENDMDL
MODEL 5
REMARK VINA RESULT: -6.689979366      3.761      6.396
REMARK  4 active torsions:
REMARK  status: ('A' for Active; 'I' for Inactive)
REMARK       I    between atoms: N2_3  and  C2_5 
REMARK       I    between atoms: C2_5  and  N4_9 
REMARK    1  A    between atoms: N4_9  and  C3_11 
REMARK    2  A    between atoms: C3_11  and  C4_12 
REMARK    3  A    between atoms: C4_12  and  N5_13 
REMARK    4  A    between atoms: N6_16  and  C7_17 
ROOT
HETATM    1  N1  UNL     1      -1.732   5.467  13.812  1.00  0.00    -0.171 NA
HETATM    2  C1  UNL     1      -1.328   4.487  13.315  1.00  0.00     0.196 C 
HETATM    3  N2  UNL     1      -0.846   3.339  12.709  1.00  0.00    -0.125 N 
ATOM      4  H2  UNL     1      -0.537   2.554  13.282  1.00  0.00     0.197 HD
HETATM    5  C2  UNL     1      -0.781   3.249  11.309  1.00  0.00     0.701 C 
HETATM    6  N3  UNL     1      -0.375   4.233  10.588  1.00  0.00    -0.130 N 
ATOM      7  H3  UNL     1      -0.093   5.097  11.051  1.00  0.00     0.199 HD
HETATM    8 CL1  UNL     1      -0.287   4.147   8.866  1.00  0.00     0.026 Cl
HETATM    9  N4  UNL     1      -1.166   2.036  10.614  1.00  0.00    -0.202 N 
ATOM     10  H4  UNL     1      -0.940   1.885   9.630  1.00  0.00     0.183 HD
ENDROOT
BRANCH   9  11
HETATM   11  C3  UNL     1      -1.867   1.078  11.367  1.00  0.00     0.109 C 
BRANCH  11  12
HETATM   12  C4  UNL     1      -3.159   0.559  10.940  1.00  0.00     0.317 C 
BRANCH  12  13
HETATM   13  N5  UNL     1      -4.351   0.931  11.677  1.00  0.00     0.096 N 
HETATM   14  C5  UNL     1      -4.206   2.297  12.154  1.00  0.00     0.303 C 
HETATM   15  C6  UNL     1      -5.112   2.692  13.236  1.00  0.00     0.303 C 
HETATM   16  N6  UNL     1      -5.213   1.695  14.313  1.00  0.00     0.099 N 
HETATM   17  C13 UNL     1      -4.140   0.766  14.076  1.00  0.00     0.303 C 
HETATM   18  C14 UNL     1      -4.489   0.013  12.784  1.00  0.00     0.303 C 
BRANCH  16  19
HETATM   19  C7  UNL     1      -5.109   2.364  15.604  1.00  0.00     0.256 C 
HETATM   20  C8  UNL     1      -6.106   3.492  15.705  1.00  0.00     0.038 C 
HETATM   21  C9  UNL     1      -6.914   3.530  16.948  1.00  0.00     0.002 C 
HETATM   22  C10 UNL     1      -7.542   2.216  17.318  1.00  0.00     0.003 C 
HETATM   23  C11 UNL     1      -6.857   1.042  16.652  1.00  0.00     0.039 C 
HETATM   24  C12 UNL     1      -5.364   1.370  16.697  1.00  0.00     0.203 C 
HETATM   25  F1  UNL     1      -5.093   1.939  17.961  1.00  0.00    -0.247 F 
ENDBRANCH  16  19
ENDBRANCH  12  13
ENDBRANCH  11  12
ENDBRANCH   9  11
TORSDOF 4
ENDMDL
