MODEL 1
REMARK VINA RESULT: -5.570528981      0.000      0.000
REMARK  4 active torsions:
REMARK  status: ('A' for Active; 'I' for Inactive)
REMARK    1  A    between atoms: C2_2  and  C3_3 
REMARK    2  A    between atoms: C3_3  and  N1_4 
REMARK    3  A    between atoms: N1_4  and  C4_6 
REMARK    4  A    between atoms: C4_6  and  C5_7 
ROOT
HETATM    1  C4  UNL     1      -0.921   1.005   2.723  1.00  0.00     0.159 C 
ENDROOT
BRANCH   1   2
HETATM    2  N1  UNL     1      -0.485   1.988   3.746  1.00  0.00    -0.395 N 
ATOM      3  H1  UNL     1      -0.746   2.974   3.707  1.00  0.00     0.159 HD
BRANCH   2   4
HETATM    4  C3  UNL     1       0.316   1.456   4.772  1.00  0.00     0.082 C 
BRANCH   4   5
HETATM    5  C2  UNL     1       1.357   0.518   4.447  1.00  0.00     0.006 C 
HETATM    6  C1  UNL     1       1.420  -0.627   5.154  1.00  0.00     0.012 C 
ENDBRANCH   4   5
ENDBRANCH   2   4
ENDBRANCH   1   2
BRANCH   1   7
HETATM    7  C5  UNL     1      -2.257   0.555   3.274  1.00  0.00    -0.017 A 
HETATM    8  C6  UNL     1      -3.357   1.326   3.612  1.00  0.00     0.035 A 
HETATM    9  C7  UNL     1      -4.227   0.469   4.238  1.00  0.00     0.142 A 
HETATM   10  O1  UNL     1      -3.718  -0.719   4.290  1.00  0.00    -0.334 OA
HETATM   11  C8  UNL     1      -2.544  -0.718   3.720  1.00  0.00     0.150 A 
ENDBRANCH   1   7
TORSDOF 4
ENDMDL
MODEL 2
REMARK VINA RESULT: -5.500446790      2.620      4.374
REMARK  4 active torsions:
REMARK  status: ('A' for Active; 'I' for Inactive)
REMARK    1  A    between atoms: C2_2  and  C3_3 
REMARK    2  A    between atoms: C3_3  and  N1_4 
REMARK    3  A    between atoms: N1_4  and  C4_6 
REMARK    4  A    between atoms: C4_6  and  C5_7 
ROOT
HETATM    1  C4  UNL     1      -1.577  -0.680   5.562  1.00  0.00     0.159 C 
ENDROOT
BRANCH   1   2
HETATM    2  N1  UNL     1      -1.729   0.796   5.531  1.00  0.00    -0.395 N 
ATOM      3  H1  UNL     1      -1.600   1.380   6.359  1.00  0.00     0.159 HD
BRANCH   2   4
HETATM    4  C3  UNL     1      -2.065   1.328   4.274  1.00  0.00     0.082 C 
BRANCH   4   5
HETATM    5  C2  UNL     1      -1.033   1.873   3.434  1.00  0.00     0.006 C 
HETATM    6  C1  UNL     1      -0.507   1.079   2.481  1.00  0.00     0.012 C 
ENDBRANCH   4   5
ENDBRANCH   2   4
ENDBRANCH   1   2
BRANCH   1   7
HETATM    7  C5  UNL     1      -0.222  -0.840   6.218  1.00  0.00    -0.017 A 
HETATM    8  C6  UNL     1       0.082  -0.925   7.566  1.00  0.00     0.035 A 
HETATM    9  C7  UNL     1       1.451  -0.866   7.638  1.00  0.00     0.142 A 
HETATM   10  O1  UNL     1       1.952  -0.750   6.451  1.00  0.00    -0.334 OA
HETATM   11  C8  UNL     1       0.991  -0.738   5.569  1.00  0.00     0.150 A 
ENDBRANCH   1   7
TORSDOF 4
ENDMDL
MODEL 3
REMARK VINA RESULT: -5.492226165      4.166      5.657
REMARK  4 active torsions:
REMARK  status: ('A' for Active; 'I' for Inactive)
REMARK    1  A    between atoms: C2_2  and  C3_3 
REMARK    2  A    between atoms: C3_3  and  N1_4 
REMARK    3  A    between atoms: N1_4  and  C4_6 
REMARK    4  A    between atoms: C4_6  and  C5_7 
ROOT
HETATM    1  C4  UNL     1       1.769  -2.246   7.381  1.00  0.00     0.159 C 
ENDROOT
BRANCH   1   2
HETATM    2  N1  UNL     1       1.667  -0.848   6.890  1.00  0.00    -0.395 N 
ATOM      3  H1  UNL     1       1.786  -0.040   7.502  1.00  0.00     0.159 HD
BRANCH   2   4
HETATM    4  C3  UNL     1       1.393  -0.725   5.517  1.00  0.00     0.082 C 
BRANCH   4   5
HETATM    5  C2  UNL     1       1.580   0.543   4.865  1.00  0.00     0.006 C 
HETATM    6  C1  UNL     1       0.534   1.391   4.817  1.00  0.00     0.012 C 
ENDBRANCH   4   5
ENDBRANCH   2   4
ENDBRANCH   1   2
BRANCH   1   7
HETATM    7  C5  UNL     1       0.783  -2.244   8.530  1.00  0.00    -0.017 A 
HETATM    8  C6  UNL     1      -0.404  -1.541   8.650  1.00  0.00     0.035 A 
HETATM    9  C7  UNL     1      -0.816  -1.735   9.945  1.00  0.00     0.142 A 
HETATM   10  O1  UNL     1       0.033  -2.484  10.571  1.00  0.00    -0.334 OA
HETATM   11  C8  UNL     1       1.001  -2.819   9.765  1.00  0.00     0.150 A 
ENDBRANCH   1   7
TORSDOF 4
ENDMDL
MODEL 4
REMARK VINA RESULT: -5.422434935      2.069      4.407
REMARK  4 active torsions:
REMARK  status: ('A' for Active; 'I' for Inactive)
REMARK    1  A    between atoms: C2_2  and  C3_3 
REMARK    2  A    between atoms: C3_3  and  N1_4 
REMARK    3  A    between atoms: N1_4  and  C4_6 
REMARK    4  A    between atoms: C4_6  and  C5_7 
ROOT
HETATM    1  C4  UNL     1      -1.545   1.806   3.320  1.00  0.00     0.159 C 
ENDROOT
BRANCH   1   2
HETATM    2  N1  UNL     1      -2.205   0.678   2.616  1.00  0.00    -0.395 N 
ATOM      3  H1  UNL     1      -1.810   0.245   1.781  1.00  0.00     0.159 HD
BRANCH   2   4
HETATM    4  C3  UNL     1      -3.416   0.254   3.190  1.00  0.00     0.082 C 
BRANCH   4   5
HETATM    5  C2  UNL     1      -3.891   0.882   4.394  1.00  0.00     0.006 C 
HETATM    6  C1  UNL     1      -5.147   1.370   4.400  1.00  0.00     0.012 C 
ENDBRANCH   4   5
ENDBRANCH   2   4
ENDBRANCH   1   2
BRANCH   1   7
HETATM    7  C5  UNL     1      -0.282   1.153   3.840  1.00  0.00    -0.017 A 
HETATM    8  C6  UNL     1       0.554   1.576   4.859  1.00  0.00     0.035 A 
HETATM    9  C7  UNL     1       1.647   0.748   4.805  1.00  0.00     0.142 A 
HETATM   10  O1  UNL     1       1.508  -0.106   3.843  1.00  0.00    -0.334 OA
HETATM   11  C8  UNL     1       0.367   0.093   3.242  1.00  0.00     0.150 A 
ENDBRANCH   1   7
TORSDOF 4
ENDMDL
MODEL 5
REMARK VINA RESULT: -5.422277783      2.077      4.209
REMARK  4 active torsions:
REMARK  status: ('A' for Active; 'I' for Inactive)
REMARK    1  A    between atoms: C2_2  and  C3_3 
REMARK    2  A    between atoms: C3_3  and  N1_4 
REMARK    3  A    between atoms: N1_4  and  C4_6 
REMARK    4  A    between atoms: C4_6  and  C5_7 
ROOT
HETATM    1  C4  UNL     1      -0.413   1.891   3.762  1.00  0.00     0.159 C 
ENDROOT
BRANCH   1   2
HETATM    2  N1  UNL     1      -0.870   1.013   2.655  1.00  0.00    -0.395 N 
ATOM      3  H1  UNL     1      -0.264   0.745   1.879  1.00  0.00     0.159 HD
BRANCH   2   4
HETATM    4  C3  UNL     1      -2.203   0.581   2.759  1.00  0.00     0.082 C 
BRANCH   4   5
HETATM    5  C2  UNL     1      -3.177   1.424   3.400  1.00  0.00     0.006 C 
HETATM    6  C1  UNL     1      -3.896   0.905   4.413  1.00  0.00     0.012 C 
ENDBRANCH   4   5
ENDBRANCH   2   4
ENDBRANCH   1   2
BRANCH   1   7
HETATM    7  C5  UNL     1       0.258   0.900   4.689  1.00  0.00    -0.017 A 
HETATM    8  C6  UNL     1      -0.212   0.377   5.882  1.00  0.00     0.035 A 
HETATM    9  C7  UNL     1       0.844  -0.315   6.420  1.00  0.00     0.142 A 
HETATM   10  O1  UNL     1       1.873  -0.229   5.641  1.00  0.00    -0.334 OA
HETATM   11  C8  UNL     1       1.568   0.481   4.590  1.00  0.00     0.150 A 
ENDBRANCH   1   7
TORSDOF 4
ENDMDL
