MODEL 1
REMARK VINA RESULT: -6.267453682      0.000      0.000
REMARK  4 active torsions:
REMARK  status: ('A' for Active; 'I' for Inactive)
REMARK    1  A    between atoms: C2_2  and  C3_3 
REMARK    2  A    between atoms: C3_3  and  C4_4 
REMARK    3  A    between atoms: C4_4  and  C5_5 
REMARK    4  A    between atoms: C5_5  and  C6_6 
ROOT
HETATM    1  C6  UNL     1       1.027  -0.154   5.602  1.00  0.00     0.027 A 
HETATM    2  C7  UNL     1       0.159  -0.173   6.648  1.00  0.00     0.045 A 
HETATM    3  C8  UNL     1       0.746  -0.939   7.625  1.00  0.00     0.109 A 
HETATM    4  N1  UNL     1       1.936  -1.374   7.188  1.00  0.00    -0.312 N 
ATOM      5  H1  UNL     1       2.597  -1.962   7.696  1.00  0.00     0.186 HD
HETATM    6  N2  UNL     1       2.082  -0.889   5.970  1.00  0.00    -0.305 N 
ATOM      7  H2  UNL     1       2.899  -1.053   5.382  1.00  0.00     0.186 HD
ENDROOT
BRANCH   1   8
HETATM    8  C5  UNL     1       0.916   0.518   4.279  1.00  0.00     0.059 C 
BRANCH   8   9
HETATM    9  C4  UNL     1      -0.012   1.733   4.389  1.00  0.00     0.010 C 
BRANCH   9  10
HETATM   10  C3  UNL     1      -0.933   1.664   3.188  1.00  0.00     0.026 C 
BRANCH  10  11
HETATM   11  C2  UNL     1      -2.355   1.606   3.556  1.00  0.00    -0.037 C 
HETATM   12  C1  UNL     1      -2.774   0.967   4.639  1.00  0.00     0.007 C 
ENDBRANCH  10  11
ENDBRANCH   9  10
ENDBRANCH   8   9
ENDBRANCH   1   8
TORSDOF 4
ENDMDL
MODEL 2
REMARK VINA RESULT: -6.126066178      0.713      1.067
REMARK  4 active torsions:
REMARK  status: ('A' for Active; 'I' for Inactive)
REMARK    1  A    between atoms: C2_2  and  C3_3 
REMARK    2  A    between atoms: C3_3  and  C4_4 
REMARK    3  A    between atoms: C4_4  and  C5_5 
REMARK    4  A    between atoms: C5_5  and  C6_6 
ROOT
HETATM    1  C6  UNL     1       0.649   0.452   5.505  1.00  0.00     0.027 A 
HETATM    2  C7  UNL     1       0.079  -0.210   6.545  1.00  0.00     0.045 A 
HETATM    3  C8  UNL     1       0.944  -1.222   6.883  1.00  0.00     0.109 A 
HETATM    4  N1  UNL     1       2.010  -1.177   6.072  1.00  0.00    -0.312 N 
ATOM      5  H1  UNL     1       2.816  -1.803   6.086  1.00  0.00     0.186 HD
HETATM    6  N2  UNL     1       1.809  -0.162   5.252  1.00  0.00    -0.305 N 
ATOM      7  H2  UNL     1       2.459   0.118   4.518  1.00  0.00     0.186 HD
ENDROOT
BRANCH   1   8
HETATM    8  C5  UNL     1       0.161   1.631   4.738  1.00  0.00     0.059 C 
BRANCH   8   9
HETATM    9  C4  UNL     1      -0.515   1.164   3.442  1.00  0.00     0.010 C 
BRANCH   9  10
HETATM   10  C3  UNL     1      -1.932   1.699   3.497  1.00  0.00     0.026 C 
BRANCH  10  11
HETATM   11  C2  UNL     1      -2.770   1.001   4.483  1.00  0.00    -0.037 C 
HETATM   12  C1  UNL     1      -4.094   1.033   4.426  1.00  0.00     0.007 C 
ENDBRANCH  10  11
ENDBRANCH   9  10
ENDBRANCH   8   9
ENDBRANCH   1   8
TORSDOF 4
ENDMDL
MODEL 3
REMARK VINA RESULT: -6.093247008      0.767      1.116
REMARK  4 active torsions:
REMARK  status: ('A' for Active; 'I' for Inactive)
REMARK    1  A    between atoms: C2_2  and  C3_3 
REMARK    2  A    between atoms: C3_3  and  C4_4 
REMARK    3  A    between atoms: C4_4  and  C5_5 
REMARK    4  A    between atoms: C5_5  and  C6_6 
ROOT
HETATM    1  C6  UNL     1       0.415  -0.099   6.591  1.00  0.00     0.027 A 
HETATM    2  C7  UNL     1       0.306  -0.726   7.792  1.00  0.00     0.045 A 
HETATM    3  C8  UNL     1       1.438  -1.489   7.936  1.00  0.00     0.109 A 
HETATM    4  N1  UNL     1       2.215  -1.333   6.855  1.00  0.00    -0.312 N 
ATOM      5  H1  UNL     1       3.117  -1.775   6.681  1.00  0.00     0.186 HD
HETATM    6  N2  UNL     1       1.578  -0.492   6.061  1.00  0.00    -0.305 N 
ATOM      7  H2  UNL     1       1.930  -0.182   5.156  1.00  0.00     0.186 HD
ENDROOT
BRANCH   1   8
HETATM    8  C5  UNL     1      -0.515   0.848   5.918  1.00  0.00     0.059 C 
BRANCH   8   9
HETATM    9  C4  UNL     1       0.214   1.571   4.779  1.00  0.00     0.010 C 
BRANCH   9  10
HETATM   10  C3  UNL     1      -0.800   1.714   3.662  1.00  0.00     0.026 C 
BRANCH  10  11
HETATM   11  C2  UNL     1      -2.143   1.251   4.043  1.00  0.00    -0.037 C 
HETATM   12  C1  UNL     1      -3.224   1.599   3.361  1.00  0.00     0.007 C 
ENDBRANCH  10  11
ENDBRANCH   9  10
ENDBRANCH   8   9
ENDBRANCH   1   8
TORSDOF 4
ENDMDL
MODEL 4
REMARK VINA RESULT: -6.053889996      0.959      1.465
REMARK  4 active torsions:
REMARK  status: ('A' for Active; 'I' for Inactive)
REMARK    1  A    between atoms: C2_2  and  C3_3 
REMARK    2  A    between atoms: C3_3  and  C4_4 
REMARK    3  A    between atoms: C4_4  and  C5_5 
REMARK    4  A    between atoms: C5_5  and  C6_6 
ROOT
HETATM    1  C6  UNL     1       0.916  -1.051   6.055  1.00  0.00     0.027 A 
HETATM    2  C7  UNL     1      -0.220  -1.557   6.603  1.00  0.00     0.045 A 
HETATM    3  C8  UNL     1       0.058  -1.792   7.927  1.00  0.00     0.109 A 
HETATM    4  N1  UNL     1       1.326  -1.439   8.179  1.00  0.00    -0.312 N 
ATOM      5  H1  UNL     1       1.812  -1.500   9.074  1.00  0.00     0.186 HD
HETATM    6  N2  UNL     1       1.821  -0.997   7.038  1.00  0.00    -0.305 N 
ATOM      7  H2  UNL     1       2.775  -0.655   6.921  1.00  0.00     0.186 HD
ENDROOT
BRANCH   1   8
HETATM    8  C5  UNL     1       1.194  -0.617   4.659  1.00  0.00     0.059 C 
BRANCH   8   9
HETATM    9  C4  UNL     1       1.577   0.868   4.643  1.00  0.00     0.010 C 
BRANCH   9  10
HETATM   10  C3  UNL     1       0.280   1.633   4.814  1.00  0.00     0.026 C 
BRANCH  10  11
HETATM   11  C2  UNL     1      -0.546   1.642   3.598  1.00  0.00    -0.037 C 
HETATM   12  C1  UNL     1      -1.870   1.645   3.649  1.00  0.00     0.007 C 
ENDBRANCH  10  11
ENDBRANCH   9  10
ENDBRANCH   8   9
ENDBRANCH   1   8
TORSDOF 4
ENDMDL
MODEL 5
REMARK VINA RESULT: -5.970543875      1.077      1.823
REMARK  4 active torsions:
REMARK  status: ('A' for Active; 'I' for Inactive)
REMARK    1  A    between atoms: C2_2  and  C3_3 
REMARK    2  A    between atoms: C3_3  and  C4_4 
REMARK    3  A    between atoms: C4_4  and  C5_5 
REMARK    4  A    between atoms: C5_5  and  C6_6 
ROOT
HETATM    1  C6  UNL     1       0.527  -0.795   6.814  1.00  0.00     0.027 A 
HETATM    2  C7  UNL     1       0.474  -1.946   7.534  1.00  0.00     0.045 A 
HETATM    3  C8  UNL     1       1.694  -2.557   7.379  1.00  0.00     0.109 A 
HETATM    4  N1  UNL     1       2.468  -1.800   6.589  1.00  0.00    -0.312 N 
ATOM      5  H1  UNL     1       3.425  -1.999   6.298  1.00  0.00     0.186 HD
HETATM    6  N2  UNL     1       1.744  -0.747   6.262  1.00  0.00    -0.305 N 
ATOM      7  H2  UNL     1       2.072   0.010   5.663  1.00  0.00     0.186 HD
ENDROOT
BRANCH   1   8
HETATM    8  C5  UNL     1      -0.505   0.260   6.619  1.00  0.00     0.059 C 
BRANCH   8   9
HETATM    9  C4  UNL     1      -0.180   1.080   5.364  1.00  0.00     0.010 C 
BRANCH   9  10
HETATM   10  C3  UNL     1      -1.507   1.328   4.675  1.00  0.00     0.026 C 
BRANCH  10  11
HETATM   11  C2  UNL     1      -1.355   1.780   3.285  1.00  0.00    -0.037 C 
HETATM   12  C1  UNL     1      -0.597   1.131   2.414  1.00  0.00     0.007 C 
ENDBRANCH  10  11
ENDBRANCH   9  10
ENDBRANCH   8   9
ENDBRANCH   1   8
TORSDOF 4
ENDMDL
